MODEL 1
REMARK VINA RESULT:     -11.0      0.000      0.000
REMARK SMILES C[C@H](Nc1cccc(F)c1C(=O)NCCCCCCNC(=O)c1ccc(-c2c3nc(c(-c4ccc(S(=O)(=O)[O-])cc4)c4ccc([nH]4)c(-c4ccc(S(=O)(=O)[O-])cc4)c4nc(c(-c5ccc(S(=O)(=O)[O-])cc5)c5ccc2[nH]5)C=C4)C=C3)cc1)c1cccc(Cl)c1
REMARK SMILES IDX 16 1 15 2 14 3 13 4 11 5 12 6 10 8 4 9 5 10 6 11 8 12 7 13
REMARK SMILES IDX 9 14 3 15 2 17 1 18 83 19 84 20 89 21 85 22 87 23 86 24
REMARK SMILES IDX 88 25 17 26 18 27 19 28 20 29 21 30 22 32 23 33 24 34 82 35
REMARK SMILES IDX 25 36 81 37 26 38 27 39 28 40 75 41 29 42 80 43 74 44 76 45
REMARK SMILES IDX 30 46 79 47 73 48 72 49 31 51 61 52 42 53 60 54 43 55 46 56
REMARK SMILES IDX 59 57 77 58 44 59 45 60 58 62 78 63 47 64 32 65 33 66 41 67
REMARK SMILES IDX 34 68 40 69 35 70 36 71 37 72 38 73 39 74 62 75 63 76 71 77
REMARK SMILES IDX 64 78 70 79 65 80 66 81 67 82 68 83 69 84 48 85 49 86 57 87
REMARK SMILES IDX 50 88 56 89 51 90 52 91 53 92 54 93 55 94
REMARK H PARENT 13 7 3 16 20 31 76 50 46 61
REMARK Flexibility Score: inf
ROOT
ATOM      1  C   UNL A   1      37.522  22.274  25.702  1.00  0.00     0.002 C 
ENDROOT
BRANCH   1   2
ATOM      2  C   UNL A   1      37.192  23.650  25.117  1.00  0.00     0.021 C 
BRANCH   2   3
ATOM      3  C   UNL A   1      35.714  24.002  24.978  1.00  0.00     0.116 C 
BRANCH   3   4
ATOM      4  N   UNL A   1      35.172  23.706  23.667  1.00  0.00    -0.352 N 
ATOM      5  C   UNL A   1      33.887  23.539  23.213  1.00  0.00     0.256 C 
ATOM      6  O   UNL A   1      33.774  23.277  22.012  1.00  0.00    -0.269 OA
ATOM      7  H   UNL A   1      35.857  23.608  22.968  1.00  0.00     0.163 HD
BRANCH   5   8
ATOM      8  C   UNL A   1      32.666  23.555  24.083  1.00  0.00     0.098 A 
ATOM      9  C   UNL A   1      32.379  22.427  24.904  1.00  0.00     0.050 A 
ATOM     10  C   UNL A   1      31.330  22.507  25.837  1.00  0.00     0.027 A 
ATOM     11  C   UNL A   1      30.502  23.627  25.895  1.00  0.00     0.005 A 
ATOM     12  C   UNL A   1      31.748  24.607  24.077  1.00  0.00     0.138 A 
ATOM     13  C   UNL A   1      30.690  24.660  24.986  1.00  0.00     0.040 A 
ATOM     14  F   UNL A   1      31.793  25.570  23.147  1.00  0.00    -0.206 F 
BRANCH   9  15
ATOM     15  N   UNL A   1      33.028  21.200  24.698  1.00  0.00    -0.378 N 
ATOM     16  H   UNL A   1      33.970  21.111  24.972  1.00  0.00     0.161 HD
BRANCH  15  17
ATOM     17  C   UNL A   1      32.356  20.034  24.083  1.00  0.00     0.106 C 
ATOM     18  C   UNL A   1      32.148  20.234  22.568  1.00  0.00     0.036 C 
BRANCH  17  19
ATOM     19  C   UNL A   1      33.150  18.757  24.426  1.00  0.00    -0.025 A 
ATOM     20  C   UNL A   1      34.555  18.689  24.362  1.00  0.00     0.006 A 
ATOM     21  C   UNL A   1      32.468  17.580  24.797  1.00  0.00     0.026 A 
ATOM     22  C   UNL A   1      35.248  17.516  24.685  1.00  0.00     0.002 A 
ATOM     23  C   UNL A   1      33.163  16.417  25.141  1.00  0.00     0.041 A 
ATOM     24  C   UNL A   1      34.552  16.381  25.086  1.00  0.00     0.020 A 
ATOM     25  Cl  UNL A   1      32.297  15.017  25.640  1.00  0.00    -0.084 Cl
ENDBRANCH  17  19
ENDBRANCH  15  17
ENDBRANCH   9  15
ENDBRANCH   5   8
ENDBRANCH   3   4
ENDBRANCH   2   3
ENDBRANCH   1   2
BRANCH   1  26
ATOM     26  C   UNL A   1      37.453  21.085  24.741  1.00  0.00     0.002 C 
BRANCH  26  27
ATOM     27  C   UNL A   1      38.394  19.917  25.040  1.00  0.00     0.021 C 
BRANCH  27  28
ATOM     28  C   UNL A   1      39.506  20.203  26.043  1.00  0.00     0.116 C 
BRANCH  28  29
ATOM     29  N   UNL A   1      40.548  19.190  26.029  1.00  0.00    -0.352 N 
ATOM     30  C   UNL A   1      41.913  19.341  26.075  1.00  0.00     0.251 C 
ATOM     31  H   UNL A   1      40.229  18.260  25.980  1.00  0.00     0.163 HD
ATOM     32  O   UNL A   1      42.641  18.372  25.888  1.00  0.00    -0.269 OA
BRANCH  30  33
ATOM     33  C   UNL A   1      42.504  20.675  26.326  1.00  0.00     0.039 A 
ATOM     34  C   UNL A   1      42.925  21.441  25.236  1.00  0.00     0.014 A 
ATOM     35  C   UNL A   1      42.651  21.168  27.626  1.00  0.00     0.014 A 
ATOM     36  C   UNL A   1      43.436  22.724  25.446  1.00  0.00     0.010 A 
ATOM     37  C   UNL A   1      43.090  22.475  27.828  1.00  0.00     0.010 A 
ATOM     38  C   UNL A   1      43.491  23.266  26.741  1.00  0.00    -0.014 A 
BRANCH  38  39
ATOM     39  C   UNL A   1      43.953  24.661  26.971  1.00  0.00     0.031 A 
ATOM     40  C   UNL A   1      45.403  25.021  26.795  1.00  0.00     0.074 A 
ATOM     41  C   UNL A   1      43.075  25.590  27.398  1.00  0.00     0.049 A 
ATOM     42  N   UNL A   1      45.996  26.171  26.990  1.00  0.00    -0.248 NA
ATOM     43  C   UNL A   1      46.312  23.944  26.366  1.00  0.00     0.031 C 
ATOM     44  C   UNL A   1      41.650  25.356  27.651  1.00  0.00     0.029 A 
ATOM     45  N   UNL A   1      43.250  26.917  27.703  1.00  0.00    -0.354 N 
ATOM     46  C   UNL A   1      47.344  25.953  26.728  1.00  0.00     0.074 A 
ATOM     47  C   UNL A   1      47.489  24.550  26.406  1.00  0.00     0.031 C 
ATOM     48  C   UNL A   1      41.079  26.504  28.048  1.00  0.00     0.029 A 
ATOM     49  C   UNL A   1      42.100  27.544  28.122  1.00  0.00     0.049 A 
ATOM     50  H   UNL A   1      44.117  27.376  27.629  1.00  0.00     0.167 HD
ATOM     51  C   UNL A   1      48.366  26.843  26.738  1.00  0.00     0.031 A 
ATOM     52  C   UNL A   1      41.887  28.810  28.532  1.00  0.00     0.031 A 
ATOM     53  C   UNL A   1      48.214  28.239  27.055  1.00  0.00     0.049 A 
ATOM     54  C   UNL A   1      43.039  29.779  28.544  1.00  0.00     0.074 A 
ATOM     55  C   UNL A   1      49.177  29.235  27.030  1.00  0.00     0.029 A 
ATOM     56  N   UNL A   1      47.032  28.837  27.463  1.00  0.00    -0.354 N 
ATOM     57  N   UNL A   1      44.292  29.571  28.214  1.00  0.00    -0.248 NA
ATOM     58  C   UNL A   1      42.746  31.153  28.970  1.00  0.00     0.031 C 
ATOM     59  C   UNL A   1      48.590  30.419  27.487  1.00  0.00     0.029 A 
ATOM     60  C   UNL A   1      47.246  30.180  27.727  1.00  0.00     0.049 A 
ATOM     61  H   UNL A   1      46.166  28.375  27.553  1.00  0.00     0.167 HD
ATOM     62  C   UNL A   1      44.932  30.796  28.369  1.00  0.00     0.074 A 
ATOM     63  C   UNL A   1      43.923  31.742  28.804  1.00  0.00     0.031 C 
ATOM     64  C   UNL A   1      46.236  31.111  28.167  1.00  0.00     0.031 A 
BRANCH  51  65
ATOM     65  C   UNL A   1      49.746  26.328  26.414  1.00  0.00    -0.014 A 
ATOM     66  C   UNL A   1      50.266  26.399  25.108  1.00  0.00     0.010 A 
ATOM     67  C   UNL A   1      50.553  25.803  27.441  1.00  0.00     0.010 A 
ATOM     68  C   UNL A   1      51.545  25.912  24.827  1.00  0.00     0.020 A 
ATOM     69  C   UNL A   1      51.845  25.345  27.170  1.00  0.00     0.020 A 
ATOM     70  C   UNL A   1      52.326  25.386  25.860  1.00  0.00     0.054 A 
BRANCH  70  71
ATOM     71  S   UNL A   1      53.990  24.779  25.469  1.00  0.00     0.124 S 
ATOM     72  O   UNL A   1      53.726  23.390  25.102  1.00  0.00    -0.237 OA
ATOM     73  O   UNL A   1      54.398  25.651  24.370  1.00  0.00    -0.237 OA
ATOM     74  O   UNL A   1      54.730  24.964  26.716  1.00  0.00    -0.744 OA
ENDBRANCH  70  71
ENDBRANCH  51  65
BRANCH  52  75
ATOM     75  C   UNL A   1      40.525  29.230  28.964  1.00  0.00    -0.014 A 
ATOM     76  C   UNL A   1      40.226  29.408  30.327  1.00  0.00     0.010 A 
ATOM     77  C   UNL A   1      39.524  29.478  28.007  1.00  0.00     0.010 A 
ATOM     78  C   UNL A   1      38.948  29.812  30.724  1.00  0.00     0.020 A 
ATOM     79  C   UNL A   1      38.255  29.912  28.399  1.00  0.00     0.020 A 
ATOM     80  C   UNL A   1      37.971  30.068  29.757  1.00  0.00     0.054 A 
BRANCH  80  81
ATOM     81  S   UNL A   1      36.339  30.650  30.293  1.00  0.00     0.124 S 
ATOM     82  O   UNL A   1      35.571  30.585  29.053  1.00  0.00    -0.237 OA
ATOM     83  O   UNL A   1      35.976  29.671  31.314  1.00  0.00    -0.237 OA
ATOM     84  O   UNL A   1      36.604  31.995  30.796  1.00  0.00    -0.744 OA
ENDBRANCH  80  81
ENDBRANCH  52  75
BRANCH  64  85
ATOM     85  C   UNL A   1      46.648  32.543  28.384  1.00  0.00    -0.014 A 
ATOM     86  C   UNL A   1      46.501  33.509  27.373  1.00  0.00     0.010 A 
ATOM     87  C   UNL A   1      47.139  32.938  29.642  1.00  0.00     0.010 A 
ATOM     88  C   UNL A   1      46.868  34.837  27.606  1.00  0.00     0.020 A 
ATOM     89  C   UNL A   1      47.476  34.271  29.889  1.00  0.00     0.020 A 
ATOM     90  C   UNL A   1      47.352  35.210  28.864  1.00  0.00     0.054 A 
BRANCH  90  91
ATOM     91  S   UNL A   1      47.780  36.949  29.153  1.00  0.00     0.124 S 
ATOM     92  O   UNL A   1      46.751  37.362  30.104  1.00  0.00    -0.237 OA
ATOM     93  O   UNL A   1      49.135  36.858  29.692  1.00  0.00    -0.237 OA
ATOM     94  O   UNL A   1      47.684  37.556  27.827  1.00  0.00    -0.744 OA
ENDBRANCH  90  91
ENDBRANCH  64  85
ENDBRANCH  38  39
ENDBRANCH  30  33
ENDBRANCH  28  29
ENDBRANCH  27  28
ENDBRANCH  26  27
ENDBRANCH   1  26
TORSDOF 19
ENDMDL
MODEL 2
REMARK VINA RESULT:     -10.9      6.474      9.050
REMARK SMILES C[C@H](Nc1cccc(F)c1C(=O)NCCCCCCNC(=O)c1ccc(-c2c3nc(c(-c4ccc(S(=O)(=O)[O-])cc4)c4ccc([nH]4)c(-c4ccc(S(=O)(=O)[O-])cc4)c4nc(c(-c5ccc(S(=O)(=O)[O-])cc5)c5ccc2[nH]5)C=C4)C=C3)cc1)c1cccc(Cl)c1
REMARK SMILES IDX 16 1 15 2 14 3 13 4 11 5 12 6 10 8 4 9 5 10 6 11 8 12 7 13
REMARK SMILES IDX 9 14 3 15 2 17 1 18 83 19 84 20 89 21 85 22 87 23 86 24
REMARK SMILES IDX 88 25 17 26 18 27 19 28 20 29 21 30 22 32 23 33 24 34 82 35
REMARK SMILES IDX 25 36 81 37 26 38 27 39 28 40 75 41 29 42 80 43 74 44 76 45
REMARK SMILES IDX 30 46 79 47 73 48 72 49 31 51 61 52 42 53 60 54 43 55 46 56
REMARK SMILES IDX 59 57 77 58 44 59 45 60 58 62 78 63 47 64 32 65 33 66 41 67
REMARK SMILES IDX 34 68 40 69 35 70 36 71 37 72 38 73 39 74 62 75 63 76 71 77
REMARK SMILES IDX 64 78 70 79 65 80 66 81 67 82 68 83 69 84 48 85 49 86 57 87
REMARK SMILES IDX 50 88 56 89 51 90 52 91 53 92 54 93 55 94
REMARK H PARENT 13 7 3 16 20 31 76 50 46 61
REMARK Flexibility Score: inf
ROOT
ATOM      1  C   UNL A   1      36.353  23.346  25.881  1.00  0.00     0.002 C 
ENDROOT
BRANCH   1   2
ATOM      2  C   UNL A   1      35.704  22.952  24.551  1.00  0.00     0.021 C 
BRANCH   2   3
ATOM      3  C   UNL A   1      34.678  23.921  23.973  1.00  0.00     0.116 C 
BRANCH   3   4
ATOM      4  N   UNL A   1      34.659  25.207  24.641  1.00  0.00    -0.352 N 
ATOM      5  C   UNL A   1      33.751  25.797  25.486  1.00  0.00     0.256 C 
ATOM      6  O   UNL A   1      34.043  26.932  25.875  1.00  0.00    -0.269 OA
ATOM      7  H   UNL A   1      35.448  25.763  24.454  1.00  0.00     0.163 HD
BRANCH   5   8
ATOM      8  C   UNL A   1      32.430  25.203  25.868  1.00  0.00     0.098 A 
ATOM      9  C   UNL A   1      31.231  25.900  25.543  1.00  0.00     0.050 A 
ATOM     10  C   UNL A   1      29.991  25.269  25.753  1.00  0.00     0.027 A 
ATOM     11  C   UNL A   1      29.915  24.023  26.372  1.00  0.00     0.005 A 
ATOM     12  C   UNL A   1      32.316  24.017  26.596  1.00  0.00     0.138 A 
ATOM     13  C   UNL A   1      31.078  23.417  26.829  1.00  0.00     0.040 A 
ATOM     14  F   UNL A   1      33.381  23.446  27.174  1.00  0.00    -0.206 F 
BRANCH   9  15
ATOM     15  N   UNL A   1      31.263  27.248  25.154  1.00  0.00    -0.378 N 
ATOM     16  H   UNL A   1      31.331  27.940  25.852  1.00  0.00     0.161 HD
BRANCH  15  17
ATOM     17  C   UNL A   1      31.195  27.673  23.738  1.00  0.00     0.106 C 
ATOM     18  C   UNL A   1      31.368  26.477  22.779  1.00  0.00     0.036 C 
BRANCH  17  19
ATOM     19  C   UNL A   1      29.884  28.452  23.509  1.00  0.00    -0.025 A 
ATOM     20  C   UNL A   1      28.636  27.820  23.345  1.00  0.00     0.006 A 
ATOM     21  C   UNL A   1      29.905  29.860  23.428  1.00  0.00     0.026 A 
ATOM     22  C   UNL A   1      27.462  28.556  23.144  1.00  0.00     0.002 A 
ATOM     23  C   UNL A   1      28.729  30.593  23.250  1.00  0.00     0.041 A 
ATOM     24  C   UNL A   1      27.506  29.945  23.108  1.00  0.00     0.020 A 
ATOM     25  Cl  UNL A   1      28.788  32.313  23.209  1.00  0.00    -0.084 Cl
ENDBRANCH  17  19
ENDBRANCH  15  17
ENDBRANCH   9  15
ENDBRANCH   5   8
ENDBRANCH   3   4
ENDBRANCH   2   3
ENDBRANCH   1   2
BRANCH   1  26
ATOM     26  C   UNL A   1      37.827  23.753  25.831  1.00  0.00     0.002 C 
BRANCH  26  27
ATOM     27  C   UNL A   1      38.816  22.799  26.502  1.00  0.00     0.021 C 
BRANCH  27  28
ATOM     28  C   UNL A   1      40.058  23.447  27.104  1.00  0.00     0.116 C 
BRANCH  28  29
ATOM     29  N   UNL A   1      40.955  23.986  26.096  1.00  0.00    -0.352 N 
ATOM     30  C   UNL A   1      41.454  25.260  25.963  1.00  0.00     0.251 C 
ATOM     31  H   UNL A   1      41.248  23.346  25.409  1.00  0.00     0.163 HD
ATOM     32  O   UNL A   1      42.070  25.571  24.950  1.00  0.00    -0.269 OA
BRANCH  30  33
ATOM     33  C   UNL A   1      41.225  26.261  27.030  1.00  0.00     0.039 A 
ATOM     34  C   UNL A   1      40.282  25.984  28.023  1.00  0.00     0.014 A 
ATOM     35  C   UNL A   1      41.927  27.470  27.050  1.00  0.00     0.014 A 
ATOM     36  C   UNL A   1      40.089  26.890  29.068  1.00  0.00     0.010 A 
ATOM     37  C   UNL A   1      41.788  28.336  28.132  1.00  0.00     0.010 A 
ATOM     38  C   UNL A   1      40.865  28.058  29.151  1.00  0.00    -0.014 A 
BRANCH  38  39
ATOM     39  C   UNL A   1      40.729  28.990  30.302  1.00  0.00     0.031 A 
ATOM     40  C   UNL A   1      41.615  28.841  31.510  1.00  0.00     0.074 A 
ATOM     41  C   UNL A   1      39.765  29.932  30.285  1.00  0.00     0.049 A 
ATOM     42  N   UNL A   1      41.614  29.530  32.622  1.00  0.00    -0.248 NA
ATOM     43  C   UNL A   1      42.617  27.763  31.475  1.00  0.00     0.031 C 
ATOM     44  C   UNL A   1      38.813  30.149  29.193  1.00  0.00     0.029 A 
ATOM     45  N   UNL A   1      39.421  30.880  31.217  1.00  0.00    -0.354 N 
ATOM     46  C   UNL A   1      42.596  28.960  33.424  1.00  0.00     0.074 A 
ATOM     47  C   UNL A   1      43.140  27.838  32.689  1.00  0.00     0.031 C 
ATOM     48  C   UNL A   1      38.011  31.178  29.507  1.00  0.00     0.029 A 
ATOM     49  C   UNL A   1      38.359  31.666  30.837  1.00  0.00     0.049 A 
ATOM     50  H   UNL A   1      39.890  30.986  32.075  1.00  0.00     0.167 HD
ATOM     51  C   UNL A   1      43.019  29.344  34.652  1.00  0.00     0.031 A 
ATOM     52  C   UNL A   1      37.724  32.662  31.488  1.00  0.00     0.031 A 
ATOM     53  C   UNL A   1      42.477  30.464  35.376  1.00  0.00     0.049 A 
ATOM     54  C   UNL A   1      38.205  33.066  32.854  1.00  0.00     0.074 A 
ATOM     55  C   UNL A   1      42.881  30.973  36.599  1.00  0.00     0.029 A 
ATOM     56  N   UNL A   1      41.409  31.242  34.953  1.00  0.00    -0.354 N 
ATOM     57  N   UNL A   1      39.190  32.565  33.561  1.00  0.00    -0.248 NA
ATOM     58  C   UNL A   1      37.499  34.176  33.506  1.00  0.00     0.031 C 
ATOM     59  C   UNL A   1      42.015  32.016  36.944  1.00  0.00     0.029 A 
ATOM     60  C   UNL A   1      41.118  32.205  35.905  1.00  0.00     0.049 A 
ATOM     61  H   UNL A   1      40.929  31.126  34.101  1.00  0.00     0.167 HD
ATOM     62  C   UNL A   1      39.238  33.316  34.731  1.00  0.00     0.074 A 
ATOM     63  C   UNL A   1      38.194  34.316  34.626  1.00  0.00     0.031 C 
ATOM     64  C   UNL A   1      40.072  33.191  35.794  1.00  0.00     0.031 A 
BRANCH  51  65
ATOM     65  C   UNL A   1      44.113  28.534  35.302  1.00  0.00    -0.014 A 
ATOM     66  C   UNL A   1      45.470  28.872  35.140  1.00  0.00     0.010 A 
ATOM     67  C   UNL A   1      43.776  27.440  36.122  1.00  0.00     0.010 A 
ATOM     68  C   UNL A   1      46.468  28.105  35.747  1.00  0.00     0.020 A 
ATOM     69  C   UNL A   1      44.770  26.691  36.757  1.00  0.00     0.020 A 
ATOM     70  C   UNL A   1      46.113  27.018  36.550  1.00  0.00     0.054 A 
BRANCH  70  71
ATOM     71  S   UNL A   1      47.430  26.053  37.339  1.00  0.00     0.124 S 
ATOM     72  O   UNL A   1      48.503  27.038  37.445  1.00  0.00    -0.237 OA
ATOM     73  O   UNL A   1      46.818  25.654  38.605  1.00  0.00    -0.237 OA
ATOM     74  O   UNL A   1      47.675  24.963  36.398  1.00  0.00    -0.744 OA
ENDBRANCH  70  71
ENDBRANCH  51  65
BRANCH  52  75
ATOM     75  C   UNL A   1      36.565  33.344  30.848  1.00  0.00    -0.014 A 
ATOM     76  C   UNL A   1      35.340  33.469  31.527  1.00  0.00     0.010 A 
ATOM     77  C   UNL A   1      36.690  33.894  29.559  1.00  0.00     0.010 A 
ATOM     78  C   UNL A   1      34.259  34.119  30.924  1.00  0.00     0.020 A 
ATOM     79  C   UNL A   1      35.622  34.572  28.966  1.00  0.00     0.020 A 
ATOM     80  C   UNL A   1      34.408  34.673  29.649  1.00  0.00     0.054 A 
BRANCH  80  81
ATOM     81  S   UNL A   1      33.011  35.565  28.912  1.00  0.00     0.124 S 
ATOM     82  O   UNL A   1      32.409  34.540  28.065  1.00  0.00    -0.237 OA
ATOM     83  O   UNL A   1      32.234  35.955  30.085  1.00  0.00    -0.237 OA
ATOM     84  O   UNL A   1      33.649  36.671  28.201  1.00  0.00    -0.744 OA
ENDBRANCH  80  81
ENDBRANCH  52  75
BRANCH  64  85
ATOM     85  C   UNL A   1      39.914  34.178  36.922  1.00  0.00    -0.014 A 
ATOM     86  C   UNL A   1      40.567  35.422  36.903  1.00  0.00     0.010 A 
ATOM     87  C   UNL A   1      39.052  33.872  37.991  1.00  0.00     0.010 A 
ATOM     88  C   UNL A   1      40.386  36.331  37.949  1.00  0.00     0.020 A 
ATOM     89  C   UNL A   1      38.843  34.791  39.023  1.00  0.00     0.020 A 
ATOM     90  C   UNL A   1      39.523  36.010  39.002  1.00  0.00     0.054 A 
BRANCH  90  91
ATOM     91  S   UNL A   1      39.272  37.224  40.326  1.00  0.00     0.124 S 
ATOM     92  O   UNL A   1      38.510  36.455  41.305  1.00  0.00    -0.237 OA
ATOM     93  O   UNL A   1      40.641  37.558  40.715  1.00  0.00    -0.237 OA
ATOM     94  O   UNL A   1      38.537  38.304  39.672  1.00  0.00    -0.744 OA
ENDBRANCH  90  91
ENDBRANCH  64  85
ENDBRANCH  38  39
ENDBRANCH  30  33
ENDBRANCH  28  29
ENDBRANCH  27  28
ENDBRANCH  26  27
ENDBRANCH   1  26
TORSDOF 19
ENDMDL
MODEL 3
REMARK VINA RESULT:     -10.6      2.170      8.459
REMARK SMILES C[C@H](Nc1cccc(F)c1C(=O)NCCCCCCNC(=O)c1ccc(-c2c3nc(c(-c4ccc(S(=O)(=O)[O-])cc4)c4ccc([nH]4)c(-c4ccc(S(=O)(=O)[O-])cc4)c4nc(c(-c5ccc(S(=O)(=O)[O-])cc5)c5ccc2[nH]5)C=C4)C=C3)cc1)c1cccc(Cl)c1
REMARK SMILES IDX 16 1 15 2 14 3 13 4 11 5 12 6 10 8 4 9 5 10 6 11 8 12 7 13
REMARK SMILES IDX 9 14 3 15 2 17 1 18 83 19 84 20 89 21 85 22 87 23 86 24
REMARK SMILES IDX 88 25 17 26 18 27 19 28 20 29 21 30 22 32 23 33 24 34 82 35
REMARK SMILES IDX 25 36 81 37 26 38 27 39 28 40 75 41 29 42 80 43 74 44 76 45
REMARK SMILES IDX 30 46 79 47 73 48 72 49 31 51 61 52 42 53 60 54 43 55 46 56
REMARK SMILES IDX 59 57 77 58 44 59 45 60 58 62 78 63 47 64 32 65 33 66 41 67
REMARK SMILES IDX 34 68 40 69 35 70 36 71 37 72 38 73 39 74 62 75 63 76 71 77
REMARK SMILES IDX 64 78 70 79 65 80 66 81 67 82 68 83 69 84 48 85 49 86 57 87
REMARK SMILES IDX 50 88 56 89 51 90 52 91 53 92 54 93 55 94
REMARK H PARENT 13 7 3 16 20 31 76 50 46 61
REMARK Flexibility Score: inf
ROOT
ATOM      1  C   UNL A   1      33.343  27.577  26.584  1.00  0.00     0.002 C 
ENDROOT
BRANCH   1   2
ATOM      2  C   UNL A   1      32.175  26.675  26.173  1.00  0.00     0.021 C 
BRANCH   2   3
ATOM      3  C   UNL A   1      32.513  25.230  25.818  1.00  0.00     0.116 C 
BRANCH   3   4
ATOM      4  N   UNL A   1      32.876  25.049  24.427  1.00  0.00    -0.352 N 
ATOM      5  C   UNL A   1      33.907  24.374  23.821  1.00  0.00     0.256 C 
ATOM      6  O   UNL A   1      33.932  24.432  22.588  1.00  0.00    -0.269 OA
ATOM      7  H   UNL A   1      32.267  25.494  23.797  1.00  0.00     0.163 HD
BRANCH   5   8
ATOM      8  C   UNL A   1      35.018  23.681  24.549  1.00  0.00     0.098 A 
ATOM      9  C   UNL A   1      35.118  22.262  24.484  1.00  0.00     0.050 A 
ATOM     10  C   UNL A   1      36.248  21.627  25.029  1.00  0.00     0.027 A 
ATOM     11  C   UNL A   1      37.215  22.352  25.725  1.00  0.00     0.005 A 
ATOM     12  C   UNL A   1      35.933  24.361  25.356  1.00  0.00     0.138 A 
ATOM     13  C   UNL A   1      37.033  23.714  25.921  1.00  0.00     0.040 A 
ATOM     14  F   UNL A   1      35.751  25.645  25.692  1.00  0.00    -0.206 F 
BRANCH   9  15
ATOM     15  N   UNL A   1      34.047  21.484  24.016  1.00  0.00    -0.378 N 
ATOM     16  H   UNL A   1      33.802  21.542  23.063  1.00  0.00     0.161 HD
BRANCH  15  17
ATOM     17  C   UNL A   1      33.271  20.582  24.895  1.00  0.00     0.106 C 
ATOM     18  C   UNL A   1      31.804  21.041  25.023  1.00  0.00     0.036 C 
BRANCH  17  19
ATOM     19  C   UNL A   1      33.413  19.135  24.381  1.00  0.00    -0.025 A 
ATOM     20  C   UNL A   1      32.689  18.637  23.281  1.00  0.00     0.006 A 
ATOM     21  C   UNL A   1      34.278  18.235  25.038  1.00  0.00     0.026 A 
ATOM     22  C   UNL A   1      32.845  17.320  22.835  1.00  0.00     0.002 A 
ATOM     23  C   UNL A   1      34.449  16.927  24.578  1.00  0.00     0.041 A 
ATOM     24  C   UNL A   1      33.734  16.466  23.478  1.00  0.00     0.020 A 
ATOM     25  Cl  UNL A   1      35.553  15.875  25.374  1.00  0.00    -0.084 Cl
ENDBRANCH  17  19
ENDBRANCH  15  17
ENDBRANCH   9  15
ENDBRANCH   5   8
ENDBRANCH   3   4
ENDBRANCH   2   3
ENDBRANCH   1   2
BRANCH   1  26
ATOM     26  C   UNL A   1      33.273  29.038  26.135  1.00  0.00     0.002 C 
BRANCH  26  27
ATOM     27  C   UNL A   1      34.230  30.007  26.831  1.00  0.00     0.021 C 
BRANCH  27  28
ATOM     28  C   UNL A   1      35.268  29.369  27.746  1.00  0.00     0.116 C 
BRANCH  28  29
ATOM     29  N   UNL A   1      35.304  29.978  29.065  1.00  0.00    -0.352 N 
ATOM     30  C   UNL A   1      36.334  30.033  29.974  1.00  0.00     0.251 C 
ATOM     31  H   UNL A   1      34.470  30.417  29.348  1.00  0.00     0.163 HD
ATOM     32  O   UNL A   1      36.126  30.451  31.107  1.00  0.00    -0.269 OA
BRANCH  30  33
ATOM     33  C   UNL A   1      37.686  29.565  29.591  1.00  0.00     0.039 A 
ATOM     34  C   UNL A   1      38.132  29.788  28.286  1.00  0.00     0.014 A 
ATOM     35  C   UNL A   1      38.509  28.903  30.508  1.00  0.00     0.014 A 
ATOM     36  C   UNL A   1      39.423  29.402  27.918  1.00  0.00     0.010 A 
ATOM     37  C   UNL A   1      39.821  28.588  30.162  1.00  0.00     0.010 A 
ATOM     38  C   UNL A   1      40.292  28.830  28.863  1.00  0.00    -0.014 A 
BRANCH  38  39
ATOM     39  C   UNL A   1      41.696  28.493  28.508  1.00  0.00     0.031 A 
ATOM     40  C   UNL A   1      42.747  29.568  28.457  1.00  0.00     0.074 A 
ATOM     41  C   UNL A   1      42.011  27.226  28.172  1.00  0.00     0.049 A 
ATOM     42  N   UNL A   1      44.010  29.471  28.129  1.00  0.00    -0.248 NA
ATOM     43  C   UNL A   1      42.321  30.936  28.797  1.00  0.00     0.031 C 
ATOM     44  C   UNL A   1      41.072  26.101  28.138  1.00  0.00     0.029 A 
ATOM     45  N   UNL A   1      43.205  26.670  27.787  1.00  0.00    -0.354 N 
ATOM     46  C   UNL A   1      44.523  30.761  28.202  1.00  0.00     0.074 A 
ATOM     47  C   UNL A   1      43.424  31.631  28.561  1.00  0.00     0.031 C 
ATOM     48  C   UNL A   1      41.731  24.989  27.778  1.00  0.00     0.029 A 
ATOM     49  C   UNL A   1      43.126  25.325  27.512  1.00  0.00     0.049 A 
ATOM     50  H   UNL A   1      44.041  27.186  27.715  1.00  0.00     0.167 HD
ATOM     51  C   UNL A   1      45.796  31.182  28.006  1.00  0.00     0.031 A 
ATOM     52  C   UNL A   1      44.064  24.458  27.082  1.00  0.00     0.031 A 
ATOM     53  C   UNL A   1      46.887  30.310  27.654  1.00  0.00     0.049 A 
ATOM     54  C   UNL A   1      45.469  24.949  26.862  1.00  0.00     0.074 A 
ATOM     55  C   UNL A   1      48.225  30.629  27.496  1.00  0.00     0.029 A 
ATOM     56  N   UNL A   1      46.767  28.953  27.395  1.00  0.00    -0.354 N 
ATOM     57  N   UNL A   1      45.951  26.160  27.016  1.00  0.00    -0.248 NA
ATOM     58  C   UNL A   1      46.459  23.957  26.424  1.00  0.00     0.031 C 
ATOM     59  C   UNL A   1      48.901  29.479  27.077  1.00  0.00     0.029 A 
ATOM     60  C   UNL A   1      47.999  28.427  27.045  1.00  0.00     0.049 A 
ATOM     61  H   UNL A   1      45.929  28.439  27.451  1.00  0.00     0.167 HD
ATOM     62  C   UNL A   1      47.306  26.069  26.717  1.00  0.00     0.074 A 
ATOM     63  C   UNL A   1      47.569  24.681  26.392  1.00  0.00     0.031 C 
ATOM     64  C   UNL A   1      48.248  27.045  26.715  1.00  0.00     0.031 A 
BRANCH  51  65
ATOM     65  C   UNL A   1      46.076  32.656  28.149  1.00  0.00    -0.014 A 
ATOM     66  C   UNL A   1      46.461  33.212  29.384  1.00  0.00     0.010 A 
ATOM     67  C   UNL A   1      45.993  33.495  27.022  1.00  0.00     0.010 A 
ATOM     68  C   UNL A   1      46.712  34.582  29.497  1.00  0.00     0.020 A 
ATOM     69  C   UNL A   1      46.275  34.859  27.124  1.00  0.00     0.020 A 
ATOM     70  C   UNL A   1      46.615  35.398  28.367  1.00  0.00     0.054 A 
BRANCH  70  71
ATOM     71  S   UNL A   1      46.965  37.169  28.540  1.00  0.00     0.124 S 
ATOM     72  O   UNL A   1      46.637  37.405  29.944  1.00  0.00    -0.237 OA
ATOM     73  O   UNL A   1      48.385  37.248  28.205  1.00  0.00    -0.237 OA
ATOM     74  O   UNL A   1      46.064  37.798  27.576  1.00  0.00    -0.744 OA
ENDBRANCH  70  71
ENDBRANCH  51  65
BRANCH  52  75
ATOM     75  C   UNL A   1      43.699  23.035  26.834  1.00  0.00    -0.014 A 
ATOM     76  C   UNL A   1      42.953  22.309  27.779  1.00  0.00     0.010 A 
ATOM     77  C   UNL A   1      44.077  22.406  25.634  1.00  0.00     0.010 A 
ATOM     78  C   UNL A   1      42.605  20.977  27.535  1.00  0.00     0.020 A 
ATOM     79  C   UNL A   1      43.704  21.086  25.372  1.00  0.00     0.020 A 
ATOM     80  C   UNL A   1      42.978  20.375  26.329  1.00  0.00     0.054 A 
BRANCH  80  81
ATOM     81  S   UNL A   1      42.462  18.665  26.008  1.00  0.00     0.124 S 
ATOM     82  O   UNL A   1      41.057  18.833  25.652  1.00  0.00    -0.237 OA
ATOM     83  O   UNL A   1      43.349  18.270  24.917  1.00  0.00    -0.237 OA
ATOM     84  O   UNL A   1      42.711  17.989  27.279  1.00  0.00    -0.744 OA
ENDBRANCH  80  81
ENDBRANCH  52  75
BRANCH  64  85
ATOM     85  C   UNL A   1      49.662  26.647  26.379  1.00  0.00    -0.014 A 
ATOM     86  C   UNL A   1      50.164  26.767  25.072  1.00  0.00     0.010 A 
ATOM     87  C   UNL A   1      50.516  26.199  27.403  1.00  0.00     0.010 A 
ATOM     88  C   UNL A   1      51.487  26.414  24.788  1.00  0.00     0.020 A 
ATOM     89  C   UNL A   1      51.848  25.876  27.130  1.00  0.00     0.020 A 
ATOM     90  C   UNL A   1      52.321  25.973  25.820  1.00  0.00     0.054 A 
BRANCH  90  91
ATOM     91  S   UNL A   1      54.045  25.563  25.434  1.00  0.00     0.124 S 
ATOM     92  O   UNL A   1      53.929  24.194  24.939  1.00  0.00    -0.237 OA
ATOM     93  O   UNL A   1      54.395  26.567  24.432  1.00  0.00    -0.237 OA
ATOM     94  O   UNL A   1      54.732  25.706  26.715  1.00  0.00    -0.744 OA
ENDBRANCH  90  91
ENDBRANCH  64  85
ENDBRANCH  38  39
ENDBRANCH  30  33
ENDBRANCH  28  29
ENDBRANCH  27  28
ENDBRANCH  26  27
ENDBRANCH   1  26
TORSDOF 19
ENDMDL
