MODEL 1
REMARK VINA RESULT:     -10.7      0.000      0.000
REMARK SMILES O=C(NCCCCCCNC(=O)[C@H]1C[NH2+]CCN1c1ncc(C(F)(F)F)cc1Cl)c1ccc(-c2c3nc(c(-c4ccc(S(=O)(=O)[O-])cc4)c4ccc([nH]4)c(-c4ccc(S(=O)(=O)[O-])cc4)c4nc(c(-c5ccc(S(=O)(=O)[O-])cc5)c5ccc2[nH]5)C=C4)C=C3)cc1
REMARK SMILES IDX 6 1 5 2 4 3 3 4 1 5 2 6 30 8 31 9 89 10 32 11 88 12 33 13
REMARK SMILES IDX 34 14 35 15 82 16 36 17 87 18 81 19 83 20 37 21 86 22 80 23
REMARK SMILES IDX 79 24 38 26 68 27 49 28 67 29 50 30 53 31 66 32 84 33 51 34
REMARK SMILES IDX 52 35 65 37 85 38 54 39 39 40 40 41 48 42 41 43 47 44 42 45
REMARK SMILES IDX 43 46 44 47 45 48 46 49 69 50 70 51 78 52 71 53 77 54 72 55
REMARK SMILES IDX 73 56 74 57 75 58 76 59 55 60 56 61 64 62 57 63 63 64 58 65
REMARK SMILES IDX 59 66 60 67 61 68 62 69 7 70 8 71 9 72 10 73 11 74 12 76
REMARK SMILES IDX 13 77 14 78 18 79 15 80 17 81 16 82 19 85 20 86 28 87 21 88
REMARK SMILES IDX 27 89 29 90 22 91 23 92 24 93 25 94 26 95
REMARK H PARENT 3 7 83 25 53 36 10 75 15 83 15 84
REMARK Flexibility Score: inf
ROOT
ATOM      1  C   UNL A   1      33.883  28.343  23.503  1.00  0.00     0.002 C 
ENDROOT
BRANCH   1   2
ATOM      2  C   UNL A   1      33.195  27.964  24.815  1.00  0.00     0.021 C 
BRANCH   2   3
ATOM      3  C   UNL A   1      34.009  28.293  26.060  1.00  0.00     0.116 C 
BRANCH   3   4
ATOM      4  N   UNL A   1      33.635  29.585  26.615  1.00  0.00    -0.352 N 
ATOM      5  O   UNL A   1      33.706  31.266  28.121  1.00  0.00    -0.269 OA
ATOM      6  C   UNL A   1      34.279  30.327  27.573  1.00  0.00     0.251 C 
ATOM      7  H   UNL A   1      32.809  29.981  26.254  1.00  0.00     0.163 HD
BRANCH   6   8
ATOM      8  C   UNL A   1      35.665  29.978  27.942  1.00  0.00     0.039 A 
ATOM      9  C   UNL A   1      35.952  29.526  29.233  1.00  0.00     0.014 A 
ATOM     10  C   UNL A   1      36.683  30.100  26.994  1.00  0.00     0.014 A 
ATOM     11  C   UNL A   1      37.270  29.318  29.615  1.00  0.00     0.010 A 
ATOM     12  C   UNL A   1      38.000  29.805  27.355  1.00  0.00     0.010 A 
ATOM     13  C   UNL A   1      38.305  29.432  28.674  1.00  0.00    -0.014 A 
BRANCH  13  14
ATOM     14  C   UNL A   1      39.692  29.082  29.072  1.00  0.00     0.031 A 
ATOM     15  C   UNL A   1      40.562  30.063  29.806  1.00  0.00     0.074 A 
ATOM     16  C   UNL A   1      40.155  27.855  28.767  1.00  0.00     0.049 A 
ATOM     17  N   UNL A   1      41.796  29.916  30.216  1.00  0.00    -0.248 NA
ATOM     18  C   UNL A   1      39.978  31.378  30.115  1.00  0.00     0.031 C 
ATOM     19  C   UNL A   1      39.398  26.820  28.056  1.00  0.00     0.029 A 
ATOM     20  N   UNL A   1      41.364  27.262  29.022  1.00  0.00    -0.354 N 
ATOM     21  C   UNL A   1      42.146  31.122  30.812  1.00  0.00     0.074 A 
ATOM     22  C   UNL A   1      41.000  31.999  30.688  1.00  0.00     0.031 C 
ATOM     23  C   UNL A   1      40.142  25.709  27.970  1.00  0.00     0.029 A 
ATOM     24  C   UNL A   1      41.453  25.973  28.552  1.00  0.00     0.049 A 
ATOM     25  H   UNL A   1      42.098  27.714  29.498  1.00  0.00     0.167 HD
ATOM     26  C   UNL A   1      43.315  31.464  31.408  1.00  0.00     0.031 A 
ATOM     27  C   UNL A   1      42.480  25.104  28.560  1.00  0.00     0.031 A 
ATOM     28  C   UNL A   1      44.451  30.584  31.514  1.00  0.00     0.049 A 
ATOM     29  C   UNL A   1      43.777  25.523  29.185  1.00  0.00     0.074 A 
ATOM     30  C   UNL A   1      45.672  30.826  32.122  1.00  0.00     0.029 A 
ATOM     31  N   UNL A   1      44.513  29.299  30.994  1.00  0.00    -0.354 N 
ATOM     32  N   UNL A   1      44.079  26.658  29.771  1.00  0.00    -0.248 NA
ATOM     33  C   UNL A   1      44.873  24.548  29.153  1.00  0.00     0.031 C 
ATOM     34  C   UNL A   1      46.491  29.711  31.916  1.00  0.00     0.029 A 
ATOM     35  C   UNL A   1      45.760  28.747  31.241  1.00  0.00     0.049 A 
ATOM     36  H   UNL A   1      43.780  28.847  30.518  1.00  0.00     0.167 HD
ATOM     37  C   UNL A   1      45.394  26.523  30.200  1.00  0.00     0.074 A 
ATOM     38  C   UNL A   1      45.822  25.192  29.820  1.00  0.00     0.031 C 
ATOM     39  C   UNL A   1      46.173  27.421  30.851  1.00  0.00     0.031 A 
BRANCH  26  40
ATOM     40  C   UNL A   1      43.437  32.861  31.960  1.00  0.00    -0.014 A 
ATOM     41  C   UNL A   1      43.945  33.917  31.180  1.00  0.00     0.010 A 
ATOM     42  C   UNL A   1      42.999  33.133  33.270  1.00  0.00     0.010 A 
ATOM     43  C   UNL A   1      44.052  35.205  31.714  1.00  0.00     0.020 A 
ATOM     44  C   UNL A   1      43.076  34.426  33.797  1.00  0.00     0.020 A 
ATOM     45  C   UNL A   1      43.621  35.450  33.021  1.00  0.00     0.054 A 
BRANCH  45  46
ATOM     46  S   UNL A   1      43.764  37.133  33.682  1.00  0.00     0.124 S 
ATOM     47  O   UNL A   1      45.012  37.054  34.437  1.00  0.00    -0.237 OA
ATOM     48  O   UNL A   1      43.814  37.950  32.472  1.00  0.00    -0.237 OA
ATOM     49  O   UNL A   1      42.557  37.294  34.489  1.00  0.00    -0.744 OA
ENDBRANCH  45  46
ENDBRANCH  26  40
BRANCH  27  50
ATOM     50  C   UNL A   1      42.313  23.764  27.939  1.00  0.00    -0.014 A 
ATOM     51  C   UNL A   1      42.637  23.554  26.587  1.00  0.00     0.010 A 
ATOM     52  C   UNL A   1      41.865  22.675  28.712  1.00  0.00     0.010 A 
ATOM     53  C   UNL A   1      42.506  22.284  26.018  1.00  0.00     0.020 A 
ATOM     54  C   UNL A   1      41.763  21.399  28.156  1.00  0.00     0.020 A 
ATOM     55  C   UNL A   1      42.075  21.213  26.807  1.00  0.00     0.054 A 
BRANCH  55  56
ATOM     56  S   UNL A   1      41.970  19.564  26.061  1.00  0.00     0.124 S 
ATOM     57  O   UNL A   1      42.463  18.712  27.138  1.00  0.00    -0.237 OA
ATOM     58  O   UNL A   1      40.545  19.445  25.760  1.00  0.00    -0.237 OA
ATOM     59  O   UNL A   1      42.839  19.662  24.890  1.00  0.00    -0.744 OA
ENDBRANCH  55  56
ENDBRANCH  27  50
BRANCH  39  60
ATOM     60  C   UNL A   1      47.563  26.979  31.228  1.00  0.00    -0.014 A 
ATOM     61  C   UNL A   1      48.671  27.272  30.414  1.00  0.00     0.010 A 
ATOM     62  C   UNL A   1      47.765  26.299  32.443  1.00  0.00     0.010 A 
ATOM     63  C   UNL A   1      49.952  26.865  30.794  1.00  0.00     0.020 A 
ATOM     64  C   UNL A   1      49.047  25.917  32.841  1.00  0.00     0.020 A 
ATOM     65  C   UNL A   1      50.133  26.191  32.006  1.00  0.00     0.054 A 
BRANCH  65  66
ATOM     66  S   UNL A   1      51.812  25.713  32.497  1.00  0.00     0.124 S 
ATOM     67  O   UNL A   1      51.564  24.525  33.309  1.00  0.00    -0.237 OA
ATOM     68  O   UNL A   1      52.465  25.473  31.213  1.00  0.00    -0.237 OA
ATOM     69  O   UNL A   1      52.302  26.878  33.231  1.00  0.00    -0.744 OA
ENDBRANCH  65  66
ENDBRANCH  39  60
ENDBRANCH  13  14
ENDBRANCH   6   8
ENDBRANCH   3   4
ENDBRANCH   2   3
ENDBRANCH   1   2
BRANCH   1  70
ATOM     70  C   UNL A   1      33.620  27.378  22.344  1.00  0.00     0.002 C 
BRANCH  70  71
ATOM     71  C   UNL A   1      33.843  25.897  22.679  1.00  0.00     0.021 C 
BRANCH  71  72
ATOM     72  C   UNL A   1      32.780  24.968  22.090  1.00  0.00     0.116 C 
BRANCH  72  73
ATOM     73  N   UNL A   1      31.470  25.284  22.609  1.00  0.00    -0.354 N 
ATOM     74  C   UNL A   1      30.925  25.111  23.841  1.00  0.00     0.248 C 
ATOM     75  H   UNL A   1      30.865  25.700  21.953  1.00  0.00     0.163 HD
ATOM     76  O   UNL A   1      29.730  25.435  23.920  1.00  0.00    -0.272 OA
BRANCH  74  77
ATOM     77  C   UNL A   1      31.717  24.662  25.111  1.00  0.00     0.228 C 
ATOM     78  C   UNL A   1      30.994  25.275  26.358  1.00  0.00     0.296 C 
ATOM     79  N   UNL A   1      31.833  23.200  25.308  1.00  0.00    -0.333 N 
ATOM     80  N   UNL A   1      29.712  24.615  26.721  1.00  0.00    -0.343 N 
ATOM     81  C   UNL A   1      30.618  22.480  25.682  1.00  0.00     0.180 C 
ATOM     82  C   UNL A   1      29.939  23.165  26.891  1.00  0.00     0.282 C 
ATOM     83  H   UNL A   1      29.028  24.768  25.979  1.00  0.00     0.346 HD
ATOM     84  H   UNL A   1      29.360  25.010  27.593  1.00  0.00     0.346 HD
BRANCH  79  85
ATOM     85  C   UNL A   1      33.040  22.536  25.354  1.00  0.00     0.148 A 
ATOM     86  N   UNL A   1      33.588  22.244  24.145  1.00  0.00    -0.237 NA
ATOM     87  C   UNL A   1      33.747  22.217  26.526  1.00  0.00     0.084 A 
ATOM     88  C   UNL A   1      34.860  21.770  24.085  1.00  0.00     0.126 A 
ATOM     89  C   UNL A   1      35.044  21.698  26.440  1.00  0.00     0.039 A 
ATOM     90  Cl  UNL A   1      33.098  22.363  28.118  1.00  0.00    -0.080 Cl
ATOM     91  C   UNL A   1      35.636  21.499  25.195  1.00  0.00     0.075 A 
BRANCH  91  92
ATOM     92  C   UNL A   1      37.059  21.054  25.042  1.00  0.00     0.417 C 
ATOM     93  F   UNL A   1      37.868  21.529  26.024  1.00  0.00    -0.166 F 
ATOM     94  F   UNL A   1      37.172  19.700  25.071  1.00  0.00    -0.166 F 
ATOM     95  F   UNL A   1      37.617  21.453  23.866  1.00  0.00    -0.166 F 
ENDBRANCH  91  92
ENDBRANCH  79  85
ENDBRANCH  74  77
ENDBRANCH  72  73
ENDBRANCH  71  72
ENDBRANCH  70  71
ENDBRANCH   1  70
TORSDOF 18
ENDMDL
MODEL 2
REMARK VINA RESULT:     -10.6      3.552      8.947
REMARK SMILES O=C(NCCCCCCNC(=O)[C@H]1C[NH2+]CCN1c1ncc(C(F)(F)F)cc1Cl)c1ccc(-c2c3nc(c(-c4ccc(S(=O)(=O)[O-])cc4)c4ccc([nH]4)c(-c4ccc(S(=O)(=O)[O-])cc4)c4nc(c(-c5ccc(S(=O)(=O)[O-])cc5)c5ccc2[nH]5)C=C4)C=C3)cc1
REMARK SMILES IDX 6 1 5 2 4 3 3 4 1 5 2 6 30 8 31 9 89 10 32 11 88 12 33 13
REMARK SMILES IDX 34 14 35 15 82 16 36 17 87 18 81 19 83 20 37 21 86 22 80 23
REMARK SMILES IDX 79 24 38 26 68 27 49 28 67 29 50 30 53 31 66 32 84 33 51 34
REMARK SMILES IDX 52 35 65 37 85 38 54 39 39 40 40 41 48 42 41 43 47 44 42 45
REMARK SMILES IDX 43 46 44 47 45 48 46 49 69 50 70 51 78 52 71 53 77 54 72 55
REMARK SMILES IDX 73 56 74 57 75 58 76 59 55 60 56 61 64 62 57 63 63 64 58 65
REMARK SMILES IDX 59 66 60 67 61 68 62 69 7 70 8 71 9 72 10 73 11 74 12 76
REMARK SMILES IDX 13 77 14 78 18 79 15 80 17 81 16 82 19 85 20 86 28 87 21 88
REMARK SMILES IDX 27 89 29 90 22 91 23 92 24 93 25 94 26 95
REMARK H PARENT 3 7 83 25 53 36 10 75 15 83 15 84
REMARK Flexibility Score: inf
ROOT
ATOM      1  C   UNL A   1      36.826  20.957  24.991  1.00  0.00     0.002 C 
ENDROOT
BRANCH   1   2
ATOM      2  C   UNL A   1      38.040  20.028  25.059  1.00  0.00     0.021 C 
BRANCH   2   3
ATOM      3  C   UNL A   1      39.200  20.583  25.876  1.00  0.00     0.116 C 
BRANCH   3   4
ATOM      4  N   UNL A   1      40.223  19.573  26.101  1.00  0.00    -0.352 N 
ATOM      5  O   UNL A   1      42.337  18.783  26.188  1.00  0.00    -0.269 OA
ATOM      6  C   UNL A   1      41.575  19.743  26.269  1.00  0.00     0.251 C 
ATOM      7  H   UNL A   1      39.904  18.643  26.138  1.00  0.00     0.163 HD
BRANCH   6   8
ATOM      8  C   UNL A   1      42.101  21.095  26.541  1.00  0.00     0.039 A 
ATOM      9  C   UNL A   1      42.355  21.972  25.483  1.00  0.00     0.014 A 
ATOM     10  C   UNL A   1      42.339  21.490  27.859  1.00  0.00     0.014 A 
ATOM     11  C   UNL A   1      42.966  23.194  25.730  1.00  0.00     0.010 A 
ATOM     12  C   UNL A   1      42.873  22.757  28.113  1.00  0.00     0.010 A 
ATOM     13  C   UNL A   1      43.209  23.609  27.049  1.00  0.00    -0.014 A 
BRANCH  13  14
ATOM     14  C   UNL A   1      43.745  24.971  27.295  1.00  0.00     0.031 A 
ATOM     15  C   UNL A   1      45.194  25.292  27.058  1.00  0.00     0.074 A 
ATOM     16  C   UNL A   1      42.899  25.924  27.732  1.00  0.00     0.049 A 
ATOM     17  N   UNL A   1      45.821  26.427  27.233  1.00  0.00    -0.248 NA
ATOM     18  C   UNL A   1      46.051  24.201  26.567  1.00  0.00     0.031 C 
ATOM     19  C   UNL A   1      41.471  25.725  27.997  1.00  0.00     0.029 A 
ATOM     20  N   UNL A   1      43.107  27.247  28.019  1.00  0.00    -0.354 N 
ATOM     21  C   UNL A   1      47.148  26.186  26.896  1.00  0.00     0.074 A 
ATOM     22  C   UNL A   1      47.240  24.788  26.529  1.00  0.00     0.031 C 
ATOM     23  C   UNL A   1      40.924  26.892  28.366  1.00  0.00     0.029 A 
ATOM     24  C   UNL A   1      41.972  27.903  28.435  1.00  0.00     0.049 A 
ATOM     25  H   UNL A   1      43.984  27.687  27.933  1.00  0.00     0.167 HD
ATOM     26  C   UNL A   1      48.191  27.052  26.893  1.00  0.00     0.031 A 
ATOM     27  C   UNL A   1      41.794  29.169  28.854  1.00  0.00     0.031 A 
ATOM     28  C   UNL A   1      48.087  28.438  27.271  1.00  0.00     0.049 A 
ATOM     29  C   UNL A   1      42.974  30.095  28.884  1.00  0.00     0.074 A 
ATOM     30  C   UNL A   1      49.078  29.405  27.276  1.00  0.00     0.029 A 
ATOM     31  N   UNL A   1      46.928  29.055  27.720  1.00  0.00    -0.354 N 
ATOM     32  N   UNL A   1      44.215  29.856  28.531  1.00  0.00    -0.248 NA
ATOM     33  C   UNL A   1      42.732  31.460  29.365  1.00  0.00     0.031 C 
ATOM     34  C   UNL A   1      48.533  30.588  27.786  1.00  0.00     0.029 A 
ATOM     35  C   UNL A   1      47.185  30.380  28.033  1.00  0.00     0.049 A 
ATOM     36  H   UNL A   1      46.051  28.616  27.805  1.00  0.00     0.167 HD
ATOM     37  C   UNL A   1      44.898  31.050  28.726  1.00  0.00     0.074 A 
ATOM     38  C   UNL A   1      43.928  32.012  29.211  1.00  0.00     0.031 C 
ATOM     39  C   UNL A   1      46.210  31.324  28.520  1.00  0.00     0.031 A 
BRANCH  26  40
ATOM     40  C   UNL A   1      49.545  26.517  26.500  1.00  0.00    -0.014 A 
ATOM     41  C   UNL A   1      49.976  26.523  25.161  1.00  0.00     0.010 A 
ATOM     42  C   UNL A   1      50.418  26.036  27.494  1.00  0.00     0.010 A 
ATOM     43  C   UNL A   1      51.235  26.019  24.819  1.00  0.00     0.020 A 
ATOM     44  C   UNL A   1      51.690  25.559  27.160  1.00  0.00     0.020 A 
ATOM     45  C   UNL A   1      52.082  25.536  25.821  1.00  0.00     0.054 A 
BRANCH  45  46
ATOM     46  S   UNL A   1      53.712  24.897  25.349  1.00  0.00     0.124 S 
ATOM     47  O   UNL A   1      53.404  23.509  25.011  1.00  0.00    -0.237 OA
ATOM     48  O   UNL A   1      54.077  25.750  24.220  1.00  0.00    -0.237 OA
ATOM     49  O   UNL A   1      54.521  25.081  26.551  1.00  0.00    -0.744 OA
ENDBRANCH  45  46
ENDBRANCH  26  40
BRANCH  27  50
ATOM     50  C   UNL A   1      40.444  29.615  29.290  1.00  0.00    -0.014 A 
ATOM     51  C   UNL A   1      40.146  29.770  30.654  1.00  0.00     0.010 A 
ATOM     52  C   UNL A   1      39.457  29.926  28.334  1.00  0.00     0.010 A 
ATOM     53  C   UNL A   1      38.884  30.219  31.056  1.00  0.00     0.020 A 
ATOM     54  C   UNL A   1      38.207  30.404  28.730  1.00  0.00     0.020 A 
ATOM     55  C   UNL A   1      37.924  30.538  30.090  1.00  0.00     0.054 A 
BRANCH  55  56
ATOM     56  S   UNL A   1      36.315  31.174  30.634  1.00  0.00     0.124 S 
ATOM     57  O   UNL A   1      35.904  30.165  31.605  1.00  0.00    -0.237 OA
ATOM     58  O   UNL A   1      36.665  32.480  31.186  1.00  0.00    -0.237 OA
ATOM     59  O   UNL A   1      35.530  31.217  29.402  1.00  0.00    -0.744 OA
ENDBRANCH  55  56
ENDBRANCH  27  50
BRANCH  39  60
ATOM     60  C   UNL A   1      46.667  32.734  28.783  1.00  0.00    -0.014 A 
ATOM     61  C   UNL A   1      46.599  33.725  27.787  1.00  0.00     0.010 A 
ATOM     62  C   UNL A   1      47.131  33.081  30.065  1.00  0.00     0.010 A 
ATOM     63  C   UNL A   1      47.015  35.030  28.062  1.00  0.00     0.020 A 
ATOM     64  C   UNL A   1      47.519  34.392  30.352  1.00  0.00     0.020 A 
ATOM     65  C   UNL A   1      47.472  35.355  29.343  1.00  0.00     0.054 A 
BRANCH  65  66
ATOM     66  S   UNL A   1      47.963  37.067  29.685  1.00  0.00     0.124 S 
ATOM     67  O   UNL A   1      46.686  37.772  29.604  1.00  0.00    -0.237 OA
ATOM     68  O   UNL A   1      48.545  36.972  31.021  1.00  0.00    -0.237 OA
ATOM     69  O   UNL A   1      48.913  37.375  28.618  1.00  0.00    -0.744 OA
ENDBRANCH  65  66
ENDBRANCH  39  60
ENDBRANCH  13  14
ENDBRANCH   6   8
ENDBRANCH   3   4
ENDBRANCH   2   3
ENDBRANCH   1   2
BRANCH   1  70
ATOM     70  C   UNL A   1      36.935  22.071  23.945  1.00  0.00     0.002 C 
BRANCH  70  71
ATOM     71  C   UNL A   1      35.830  23.132  24.022  1.00  0.00     0.021 C 
BRANCH  71  72
ATOM     72  C   UNL A   1      35.566  23.641  25.441  1.00  0.00     0.116 C 
BRANCH  72  73
ATOM     73  N   UNL A   1      34.766  24.843  25.421  1.00  0.00    -0.354 N 
ATOM     74  C   UNL A   1      33.420  25.027  25.373  1.00  0.00     0.248 C 
ATOM     75  H   UNL A   1      35.288  25.677  25.446  1.00  0.00     0.163 HD
ATOM     76  O   UNL A   1      33.072  26.215  25.294  1.00  0.00    -0.272 OA
BRANCH  74  77
ATOM     77  C   UNL A   1      32.360  23.890  25.524  1.00  0.00     0.228 C 
ATOM     78  C   UNL A   1      30.972  24.571  25.777  1.00  0.00     0.296 C 
ATOM     79  N   UNL A   1      32.230  22.980  24.365  1.00  0.00    -0.333 N 
ATOM     80  N   UNL A   1      30.363  25.208  24.578  1.00  0.00    -0.343 N 
ATOM     81  C   UNL A   1      31.626  23.527  23.151  1.00  0.00     0.180 C 
ATOM     82  C   UNL A   1      30.284  24.217  23.485  1.00  0.00     0.282 C 
ATOM     83  H   UNL A   1      30.940  25.997  24.282  1.00  0.00     0.346 HD
ATOM     84  H   UNL A   1      29.426  25.540  24.807  1.00  0.00     0.346 HD
BRANCH  79  85
ATOM     85  C   UNL A   1      32.459  21.622  24.439  1.00  0.00     0.148 A 
ATOM     86  N   UNL A   1      32.161  20.921  23.313  1.00  0.00    -0.237 NA
ATOM     87  C   UNL A   1      33.026  20.953  25.537  1.00  0.00     0.084 A 
ATOM     88  C   UNL A   1      32.534  19.618  23.220  1.00  0.00     0.126 A 
ATOM     89  C   UNL A   1      33.371  19.601  25.430  1.00  0.00     0.039 A 
ATOM     90  Cl  UNL A   1      33.283  21.676  27.083  1.00  0.00    -0.080 Cl
ATOM     91  C   UNL A   1      33.156  18.917  24.236  1.00  0.00     0.075 A 
BRANCH  91  92
ATOM     92  C   UNL A   1      33.608  17.505  24.024  1.00  0.00     0.417 C 
ATOM     93  F   UNL A   1      32.958  16.619  24.822  1.00  0.00    -0.166 F 
ATOM     94  F   UNL A   1      33.402  17.094  22.745  1.00  0.00    -0.166 F 
ATOM     95  F   UNL A   1      34.936  17.329  24.266  1.00  0.00    -0.166 F 
ENDBRANCH  91  92
ENDBRANCH  79  85
ENDBRANCH  74  77
ENDBRANCH  72  73
ENDBRANCH  71  72
ENDBRANCH  70  71
ENDBRANCH   1  70
TORSDOF 18
ENDMDL
MODEL 3
REMARK VINA RESULT:     -10.3      1.594      2.101
REMARK SMILES O=C(NCCCCCCNC(=O)[C@H]1C[NH2+]CCN1c1ncc(C(F)(F)F)cc1Cl)c1ccc(-c2c3nc(c(-c4ccc(S(=O)(=O)[O-])cc4)c4ccc([nH]4)c(-c4ccc(S(=O)(=O)[O-])cc4)c4nc(c(-c5ccc(S(=O)(=O)[O-])cc5)c5ccc2[nH]5)C=C4)C=C3)cc1
REMARK SMILES IDX 6 1 5 2 4 3 3 4 1 5 2 6 30 8 31 9 89 10 32 11 88 12 33 13
REMARK SMILES IDX 34 14 35 15 82 16 36 17 87 18 81 19 83 20 37 21 86 22 80 23
REMARK SMILES IDX 79 24 38 26 68 27 49 28 67 29 50 30 53 31 66 32 84 33 51 34
REMARK SMILES IDX 52 35 65 37 85 38 54 39 39 40 40 41 48 42 41 43 47 44 42 45
REMARK SMILES IDX 43 46 44 47 45 48 46 49 69 50 70 51 78 52 71 53 77 54 72 55
REMARK SMILES IDX 73 56 74 57 75 58 76 59 55 60 56 61 64 62 57 63 63 64 58 65
REMARK SMILES IDX 59 66 60 67 61 68 62 69 7 70 8 71 9 72 10 73 11 74 12 76
REMARK SMILES IDX 13 77 14 78 18 79 15 80 17 81 16 82 19 85 20 86 28 87 21 88
REMARK SMILES IDX 27 89 29 90 22 91 23 92 24 93 25 94 26 95
REMARK H PARENT 3 7 83 25 53 36 10 75 15 83 15 84
REMARK Flexibility Score: inf
ROOT
ATOM      1  C   UNL A   1      33.526  27.493  23.654  1.00  0.00     0.002 C 
ENDROOT
BRANCH   1   2
ATOM      2  C   UNL A   1      33.065  27.648  25.104  1.00  0.00     0.021 C 
BRANCH   2   3
ATOM      3  C   UNL A   1      34.131  28.206  26.038  1.00  0.00     0.116 C 
BRANCH   3   4
ATOM      4  N   UNL A   1      33.709  29.463  26.639  1.00  0.00    -0.352 N 
ATOM      5  O   UNL A   1      33.719  31.089  28.204  1.00  0.00    -0.269 OA
ATOM      6  C   UNL A   1      34.326  30.194  27.623  1.00  0.00     0.251 C 
ATOM      7  H   UNL A   1      32.868  29.839  26.293  1.00  0.00     0.163 HD
BRANCH   6   8
ATOM      8  C   UNL A   1      35.725  29.886  27.977  1.00  0.00     0.039 A 
ATOM      9  C   UNL A   1      36.037  29.436  29.264  1.00  0.00     0.014 A 
ATOM     10  C   UNL A   1      36.730  30.044  27.021  1.00  0.00     0.014 A 
ATOM     11  C   UNL A   1      37.364  29.267  29.633  1.00  0.00     0.010 A 
ATOM     12  C   UNL A   1      38.059  29.787  27.370  1.00  0.00     0.010 A 
ATOM     13  C   UNL A   1      38.387  29.417  28.684  1.00  0.00    -0.014 A 
BRANCH  13  14
ATOM     14  C   UNL A   1      39.787  29.108  29.068  1.00  0.00     0.031 A 
ATOM     15  C   UNL A   1      40.645  30.123  29.769  1.00  0.00     0.074 A 
ATOM     16  C   UNL A   1      40.275  27.885  28.780  1.00  0.00     0.049 A 
ATOM     17  N   UNL A   1      41.888  30.014  30.164  1.00  0.00    -0.248 NA
ATOM     18  C   UNL A   1      40.034  31.430  30.060  1.00  0.00     0.031 C 
ATOM     19  C   UNL A   1      39.532  26.819  28.102  1.00  0.00     0.029 A 
ATOM     20  N   UNL A   1      41.501  27.326  29.030  1.00  0.00    -0.354 N 
ATOM     21  C   UNL A   1      42.217  31.240  30.729  1.00  0.00     0.074 A 
ATOM     22  C   UNL A   1      41.050  32.087  30.605  1.00  0.00     0.031 C 
ATOM     23  C   UNL A   1      40.301  25.724  28.027  1.00  0.00     0.029 A 
ATOM     24  C   UNL A   1      41.613  26.030  28.584  1.00  0.00     0.049 A 
ATOM     25  H   UNL A   1      42.231  27.805  29.486  1.00  0.00     0.167 HD
ATOM     26  C   UNL A   1      43.387  31.620  31.301  1.00  0.00     0.031 A 
ATOM     27  C   UNL A   1      42.661  25.186  28.594  1.00  0.00     0.031 A 
ATOM     28  C   UNL A   1      44.545  30.770  31.408  1.00  0.00     0.049 A 
ATOM     29  C   UNL A   1      43.957  25.648  29.191  1.00  0.00     0.074 A 
ATOM     30  C   UNL A   1      45.768  31.052  31.993  1.00  0.00     0.029 A 
ATOM     31  N   UNL A   1      44.630  29.476  30.913  1.00  0.00    -0.354 N 
ATOM     32  N   UNL A   1      44.240  26.801  29.750  1.00  0.00    -0.248 NA
ATOM     33  C   UNL A   1      45.075  24.697  29.163  1.00  0.00     0.031 C 
ATOM     34  C   UNL A   1      46.610  29.952  31.796  1.00  0.00     0.029 A 
ATOM     35  C   UNL A   1      45.892  28.958  31.152  1.00  0.00     0.049 A 
ATOM     36  H   UNL A   1      43.900  28.997  30.457  1.00  0.00     0.167 HD
ATOM     37  C   UNL A   1      45.564  26.706  30.162  1.00  0.00     0.074 A 
ATOM     38  C   UNL A   1      46.018  25.377  29.801  1.00  0.00     0.031 C 
ATOM     39  C   UNL A   1      46.331  27.635  30.783  1.00  0.00     0.031 A 
BRANCH  26  40
ATOM     40  C   UNL A   1      43.484  33.031  31.824  1.00  0.00    -0.014 A 
ATOM     41  C   UNL A   1      43.885  34.095  30.994  1.00  0.00     0.010 A 
ATOM     42  C   UNL A   1      43.129  33.305  33.158  1.00  0.00     0.010 A 
ATOM     43  C   UNL A   1      43.970  35.395  31.500  1.00  0.00     0.020 A 
ATOM     44  C   UNL A   1      43.184  34.610  33.660  1.00  0.00     0.020 A 
ATOM     45  C   UNL A   1      43.624  35.644  32.832  1.00  0.00     0.054 A 
BRANCH  45  46
ATOM     46  S   UNL A   1      43.736  37.342  33.457  1.00  0.00     0.124 S 
ATOM     47  O   UNL A   1      43.837  38.112  32.219  1.00  0.00    -0.237 OA
ATOM     48  O   UNL A   1      42.483  37.498  34.191  1.00  0.00    -0.237 OA
ATOM     49  O   UNL A   1      44.941  37.331  34.282  1.00  0.00    -0.744 OA
ENDBRANCH  45  46
ENDBRANCH  26  40
BRANCH  27  50
ATOM     50  C   UNL A   1      42.517  23.830  28.002  1.00  0.00    -0.014 A 
ATOM     51  C   UNL A   1      42.082  22.748  28.786  1.00  0.00     0.010 A 
ATOM     52  C   UNL A   1      42.777  23.622  26.634  1.00  0.00     0.010 A 
ATOM     53  C   UNL A   1      41.920  21.481  28.216  1.00  0.00     0.020 A 
ATOM     54  C   UNL A   1      42.586  22.367  26.054  1.00  0.00     0.020 A 
ATOM     55  C   UNL A   1      42.168  21.300  26.852  1.00  0.00     0.054 A 
BRANCH  55  56
ATOM     56  S   UNL A   1      41.893  19.662  26.123  1.00  0.00     0.124 S 
ATOM     57  O   UNL A   1      40.453  19.672  25.892  1.00  0.00    -0.237 OA
ATOM     58  O   UNL A   1      42.729  19.707  24.926  1.00  0.00    -0.237 OA
ATOM     59  O   UNL A   1      42.356  18.744  27.162  1.00  0.00    -0.744 OA
ENDBRANCH  55  56
ENDBRANCH  27  50
BRANCH  39  60
ATOM     60  C   UNL A   1      47.736  27.233  31.148  1.00  0.00    -0.014 A 
ATOM     61  C   UNL A   1      48.816  27.480  30.283  1.00  0.00     0.010 A 
ATOM     62  C   UNL A   1      47.981  26.640  32.400  1.00  0.00     0.010 A 
ATOM     63  C   UNL A   1      50.113  27.112  30.651  1.00  0.00     0.020 A 
ATOM     64  C   UNL A   1      49.279  26.298  32.785  1.00  0.00     0.020 A 
ATOM     65  C   UNL A   1      50.336  26.525  31.901  1.00  0.00     0.054 A 
BRANCH  65  66
ATOM     66  S   UNL A   1      52.034  26.098  32.374  1.00  0.00     0.124 S 
ATOM     67  O   UNL A   1      52.732  26.163  31.092  1.00  0.00    -0.237 OA
ATOM     68  O   UNL A   1      52.374  27.149  33.328  1.00  0.00    -0.237 OA
ATOM     69  O   UNL A   1      51.908  24.760  32.947  1.00  0.00    -0.744 OA
ENDBRANCH  65  66
ENDBRANCH  39  60
ENDBRANCH  13  14
ENDBRANCH   6   8
ENDBRANCH   3   4
ENDBRANCH   2   3
ENDBRANCH   1   2
BRANCH   1  70
ATOM     70  C   UNL A   1      32.438  27.019  22.687  1.00  0.00     0.002 C 
BRANCH  70  71
ATOM     71  C   UNL A   1      32.957  26.252  21.463  1.00  0.00     0.021 C 
BRANCH  71  72
ATOM     72  C   UNL A   1      32.885  24.732  21.617  1.00  0.00     0.116 C 
BRANCH  72  73
ATOM     73  N   UNL A   1      31.858  24.353  22.560  1.00  0.00    -0.354 N 
ATOM     74  C   UNL A   1      31.876  23.495  23.613  1.00  0.00     0.248 C 
ATOM     75  H   UNL A   1      30.992  24.797  22.413  1.00  0.00     0.163 HD
ATOM     76  O   UNL A   1      30.778  23.353  24.172  1.00  0.00    -0.272 OA
BRANCH  74  77
ATOM     77  C   UNL A   1      33.160  22.816  24.187  1.00  0.00     0.228 C 
ATOM     78  C   UNL A   1      34.062  23.946  24.789  1.00  0.00     0.296 C 
ATOM     79  N   UNL A   1      32.930  21.794  25.232  1.00  0.00    -0.333 N 
ATOM     80  N   UNL A   1      33.580  24.506  26.080  1.00  0.00    -0.343 N 
ATOM     81  C   UNL A   1      32.469  22.267  26.536  1.00  0.00     0.180 C 
ATOM     82  C   UNL A   1      33.381  23.406  27.046  1.00  0.00     0.282 C 
ATOM     83  H   UNL A   1      32.696  24.993  25.931  1.00  0.00     0.346 HD
ATOM     84  H   UNL A   1      34.271  25.162  26.446  1.00  0.00     0.346 HD
BRANCH  79  85
ATOM     85  C   UNL A   1      33.313  20.476  25.101  1.00  0.00     0.148 A 
ATOM     86  N   UNL A   1      32.295  19.577  25.057  1.00  0.00    -0.237 NA
ATOM     87  C   UNL A   1      34.636  20.028  24.942  1.00  0.00     0.084 A 
ATOM     88  C   UNL A   1      32.559  18.284  24.734  1.00  0.00     0.126 A 
ATOM     89  C   UNL A   1      34.887  18.684  24.643  1.00  0.00     0.039 A 
ATOM     90  Cl  UNL A   1      36.028  21.024  25.156  1.00  0.00    -0.080 Cl
ATOM     91  C   UNL A   1      33.828  17.790  24.498  1.00  0.00     0.075 A 
BRANCH  91  92
ATOM     92  C   UNL A   1      34.027  16.369  24.068  1.00  0.00     0.417 C 
ATOM     93  F   UNL A   1      35.099  15.784  24.661  1.00  0.00    -0.166 F 
ATOM     94  F   UNL A   1      32.951  15.594  24.366  1.00  0.00    -0.166 F 
ATOM     95  F   UNL A   1      34.220  16.242  22.726  1.00  0.00    -0.166 F 
ENDBRANCH  91  92
ENDBRANCH  79  85
ENDBRANCH  74  77
ENDBRANCH  72  73
ENDBRANCH  71  72
ENDBRANCH  70  71
ENDBRANCH   1  70
TORSDOF 18
ENDMDL
