MODEL 1
REMARK VINA RESULT:     -11.3      0.000      0.000
REMARK SMILES Cn1cc(C(=O)NCCCCCCNC(=O)c2ccc(-c3c4nc(c(-c5ccc(S(=O)(=O)[O-])cc5)c5ccc([nH]5)c(-c5ccc(S(=O)(=O)[O-])cc5)c5nc(c(-c6ccc(S(=O)(=O)[O-])cc6)c6ccc3[nH]6)C=C5)C=C4)cc2)c(C(=O)Nc2ccc(-n3cncn3)cc2)n1
REMARK SMILES IDX 10 1 9 2 8 3 7 4 5 5 6 6 4 8 1 9 2 10 3 11 92 12 77 13 78 14
REMARK SMILES IDX 79 15 80 16 81 18 82 19 91 20 83 21 90 22 84 23 85 24 86 25
REMARK SMILES IDX 89 26 87 27 88 28 11 29 12 30 13 31 14 32 15 33 16 35 17 36
REMARK SMILES IDX 18 37 76 38 19 39 75 40 20 41 21 42 22 43 69 44 23 45 74 46
REMARK SMILES IDX 68 47 70 48 24 49 73 50 67 51 66 52 25 54 55 55 36 56 54 57
REMARK SMILES IDX 37 58 40 59 53 60 71 61 38 62 39 63 52 65 72 66 41 67 26 68
REMARK SMILES IDX 27 69 35 70 28 71 34 72 29 73 30 74 31 75 32 76 33 77 56 78
REMARK SMILES IDX 57 79 65 80 58 81 64 82 59 83 60 84 61 85 62 86 63 87 42 88
REMARK SMILES IDX 43 89 51 90 44 91 50 92 45 93 46 94 47 95 48 96 49 97
REMARK H PARENT 7 7 80 17 14 34 70 53 40 64
REMARK Flexibility Score: inf
ROOT
ATOM      1  C   UNL A   1      37.195  22.945  25.012  1.00  0.00     0.002 C 
ENDROOT
BRANCH   1   2
ATOM      2  C   UNL A   1      36.054  23.898  24.639  1.00  0.00     0.021 C 
BRANCH   2   3
ATOM      3  C   UNL A   1      35.153  24.320  25.800  1.00  0.00     0.116 C 
BRANCH   3   4
ATOM      4  N   UNL A   1      34.347  25.496  25.536  1.00  0.00    -0.352 N 
ATOM      5  C   UNL A   1      32.997  25.729  25.577  1.00  0.00     0.255 C 
ATOM      6  O   UNL A   1      32.636  26.895  25.398  1.00  0.00    -0.269 OA
ATOM      7  H   UNL A   1      34.876  26.284  25.274  1.00  0.00     0.163 HD
BRANCH   5   8
ATOM      8  C   UNL A   1      32.023  24.666  25.787  1.00  0.00     0.090 A 
ATOM      9  C   UNL A   1      29.375  22.750  27.340  1.00  0.00     0.173 C 
ATOM     10  N   UNL A   1      30.427  23.337  26.541  1.00  0.00    -0.274 N 
ATOM     11  C   UNL A   1      31.234  24.379  26.888  1.00  0.00     0.123 A 
ATOM     12  N   UNL A   1      30.648  22.880  25.303  1.00  0.00    -0.167 NA
ATOM     13  C   UNL A   1      31.592  23.704  24.802  1.00  0.00     0.163 A 
BRANCH  13  14
ATOM     14  C   UNL A   1      32.001  23.590  23.390  1.00  0.00     0.276 C 
ATOM     15  O   UNL A   1      31.776  24.492  22.577  1.00  0.00    -0.267 OA
ATOM     16  N   UNL A   1      32.717  22.499  22.940  1.00  0.00    -0.321 N 
ATOM     17  H   UNL A   1      33.158  22.644  22.071  1.00  0.00     0.170 HD
BRANCH  16  18
ATOM     18  C   UNL A   1      32.936  21.225  23.479  1.00  0.00     0.041 A 
ATOM     19  C   UNL A   1      32.209  20.168  22.924  1.00  0.00     0.028 A 
ATOM     20  C   UNL A   1      33.805  20.967  24.540  1.00  0.00     0.028 A 
ATOM     21  C   UNL A   1      32.402  18.857  23.369  1.00  0.00     0.030 A 
ATOM     22  C   UNL A   1      33.996  19.656  25.001  1.00  0.00     0.030 A 
ATOM     23  C   UNL A   1      33.312  18.592  24.399  1.00  0.00     0.067 A 
BRANCH  23  24
ATOM     24  N   UNL A   1      33.535  17.248  24.796  1.00  0.00    -0.221 N 
ATOM     25  C   UNL A   1      34.688  16.505  24.735  1.00  0.00     0.225 A 
ATOM     26  N   UNL A   1      32.536  16.473  25.296  1.00  0.00    -0.155 NA
ATOM     27  N   UNL A   1      34.471  15.279  25.156  1.00  0.00    -0.223 NA
ATOM     28  C   UNL A   1      33.151  15.305  25.481  1.00  0.00     0.246 A 
ENDBRANCH  23  24
ENDBRANCH  16  18
ENDBRANCH  13  14
ENDBRANCH   5   8
ENDBRANCH   3   4
ENDBRANCH   2   3
ENDBRANCH   1   2
BRANCH   1  29
ATOM     29  C   UNL A   1      37.260  21.615  24.253  1.00  0.00     0.002 C 
BRANCH  29  30
ATOM     30  C   UNL A   1      37.885  20.431  24.998  1.00  0.00     0.021 C 
BRANCH  30  31
ATOM     31  C   UNL A   1      39.097  20.758  25.871  1.00  0.00     0.116 C 
BRANCH  31  32
ATOM     32  N   UNL A   1      40.039  19.655  25.954  1.00  0.00    -0.352 N 
ATOM     33  C   UNL A   1      41.400  19.672  26.151  1.00  0.00     0.251 C 
ATOM     34  H   UNL A   1      39.642  18.759  25.855  1.00  0.00     0.163 HD
ATOM     35  O   UNL A   1      42.045  18.635  26.019  1.00  0.00    -0.269 OA
BRANCH  33  36
ATOM     36  C   UNL A   1      42.104  20.928  26.497  1.00  0.00     0.039 A 
ATOM     37  C   UNL A   1      42.505  21.778  25.460  1.00  0.00     0.014 A 
ATOM     38  C   UNL A   1      42.410  21.253  27.822  1.00  0.00     0.014 A 
ATOM     39  C   UNL A   1      43.146  22.986  25.754  1.00  0.00     0.010 A 
ATOM     40  C   UNL A   1      43.025  22.472  28.116  1.00  0.00     0.010 A 
ATOM     41  C   UNL A   1      43.384  23.356  27.087  1.00  0.00    -0.014 A 
BRANCH  41  42
ATOM     42  C   UNL A   1      43.980  24.673  27.423  1.00  0.00     0.031 A 
ATOM     43  C   UNL A   1      43.130  25.780  27.973  1.00  0.00     0.074 A 
ATOM     44  C   UNL A   1      45.283  24.899  27.171  1.00  0.00     0.049 A 
ATOM     45  N   UNL A   1      43.437  27.041  28.150  1.00  0.00    -0.248 NA
ATOM     46  C   UNL A   1      41.755  25.430  28.356  1.00  0.00     0.031 C 
ATOM     47  C   UNL A   1      46.222  23.924  26.616  1.00  0.00     0.029 A 
ATOM     48  N   UNL A   1      46.037  26.033  27.341  1.00  0.00    -0.354 N 
ATOM     49  C   UNL A   1      42.277  27.649  28.607  1.00  0.00     0.074 A 
ATOM     50  C   UNL A   1      41.271  26.610  28.718  1.00  0.00     0.031 C 
ATOM     51  C   UNL A   1      47.431  24.498  26.501  1.00  0.00     0.029 A 
ATOM     52  C   UNL A   1      47.345  25.885  26.952  1.00  0.00     0.049 A 
ATOM     53  H   UNL A   1      45.675  26.872  27.706  1.00  0.00     0.167 HD
ATOM     54  C   UNL A   1      42.059  28.958  28.887  1.00  0.00     0.031 A 
ATOM     55  C   UNL A   1      48.362  26.766  26.945  1.00  0.00     0.031 A 
ATOM     56  C   UNL A   1      43.057  29.990  28.821  1.00  0.00     0.049 A 
ATOM     57  C   UNL A   1      48.134  28.178  27.394  1.00  0.00     0.074 A 
ATOM     58  C   UNL A   1      42.914  31.350  29.040  1.00  0.00     0.029 A 
ATOM     59  N   UNL A   1      44.396  29.770  28.542  1.00  0.00    -0.354 N 
ATOM     60  N   UNL A   1      47.012  28.749  27.755  1.00  0.00    -0.248 NA
ATOM     61  C   UNL A   1      49.307  29.061  27.429  1.00  0.00     0.031 C 
ATOM     62  C   UNL A   1      44.177  31.949  28.914  1.00  0.00     0.029 A 
ATOM     63  C   UNL A   1      45.099  30.961  28.614  1.00  0.00     0.049 A 
ATOM     64  H   UNL A   1      44.790  28.894  28.326  1.00  0.00     0.167 HD
ATOM     65  C   UNL A   1      47.338  30.069  28.042  1.00  0.00     0.074 A 
ATOM     66  C   UNL A   1      48.767  30.205  27.834  1.00  0.00     0.031 C 
ATOM     67  C   UNL A   1      46.520  31.080  28.422  1.00  0.00     0.031 A 
BRANCH  54  68
ATOM     68  C   UNL A   1      40.653  29.330  29.253  1.00  0.00    -0.014 A 
ATOM     69  C   UNL A   1      39.694  29.590  28.260  1.00  0.00     0.010 A 
ATOM     70  C   UNL A   1      40.304  29.466  30.609  1.00  0.00     0.010 A 
ATOM     71  C   UNL A   1      38.415  30.027  28.616  1.00  0.00     0.020 A 
ATOM     72  C   UNL A   1      39.026  29.899  30.967  1.00  0.00     0.020 A 
ATOM     73  C   UNL A   1      38.097  30.199  29.967  1.00  0.00     0.054 A 
BRANCH  73  74
ATOM     74  S   UNL A   1      36.459  30.814  30.448  1.00  0.00     0.124 S 
ATOM     75  O   UNL A   1      35.688  30.591  29.227  1.00  0.00    -0.237 OA
ATOM     76  O   UNL A   1      36.095  29.964  31.580  1.00  0.00    -0.237 OA
ATOM     77  O   UNL A   1      36.718  32.211  30.781  1.00  0.00    -0.744 OA
ENDBRANCH  73  74
ENDBRANCH  54  68
BRANCH  55  78
ATOM     78  C   UNL A   1      49.695  26.321  26.476  1.00  0.00    -0.014 A 
ATOM     79  C   UNL A   1      50.064  26.496  25.132  1.00  0.00     0.010 A 
ATOM     80  C   UNL A   1      50.624  25.793  27.388  1.00  0.00     0.010 A 
ATOM     81  C   UNL A   1      51.352  26.164  24.706  1.00  0.00     0.020 A 
ATOM     82  C   UNL A   1      51.914  25.465  26.967  1.00  0.00     0.020 A 
ATOM     83  C   UNL A   1      52.271  25.655  25.628  1.00  0.00     0.054 A 
BRANCH  83  84
ATOM     84  S   UNL A   1      53.981  25.325  25.115  1.00  0.00     0.124 S 
ATOM     85  O   UNL A   1      53.937  23.898  24.815  1.00  0.00    -0.237 OA
ATOM     86  O   UNL A   1      54.163  26.206  23.965  1.00  0.00    -0.237 OA
ATOM     87  O   UNL A   1      54.749  25.699  26.301  1.00  0.00    -0.744 OA
ENDBRANCH  83  84
ENDBRANCH  55  78
BRANCH  67  88
ATOM     88  C   UNL A   1      47.159  32.420  28.635  1.00  0.00    -0.014 A 
ATOM     89  C   UNL A   1      47.284  33.321  27.563  1.00  0.00     0.010 A 
ATOM     90  C   UNL A   1      47.629  32.788  29.908  1.00  0.00     0.010 A 
ATOM     91  C   UNL A   1      47.891  34.565  27.754  1.00  0.00     0.020 A 
ATOM     92  C   UNL A   1      48.236  34.031  30.101  1.00  0.00     0.020 A 
ATOM     93  C   UNL A   1      48.374  34.907  29.021  1.00  0.00     0.054 A 
BRANCH  93  94
ATOM     94  S   UNL A   1      49.146  36.529  29.279  1.00  0.00     0.124 S 
ATOM     95  O   UNL A   1      48.031  37.317  29.797  1.00  0.00    -0.237 OA
ATOM     96  O   UNL A   1      50.212  36.245  30.237  1.00  0.00    -0.237 OA
ATOM     97  O   UNL A   1      49.605  36.898  27.942  1.00  0.00    -0.744 OA
ENDBRANCH  93  94
ENDBRANCH  67  88
ENDBRANCH  41  42
ENDBRANCH  33  36
ENDBRANCH  31  32
ENDBRANCH  30  31
ENDBRANCH  29  30
ENDBRANCH   1  29
TORSDOF 19
ENDMDL
MODEL 2
REMARK VINA RESULT:     -11.2      2.069      8.012
REMARK SMILES Cn1cc(C(=O)NCCCCCCNC(=O)c2ccc(-c3c4nc(c(-c5ccc(S(=O)(=O)[O-])cc5)c5ccc([nH]5)c(-c5ccc(S(=O)(=O)[O-])cc5)c5nc(c(-c6ccc(S(=O)(=O)[O-])cc6)c6ccc3[nH]6)C=C5)C=C4)cc2)c(C(=O)Nc2ccc(-n3cncn3)cc2)n1
REMARK SMILES IDX 10 1 9 2 8 3 7 4 5 5 6 6 4 8 1 9 2 10 3 11 92 12 77 13 78 14
REMARK SMILES IDX 79 15 80 16 81 18 82 19 91 20 83 21 90 22 84 23 85 24 86 25
REMARK SMILES IDX 89 26 87 27 88 28 11 29 12 30 13 31 14 32 15 33 16 35 17 36
REMARK SMILES IDX 18 37 76 38 19 39 75 40 20 41 21 42 22 43 69 44 23 45 74 46
REMARK SMILES IDX 68 47 70 48 24 49 73 50 67 51 66 52 25 54 55 55 36 56 54 57
REMARK SMILES IDX 37 58 40 59 53 60 71 61 38 62 39 63 52 65 72 66 41 67 26 68
REMARK SMILES IDX 27 69 35 70 28 71 34 72 29 73 30 74 31 75 32 76 33 77 56 78
REMARK SMILES IDX 57 79 65 80 58 81 64 82 59 83 60 84 61 85 62 86 63 87 42 88
REMARK SMILES IDX 43 89 51 90 44 91 50 92 45 93 46 94 47 95 48 96 49 97
REMARK H PARENT 7 7 80 17 14 34 70 53 40 64
REMARK Flexibility Score: inf
ROOT
ATOM      1  C   UNL A   1      32.479  30.036  25.879  1.00  0.00     0.002 C 
ENDROOT
BRANCH   1   2
ATOM      2  C   UNL A   1      31.721  28.704  25.923  1.00  0.00     0.021 C 
BRANCH   2   3
ATOM      3  C   UNL A   1      32.575  27.461  25.674  1.00  0.00     0.116 C 
BRANCH   3   4
ATOM      4  N   UNL A   1      32.013  26.233  26.199  1.00  0.00    -0.352 N 
ATOM      5  C   UNL A   1      32.414  24.923  26.139  1.00  0.00     0.255 C 
ATOM      6  O   UNL A   1      31.753  24.116  26.798  1.00  0.00    -0.269 OA
ATOM      7  H   UNL A   1      31.173  26.366  26.697  1.00  0.00     0.163 HD
BRANCH   5   8
ATOM      8  C   UNL A   1      33.538  24.482  25.322  1.00  0.00     0.090 A 
ATOM      9  C   UNL A   1      36.881  23.406  24.451  1.00  0.00     0.173 C 
ATOM     10  N   UNL A   1      35.496  23.810  24.552  1.00  0.00    -0.274 N 
ATOM     11  C   UNL A   1      34.877  24.343  25.644  1.00  0.00     0.123 A 
ATOM     12  N   UNL A   1      34.676  23.623  23.512  1.00  0.00    -0.167 NA
ATOM     13  C   UNL A   1      33.460  23.987  23.970  1.00  0.00     0.163 A 
BRANCH  13  14
ATOM     14  C   UNL A   1      32.264  23.789  23.132  1.00  0.00     0.276 C 
ATOM     15  O   UNL A   1      31.643  24.746  22.656  1.00  0.00    -0.267 OA
ATOM     16  N   UNL A   1      31.834  22.524  22.787  1.00  0.00    -0.321 N 
ATOM     17  H   UNL A   1      31.206  22.510  22.027  1.00  0.00     0.170 HD
BRANCH  16  18
ATOM     18  C   UNL A   1      32.119  21.255  23.308  1.00  0.00     0.041 A 
ATOM     19  C   UNL A   1      32.097  20.183  22.410  1.00  0.00     0.028 A 
ATOM     20  C   UNL A   1      32.389  21.007  24.654  1.00  0.00     0.028 A 
ATOM     21  C   UNL A   1      32.417  18.891  22.835  1.00  0.00     0.030 A 
ATOM     22  C   UNL A   1      32.700  19.711  25.090  1.00  0.00     0.030 A 
ATOM     23  C   UNL A   1      32.738  18.651  24.176  1.00  0.00     0.067 A 
BRANCH  23  24
ATOM     24  N   UNL A   1      33.116  17.342  24.574  1.00  0.00    -0.221 N 
ATOM     25  C   UNL A   1      34.242  16.627  24.247  1.00  0.00     0.225 A 
ATOM     26  N   UNL A   1      32.321  16.576  25.367  1.00  0.00    -0.155 NA
ATOM     27  N   UNL A   1      34.198  15.427  24.780  1.00  0.00    -0.223 NA
ATOM     28  C   UNL A   1      33.012  15.439  25.446  1.00  0.00     0.246 A 
ENDBRANCH  23  24
ENDBRANCH  16  18
ENDBRANCH  13  14
ENDBRANCH   5   8
ENDBRANCH   3   4
ENDBRANCH   2   3
ENDBRANCH   1   2
BRANCH   1  29
ATOM     29  C   UNL A   1      33.171  30.481  27.171  1.00  0.00     0.002 C 
BRANCH  29  30
ATOM     30  C   UNL A   1      34.653  30.117  27.316  1.00  0.00     0.021 C 
BRANCH  30  31
ATOM     31  C   UNL A   1      35.531  31.161  28.006  1.00  0.00     0.116 C 
BRANCH  31  32
ATOM     32  N   UNL A   1      35.396  31.135  29.453  1.00  0.00    -0.352 N 
ATOM     33  C   UNL A   1      36.289  30.721  30.413  1.00  0.00     0.251 C 
ATOM     34  H   UNL A   1      34.535  31.465  29.797  1.00  0.00     0.163 HD
ATOM     35  O   UNL A   1      35.920  30.618  31.580  1.00  0.00    -0.269 OA
BRANCH  33  36
ATOM     36  C   UNL A   1      37.684  30.374  30.057  1.00  0.00     0.039 A 
ATOM     37  C   UNL A   1      38.597  30.125  31.089  1.00  0.00     0.014 A 
ATOM     38  C   UNL A   1      38.110  30.335  28.725  1.00  0.00     0.014 A 
ATOM     39  C   UNL A   1      39.914  29.766  30.786  1.00  0.00     0.010 A 
ATOM     40  C   UNL A   1      39.419  29.949  28.424  1.00  0.00     0.010 A 
ATOM     41  C   UNL A   1      40.327  29.647  29.450  1.00  0.00    -0.014 A 
BRANCH  41  42
ATOM     42  C   UNL A   1      41.694  29.179  29.108  1.00  0.00     0.031 A 
ATOM     43  C   UNL A   1      42.859  30.124  29.145  1.00  0.00     0.074 A 
ATOM     44  C   UNL A   1      41.880  27.911  28.697  1.00  0.00     0.049 A 
ATOM     45  N   UNL A   1      44.078  29.942  28.706  1.00  0.00    -0.248 NA
ATOM     46  C   UNL A   1      42.617  31.449  29.733  1.00  0.00     0.031 C 
ATOM     47  C   UNL A   1      40.837  26.891  28.591  1.00  0.00     0.029 A 
ATOM     48  N   UNL A   1      43.021  27.270  28.281  1.00  0.00    -0.354 N 
ATOM     49  C   UNL A   1      44.735  31.147  28.907  1.00  0.00     0.074 A 
ATOM     50  C   UNL A   1      43.788  32.041  29.545  1.00  0.00     0.031 C 
ATOM     51  C   UNL A   1      41.387  25.747  28.148  1.00  0.00     0.029 A 
ATOM     52  C   UNL A   1      42.814  25.962  27.920  1.00  0.00     0.049 A 
ATOM     53  H   UNL A   1      43.902  27.708  28.245  1.00  0.00     0.167 HD
ATOM     54  C   UNL A   1      46.003  31.489  28.571  1.00  0.00     0.031 A 
ATOM     55  C   UNL A   1      43.670  25.039  27.445  1.00  0.00     0.031 A 
ATOM     56  C   UNL A   1      46.964  30.600  27.977  1.00  0.00     0.049 A 
ATOM     57  C   UNL A   1      45.107  25.398  27.213  1.00  0.00     0.074 A 
ATOM     58  C   UNL A   1      48.255  30.874  27.559  1.00  0.00     0.029 A 
ATOM     59  N   UNL A   1      46.747  29.252  27.744  1.00  0.00    -0.354 N 
ATOM     60  N   UNL A   1      45.690  26.564  27.344  1.00  0.00    -0.248 NA
ATOM     61  C   UNL A   1      45.997  24.319  26.765  1.00  0.00     0.031 C 
ATOM     62  C   UNL A   1      48.827  29.680  27.091  1.00  0.00     0.029 A 
ATOM     63  C   UNL A   1      47.888  28.671  27.218  1.00  0.00     0.049 A 
ATOM     64  H   UNL A   1      45.905  28.777  27.927  1.00  0.00     0.167 HD
ATOM     65  C   UNL A   1      47.014  26.365  26.974  1.00  0.00     0.074 A 
ATOM     66  C   UNL A   1      47.152  24.962  26.636  1.00  0.00     0.031 C 
ATOM     67  C   UNL A   1      48.019  27.272  26.902  1.00  0.00     0.031 A 
BRANCH  54  68
ATOM     68  C   UNL A   1      46.389  32.917  28.816  1.00  0.00    -0.014 A 
ATOM     69  C   UNL A   1      46.170  33.901  27.838  1.00  0.00     0.010 A 
ATOM     70  C   UNL A   1      47.021  33.266  30.023  1.00  0.00     0.010 A 
ATOM     71  C   UNL A   1      46.621  35.208  28.043  1.00  0.00     0.020 A 
ATOM     72  C   UNL A   1      47.469  34.571  30.232  1.00  0.00     0.020 A 
ATOM     73  C   UNL A   1      47.287  35.528  29.231  1.00  0.00     0.054 A 
BRANCH  73  74
ATOM     74  S   UNL A   1      47.924  37.207  29.495  1.00  0.00     0.124 S 
ATOM     75  O   UNL A   1      47.204  37.611  30.701  1.00  0.00    -0.237 OA
ATOM     76  O   UNL A   1      49.361  37.003  29.664  1.00  0.00    -0.237 OA
ATOM     77  O   UNL A   1      47.538  37.901  28.271  1.00  0.00    -0.744 OA
ENDBRANCH  73  74
ENDBRANCH  54  68
BRANCH  55  78
ATOM     78  C   UNL A   1      43.167  23.678  27.148  1.00  0.00    -0.014 A 
ATOM     79  C   UNL A   1      42.836  23.322  25.829  1.00  0.00     0.010 A 
ATOM     80  C   UNL A   1      43.090  22.715  28.167  1.00  0.00     0.010 A 
ATOM     81  C   UNL A   1      42.451  22.013  25.529  1.00  0.00     0.020 A 
ATOM     82  C   UNL A   1      42.710  21.405  27.869  1.00  0.00     0.020 A 
ATOM     83  C   UNL A   1      42.394  21.062  26.551  1.00  0.00     0.054 A 
BRANCH  83  84
ATOM     84  S   UNL A   1      42.004  19.333  26.158  1.00  0.00     0.124 S 
ATOM     85  O   UNL A   1      40.573  19.400  25.883  1.00  0.00    -0.237 OA
ATOM     86  O   UNL A   1      42.855  19.049  25.006  1.00  0.00    -0.237 OA
ATOM     87  O   UNL A   1      42.380  18.633  27.385  1.00  0.00    -0.744 OA
ENDBRANCH  83  84
ENDBRANCH  55  78
BRANCH  67  88
ATOM     88  C   UNL A   1      49.351  26.767  26.437  1.00  0.00    -0.014 A 
ATOM     89  C   UNL A   1      49.756  26.963  25.104  1.00  0.00     0.010 A 
ATOM     90  C   UNL A   1      50.209  26.102  27.330  1.00  0.00     0.010 A 
ATOM     91  C   UNL A   1      50.991  26.481  24.665  1.00  0.00     0.020 A 
ATOM     92  C   UNL A   1      51.444  25.619  26.893  1.00  0.00     0.020 A 
ATOM     93  C   UNL A   1      51.823  25.801  25.559  1.00  0.00     0.054 A 
BRANCH  93  94
ATOM     94  S   UNL A   1      53.436  25.190  24.997  1.00  0.00     0.124 S 
ATOM     95  O   UNL A   1      53.333  23.760  25.277  1.00  0.00    -0.237 OA
ATOM     96  O   UNL A   1      53.458  25.551  23.582  1.00  0.00    -0.237 OA
ATOM     97  O   UNL A   1      54.382  25.925  25.833  1.00  0.00    -0.744 OA
ENDBRANCH  93  94
ENDBRANCH  67  88
ENDBRANCH  41  42
ENDBRANCH  33  36
ENDBRANCH  31  32
ENDBRANCH  30  31
ENDBRANCH  29  30
ENDBRANCH   1  29
TORSDOF 19
ENDMDL
MODEL 3
REMARK VINA RESULT:     -11.2      5.830     11.038
REMARK SMILES Cn1cc(C(=O)NCCCCCCNC(=O)c2ccc(-c3c4nc(c(-c5ccc(S(=O)(=O)[O-])cc5)c5ccc([nH]5)c(-c5ccc(S(=O)(=O)[O-])cc5)c5nc(c(-c6ccc(S(=O)(=O)[O-])cc6)c6ccc3[nH]6)C=C5)C=C4)cc2)c(C(=O)Nc2ccc(-n3cncn3)cc2)n1
REMARK SMILES IDX 10 1 9 2 8 3 7 4 5 5 6 6 4 8 1 9 2 10 3 11 92 12 77 13 78 14
REMARK SMILES IDX 79 15 80 16 81 18 82 19 91 20 83 21 90 22 84 23 85 24 86 25
REMARK SMILES IDX 89 26 87 27 88 28 11 29 12 30 13 31 14 32 15 33 16 35 17 36
REMARK SMILES IDX 18 37 76 38 19 39 75 40 20 41 21 42 22 43 69 44 23 45 74 46
REMARK SMILES IDX 68 47 70 48 24 49 73 50 67 51 66 52 25 54 55 55 36 56 54 57
REMARK SMILES IDX 37 58 40 59 53 60 71 61 38 62 39 63 52 65 72 66 41 67 26 68
REMARK SMILES IDX 27 69 35 70 28 71 34 72 29 73 30 74 31 75 32 76 33 77 56 78
REMARK SMILES IDX 57 79 65 80 58 81 64 82 59 83 60 84 61 85 62 86 63 87 42 88
REMARK SMILES IDX 43 89 51 90 44 91 50 92 45 93 46 94 47 95 48 96 49 97
REMARK H PARENT 7 7 80 17 14 34 70 53 40 64
REMARK Flexibility Score: inf
ROOT
ATOM      1  C   UNL A   1      32.108  29.067  27.222  1.00  0.00     0.002 C 
ENDROOT
BRANCH   1   2
ATOM      2  C   UNL A   1      31.690  27.670  26.748  1.00  0.00     0.021 C 
BRANCH   2   3
ATOM      3  C   UNL A   1      32.384  27.180  25.477  1.00  0.00     0.116 C 
BRANCH   3   4
ATOM      4  N   UNL A   1      33.474  26.253  25.710  1.00  0.00    -0.352 N 
ATOM      5  C   UNL A   1      33.523  24.892  25.868  1.00  0.00     0.255 C 
ATOM      6  O   UNL A   1      34.646  24.388  25.943  1.00  0.00    -0.269 OA
ATOM      7  H   UNL A   1      34.355  26.688  25.767  1.00  0.00     0.163 HD
BRANCH   5   8
ATOM      8  C   UNL A   1      32.324  24.070  25.977  1.00  0.00     0.090 A 
ATOM      9  C   UNL A   1      29.335  22.602  27.394  1.00  0.00     0.173 C 
ATOM     10  N   UNL A   1      30.474  23.050  26.624  1.00  0.00    -0.274 N 
ATOM     11  C   UNL A   1      31.523  23.796  27.073  1.00  0.00     0.123 A 
ATOM     12  N   UNL A   1      30.538  22.771  25.318  1.00  0.00    -0.167 NA
ATOM     13  C   UNL A   1      31.640  23.420  24.886  1.00  0.00     0.163 A 
BRANCH  13  14
ATOM     14  C   UNL A   1      31.964  23.453  23.449  1.00  0.00     0.276 C 
ATOM     15  O   UNL A   1      31.724  24.448  22.755  1.00  0.00    -0.267 OA
ATOM     16  N   UNL A   1      32.616  22.401  22.838  1.00  0.00    -0.321 N 
ATOM     17  H   UNL A   1      33.013  22.631  21.966  1.00  0.00     0.170 HD
BRANCH  16  18
ATOM     18  C   UNL A   1      32.822  21.069  23.220  1.00  0.00     0.041 A 
ATOM     19  C   UNL A   1      33.800  20.833  24.193  1.00  0.00     0.028 A 
ATOM     20  C   UNL A   1      32.137  19.985  22.671  1.00  0.00     0.028 A 
ATOM     21  C   UNL A   1      34.036  19.541  24.667  1.00  0.00     0.030 A 
ATOM     22  C   UNL A   1      32.377  18.683  23.134  1.00  0.00     0.030 A 
ATOM     23  C   UNL A   1      33.313  18.459  24.152  1.00  0.00     0.067 A 
BRANCH  23  24
ATOM     24  N   UNL A   1      33.529  17.163  24.689  1.00  0.00    -0.221 N 
ATOM     25  C   UNL A   1      34.696  16.445  24.780  1.00  0.00     0.225 A 
ATOM     26  N   UNL A   1      32.510  16.415  25.189  1.00  0.00    -0.155 NA
ATOM     27  N   UNL A   1      34.469  15.260  25.300  1.00  0.00    -0.223 NA
ATOM     28  C   UNL A   1      33.128  15.285  25.527  1.00  0.00     0.246 A 
ENDBRANCH  23  24
ENDBRANCH  16  18
ENDBRANCH  13  14
ENDBRANCH   5   8
ENDBRANCH   3   4
ENDBRANCH   2   3
ENDBRANCH   1   2
BRANCH   1  29
ATOM     29  C   UNL A   1      31.901  30.222  26.237  1.00  0.00     0.002 C 
BRANCH  29  30
ATOM     30  C   UNL A   1      31.682  31.611  26.845  1.00  0.00     0.021 C 
BRANCH  30  31
ATOM     31  C   UNL A   1      32.944  32.440  27.083  1.00  0.00     0.116 C 
BRANCH  31  32
ATOM     32  N   UNL A   1      32.653  33.754  27.632  1.00  0.00    -0.352 N 
ATOM     33  C   UNL A   1      33.232  34.414  28.690  1.00  0.00     0.251 C 
ATOM     34  H   UNL A   1      31.933  34.246  27.176  1.00  0.00     0.163 HD
ATOM     35  O   UNL A   1      32.727  35.454  29.107  1.00  0.00    -0.269 OA
BRANCH  33  36
ATOM     36  C   UNL A   1      34.444  33.878  29.352  1.00  0.00     0.039 A 
ATOM     37  C   UNL A   1      35.696  34.351  28.941  1.00  0.00     0.014 A 
ATOM     38  C   UNL A   1      34.363  32.887  30.335  1.00  0.00     0.014 A 
ATOM     39  C   UNL A   1      36.859  33.887  29.565  1.00  0.00     0.010 A 
ATOM     40  C   UNL A   1      35.522  32.445  30.976  1.00  0.00     0.010 A 
ATOM     41  C   UNL A   1      36.778  32.952  30.608  1.00  0.00    -0.014 A 
BRANCH  41  42
ATOM     42  C   UNL A   1      37.991  32.515  31.343  1.00  0.00     0.031 A 
ATOM     43  C   UNL A   1      38.874  31.434  30.793  1.00  0.00     0.074 A 
ATOM     44  C   UNL A   1      38.267  33.049  32.548  1.00  0.00     0.049 A 
ATOM     45  N   UNL A   1      39.861  30.803  31.377  1.00  0.00    -0.248 NA
ATOM     46  C   UNL A   1      38.600  30.994  29.418  1.00  0.00     0.031 C 
ATOM     47  C   UNL A   1      37.485  34.089  33.215  1.00  0.00     0.029 A 
ATOM     48  N   UNL A   1      39.283  32.774  33.430  1.00  0.00    -0.354 N 
ATOM     49  C   UNL A   1      40.288  29.848  30.465  1.00  0.00     0.074 A 
ATOM     50  C   UNL A   1      39.478  30.011  29.274  1.00  0.00     0.031 C 
ATOM     51  C   UNL A   1      38.056  34.374  34.398  1.00  0.00     0.029 A 
ATOM     52  C   UNL A   1      39.228  33.521  34.580  1.00  0.00     0.049 A 
ATOM     53  H   UNL A   1      39.984  32.105  33.254  1.00  0.00     0.167 HD
ATOM     54  C   UNL A   1      41.251  28.905  30.613  1.00  0.00     0.031 A 
ATOM     55  C   UNL A   1      40.021  33.514  35.667  1.00  0.00     0.031 A 
ATOM     56  C   UNL A   1      42.089  28.760  31.772  1.00  0.00     0.049 A 
ATOM     57  C   UNL A   1      41.171  32.557  35.751  1.00  0.00     0.074 A 
ATOM     58  C   UNL A   1      43.056  27.803  32.027  1.00  0.00     0.029 A 
ATOM     59  N   UNL A   1      42.079  29.617  32.859  1.00  0.00    -0.354 N 
ATOM     60  N   UNL A   1      41.513  31.615  34.907  1.00  0.00    -0.248 NA
ATOM     61  C   UNL A   1      42.036  32.660  36.934  1.00  0.00     0.031 C 
ATOM     62  C   UNL A   1      43.647  28.098  33.266  1.00  0.00     0.029 A 
ATOM     63  C   UNL A   1      43.043  29.235  33.776  1.00  0.00     0.049 A 
ATOM     64  H   UNL A   1      41.475  30.388  32.965  1.00  0.00     0.167 HD
ATOM     65  C   UNL A   1      42.624  30.996  35.467  1.00  0.00     0.074 A 
ATOM     66  C   UNL A   1      42.910  31.685  36.710  1.00  0.00     0.031 C 
ATOM     67  C   UNL A   1      43.329  29.937  35.000  1.00  0.00     0.031 A 
BRANCH  54  68
ATOM     68  C   UNL A   1      41.403  27.934  29.481  1.00  0.00    -0.014 A 
ATOM     69  C   UNL A   1      40.563  26.813  29.374  1.00  0.00     0.010 A 
ATOM     70  C   UNL A   1      42.431  28.123  28.539  1.00  0.00     0.010 A 
ATOM     71  C   UNL A   1      40.778  25.867  28.368  1.00  0.00     0.020 A 
ATOM     72  C   UNL A   1      42.646  27.181  27.532  1.00  0.00     0.020 A 
ATOM     73  C   UNL A   1      41.832  26.047  27.467  1.00  0.00     0.054 A 
BRANCH  73  74
ATOM     74  S   UNL A   1      42.159  24.806  26.185  1.00  0.00     0.124 S 
ATOM     75  O   UNL A   1      43.394  24.194  26.671  1.00  0.00    -0.237 OA
ATOM     76  O   UNL A   1      40.977  23.948  26.232  1.00  0.00    -0.237 OA
ATOM     77  O   UNL A   1      42.291  25.611  24.974  1.00  0.00    -0.744 OA
ENDBRANCH  73  74
ENDBRANCH  54  68
BRANCH  55  78
ATOM     78  C   UNL A   1      39.729  34.454  36.774  1.00  0.00    -0.014 A 
ATOM     79  C   UNL A   1      38.892  34.060  37.832  1.00  0.00     0.010 A 
ATOM     80  C   UNL A   1      40.347  35.715  36.812  1.00  0.00     0.010 A 
ATOM     81  C   UNL A   1      38.689  34.907  38.923  1.00  0.00     0.020 A 
ATOM     82  C   UNL A   1      40.150  36.562  37.904  1.00  0.00     0.020 A 
ATOM     83  C   UNL A   1      39.323  36.152  38.954  1.00  0.00     0.054 A 
BRANCH  83  84
ATOM     84  S   UNL A   1      39.159  37.216  40.416  1.00  0.00     0.124 S 
ATOM     85  O   UNL A   1      38.208  38.221  39.953  1.00  0.00    -0.237 OA
ATOM     86  O   UNL A   1      38.663  36.304  41.443  1.00  0.00    -0.237 OA
ATOM     87  O   UNL A   1      40.527  37.688  40.624  1.00  0.00    -0.744 OA
ENDBRANCH  83  84
ENDBRANCH  55  78
BRANCH  67  88
ATOM     88  C   UNL A   1      44.475  29.464  35.844  1.00  0.00    -0.014 A 
ATOM     89  C   UNL A   1      45.760  30.002  35.655  1.00  0.00     0.010 A 
ATOM     90  C   UNL A   1      44.270  28.488  36.834  1.00  0.00     0.010 A 
ATOM     91  C   UNL A   1      46.832  29.554  36.430  1.00  0.00     0.020 A 
ATOM     92  C   UNL A   1      45.341  28.038  37.610  1.00  0.00     0.020 A 
ATOM     93  C   UNL A   1      46.618  28.566  37.396  1.00  0.00     0.054 A 
BRANCH  93  94
ATOM     94  S   UNL A   1      48.004  27.994  38.418  1.00  0.00     0.124 S 
ATOM     95  O   UNL A   1      47.387  26.921  39.192  1.00  0.00    -0.237 OA
ATOM     96  O   UNL A   1      48.995  27.566  37.433  1.00  0.00    -0.237 OA
ATOM     97  O   UNL A   1      48.371  29.185  39.181  1.00  0.00    -0.744 OA
ENDBRANCH  93  94
ENDBRANCH  67  88
ENDBRANCH  41  42
ENDBRANCH  33  36
ENDBRANCH  31  32
ENDBRANCH  30  31
ENDBRANCH  29  30
ENDBRANCH   1  29
TORSDOF 19
ENDMDL
