MODEL 1
REMARK VINA RESULT:     -11.9      0.000      0.000
REMARK SMILES O=C(NCCCCCCNC(=O)c1ccc(-c2c3nc(c(-c4ccc(S(=O)(=O)[O-])cc4)c4ccc([nH]4)c(-c4ccc(S(=O)(=O)[O-])cc4)c4nc(c(-c5ccc(S(=O)(=O)[O-])cc5)c5ccc2[nH]5)C=C4)C=C3)cc1)C1=N[C@@H]2NC=NN2[C@@H]([C@H]2C=NN=C2c2ccc(F)cc2)C1
REMARK SMILES IDX 7 1 6 2 5 3 4 4 3 5 1 6 2 7 73 9 74 10 93 11 75 12 80 13
REMARK SMILES IDX 76 14 79 15 77 16 78 18 81 19 82 20 85 21 83 22 84 23 86 24
REMARK SMILES IDX 87 25 92 26 88 27 91 28 89 29 90 30 8 31 9 32 10 33 11 34
REMARK SMILES IDX 12 36 13 37 14 38 72 39 15 40 71 41 16 42 17 43 18 44 65 45
REMARK SMILES IDX 19 46 70 47 64 48 66 49 20 50 69 51 63 52 62 53 21 55 51 56
REMARK SMILES IDX 32 57 50 58 33 59 36 60 49 61 67 62 34 63 35 64 48 66 68 67
REMARK SMILES IDX 37 68 22 69 23 70 31 71 24 72 30 73 25 74 26 75 27 76 28 77
REMARK SMILES IDX 29 78 52 79 53 80 61 81 54 82 60 83 55 84 56 85 57 86 58 87
REMARK SMILES IDX 59 88 38 89 39 90 47 91 40 92 46 93 41 94 42 95 43 96 44 97
REMARK SMILES IDX 45 98
REMARK H PARENT 3 8 76 17 10 35 66 54 36 65
REMARK Flexibility Score: inf
ROOT
ATOM      1  C   UNL A   1      35.318  21.620  24.913  1.00  0.00     0.002 C 
ENDROOT
BRANCH   1   2
ATOM      2  C   UNL A   1      34.022  20.991  24.398  1.00  0.00     0.002 C 
BRANCH   2   3
ATOM      3  C   UNL A   1      32.708  21.633  24.848  1.00  0.00     0.021 C 
BRANCH   3   4
ATOM      4  C   UNL A   1      31.867  22.349  23.794  1.00  0.00     0.116 C 
BRANCH   4   5
ATOM      5  N   UNL A   1      32.444  22.415  22.467  1.00  0.00    -0.351 N 
ATOM      6  O   UNL A   1      33.624  23.288  20.755  1.00  0.00    -0.268 OA
ATOM      7  C   UNL A   1      33.030  23.479  21.813  1.00  0.00     0.265 C 
ATOM      8  H   UNL A   1      32.415  21.574  21.955  1.00  0.00     0.163 HD
BRANCH   7   9
ATOM      9  C   UNL A   1      32.869  24.928  22.309  1.00  0.00     0.106 C 
ATOM     10  N   UNL A   1      33.527  25.829  21.662  1.00  0.00    -0.237 NA
ATOM     11  C   UNL A   1      32.010  25.206  23.511  1.00  0.00     0.090 C 
ATOM     12  C   UNL A   1      33.217  27.218  21.879  1.00  0.00     0.319 C 
ATOM     13  C   UNL A   1      32.029  26.683  23.909  1.00  0.00     0.127 C 
ATOM     14  N   UNL A   1      34.254  28.117  22.300  1.00  0.00    -0.335 N 
ATOM     15  N   UNL A   1      32.060  27.581  22.729  1.00  0.00    -0.249 NA
ATOM     16  C   UNL A   1      33.569  29.124  22.916  1.00  0.00     0.217 C 
ATOM     17  H   UNL A   1      35.227  28.029  22.174  1.00  0.00     0.165 HD
ATOM     18  N   UNL A   1      32.296  28.917  23.135  1.00  0.00    -0.164 NA
BRANCH  13  19
ATOM     19  C   UNL A   1      30.863  27.121  24.816  1.00  0.00     0.109 C 
ATOM     20  C   UNL A   1      29.899  26.015  25.082  1.00  0.00     0.120 C 
ATOM     21  C   UNL A   1      31.276  27.362  26.233  1.00  0.00     0.081 C 
ATOM     22  N   UNL A   1      29.859  25.663  26.325  1.00  0.00    -0.162 NA
ATOM     23  N   UNL A   1      30.743  26.511  27.057  1.00  0.00    -0.155 NA
BRANCH  21  24
ATOM     24  C   UNL A   1      32.245  28.404  26.609  1.00  0.00    -0.001 A 
ATOM     25  C   UNL A   1      31.858  29.743  26.755  1.00  0.00     0.013 A 
ATOM     26  C   UNL A   1      33.585  28.034  26.770  1.00  0.00     0.013 A 
ATOM     27  C   UNL A   1      32.823  30.711  27.041  1.00  0.00     0.040 A 
ATOM     28  C   UNL A   1      34.544  29.008  27.046  1.00  0.00     0.040 A 
ATOM     29  C   UNL A   1      34.157  30.335  27.175  1.00  0.00     0.123 A 
ATOM     30  F   UNL A   1      35.080  31.272  27.426  1.00  0.00    -0.207 F 
ENDBRANCH  21  24
ENDBRANCH  13  19
ENDBRANCH   7   9
ENDBRANCH   4   5
ENDBRANCH   3   4
ENDBRANCH   2   3
ENDBRANCH   1   2
BRANCH   1  31
ATOM     31  C   UNL A   1      35.517  23.112  24.637  1.00  0.00     0.021 C 
BRANCH  31  32
ATOM     32  C   UNL A   1      36.789  23.742  25.201  1.00  0.00     0.116 C 
BRANCH  32  33
ATOM     33  N   UNL A   1      37.838  22.774  25.475  1.00  0.00    -0.352 N 
ATOM     34  C   UNL A   1      39.038  22.941  26.123  1.00  0.00     0.251 C 
ATOM     35  H   UNL A   1      37.662  21.863  25.149  1.00  0.00     0.163 HD
ATOM     36  O   UNL A   1      39.851  22.015  26.142  1.00  0.00    -0.269 OA
BRANCH  34  37
ATOM     37  C   UNL A   1      39.377  24.229  26.772  1.00  0.00     0.039 A 
ATOM     38  C   UNL A   1      38.955  24.452  28.087  1.00  0.00     0.014 A 
ATOM     39  C   UNL A   1      40.095  25.220  26.097  1.00  0.00     0.014 A 
ATOM     40  C   UNL A   1      39.314  25.634  28.744  1.00  0.00     0.010 A 
ATOM     41  C   UNL A   1      40.515  26.363  26.776  1.00  0.00     0.010 A 
ATOM     42  C   UNL A   1      40.132  26.583  28.108  1.00  0.00    -0.014 A 
BRANCH  42  43
ATOM     43  C   UNL A   1      40.603  27.800  28.826  1.00  0.00     0.031 A 
ATOM     44  C   UNL A   1      41.965  27.827  29.470  1.00  0.00     0.074 A 
ATOM     45  C   UNL A   1      39.783  28.864  28.947  1.00  0.00     0.049 A 
ATOM     46  N   UNL A   1      42.521  28.773  30.183  1.00  0.00    -0.248 NA
ATOM     47  C   UNL A   1      42.804  26.629  29.306  1.00  0.00     0.031 C 
ATOM     48  C   UNL A   1      38.424  28.951  28.407  1.00  0.00     0.029 A 
ATOM     49  N   UNL A   1      39.966  30.072  29.574  1.00  0.00    -0.354 N 
ATOM     50  C   UNL A   1      43.767  28.284  30.558  1.00  0.00     0.074 A 
ATOM     51  C   UNL A   1      43.862  26.936  30.042  1.00  0.00     0.031 C 
ATOM     52  C   UNL A   1      37.906  30.153  28.708  1.00  0.00     0.029 A 
ATOM     53  C   UNL A   1      38.873  30.905  29.501  1.00  0.00     0.049 A 
ATOM     54  H   UNL A   1      40.802  30.320  30.033  1.00  0.00     0.167 HD
ATOM     55  C   UNL A   1      44.753  28.906  31.248  1.00  0.00     0.031 A 
ATOM     56  C   UNL A   1      38.662  32.129  30.025  1.00  0.00     0.031 A 
ATOM     57  C   UNL A   1      44.655  30.245  31.767  1.00  0.00     0.049 A 
ATOM     58  C   UNL A   1      39.761  32.788  30.815  1.00  0.00     0.074 A 
ATOM     59  C   UNL A   1      45.613  30.974  32.451  1.00  0.00     0.029 A 
ATOM     60  N   UNL A   1      43.535  31.057  31.664  1.00  0.00    -0.354 N 
ATOM     61  N   UNL A   1      40.955  32.330  31.106  1.00  0.00    -0.248 NA
ATOM     62  C   UNL A   1      39.489  34.135  31.336  1.00  0.00     0.031 C 
ATOM     63  C   UNL A   1      45.052  32.205  32.810  1.00  0.00     0.029 A 
ATOM     64  C   UNL A   1      43.770  32.270  32.289  1.00  0.00     0.049 A 
ATOM     65  H   UNL A   1      42.697  30.807  31.212  1.00  0.00     0.167 HD
ATOM     66  C   UNL A   1      41.586  33.344  31.820  1.00  0.00     0.074 A 
ATOM     67  C   UNL A   1      40.649  34.446  31.898  1.00  0.00     0.031 C 
ATOM     68  C   UNL A   1      42.829  33.361  32.360  1.00  0.00     0.031 A 
BRANCH  55  69
ATOM     69  C   UNL A   1      46.032  28.140  31.482  1.00  0.00    -0.014 A 
ATOM     70  C   UNL A   1      47.096  28.210  30.563  1.00  0.00     0.010 A 
ATOM     71  C   UNL A   1      46.195  27.381  32.655  1.00  0.00     0.010 A 
ATOM     72  C   UNL A   1      48.280  27.506  30.793  1.00  0.00     0.020 A 
ATOM     73  C   UNL A   1      47.390  26.700  32.905  1.00  0.00     0.020 A 
ATOM     74  C   UNL A   1      48.420  26.755  31.963  1.00  0.00     0.054 A 
BRANCH  74  75
ATOM     75  S   UNL A   1      49.980  25.874  32.245  1.00  0.00     0.124 S 
ATOM     76  O   UNL A   1      49.980  24.902  31.155  1.00  0.00    -0.237 OA
ATOM     77  O   UNL A   1      50.973  26.940  32.135  1.00  0.00    -0.237 OA
ATOM     78  O   UNL A   1      49.823  25.307  33.583  1.00  0.00    -0.744 OA
ENDBRANCH  74  75
ENDBRANCH  55  69
BRANCH  56  79
ATOM     79  C   UNL A   1      37.352  32.809  29.823  1.00  0.00    -0.014 A 
ATOM     80  C   UNL A   1      36.313  32.668  30.760  1.00  0.00     0.010 A 
ATOM     81  C   UNL A   1      37.137  33.609  28.685  1.00  0.00     0.010 A 
ATOM     82  C   UNL A   1      35.079  33.292  30.552  1.00  0.00     0.020 A 
ATOM     83  C   UNL A   1      35.917  34.262  28.489  1.00  0.00     0.020 A 
ATOM     84  C   UNL A   1      34.889  34.088  29.418  1.00  0.00     0.054 A 
BRANCH  84  85
ATOM     85  S   UNL A   1      33.296  34.924  29.190  1.00  0.00     0.124 S 
ATOM     86  O   UNL A   1      32.729  34.868  30.534  1.00  0.00    -0.237 OA
ATOM     87  O   UNL A   1      33.699  36.249  28.726  1.00  0.00    -0.237 OA
ATOM     88  O   UNL A   1      32.617  34.102  28.189  1.00  0.00    -0.744 OA
ENDBRANCH  84  85
ENDBRANCH  56  79
BRANCH  68  89
ATOM     89  C   UNL A   1      43.271  34.625  33.053  1.00  0.00    -0.014 A 
ATOM     90  C   UNL A   1      43.063  34.818  34.430  1.00  0.00     0.010 A 
ATOM     91  C   UNL A   1      43.957  35.612  32.320  1.00  0.00     0.010 A 
ATOM     92  C   UNL A   1      43.502  35.990  35.053  1.00  0.00     0.020 A 
ATOM     93  C   UNL A   1      44.426  36.769  32.945  1.00  0.00     0.020 A 
ATOM     94  C   UNL A   1      44.183  36.958  34.307  1.00  0.00     0.054 A 
BRANCH  94  95
ATOM     95  S   UNL A   1      44.780  38.447  35.150  1.00  0.00     0.124 S 
ATOM     96  O   UNL A   1      46.121  38.597  34.592  1.00  0.00    -0.237 OA
ATOM     97  O   UNL A   1      43.811  39.460  34.738  1.00  0.00    -0.237 OA
ATOM     98  O   UNL A   1      44.732  38.088  36.566  1.00  0.00    -0.744 OA
ENDBRANCH  94  95
ENDBRANCH  68  89
ENDBRANCH  42  43
ENDBRANCH  34  37
ENDBRANCH  32  33
ENDBRANCH  31  32
ENDBRANCH   1  31
TORSDOF 18
ENDMDL
MODEL 2
REMARK VINA RESULT:     -11.8      2.817      9.236
REMARK SMILES O=C(NCCCCCCNC(=O)c1ccc(-c2c3nc(c(-c4ccc(S(=O)(=O)[O-])cc4)c4ccc([nH]4)c(-c4ccc(S(=O)(=O)[O-])cc4)c4nc(c(-c5ccc(S(=O)(=O)[O-])cc5)c5ccc2[nH]5)C=C4)C=C3)cc1)C1=N[C@@H]2NC=NN2[C@@H]([C@H]2C=NN=C2c2ccc(F)cc2)C1
REMARK SMILES IDX 7 1 6 2 5 3 4 4 3 5 1 6 2 7 73 9 74 10 93 11 75 12 80 13
REMARK SMILES IDX 76 14 79 15 77 16 78 18 81 19 82 20 85 21 83 22 84 23 86 24
REMARK SMILES IDX 87 25 92 26 88 27 91 28 89 29 90 30 8 31 9 32 10 33 11 34
REMARK SMILES IDX 12 36 13 37 14 38 72 39 15 40 71 41 16 42 17 43 18 44 65 45
REMARK SMILES IDX 19 46 70 47 64 48 66 49 20 50 69 51 63 52 62 53 21 55 51 56
REMARK SMILES IDX 32 57 50 58 33 59 36 60 49 61 67 62 34 63 35 64 48 66 68 67
REMARK SMILES IDX 37 68 22 69 23 70 31 71 24 72 30 73 25 74 26 75 27 76 28 77
REMARK SMILES IDX 29 78 52 79 53 80 61 81 54 82 60 83 55 84 56 85 57 86 58 87
REMARK SMILES IDX 59 88 38 89 39 90 47 91 40 92 46 93 41 94 42 95 43 96 44 97
REMARK SMILES IDX 45 98
REMARK H PARENT 3 8 76 17 10 35 66 54 36 65
REMARK Flexibility Score: inf
ROOT
ATOM      1  C   UNL A   1      31.639  28.270  26.444  1.00  0.00     0.002 C 
ENDROOT
BRANCH   1   2
ATOM      2  C   UNL A   1      31.029  28.499  25.060  1.00  0.00     0.002 C 
BRANCH   2   3
ATOM      3  C   UNL A   1      31.416  27.514  23.955  1.00  0.00     0.021 C 
BRANCH   3   4
ATOM      4  C   UNL A   1      30.542  26.276  23.765  1.00  0.00     0.116 C 
BRANCH   4   5
ATOM      5  N   UNL A   1      29.646  25.965  24.860  1.00  0.00    -0.351 N 
ATOM      6  O   UNL A   1      29.028  25.168  26.876  1.00  0.00    -0.268 OA
ATOM      7  C   UNL A   1      29.849  25.162  25.963  1.00  0.00     0.265 C 
ATOM      8  H   UNL A   1      28.759  26.390  24.809  1.00  0.00     0.163 HD
BRANCH   7   9
ATOM      9  C   UNL A   1      31.024  24.170  26.043  1.00  0.00     0.106 C 
ATOM     10  N   UNL A   1      31.249  23.644  27.198  1.00  0.00    -0.237 NA
ATOM     11  C   UNL A   1      31.849  23.902  24.815  1.00  0.00     0.090 C 
ATOM     12  C   UNL A   1      32.133  22.512  27.296  1.00  0.00     0.319 C 
ATOM     13  C   UNL A   1      33.017  22.956  25.097  1.00  0.00     0.127 C 
ATOM     14  N   UNL A   1      33.277  22.580  28.161  1.00  0.00    -0.335 N 
ATOM     15  N   UNL A   1      32.654  21.887  26.059  1.00  0.00    -0.249 NA
ATOM     16  C   UNL A   1      34.133  21.662  27.626  1.00  0.00     0.217 C 
ATOM     17  H   UNL A   1      33.412  23.153  28.950  1.00  0.00     0.165 HD
ATOM     18  N   UNL A   1      33.810  21.171  26.457  1.00  0.00    -0.164 NA
BRANCH  13  19
ATOM     19  C   UNL A   1      33.623  22.290  23.846  1.00  0.00     0.109 C 
ATOM     20  C   UNL A   1      32.892  22.649  22.597  1.00  0.00     0.120 C 
ATOM     21  C   UNL A   1      34.952  22.857  23.461  1.00  0.00     0.081 C 
ATOM     22  N   UNL A   1      33.609  23.331  21.765  1.00  0.00    -0.162 NA
ATOM     23  N   UNL A   1      34.917  23.475  22.319  1.00  0.00    -0.155 NA
BRANCH  21  24
ATOM     24  C   UNL A   1      36.131  22.780  24.339  1.00  0.00    -0.001 A 
ATOM     25  C   UNL A   1      36.950  21.643  24.363  1.00  0.00     0.013 A 
ATOM     26  C   UNL A   1      36.391  23.855  25.195  1.00  0.00     0.013 A 
ATOM     27  C   UNL A   1      38.016  21.580  25.264  1.00  0.00     0.040 A 
ATOM     28  C   UNL A   1      37.450  23.782  26.098  1.00  0.00     0.040 A 
ATOM     29  C   UNL A   1      38.249  22.646  26.127  1.00  0.00     0.123 A 
ATOM     30  F   UNL A   1      39.259  22.571  27.004  1.00  0.00    -0.207 F 
ENDBRANCH  21  24
ENDBRANCH  13  19
ENDBRANCH   7   9
ENDBRANCH   4   5
ENDBRANCH   3   4
ENDBRANCH   2   3
ENDBRANCH   1   2
BRANCH   1  31
ATOM     31  C   UNL A   1      33.092  27.792  26.488  1.00  0.00     0.021 C 
BRANCH  31  32
ATOM     32  C   UNL A   1      34.160  28.836  26.166  1.00  0.00     0.116 C 
BRANCH  32  33
ATOM     33  N   UNL A   1      33.963  30.094  26.866  1.00  0.00    -0.352 N 
ATOM     34  C   UNL A   1      34.748  30.700  27.817  1.00  0.00     0.251 C 
ATOM     35  H   UNL A   1      33.146  30.586  26.623  1.00  0.00     0.163 HD
ATOM     36  O   UNL A   1      34.338  31.714  28.385  1.00  0.00    -0.269 OA
BRANCH  34  37
ATOM     37  C   UNL A   1      36.064  30.132  28.188  1.00  0.00     0.039 A 
ATOM     38  C   UNL A   1      37.101  30.166  27.251  1.00  0.00     0.014 A 
ATOM     39  C   UNL A   1      36.284  29.558  29.444  1.00  0.00     0.014 A 
ATOM     40  C   UNL A   1      38.371  29.693  27.597  1.00  0.00     0.010 A 
ATOM     41  C   UNL A   1      37.568  29.155  29.812  1.00  0.00     0.010 A 
ATOM     42  C   UNL A   1      38.627  29.220  28.894  1.00  0.00    -0.014 A 
BRANCH  42  43
ATOM     43  C   UNL A   1      39.996  28.803  29.308  1.00  0.00     0.031 A 
ATOM     44  C   UNL A   1      40.894  29.759  30.049  1.00  0.00     0.074 A 
ATOM     45  C   UNL A   1      40.453  27.581  28.968  1.00  0.00     0.049 A 
ATOM     46  N   UNL A   1      42.132  29.593  30.438  1.00  0.00    -0.248 NA
ATOM     47  C   UNL A   1      40.333  31.079  30.380  1.00  0.00     0.031 C 
ATOM     48  C   UNL A   1      39.700  26.574  28.215  1.00  0.00     0.029 A 
ATOM     49  N   UNL A   1      41.666  26.978  29.201  1.00  0.00    -0.354 N 
ATOM     50  C   UNL A   1      42.501  30.786  31.052  1.00  0.00     0.074 A 
ATOM     51  C   UNL A   1      41.375  31.686  30.932  1.00  0.00     0.031 C 
ATOM     52  C   UNL A   1      40.459  25.477  28.066  1.00  0.00     0.029 A 
ATOM     53  C   UNL A   1      41.767  25.714  28.669  1.00  0.00     0.049 A 
ATOM     54  H   UNL A   1      42.395  27.412  29.702  1.00  0.00     0.167 HD
ATOM     55  C   UNL A   1      43.661  31.097  31.678  1.00  0.00     0.031 A 
ATOM     56  C   UNL A   1      42.798  24.846  28.652  1.00  0.00     0.031 A 
ATOM     57  C   UNL A   1      44.784  30.202  31.792  1.00  0.00     0.049 A 
ATOM     58  C   UNL A   1      44.088  25.225  29.328  1.00  0.00     0.074 A 
ATOM     59  C   UNL A   1      45.990  30.415  32.436  1.00  0.00     0.029 A 
ATOM     60  N   UNL A   1      44.841  28.928  31.247  1.00  0.00    -0.354 N 
ATOM     61  N   UNL A   1      44.394  26.336  29.954  1.00  0.00    -0.248 NA
ATOM     62  C   UNL A   1      45.167  24.229  29.306  1.00  0.00     0.031 C 
ATOM     63  C   UNL A   1      46.798  29.291  32.234  1.00  0.00     0.029 A 
ATOM     64  C   UNL A   1      46.070  28.350  31.522  1.00  0.00     0.049 A 
ATOM     65  H   UNL A   1      44.116  28.498  30.740  1.00  0.00     0.167 HD
ATOM     66  C   UNL A   1      45.691  26.161  30.425  1.00  0.00     0.074 A 
ATOM     67  C   UNL A   1      46.103  24.830  30.029  1.00  0.00     0.031 C 
ATOM     68  C   UNL A   1      46.469  27.023  31.124  1.00  0.00     0.031 A 
BRANCH  55  69
ATOM     69  C   UNL A   1      43.775  32.469  32.295  1.00  0.00    -0.014 A 
ATOM     70  C   UNL A   1      43.441  32.685  33.645  1.00  0.00     0.010 A 
ATOM     71  C   UNL A   1      44.267  33.545  31.535  1.00  0.00     0.010 A 
ATOM     72  C   UNL A   1      43.559  33.957  34.211  1.00  0.00     0.020 A 
ATOM     73  C   UNL A   1      44.417  34.813  32.105  1.00  0.00     0.020 A 
ATOM     74  C   UNL A   1      44.047  35.014  33.437  1.00  0.00     0.054 A 
BRANCH  74  75
ATOM     75  S   UNL A   1      44.214  36.646  34.208  1.00  0.00     0.124 S 
ATOM     76  O   UNL A   1      43.092  37.375  33.620  1.00  0.00    -0.237 OA
ATOM     77  O   UNL A   1      44.088  36.342  35.631  1.00  0.00    -0.237 OA
ATOM     78  O   UNL A   1      45.538  37.097  33.785  1.00  0.00    -0.744 OA
ENDBRANCH  74  75
ENDBRANCH  55  69
BRANCH  56  79
ATOM     79  C   UNL A   1      42.653  23.531  27.964  1.00  0.00    -0.014 A 
ATOM     80  C   UNL A   1      42.154  22.409  28.648  1.00  0.00     0.010 A 
ATOM     81  C   UNL A   1      43.015  23.398  26.610  1.00  0.00     0.010 A 
ATOM     82  C   UNL A   1      42.042  21.174  28.001  1.00  0.00     0.020 A 
ATOM     83  C   UNL A   1      42.873  22.174  25.949  1.00  0.00     0.020 A 
ATOM     84  C   UNL A   1      42.401  21.065  26.654  1.00  0.00     0.054 A 
BRANCH  84  85
ATOM     85  S   UNL A   1      42.206  19.465  25.822  1.00  0.00     0.124 S 
ATOM     86  O   UNL A   1      40.785  19.467  25.489  1.00  0.00    -0.237 OA
ATOM     87  O   UNL A   1      43.123  19.584  24.691  1.00  0.00    -0.237 OA
ATOM     88  O   UNL A   1      42.609  18.497  26.841  1.00  0.00    -0.744 OA
ENDBRANCH  84  85
ENDBRANCH  56  79
BRANCH  68  89
ATOM     89  C   UNL A   1      47.836  26.546  31.544  1.00  0.00    -0.014 A 
ATOM     90  C   UNL A   1      48.043  25.908  32.780  1.00  0.00     0.010 A 
ATOM     91  C   UNL A   1      48.920  26.688  30.658  1.00  0.00     0.010 A 
ATOM     92  C   UNL A   1      49.317  25.454  33.136  1.00  0.00     0.020 A 
ATOM     93  C   UNL A   1      50.187  26.206  30.996  1.00  0.00     0.020 A 
ATOM     94  C   UNL A   1      50.381  25.605  32.240  1.00  0.00     0.054 A 
BRANCH  94  95
ATOM     95  S   UNL A   1      52.012  24.966  32.709  1.00  0.00     0.124 S 
ATOM     96  O   UNL A   1      52.101  25.359  34.112  1.00  0.00    -0.237 OA
ATOM     97  O   UNL A   1      51.877  23.532  32.465  1.00  0.00    -0.237 OA
ATOM     98  O   UNL A   1      52.929  25.662  31.809  1.00  0.00    -0.744 OA
ENDBRANCH  94  95
ENDBRANCH  68  89
ENDBRANCH  42  43
ENDBRANCH  34  37
ENDBRANCH  32  33
ENDBRANCH  31  32
ENDBRANCH   1  31
TORSDOF 18
ENDMDL
MODEL 3
REMARK VINA RESULT:     -11.5      4.220     10.074
REMARK SMILES O=C(NCCCCCCNC(=O)c1ccc(-c2c3nc(c(-c4ccc(S(=O)(=O)[O-])cc4)c4ccc([nH]4)c(-c4ccc(S(=O)(=O)[O-])cc4)c4nc(c(-c5ccc(S(=O)(=O)[O-])cc5)c5ccc2[nH]5)C=C4)C=C3)cc1)C1=N[C@@H]2NC=NN2[C@@H]([C@H]2C=NN=C2c2ccc(F)cc2)C1
REMARK SMILES IDX 7 1 6 2 5 3 4 4 3 5 1 6 2 7 73 9 74 10 93 11 75 12 80 13
REMARK SMILES IDX 76 14 79 15 77 16 78 18 81 19 82 20 85 21 83 22 84 23 86 24
REMARK SMILES IDX 87 25 92 26 88 27 91 28 89 29 90 30 8 31 9 32 10 33 11 34
REMARK SMILES IDX 12 36 13 37 14 38 72 39 15 40 71 41 16 42 17 43 18 44 65 45
REMARK SMILES IDX 19 46 70 47 64 48 66 49 20 50 69 51 63 52 62 53 21 55 51 56
REMARK SMILES IDX 32 57 50 58 33 59 36 60 49 61 67 62 34 63 35 64 48 66 68 67
REMARK SMILES IDX 37 68 22 69 23 70 31 71 24 72 30 73 25 74 26 75 27 76 28 77
REMARK SMILES IDX 29 78 52 79 53 80 61 81 54 82 60 83 55 84 56 85 57 86 58 87
REMARK SMILES IDX 59 88 38 89 39 90 47 91 40 92 46 93 41 94 42 95 43 96 44 97
REMARK SMILES IDX 45 98
REMARK H PARENT 3 8 76 17 10 35 66 54 36 65
REMARK Flexibility Score: inf
ROOT
ATOM      1  C   UNL A   1      33.487  28.910  27.238  1.00  0.00     0.002 C 
ENDROOT
BRANCH   1   2
ATOM      2  C   UNL A   1      32.677  29.743  26.243  1.00  0.00     0.002 C 
BRANCH   2   3
ATOM      3  C   UNL A   1      31.837  28.981  25.216  1.00  0.00     0.021 C 
BRANCH   3   4
ATOM      4  C   UNL A   1      31.830  27.456  25.291  1.00  0.00     0.116 C 
BRANCH   4   5
ATOM      5  N   UNL A   1      30.544  26.845  25.562  1.00  0.00    -0.351 N 
ATOM      6  O   UNL A   1      29.099  25.326  26.390  1.00  0.00    -0.268 OA
ATOM      7  C   UNL A   1      30.251  25.593  26.061  1.00  0.00     0.265 C 
ATOM      8  H   UNL A   1      29.762  27.410  25.361  1.00  0.00     0.163 HD
BRANCH   7   9
ATOM      9  C   UNL A   1      31.305  24.472  26.118  1.00  0.00     0.106 C 
ATOM     10  N   UNL A   1      31.433  23.866  27.248  1.00  0.00    -0.237 NA
ATOM     11  C   UNL A   1      32.135  24.176  24.899  1.00  0.00     0.090 C 
ATOM     12  C   UNL A   1      32.183  22.637  27.308  1.00  0.00     0.319 C 
ATOM     13  C   UNL A   1      33.181  23.091  25.160  1.00  0.00     0.127 C 
ATOM     14  N   UNL A   1      33.299  22.533  28.204  1.00  0.00    -0.335 N 
ATOM     15  N   UNL A   1      32.671  22.023  26.052  1.00  0.00    -0.249 NA
ATOM     16  C   UNL A   1      34.064  21.552  27.643  1.00  0.00     0.217 C 
ATOM     17  H   UNL A   1      33.471  23.045  29.027  1.00  0.00     0.165 HD
ATOM     18  N   UNL A   1      33.726  21.162  26.441  1.00  0.00    -0.164 NA
BRANCH  13  19
ATOM     19  C   UNL A   1      33.749  22.426  23.890  1.00  0.00     0.109 C 
ATOM     20  C   UNL A   1      33.061  22.883  22.649  1.00  0.00     0.120 C 
ATOM     21  C   UNL A   1      35.121  22.905  23.537  1.00  0.00     0.081 C 
ATOM     22  N   UNL A   1      33.837  23.538  21.849  1.00  0.00    -0.162 NA
ATOM     23  N   UNL A   1      35.146  23.563  22.418  1.00  0.00    -0.155 NA
BRANCH  21  24
ATOM     24  C   UNL A   1      36.281  22.707  24.422  1.00  0.00    -0.001 A 
ATOM     25  C   UNL A   1      36.843  23.774  25.138  1.00  0.00     0.013 A 
ATOM     26  C   UNL A   1      36.849  21.432  24.494  1.00  0.00     0.013 A 
ATOM     27  C   UNL A   1      37.988  23.559  25.908  1.00  0.00     0.040 A 
ATOM     28  C   UNL A   1      37.998  21.226  25.257  1.00  0.00     0.040 A 
ATOM     29  C   UNL A   1      38.558  22.290  25.953  1.00  0.00     0.123 A 
ATOM     30  F   UNL A   1      39.669  22.096  26.675  1.00  0.00    -0.207 F 
ENDBRANCH  21  24
ENDBRANCH  13  19
ENDBRANCH   7   9
ENDBRANCH   4   5
ENDBRANCH   3   4
ENDBRANCH   2   3
ENDBRANCH   1   2
BRANCH   1  31
ATOM     31  C   UNL A   1      35.006  29.096  27.218  1.00  0.00     0.021 C 
BRANCH  31  32
ATOM     32  C   UNL A   1      35.543  30.368  27.871  1.00  0.00     0.116 C 
BRANCH  32  33
ATOM     33  N   UNL A   1      35.425  30.363  29.320  1.00  0.00    -0.352 N 
ATOM     34  C   UNL A   1      36.373  30.088  30.276  1.00  0.00     0.251 C 
ATOM     35  H   UNL A   1      34.534  30.592  29.668  1.00  0.00     0.163 HD
ATOM     36  O   UNL A   1      36.036  30.015  31.460  1.00  0.00    -0.269 OA
BRANCH  34  37
ATOM     37  C   UNL A   1      37.785  29.850  29.898  1.00  0.00     0.039 A 
ATOM     38  C   UNL A   1      38.703  29.517  30.899  1.00  0.00     0.014 A 
ATOM     39  C   UNL A   1      38.215  29.961  28.572  1.00  0.00     0.014 A 
ATOM     40  C   UNL A   1      40.029  29.226  30.561  1.00  0.00     0.010 A 
ATOM     41  C   UNL A   1      39.517  29.599  28.228  1.00  0.00     0.010 A 
ATOM     42  C   UNL A   1      40.439  29.225  29.217  1.00  0.00    -0.014 A 
BRANCH  42  43
ATOM     43  C   UNL A   1      41.820  28.825  28.832  1.00  0.00     0.031 A 
ATOM     44  C   UNL A   1      42.929  29.845  28.793  1.00  0.00     0.074 A 
ATOM     45  C   UNL A   1      42.068  27.552  28.463  1.00  0.00     0.049 A 
ATOM     46  N   UNL A   1      44.176  29.694  28.428  1.00  0.00    -0.248 NA
ATOM     47  C   UNL A   1      42.586  31.217  29.200  1.00  0.00     0.031 C 
ATOM     48  C   UNL A   1      41.076  26.475  28.416  1.00  0.00     0.029 A 
ATOM     49  N   UNL A   1      43.229  26.947  28.044  1.00  0.00    -0.354 N 
ATOM     50  C   UNL A   1      44.764  30.947  28.554  1.00  0.00     0.074 A 
ATOM     51  C   UNL A   1      43.723  31.859  28.974  1.00  0.00     0.031 C 
ATOM     52  C   UNL A   1      41.673  25.342  28.013  1.00  0.00     0.029 A 
ATOM     53  C   UNL A   1      43.077  25.617  27.727  1.00  0.00     0.049 A 
ATOM     54  H   UNL A   1      44.090  27.422  27.978  1.00  0.00     0.167 HD
ATOM     55  C   UNL A   1      46.057  31.304  28.361  1.00  0.00     0.031 A 
ATOM     56  C   UNL A   1      43.961  24.721  27.246  1.00  0.00     0.031 A 
ATOM     57  C   UNL A   1      47.091  30.397  27.937  1.00  0.00     0.049 A 
ATOM     58  C   UNL A   1      45.385  25.147  27.009  1.00  0.00     0.074 A 
ATOM     59  C   UNL A   1      48.437  30.657  27.746  1.00  0.00     0.029 A 
ATOM     60  N   UNL A   1      46.897  29.057  27.636  1.00  0.00    -0.354 N 
ATOM     61  N   UNL A   1      45.933  26.325  27.193  1.00  0.00    -0.248 NA
ATOM     62  C   UNL A   1      46.312  24.122  26.514  1.00  0.00     0.031 C 
ATOM     63  C   UNL A   1      49.046  29.488  27.275  1.00  0.00     0.029 A 
ATOM     64  C   UNL A   1      48.094  28.482  27.239  1.00  0.00     0.049 A 
ATOM     65  H   UNL A   1      46.036  28.584  27.695  1.00  0.00     0.167 HD
ATOM     66  C   UNL A   1      47.275  26.174  26.863  1.00  0.00     0.074 A 
ATOM     67  C   UNL A   1      47.460  24.786  26.488  1.00  0.00     0.031 C 
ATOM     68  C   UNL A   1      48.266  27.099  26.870  1.00  0.00     0.031 A 
BRANCH  55  69
ATOM     69  C   UNL A   1      46.428  32.745  28.610  1.00  0.00    -0.014 A 
ATOM     70  C   UNL A   1      46.927  33.158  29.860  1.00  0.00     0.010 A 
ATOM     71  C   UNL A   1      46.324  33.689  27.573  1.00  0.00     0.010 A 
ATOM     72  C   UNL A   1      47.278  34.492  30.078  1.00  0.00     0.020 A 
ATOM     73  C   UNL A   1      46.703  35.020  27.778  1.00  0.00     0.020 A 
ATOM     74  C   UNL A   1      47.164  35.416  29.036  1.00  0.00     0.054 A 
BRANCH  74  75
ATOM     75  S   UNL A   1      47.653  37.135  29.344  1.00  0.00     0.124 S 
ATOM     76  O   UNL A   1      46.358  37.803  29.449  1.00  0.00    -0.237 OA
ATOM     77  O   UNL A   1      48.410  37.033  30.588  1.00  0.00    -0.237 OA
ATOM     78  O   UNL A   1      48.441  37.488  28.165  1.00  0.00    -0.744 OA
ENDBRANCH  74  75
ENDBRANCH  55  69
BRANCH  56  79
ATOM     79  C   UNL A   1      43.521  23.328  26.948  1.00  0.00    -0.014 A 
ATOM     80  C   UNL A   1      43.467  22.854  25.626  1.00  0.00     0.010 A 
ATOM     81  C   UNL A   1      43.154  22.463  27.997  1.00  0.00     0.010 A 
ATOM     82  C   UNL A   1      43.032  21.553  25.354  1.00  0.00     0.020 A 
ATOM     83  C   UNL A   1      42.752  21.150  27.733  1.00  0.00     0.020 A 
ATOM     84  C   UNL A   1      42.679  20.708  26.411  1.00  0.00     0.054 A 
BRANCH  84  85
ATOM     85  S   UNL A   1      42.160  19.010  26.039  1.00  0.00     0.124 S 
ATOM     86  O   UNL A   1      40.724  19.169  25.838  1.00  0.00    -0.237 OA
ATOM     87  O   UNL A   1      42.938  18.698  24.842  1.00  0.00    -0.237 OA
ATOM     88  O   UNL A   1      42.547  18.263  27.235  1.00  0.00    -0.744 OA
ENDBRANCH  84  85
ENDBRANCH  56  79
BRANCH  68  89
ATOM     89  C   UNL A   1      49.653  26.639  26.499  1.00  0.00    -0.014 A 
ATOM     90  C   UNL A   1      50.144  26.773  25.188  1.00  0.00     0.010 A 
ATOM     91  C   UNL A   1      50.497  26.116  27.495  1.00  0.00     0.010 A 
ATOM     92  C   UNL A   1      51.442  26.359  24.874  1.00  0.00     0.020 A 
ATOM     93  C   UNL A   1      51.806  25.731  27.193  1.00  0.00     0.020 A 
ATOM     94  C   UNL A   1      52.266  25.842  25.880  1.00  0.00     0.054 A 
BRANCH  94  95
ATOM     95  S   UNL A   1      53.960  25.354  25.455  1.00  0.00     0.124 S 
ATOM     96  O   UNL A   1      53.745  24.105  24.730  1.00  0.00    -0.237 OA
ATOM     97  O   UNL A   1      54.424  26.479  24.646  1.00  0.00    -0.237 OA
ATOM     98  O   UNL A   1      54.617  25.215  26.753  1.00  0.00    -0.744 OA
ENDBRANCH  94  95
ENDBRANCH  68  89
ENDBRANCH  42  43
ENDBRANCH  34  37
ENDBRANCH  32  33
ENDBRANCH  31  32
ENDBRANCH   1  31
TORSDOF 18
ENDMDL
