MODEL 1
REMARK VINA RESULT:     -10.5      0.000      0.000
REMARK SMILES CCCC(O)(CCC)[C@@]1(C)CC[C@@H](C(=O)NCCCCCCNC(=O)c2ccc(-c3c4nc(c(-c5ccc(S(=O)(=O)[O-])cc5)c5ccc([nH]5)c(-c5ccc(S(=O)(=O)[O-])cc5)c5nc(c(-c6ccc(S(=O)(=O)[O-])cc6)c6ccc3[nH]6)C=C5)C=C4)cc2)C(C)(C)O1
REMARK SMILES IDX 19 1 18 2 17 3 16 4 14 5 15 6 13 8 9 9 10 10 11 11 89 12
REMARK SMILES IDX 12 13 86 14 87 15 88 16 4 17 3 18 2 19 1 20 5 21 6 23 7 24
REMARK SMILES IDX 8 25 20 26 21 27 22 28 23 29 24 30 25 32 26 33 27 34 85 35
REMARK SMILES IDX 28 36 84 37 29 38 30 39 31 40 78 41 32 42 83 43 77 44 79 45
REMARK SMILES IDX 33 46 82 47 76 48 75 49 34 51 64 52 45 53 63 54 46 55 49 56
REMARK SMILES IDX 62 57 80 58 47 59 48 60 61 62 81 63 50 64 35 65 36 66 44 67
REMARK SMILES IDX 37 68 43 69 38 70 39 71 40 72 41 73 42 74 65 75 66 76 74 77
REMARK SMILES IDX 67 78 73 79 68 80 69 81 70 82 71 83 72 84 51 85 52 86 60 87
REMARK SMILES IDX 53 88 59 89 54 90 55 91 56 92 57 93 58 94
REMARK H PARENT 16 7 5 22 23 31 79 50 49 61
REMARK Flexibility Score: inf
ROOT
ATOM      1  C   UNL A   1      32.513  30.003  26.051  1.00  0.00     0.002 C 
ENDROOT
BRANCH   1   2
ATOM      2  C   UNL A   1      32.908  29.190  24.821  1.00  0.00     0.021 C 
BRANCH   2   3
ATOM      3  C   UNL A   1      31.778  28.344  24.244  1.00  0.00     0.116 C 
BRANCH   3   4
ATOM      4  N   UNL A   1      31.061  27.620  25.276  1.00  0.00    -0.356 N 
ATOM      5  C   UNL A   1      30.953  26.292  25.545  1.00  0.00     0.226 C 
ATOM      6  O   UNL A   1      30.217  25.979  26.488  1.00  0.00    -0.275 OA
ATOM      7  H   UNL A   1      30.559  28.197  25.897  1.00  0.00     0.163 HD
BRANCH   5   8
ATOM      8  C   UNL A   1      31.657  25.196  24.733  1.00  0.00     0.110 C 
ATOM      9  C   UNL A   1      32.852  22.550  23.955  1.00  0.00     0.095 C 
ATOM     10  C   UNL A   1      33.532  22.303  22.581  1.00  0.00     0.045 C 
ATOM     11  C   UNL A   1      31.373  22.886  23.601  1.00  0.00     0.039 C 
ATOM     12  O   UNL A   1      33.551  23.699  24.482  1.00  0.00    -0.366 OA
ATOM     13  C   UNL A   1      30.714  24.131  24.186  1.00  0.00     0.019 C 
ATOM     14  C   UNL A   1      32.943  24.652  25.371  1.00  0.00     0.075 C 
ATOM     15  C   UNL A   1      32.799  24.153  26.808  1.00  0.00     0.043 C 
ATOM     16  C   UNL A   1      33.996  25.786  25.467  1.00  0.00     0.043 C 
BRANCH   9  17
ATOM     17  C   UNL A   1      33.085  21.265  24.897  1.00  0.00     0.093 C 
BRANCH  17  18
ATOM     18  C   UNL A   1      33.028  19.833  24.250  1.00  0.00     0.038 C 
BRANCH  18  19
ATOM     19  C   UNL A   1      32.015  19.460  23.161  1.00  0.00    -0.000 C 
ATOM     20  C   UNL A   1      32.522  18.495  22.108  1.00  0.00     0.004 C 
ENDBRANCH  18  19
ENDBRANCH  17  18
BRANCH  17  21
ATOM     21  O   UNL A   1      32.102  21.294  25.958  1.00  0.00    -0.387 OA
ATOM     22  H   UNL A   1      31.228  21.483  25.584  1.00  0.00     0.211 HD
ENDBRANCH  17  21
BRANCH  17  23
ATOM     23  C   UNL A   1      34.460  21.311  25.669  1.00  0.00     0.038 C 
BRANCH  23  24
ATOM     24  C   UNL A   1      35.772  20.860  25.012  1.00  0.00    -0.000 C 
ATOM     25  C   UNL A   1      36.700  21.956  24.505  1.00  0.00     0.004 C 
ENDBRANCH  23  24
ENDBRANCH  17  23
ENDBRANCH   9  17
ENDBRANCH   5   8
ENDBRANCH   3   4
ENDBRANCH   2   3
ENDBRANCH   1   2
BRANCH   1  26
ATOM     26  C   UNL A   1      33.461  29.857  27.243  1.00  0.00     0.002 C 
BRANCH  26  27
ATOM     27  C   UNL A   1      34.326  31.086  27.536  1.00  0.00     0.021 C 
BRANCH  27  28
ATOM     28  C   UNL A   1      35.658  30.774  28.208  1.00  0.00     0.116 C 
BRANCH  28  29
ATOM     29  N   UNL A   1      35.543  30.782  29.658  1.00  0.00    -0.352 N 
ATOM     30  C   UNL A   1      36.370  30.193  30.583  1.00  0.00     0.251 C 
ATOM     31  H   UNL A   1      34.772  31.272  30.023  1.00  0.00     0.163 HD
ATOM     32  O   UNL A   1      36.033  30.083  31.748  1.00  0.00    -0.269 OA
BRANCH  30  33
ATOM     33  C   UNL A   1      37.679  29.688  30.120  1.00  0.00     0.039 A 
ATOM     34  C   UNL A   1      38.014  29.792  28.770  1.00  0.00     0.014 A 
ATOM     35  C   UNL A   1      38.583  29.167  31.049  1.00  0.00     0.014 A 
ATOM     36  C   UNL A   1      39.292  29.417  28.355  1.00  0.00     0.010 A 
ATOM     37  C   UNL A   1      39.876  28.863  30.645  1.00  0.00     0.010 A 
ATOM     38  C   UNL A   1      40.241  28.980  29.294  1.00  0.00    -0.014 A 
BRANCH  38  39
ATOM     39  C   UNL A   1      41.624  28.619  28.900  1.00  0.00     0.031 A 
ATOM     40  C   UNL A   1      42.674  29.691  28.828  1.00  0.00     0.074 A 
ATOM     41  C   UNL A   1      41.906  27.359  28.517  1.00  0.00     0.049 A 
ATOM     42  N   UNL A   1      43.899  29.618  28.375  1.00  0.00    -0.248 NA
ATOM     43  C   UNL A   1      42.286  31.032  29.300  1.00  0.00     0.031 C 
ATOM     44  C   UNL A   1      40.963  26.238  28.519  1.00  0.00     0.029 A 
ATOM     45  N   UNL A   1      43.068  26.812  28.035  1.00  0.00    -0.354 N 
ATOM     46  C   UNL A   1      44.416  30.904  28.482  1.00  0.00     0.074 A 
ATOM     47  C   UNL A   1      43.359  31.746  28.997  1.00  0.00     0.031 C 
ATOM     48  C   UNL A   1      41.589  25.135  28.076  1.00  0.00     0.029 A 
ATOM     49  C   UNL A   1      42.960  25.480  27.712  1.00  0.00     0.049 A 
ATOM     50  H   UNL A   1      43.902  27.325  27.929  1.00  0.00     0.167 HD
ATOM     51  C   UNL A   1      45.664  31.341  28.190  1.00  0.00     0.031 A 
ATOM     52  C   UNL A   1      43.857  24.635  27.167  1.00  0.00     0.031 A 
ATOM     53  C   UNL A   1      46.712  30.492  27.688  1.00  0.00     0.049 A 
ATOM     54  C   UNL A   1      45.232  25.148  26.833  1.00  0.00     0.074 A 
ATOM     55  C   UNL A   1      48.026  30.824  27.408  1.00  0.00     0.029 A 
ATOM     56  N   UNL A   1      46.567  29.145  27.393  1.00  0.00    -0.354 N 
ATOM     57  N   UNL A   1      45.720  26.357  26.984  1.00  0.00    -0.248 NA
ATOM     58  C   UNL A   1      46.181  24.181  26.264  1.00  0.00     0.031 C 
ATOM     59  C   UNL A   1      48.660  29.690  26.893  1.00  0.00     0.029 A 
ATOM     60  C   UNL A   1      47.760  28.636  26.915  1.00  0.00     0.049 A 
ATOM     61  H   UNL A   1      45.736  28.629  27.507  1.00  0.00     0.167 HD
ATOM     62  C   UNL A   1      47.043  26.285  26.564  1.00  0.00     0.074 A 
ATOM     63  C   UNL A   1      47.280  24.915  26.158  1.00  0.00     0.031 C 
ATOM     64  C   UNL A   1      47.980  27.265  26.524  1.00  0.00     0.031 A 
BRANCH  51  65
ATOM     65  C   UNL A   1      45.957  32.804  28.397  1.00  0.00    -0.014 A 
ATOM     66  C   UNL A   1      46.584  33.263  29.568  1.00  0.00     0.010 A 
ATOM     67  C   UNL A   1      45.631  33.729  27.388  1.00  0.00     0.010 A 
ATOM     68  C   UNL A   1      46.842  34.624  29.748  1.00  0.00     0.020 A 
ATOM     69  C   UNL A   1      45.915  35.089  27.549  1.00  0.00     0.020 A 
ATOM     70  C   UNL A   1      46.503  35.530  28.737  1.00  0.00     0.054 A 
BRANCH  70  71
ATOM     71  S   UNL A   1      46.870  37.288  28.987  1.00  0.00     0.124 S 
ATOM     72  O   UNL A   1      47.070  37.751  27.616  1.00  0.00    -0.237 OA
ATOM     73  O   UNL A   1      45.661  37.776  29.645  1.00  0.00    -0.237 OA
ATOM     74  O   UNL A   1      48.070  37.277  29.821  1.00  0.00    -0.744 OA
ENDBRANCH  70  71
ENDBRANCH  51  65
BRANCH  52  75
ATOM     75  C   UNL A   1      43.486  23.216  26.913  1.00  0.00    -0.014 A 
ATOM     76  C   UNL A   1      43.633  22.662  25.629  1.00  0.00     0.010 A 
ATOM     77  C   UNL A   1      42.995  22.407  27.953  1.00  0.00     0.010 A 
ATOM     78  C   UNL A   1      43.278  21.331  25.385  1.00  0.00     0.020 A 
ATOM     79  C   UNL A   1      42.667  21.068  27.721  1.00  0.00     0.020 A 
ATOM     80  C   UNL A   1      42.799  20.542  26.434  1.00  0.00     0.054 A 
BRANCH  80  81
ATOM     81  S   UNL A   1      42.390  18.805  26.107  1.00  0.00     0.124 S 
ATOM     82  O   UNL A   1      42.658  18.182  27.398  1.00  0.00    -0.237 OA
ATOM     83  O   UNL A   1      40.983  18.882  25.720  1.00  0.00    -0.237 OA
ATOM     84  O   UNL A   1      43.304  18.436  25.029  1.00  0.00    -0.744 OA
ENDBRANCH  80  81
ENDBRANCH  52  75
BRANCH  64  85
ATOM     85  C   UNL A   1      49.367  26.886  26.077  1.00  0.00    -0.014 A 
ATOM     86  C   UNL A   1      50.332  26.423  26.989  1.00  0.00     0.010 A 
ATOM     87  C   UNL A   1      49.682  26.929  24.705  1.00  0.00     0.010 A 
ATOM     88  C   UNL A   1      51.595  26.033  26.538  1.00  0.00     0.020 A 
ATOM     89  C   UNL A   1      50.934  26.512  24.249  1.00  0.00     0.020 A 
ATOM     90  C   UNL A   1      51.887  26.077  25.171  1.00  0.00     0.054 A 
BRANCH  90  91
ATOM     91  S   UNL A   1      53.516  25.511  24.607  1.00  0.00     0.124 S 
ATOM     92  O   UNL A   1      53.515  25.927  23.207  1.00  0.00    -0.237 OA
ATOM     93  O   UNL A   1      54.429  26.245  25.481  1.00  0.00    -0.237 OA
ATOM     94  O   UNL A   1      53.477  24.067  24.829  1.00  0.00    -0.744 OA
ENDBRANCH  90  91
ENDBRANCH  64  85
ENDBRANCH  38  39
ENDBRANCH  30  33
ENDBRANCH  28  29
ENDBRANCH  27  28
ENDBRANCH  26  27
ENDBRANCH   1  26
TORSDOF 22
ENDMDL
MODEL 2
REMARK VINA RESULT:     -10.5      5.899     10.262
REMARK SMILES CCCC(O)(CCC)[C@@]1(C)CC[C@@H](C(=O)NCCCCCCNC(=O)c2ccc(-c3c4nc(c(-c5ccc(S(=O)(=O)[O-])cc5)c5ccc([nH]5)c(-c5ccc(S(=O)(=O)[O-])cc5)c5nc(c(-c6ccc(S(=O)(=O)[O-])cc6)c6ccc3[nH]6)C=C5)C=C4)cc2)C(C)(C)O1
REMARK SMILES IDX 19 1 18 2 17 3 16 4 14 5 15 6 13 8 9 9 10 10 11 11 89 12
REMARK SMILES IDX 12 13 86 14 87 15 88 16 4 17 3 18 2 19 1 20 5 21 6 23 7 24
REMARK SMILES IDX 8 25 20 26 21 27 22 28 23 29 24 30 25 32 26 33 27 34 85 35
REMARK SMILES IDX 28 36 84 37 29 38 30 39 31 40 78 41 32 42 83 43 77 44 79 45
REMARK SMILES IDX 33 46 82 47 76 48 75 49 34 51 64 52 45 53 63 54 46 55 49 56
REMARK SMILES IDX 62 57 80 58 47 59 48 60 61 62 81 63 50 64 35 65 36 66 44 67
REMARK SMILES IDX 37 68 43 69 38 70 39 71 40 72 41 73 42 74 65 75 66 76 74 77
REMARK SMILES IDX 67 78 73 79 68 80 69 81 70 82 71 83 72 84 51 85 52 86 60 87
REMARK SMILES IDX 53 88 59 89 54 90 55 91 56 92 57 93 58 94
REMARK H PARENT 16 7 5 22 23 31 79 50 49 61
REMARK Flexibility Score: inf
ROOT
ATOM      1  C   UNL A   1      31.071  30.139  25.016  1.00  0.00     0.002 C 
ENDROOT
BRANCH   1   2
ATOM      2  C   UNL A   1      31.820  29.175  24.101  1.00  0.00     0.021 C 
BRANCH   2   3
ATOM      3  C   UNL A   1      30.921  28.190  23.363  1.00  0.00     0.116 C 
BRANCH   3   4
ATOM      4  N   UNL A   1      30.078  27.438  24.272  1.00  0.00    -0.356 N 
ATOM      5  C   UNL A   1      30.117  26.144  24.686  1.00  0.00     0.226 C 
ATOM      6  O   UNL A   1      29.214  25.782  25.449  1.00  0.00    -0.275 OA
ATOM      7  H   UNL A   1      29.341  27.962  24.663  1.00  0.00     0.163 HD
BRANCH   5   8
ATOM      8  C   UNL A   1      31.182  25.134  24.233  1.00  0.00     0.110 C 
ATOM      9  C   UNL A   1      32.867  22.651  24.074  1.00  0.00     0.095 C 
ATOM     10  C   UNL A   1      34.009  22.472  23.037  1.00  0.00     0.045 C 
ATOM     11  C   UNL A   1      31.578  22.790  23.211  1.00  0.00     0.039 C 
ATOM     12  O   UNL A   1      33.201  23.888  24.741  1.00  0.00    -0.366 OA
ATOM     13  C   UNL A   1      30.618  23.949  23.458  1.00  0.00     0.019 C 
ATOM     14  C   UNL A   1      32.216  24.769  25.308  1.00  0.00     0.075 C 
ATOM     15  C   UNL A   1      31.635  24.277  26.633  1.00  0.00     0.043 C 
ATOM     16  C   UNL A   1      33.031  26.030  25.694  1.00  0.00     0.043 C 
BRANCH   9  17
ATOM     17  C   UNL A   1      32.900  21.421  25.113  1.00  0.00     0.093 C 
BRANCH  17  18
ATOM     18  C   UNL A   1      33.487  20.043  24.634  1.00  0.00     0.038 C 
BRANCH  18  19
ATOM     19  C   UNL A   1      32.602  18.819  24.367  1.00  0.00    -0.000 C 
ATOM     20  C   UNL A   1      32.288  18.553  22.908  1.00  0.00     0.004 C 
ENDBRANCH  18  19
ENDBRANCH  17  18
BRANCH  17  21
ATOM     21  O   UNL A   1      31.551  21.175  25.572  1.00  0.00    -0.387 OA
ATOM     22  H   UNL A   1      31.000  21.950  25.383  1.00  0.00     0.211 HD
ENDBRANCH  17  21
BRANCH  17  23
ATOM     23  C   UNL A   1      33.684  21.759  26.440  1.00  0.00     0.038 C 
BRANCH  23  24
ATOM     24  C   UNL A   1      35.217  21.706  26.511  1.00  0.00    -0.000 C 
ATOM     25  C   UNL A   1      35.965  22.998  26.210  1.00  0.00     0.004 C 
ENDBRANCH  23  24
ENDBRANCH  17  23
ENDBRANCH   9  17
ENDBRANCH   5   8
ENDBRANCH   3   4
ENDBRANCH   2   3
ENDBRANCH   1   2
BRANCH   1  26
ATOM     26  C   UNL A   1      31.711  30.342  26.391  1.00  0.00     0.002 C 
BRANCH  26  27
ATOM     27  C   UNL A   1      33.234  30.505  26.378  1.00  0.00     0.021 C 
BRANCH  27  28
ATOM     28  C   UNL A   1      33.800  31.237  27.589  1.00  0.00     0.116 C 
BRANCH  28  29
ATOM     29  N   UNL A   1      33.285  32.593  27.686  1.00  0.00    -0.352 N 
ATOM     30  C   UNL A   1      33.624  33.573  28.587  1.00  0.00     0.251 C 
ATOM     31  H   UNL A   1      32.603  32.841  27.020  1.00  0.00     0.163 HD
ATOM     32  O   UNL A   1      32.952  34.583  28.701  1.00  0.00    -0.269 OA
BRANCH  30  33
ATOM     33  C   UNL A   1      34.822  33.360  29.422  1.00  0.00     0.039 A 
ATOM     34  C   UNL A   1      34.751  32.497  30.515  1.00  0.00     0.014 A 
ATOM     35  C   UNL A   1      36.025  33.982  29.073  1.00  0.00     0.014 A 
ATOM     36  C   UNL A   1      35.912  32.211  31.235  1.00  0.00     0.010 A 
ATOM     37  C   UNL A   1      37.190  33.640  29.745  1.00  0.00     0.010 A 
ATOM     38  C   UNL A   1      37.143  32.757  30.836  1.00  0.00    -0.014 A 
BRANCH  38  39
ATOM     39  C   UNL A   1      38.407  32.439  31.544  1.00  0.00     0.031 A 
ATOM     40  C   UNL A   1      39.352  31.431  30.953  1.00  0.00     0.074 A 
ATOM     41  C   UNL A   1      38.653  32.979  32.754  1.00  0.00     0.049 A 
ATOM     42  N   UNL A   1      40.432  30.909  31.471  1.00  0.00    -0.248 NA
ATOM     43  C   UNL A   1      39.021  30.920  29.611  1.00  0.00     0.031 C 
ATOM     44  C   UNL A   1      37.797  33.949  33.441  1.00  0.00     0.029 A 
ATOM     45  N   UNL A   1      39.690  32.774  33.628  1.00  0.00    -0.354 N 
ATOM     46  C   UNL A   1      40.893  29.991  30.534  1.00  0.00     0.074 A 
ATOM     47  C   UNL A   1      39.950  29.993  29.438  1.00  0.00     0.031 C 
ATOM     48  C   UNL A   1      38.354  34.266  34.622  1.00  0.00     0.029 A 
ATOM     49  C   UNL A   1      39.576  33.488  34.797  1.00  0.00     0.049 A 
ATOM     50  H   UNL A   1      40.446  32.173  33.436  1.00  0.00     0.167 HD
ATOM     51  C   UNL A   1      42.009  29.225  30.578  1.00  0.00     0.031 A 
ATOM     52  C   UNL A   1      40.357  33.500  35.895  1.00  0.00     0.031 A 
ATOM     53  C   UNL A   1      42.947  29.238  31.669  1.00  0.00     0.049 A 
ATOM     54  C   UNL A   1      41.582  32.627  35.929  1.00  0.00     0.074 A 
ATOM     55  C   UNL A   1      44.134  28.539  31.789  1.00  0.00     0.029 A 
ATOM     56  N   UNL A   1      42.804  29.989  32.826  1.00  0.00    -0.354 N 
ATOM     57  N   UNL A   1      42.029  31.799  35.014  1.00  0.00    -0.248 NA
ATOM     58  C   UNL A   1      42.413  32.695  37.138  1.00  0.00     0.031 C 
ATOM     59  C   UNL A   1      44.683  28.827  33.042  1.00  0.00     0.029 A 
ATOM     60  C   UNL A   1      43.870  29.755  33.675  1.00  0.00     0.049 A 
ATOM     61  H   UNL A   1      42.053  30.598  33.015  1.00  0.00     0.167 HD
ATOM     62  C   UNL A   1      43.213  31.277  35.523  1.00  0.00     0.074 A 
ATOM     63  C   UNL A   1      43.415  31.886  36.821  1.00  0.00     0.031 C 
ATOM     64  C   UNL A   1      44.060  30.378  34.961  1.00  0.00     0.031 A 
BRANCH  51  65
ATOM     65  C   UNL A   1      42.267  28.302  29.416  1.00  0.00    -0.014 A 
ATOM     66  C   UNL A   1      43.120  28.678  28.363  1.00  0.00     0.010 A 
ATOM     67  C   UNL A   1      41.675  27.026  29.394  1.00  0.00     0.010 A 
ATOM     68  C   UNL A   1      43.343  27.813  27.288  1.00  0.00     0.020 A 
ATOM     69  C   UNL A   1      41.919  26.145  28.337  1.00  0.00     0.020 A 
ATOM     70  C   UNL A   1      42.738  26.552  27.281  1.00  0.00     0.054 A 
BRANCH  70  71
ATOM     71  S   UNL A   1      43.064  25.441  25.885  1.00  0.00     0.124 S 
ATOM     72  O   UNL A   1      44.520  25.322  25.928  1.00  0.00    -0.237 OA
ATOM     73  O   UNL A   1      42.326  24.236  26.256  1.00  0.00    -0.237 OA
ATOM     74  O   UNL A   1      42.533  26.165  24.733  1.00  0.00    -0.744 OA
ENDBRANCH  70  71
ENDBRANCH  51  65
BRANCH  52  75
ATOM     75  C   UNL A   1      40.009  34.376  37.048  1.00  0.00    -0.014 A 
ATOM     76  C   UNL A   1      39.398  33.835  38.193  1.00  0.00     0.010 A 
ATOM     77  C   UNL A   1      40.296  35.753  37.013  1.00  0.00     0.010 A 
ATOM     78  C   UNL A   1      39.063  34.658  39.274  1.00  0.00     0.020 A 
ATOM     79  C   UNL A   1      39.991  36.573  38.103  1.00  0.00     0.020 A 
ATOM     80  C   UNL A   1      39.365  36.021  39.223  1.00  0.00     0.054 A 
BRANCH  80  81
ATOM     81  S   UNL A   1      38.965  37.061  40.655  1.00  0.00     0.124 S 
ATOM     82  O   UNL A   1      40.288  37.345  41.201  1.00  0.00    -0.237 OA
ATOM     83  O   UNL A   1      38.276  38.192  40.039  1.00  0.00    -0.237 OA
ATOM     84  O   UNL A   1      38.119  36.199  41.477  1.00  0.00    -0.744 OA
ENDBRANCH  80  81
ENDBRANCH  52  75
BRANCH  64  85
ATOM     85  C   UNL A   1      45.315  30.036  35.719  1.00  0.00    -0.014 A 
ATOM     86  C   UNL A   1      46.461  30.848  35.648  1.00  0.00     0.010 A 
ATOM     87  C   UNL A   1      45.317  28.918  36.575  1.00  0.00     0.010 A 
ATOM     88  C   UNL A   1      47.595  30.531  36.400  1.00  0.00     0.020 A 
ATOM     89  C   UNL A   1      46.439  28.616  37.349  1.00  0.00     0.020 A 
ATOM     90  C   UNL A   1      47.575  29.419  37.248  1.00  0.00     0.054 A 
BRANCH  90  91
ATOM     91  S   UNL A   1      49.041  29.064  38.255  1.00  0.00     0.124 S 
ATOM     92  O   UNL A   1      48.931  27.621  38.455  1.00  0.00    -0.237 OA
ATOM     93  O   UNL A   1      50.136  29.497  37.390  1.00  0.00    -0.237 OA
ATOM     94  O   UNL A   1      48.844  29.876  39.454  1.00  0.00    -0.744 OA
ENDBRANCH  90  91
ENDBRANCH  64  85
ENDBRANCH  38  39
ENDBRANCH  30  33
ENDBRANCH  28  29
ENDBRANCH  27  28
ENDBRANCH  26  27
ENDBRANCH   1  26
TORSDOF 22
ENDMDL
MODEL 3
REMARK VINA RESULT:     -10.4      6.395      8.603
REMARK SMILES CCCC(O)(CCC)[C@@]1(C)CC[C@@H](C(=O)NCCCCCCNC(=O)c2ccc(-c3c4nc(c(-c5ccc(S(=O)(=O)[O-])cc5)c5ccc([nH]5)c(-c5ccc(S(=O)(=O)[O-])cc5)c5nc(c(-c6ccc(S(=O)(=O)[O-])cc6)c6ccc3[nH]6)C=C5)C=C4)cc2)C(C)(C)O1
REMARK SMILES IDX 19 1 18 2 17 3 16 4 14 5 15 6 13 8 9 9 10 10 11 11 89 12
REMARK SMILES IDX 12 13 86 14 87 15 88 16 4 17 3 18 2 19 1 20 5 21 6 23 7 24
REMARK SMILES IDX 8 25 20 26 21 27 22 28 23 29 24 30 25 32 26 33 27 34 85 35
REMARK SMILES IDX 28 36 84 37 29 38 30 39 31 40 78 41 32 42 83 43 77 44 79 45
REMARK SMILES IDX 33 46 82 47 76 48 75 49 34 51 64 52 45 53 63 54 46 55 49 56
REMARK SMILES IDX 62 57 80 58 47 59 48 60 61 62 81 63 50 64 35 65 36 66 44 67
REMARK SMILES IDX 37 68 43 69 38 70 39 71 40 72 41 73 42 74 65 75 66 76 74 77
REMARK SMILES IDX 67 78 73 79 68 80 69 81 70 82 71 83 72 84 51 85 52 86 60 87
REMARK SMILES IDX 53 88 59 89 54 90 55 91 56 92 57 93 58 94
REMARK H PARENT 16 7 5 22 23 31 79 50 49 61
REMARK Flexibility Score: inf
ROOT
ATOM      1  C   UNL A   1      35.579  31.499  27.616  1.00  0.00     0.002 C 
ENDROOT
BRANCH   1   2
ATOM      2  C   UNL A   1      34.540  30.500  28.115  1.00  0.00     0.021 C 
BRANCH   2   3
ATOM      3  C   UNL A   1      33.318  30.367  27.212  1.00  0.00     0.116 C 
BRANCH   3   4
ATOM      4  N   UNL A   1      32.396  29.357  27.693  1.00  0.00    -0.356 N 
ATOM      5  C   UNL A   1      31.871  28.252  27.101  1.00  0.00     0.226 C 
ATOM      6  O   UNL A   1      31.060  27.600  27.771  1.00  0.00    -0.275 OA
ATOM      7  H   UNL A   1      32.093  29.498  28.620  1.00  0.00     0.163 HD
BRANCH   5   8
ATOM      8  C   UNL A   1      32.204  27.809  25.669  1.00  0.00     0.110 C 
ATOM      9  C   UNL A   1      32.581  26.088  23.235  1.00  0.00     0.095 C 
ATOM     10  C   UNL A   1      33.099  26.644  21.880  1.00  0.00     0.045 C 
ATOM     11  C   UNL A   1      31.237  26.839  23.474  1.00  0.00     0.039 C 
ATOM     12  O   UNL A   1      33.595  26.491  24.181  1.00  0.00    -0.366 OA
ATOM     13  C   UNL A   1      30.978  27.528  24.809  1.00  0.00     0.019 C 
ATOM     14  C   UNL A   1      33.319  26.759  25.567  1.00  0.00     0.075 C 
ATOM     15  C   UNL A   1      33.111  25.501  26.411  1.00  0.00     0.043 C 
ATOM     16  C   UNL A   1      34.647  27.357  26.096  1.00  0.00     0.043 C 
BRANCH   9  17
ATOM     17  C   UNL A   1      32.495  24.482  23.147  1.00  0.00     0.093 C 
BRANCH  17  18
ATOM     18  C   UNL A   1      33.581  23.625  23.893  1.00  0.00     0.038 C 
BRANCH  18  19
ATOM     19  C   UNL A   1      35.024  23.503  23.389  1.00  0.00    -0.000 C 
ATOM     20  C   UNL A   1      36.097  23.706  24.440  1.00  0.00     0.004 C 
ENDBRANCH  18  19
ENDBRANCH  17  18
BRANCH  17  21
ATOM     21  O   UNL A   1      32.532  24.099  21.752  1.00  0.00    -0.387 OA
ATOM     22  H   UNL A   1      33.121  24.698  21.269  1.00  0.00     0.211 HD
ENDBRANCH  17  21
BRANCH  17  23
ATOM     23  C   UNL A   1      31.111  23.914  23.647  1.00  0.00     0.038 C 
BRANCH  23  24
ATOM     24  C   UNL A   1      31.005  23.018  24.890  1.00  0.00    -0.000 C 
ATOM     25  C   UNL A   1      30.428  23.653  26.148  1.00  0.00     0.004 C 
ENDBRANCH  23  24
ENDBRANCH  17  23
ENDBRANCH   9  17
ENDBRANCH   5   8
ENDBRANCH   3   4
ENDBRANCH   2   3
ENDBRANCH   1   2
BRANCH   1  26
ATOM     26  C   UNL A   1      35.684  32.779  28.447  1.00  0.00     0.002 C 
BRANCH  26  27
ATOM     27  C   UNL A   1      34.699  33.886  28.059  1.00  0.00     0.021 C 
BRANCH  27  28
ATOM     28  C   UNL A   1      33.296  33.707  28.625  1.00  0.00     0.116 C 
BRANCH  28  29
ATOM     29  N   UNL A   1      32.848  34.893  29.337  1.00  0.00    -0.352 N 
ATOM     30  C   UNL A   1      33.150  35.285  30.618  1.00  0.00     0.251 C 
ATOM     31  H   UNL A   1      32.250  35.493  28.836  1.00  0.00     0.163 HD
ATOM     32  O   UNL A   1      32.527  36.176  31.167  1.00  0.00    -0.269 OA
BRANCH  30  33
ATOM     33  C   UNL A   1      34.248  34.586  31.315  1.00  0.00     0.039 A 
ATOM     34  C   UNL A   1      33.980  33.401  32.000  1.00  0.00     0.014 A 
ATOM     35  C   UNL A   1      35.549  35.090  31.231  1.00  0.00     0.014 A 
ATOM     36  C   UNL A   1      35.037  32.684  32.562  1.00  0.00     0.010 A 
ATOM     37  C   UNL A   1      36.605  34.338  31.728  1.00  0.00     0.010 A 
ATOM     38  C   UNL A   1      36.358  33.132  32.403  1.00  0.00    -0.014 A 
BRANCH  38  39
ATOM     39  C   UNL A   1      37.513  32.374  32.943  1.00  0.00     0.031 A 
ATOM     40  C   UNL A   1      38.112  32.781  34.260  1.00  0.00     0.074 A 
ATOM     41  C   UNL A   1      38.074  31.393  32.210  1.00  0.00     0.049 A 
ATOM     42  N   UNL A   1      39.200  32.347  34.841  1.00  0.00    -0.248 NA
ATOM     43  C   UNL A   1      37.411  33.838  35.010  1.00  0.00     0.031 C 
ATOM     44  C   UNL A   1      37.597  30.927  30.906  1.00  0.00     0.029 A 
ATOM     45  N   UNL A   1      39.183  30.622  32.452  1.00  0.00    -0.354 N 
ATOM     46  C   UNL A   1      39.329  33.095  36.006  1.00  0.00     0.074 A 
ATOM     47  C   UNL A   1      38.235  34.041  36.026  1.00  0.00     0.031 C 
ATOM     48  C   UNL A   1      38.398  29.940  30.472  1.00  0.00     0.029 A 
ATOM     49  C   UNL A   1      39.472  29.738  31.440  1.00  0.00     0.049 A 
ATOM     50  H   UNL A   1      39.721  30.695  33.273  1.00  0.00     0.167 HD
ATOM     51  C   UNL A   1      40.265  32.993  36.978  1.00  0.00     0.031 A 
ATOM     52  C   UNL A   1      40.496  28.874  31.298  1.00  0.00     0.031 A 
ATOM     53  C   UNL A   1      41.344  32.040  36.954  1.00  0.00     0.049 A 
ATOM     54  C   UNL A   1      41.536  28.791  32.383  1.00  0.00     0.074 A 
ATOM     55  C   UNL A   1      42.316  31.820  37.912  1.00  0.00     0.029 A 
ATOM     56  N   UNL A   1      41.590  31.150  35.920  1.00  0.00    -0.354 N 
ATOM     57  N   UNL A   1      41.616  29.474  33.501  1.00  0.00    -0.248 NA
ATOM     58  C   UNL A   1      42.619  27.817  32.191  1.00  0.00     0.031 C 
ATOM     59  C   UNL A   1      43.182  30.833  37.433  1.00  0.00     0.029 A 
ATOM     60  C   UNL A   1      42.711  30.393  36.206  1.00  0.00     0.049 A 
ATOM     61  H   UNL A   1      41.046  31.070  35.102  1.00  0.00     0.167 HD
ATOM     62  C   UNL A   1      42.737  28.983  34.163  1.00  0.00     0.074 A 
ATOM     63  C   UNL A   1      43.298  27.945  33.324  1.00  0.00     0.031 C 
ATOM     64  C   UNL A   1      43.251  29.356  35.362  1.00  0.00     0.031 A 
BRANCH  51  65
ATOM     65  C   UNL A   1      40.169  33.944  38.142  1.00  0.00    -0.014 A 
ATOM     66  C   UNL A   1      40.875  35.160  38.151  1.00  0.00     0.010 A 
ATOM     67  C   UNL A   1      39.333  33.631  39.229  1.00  0.00     0.010 A 
ATOM     68  C   UNL A   1      40.781  36.026  39.243  1.00  0.00     0.020 A 
ATOM     69  C   UNL A   1      39.211  34.509  40.311  1.00  0.00     0.020 A 
ATOM     70  C   UNL A   1      39.950  35.694  40.318  1.00  0.00     0.054 A 
BRANCH  70  71
ATOM     71  S   UNL A   1      39.829  36.848  41.711  1.00  0.00     0.124 S 
ATOM     72  O   UNL A   1      39.238  38.024  41.077  1.00  0.00    -0.237 OA
ATOM     73  O   UNL A   1      38.960  36.134  42.643  1.00  0.00    -0.237 OA
ATOM     74  O   UNL A   1      41.213  37.009  42.150  1.00  0.00    -0.744 OA
ENDBRANCH  70  71
ENDBRANCH  51  65
BRANCH  52  75
ATOM     75  C   UNL A   1      40.583  28.012  30.087  1.00  0.00    -0.014 A 
ATOM     76  C   UNL A   1      41.553  28.266  29.101  1.00  0.00     0.010 A 
ATOM     77  C   UNL A   1      39.704  26.927  29.917  1.00  0.00     0.010 A 
ATOM     78  C   UNL A   1      41.631  27.462  27.959  1.00  0.00     0.020 A 
ATOM     79  C   UNL A   1      39.798  26.104  28.791  1.00  0.00     0.020 A 
ATOM     80  C   UNL A   1      40.754  26.384  27.813  1.00  0.00     0.054 A 
BRANCH  80  81
ATOM     81  S   UNL A   1      40.904  25.326  26.347  1.00  0.00     0.124 S 
ATOM     82  O   UNL A   1      39.565  24.754  26.247  1.00  0.00    -0.237 OA
ATOM     83  O   UNL A   1      41.264  26.285  25.304  1.00  0.00    -0.237 OA
ATOM     84  O   UNL A   1      41.962  24.387  26.710  1.00  0.00    -0.744 OA
ENDBRANCH  80  81
ENDBRANCH  52  75
BRANCH  64  85
ATOM     85  C   UNL A   1      44.450  28.602  35.870  1.00  0.00    -0.014 A 
ATOM     86  C   UNL A   1      45.756  29.094  35.693  1.00  0.00     0.010 A 
ATOM     87  C   UNL A   1      44.257  27.414  36.601  1.00  0.00     0.010 A 
ATOM     88  C   UNL A   1      46.847  28.396  36.218  1.00  0.00     0.020 A 
ATOM     89  C   UNL A   1      45.343  26.732  37.151  1.00  0.00     0.020 A 
ATOM     90  C   UNL A   1      46.633  27.221  36.946  1.00  0.00     0.054 A 
BRANCH  90  91
ATOM     91  S   UNL A   1      48.063  26.367  37.663  1.00  0.00     0.124 S 
ATOM     92  O   UNL A   1      49.109  27.380  37.554  1.00  0.00    -0.237 OA
ATOM     93  O   UNL A   1      47.611  26.072  39.021  1.00  0.00    -0.237 OA
ATOM     94  O   UNL A   1      48.236  25.197  36.803  1.00  0.00    -0.744 OA
ENDBRANCH  90  91
ENDBRANCH  64  85
ENDBRANCH  38  39
ENDBRANCH  30  33
ENDBRANCH  28  29
ENDBRANCH  27  28
ENDBRANCH  26  27
ENDBRANCH   1  26
TORSDOF 22
ENDMDL
