MODEL 1
REMARK VINA RESULT:     -10.5      0.000      0.000
REMARK SMILES CC[C@](C)(NC(=O)N1CCS(=O)CC1)C(=O)NCCCCCCNC(=O)c1ccc(-c2c3nc(c(-c4ccc(S(=O)(=O)[O-])cc4)c4ccc([nH]4)c(-c4ccc(S(=O)(=O)[O-])cc4)c4nc(c(-c5ccc(S(=O)(=O)[O-])cc5)c5ccc2[nH]5)C=C4)C=C3)cc1
REMARK SMILES IDX 21 1 20 2 19 3 18 4 17 5 15 6 16 7 3 9 4 10 2 11 1 12 5 13
REMARK SMILES IDX 6 14 7 16 8 17 9 18 14 19 10 20 13 21 11 22 12 23 22 24
REMARK SMILES IDX 23 25 24 26 25 27 26 29 27 30 28 31 86 32 29 33 85 34 30 35
REMARK SMILES IDX 31 36 32 37 79 38 33 39 84 40 78 41 80 42 34 43 83 44 77 45
REMARK SMILES IDX 76 46 35 48 65 49 46 50 64 51 47 52 50 53 63 54 81 55 48 56
REMARK SMILES IDX 49 57 62 59 82 60 51 61 36 62 37 63 45 64 38 65 44 66 39 67
REMARK SMILES IDX 40 68 41 69 42 70 43 71 66 72 67 73 75 74 68 75 74 76 69 77
REMARK SMILES IDX 70 78 71 79 72 80 73 81 52 82 53 83 61 84 54 85 60 86 55 87
REMARK SMILES IDX 56 88 57 89 58 90 59 91
REMARK H PARENT 17 8 5 15 24 28 80 47 50 58
REMARK Flexibility Score: inf
ROOT
ATOM      1  C   UNL A   1      31.841  27.348  26.465  1.00  0.00     0.002 C 
ENDROOT
BRANCH   1   2
ATOM      2  C   UNL A   1      30.719  26.416  26.028  1.00  0.00     0.002 C 
BRANCH   2   3
ATOM      3  C   UNL A   1      30.210  26.588  24.593  1.00  0.00     0.021 C 
BRANCH   3   4
ATOM      4  C   UNL A   1      30.616  25.512  23.583  1.00  0.00     0.116 C 
BRANCH   4   5
ATOM      5  N   UNL A   1      31.943  25.667  22.999  1.00  0.00    -0.354 N 
ATOM      6  C   UNL A   1      33.005  24.801  22.899  1.00  0.00     0.245 C 
ATOM      7  O   UNL A   1      34.009  25.220  22.313  1.00  0.00    -0.272 OA
ATOM      8  H   UNL A   1      32.107  26.553  22.604  1.00  0.00     0.163 HD
BRANCH   6   9
ATOM      9  C   UNL A   1      32.909  23.332  23.415  1.00  0.00     0.117 C 
ATOM     10  C   UNL A   1      32.446  23.279  24.889  1.00  0.00     0.045 C 
BRANCH   9  11
ATOM     11  C   UNL A   1      34.414  22.862  23.390  1.00  0.00     0.035 C 
ATOM     12  C   UNL A   1      35.179  22.856  24.706  1.00  0.00     0.007 C 
ENDBRANCH   9  11
BRANCH   9  13
ATOM     13  N   UNL A   1      32.017  22.452  22.606  1.00  0.00    -0.324 N 
ATOM     14  C   UNL A   1      32.018  21.127  22.308  1.00  0.00     0.318 C 
ATOM     15  H   UNL A   1      31.263  22.938  22.199  1.00  0.00     0.166 HD
ATOM     16  O   UNL A   1      31.674  20.855  21.153  1.00  0.00    -0.249 OA
ATOM     17  N   UNL A   1      32.349  20.139  23.202  1.00  0.00    -0.323 N 
ATOM     18  C   UNL A   1      32.347  18.743  22.733  1.00  0.00     0.135 C 
ATOM     19  C   UNL A   1      32.166  20.208  24.637  1.00  0.00     0.135 C 
ATOM     20  C   UNL A   1      33.399  17.857  23.402  1.00  0.00     0.126 C 
ATOM     21  C   UNL A   1      33.331  19.643  25.416  1.00  0.00     0.126 C 
ATOM     22  S   UNL A   1      33.345  17.840  25.223  1.00  0.00     0.025 S 
ATOM     23  O   UNL A   1      32.009  17.316  25.659  1.00  0.00    -0.259 OA
ENDBRANCH   9  13
ENDBRANCH   6   9
ENDBRANCH   4   5
ENDBRANCH   3   4
ENDBRANCH   2   3
ENDBRANCH   1   2
BRANCH   1  24
ATOM     24  C   UNL A   1      33.248  26.842  26.175  1.00  0.00     0.021 C 
BRANCH  24  25
ATOM     25  C   UNL A   1      34.326  27.919  26.208  1.00  0.00     0.116 C 
BRANCH  25  26
ATOM     26  N   UNL A   1      33.800  29.218  26.596  1.00  0.00    -0.352 N 
ATOM     27  C   UNL A   1      34.335  30.136  27.472  1.00  0.00     0.251 C 
ATOM     28  H   UNL A   1      32.947  29.475  26.175  1.00  0.00     0.163 HD
ATOM     29  O   UNL A   1      33.688  31.098  27.847  1.00  0.00    -0.269 OA
BRANCH  27  30
ATOM     30  C   UNL A   1      35.710  29.912  27.972  1.00  0.00     0.039 A 
ATOM     31  C   UNL A   1      35.894  29.443  29.273  1.00  0.00     0.014 A 
ATOM     32  C   UNL A   1      36.803  30.112  27.126  1.00  0.00     0.014 A 
ATOM     33  C   UNL A   1      37.179  29.102  29.702  1.00  0.00     0.010 A 
ATOM     34  C   UNL A   1      38.067  29.694  27.527  1.00  0.00     0.010 A 
ATOM     35  C   UNL A   1      38.269  29.187  28.821  1.00  0.00    -0.014 A 
BRANCH  35  36
ATOM     36  C   UNL A   1      39.632  28.758  29.226  1.00  0.00     0.031 A 
ATOM     37  C   UNL A   1      40.531  29.718  29.959  1.00  0.00     0.074 A 
ATOM     38  C   UNL A   1      40.087  27.539  28.869  1.00  0.00     0.049 A 
ATOM     39  N   UNL A   1      41.775  29.562  30.329  1.00  0.00    -0.248 NA
ATOM     40  C   UNL A   1      39.968  31.037  30.298  1.00  0.00     0.031 C 
ATOM     41  C   UNL A   1      39.327  26.532  28.121  1.00  0.00     0.029 A 
ATOM     42  N   UNL A   1      41.305  26.939  29.079  1.00  0.00    -0.354 N 
ATOM     43  C   UNL A   1      42.150  30.766  30.913  1.00  0.00     0.074 A 
ATOM     44  C   UNL A   1      41.017  31.658  30.815  1.00  0.00     0.031 C 
ATOM     45  C   UNL A   1      40.086  25.435  27.961  1.00  0.00     0.029 A 
ATOM     46  C   UNL A   1      41.400  25.673  28.550  1.00  0.00     0.049 A 
ATOM     47  H   UNL A   1      42.042  27.377  29.564  1.00  0.00     0.167 HD
ATOM     48  C   UNL A   1      43.328  31.094  31.493  1.00  0.00     0.031 A 
ATOM     49  C   UNL A   1      42.432  24.806  28.530  1.00  0.00     0.031 A 
ATOM     50  C   UNL A   1      44.441  30.193  31.619  1.00  0.00     0.049 A 
ATOM     51  C   UNL A   1      43.733  25.203  29.180  1.00  0.00     0.074 A 
ATOM     52  C   UNL A   1      45.645  30.403  32.266  1.00  0.00     0.029 A 
ATOM     53  N   UNL A   1      44.490  28.914  31.084  1.00  0.00    -0.354 N 
ATOM     54  N   UNL A   1      44.035  26.314  29.808  1.00  0.00    -0.248 NA
ATOM     55  C   UNL A   1      44.828  24.224  29.127  1.00  0.00     0.031 C 
ATOM     56  C   UNL A   1      46.448  29.277  32.069  1.00  0.00     0.029 A 
ATOM     57  C   UNL A   1      45.718  28.338  31.358  1.00  0.00     0.049 A 
ATOM     58  H   UNL A   1      43.760  28.481  30.586  1.00  0.00     0.167 HD
ATOM     59  C   UNL A   1      45.341  26.151  30.256  1.00  0.00     0.074 A 
ATOM     60  C   UNL A   1      45.766  24.831  29.840  1.00  0.00     0.031 C 
ATOM     61  C   UNL A   1      46.120  27.016  30.952  1.00  0.00     0.031 A 
BRANCH  48  62
ATOM     62  C   UNL A   1      43.489  32.491  32.032  1.00  0.00    -0.014 A 
ATOM     63  C   UNL A   1      43.252  32.784  33.387  1.00  0.00     0.010 A 
ATOM     64  C   UNL A   1      43.970  33.508  31.186  1.00  0.00     0.010 A 
ATOM     65  C   UNL A   1      43.474  34.072  33.881  1.00  0.00     0.020 A 
ATOM     66  C   UNL A   1      44.221  34.789  31.682  1.00  0.00     0.020 A 
ATOM     67  C   UNL A   1      43.963  35.066  33.026  1.00  0.00     0.054 A 
BRANCH  67  68
ATOM     68  S   UNL A   1      44.306  36.710  33.711  1.00  0.00     0.124 S 
ATOM     69  O   UNL A   1      43.813  36.574  35.080  1.00  0.00    -0.237 OA
ATOM     70  O   UNL A   1      45.756  36.816  33.574  1.00  0.00    -0.237 OA
ATOM     71  O   UNL A   1      43.533  37.610  32.858  1.00  0.00    -0.744 OA
ENDBRANCH  67  68
ENDBRANCH  48  62
BRANCH  49  72
ATOM     72  C   UNL A   1      42.292  23.475  27.874  1.00  0.00    -0.014 A 
ATOM     73  C   UNL A   1      41.760  22.381  28.581  1.00  0.00     0.010 A 
ATOM     74  C   UNL A   1      42.727  23.282  26.551  1.00  0.00     0.010 A 
ATOM     75  C   UNL A   1      41.706  21.113  27.993  1.00  0.00     0.020 A 
ATOM     76  C   UNL A   1      42.643  22.024  25.947  1.00  0.00     0.020 A 
ATOM     77  C   UNL A   1      42.154  20.942  26.681  1.00  0.00     0.054 A 
BRANCH  77  78
ATOM     78  S   UNL A   1      42.071  19.290  25.935  1.00  0.00     0.124 S 
ATOM     79  O   UNL A   1      42.941  19.439  24.774  1.00  0.00    -0.237 OA
ATOM     80  O   UNL A   1      42.579  18.434  27.004  1.00  0.00    -0.237 OA
ATOM     81  O   UNL A   1      40.650  19.123  25.636  1.00  0.00    -0.744 OA
ENDBRANCH  77  78
ENDBRANCH  49  72
BRANCH  61  82
ATOM     82  C   UNL A   1      47.492  26.550  31.359  1.00  0.00    -0.014 A 
ATOM     83  C   UNL A   1      47.733  26.003  32.631  1.00  0.00     0.010 A 
ATOM     84  C   UNL A   1      48.540  26.594  30.421  1.00  0.00     0.010 A 
ATOM     85  C   UNL A   1      49.006  25.535  32.967  1.00  0.00     0.020 A 
ATOM     86  C   UNL A   1      49.805  26.098  30.742  1.00  0.00     0.020 A 
ATOM     87  C   UNL A   1      50.033  25.582  32.018  1.00  0.00     0.054 A 
BRANCH  87  88
ATOM     88  S   UNL A   1      51.660  24.915  32.461  1.00  0.00     0.124 S 
ATOM     89  O   UNL A   1      52.551  25.689  31.600  1.00  0.00    -0.237 OA
ATOM     90  O   UNL A   1      51.751  25.213  33.887  1.00  0.00    -0.237 OA
ATOM     91  O   UNL A   1      51.555  23.495  32.131  1.00  0.00    -0.744 OA
ENDBRANCH  87  88
ENDBRANCH  61  82
ENDBRANCH  35  36
ENDBRANCH  27  30
ENDBRANCH  25  26
ENDBRANCH  24  25
ENDBRANCH   1  24
TORSDOF 18
ENDMDL
MODEL 2
REMARK VINA RESULT:      -9.8      4.492      8.145
REMARK SMILES CC[C@](C)(NC(=O)N1CCS(=O)CC1)C(=O)NCCCCCCNC(=O)c1ccc(-c2c3nc(c(-c4ccc(S(=O)(=O)[O-])cc4)c4ccc([nH]4)c(-c4ccc(S(=O)(=O)[O-])cc4)c4nc(c(-c5ccc(S(=O)(=O)[O-])cc5)c5ccc2[nH]5)C=C4)C=C3)cc1
REMARK SMILES IDX 21 1 20 2 19 3 18 4 17 5 15 6 16 7 3 9 4 10 2 11 1 12 5 13
REMARK SMILES IDX 6 14 7 16 8 17 9 18 14 19 10 20 13 21 11 22 12 23 22 24
REMARK SMILES IDX 23 25 24 26 25 27 26 29 27 30 28 31 86 32 29 33 85 34 30 35
REMARK SMILES IDX 31 36 32 37 79 38 33 39 84 40 78 41 80 42 34 43 83 44 77 45
REMARK SMILES IDX 76 46 35 48 65 49 46 50 64 51 47 52 50 53 63 54 81 55 48 56
REMARK SMILES IDX 49 57 62 59 82 60 51 61 36 62 37 63 45 64 38 65 44 66 39 67
REMARK SMILES IDX 40 68 41 69 42 70 43 71 66 72 67 73 75 74 68 75 74 76 69 77
REMARK SMILES IDX 70 78 71 79 72 80 73 81 52 82 53 83 61 84 54 85 60 86 55 87
REMARK SMILES IDX 56 88 57 89 58 90 59 91
REMARK H PARENT 17 8 5 15 24 28 80 47 50 58
REMARK Flexibility Score: inf
ROOT
ATOM      1  C   UNL A   1      34.569  33.095  31.640  1.00  0.00     0.002 C 
ENDROOT
BRANCH   1   2
ATOM      2  C   UNL A   1      35.505  31.900  31.769  1.00  0.00     0.002 C 
BRANCH   2   3
ATOM      3  C   UNL A   1      36.872  32.171  32.407  1.00  0.00     0.021 C 
BRANCH   3   4
ATOM      4  C   UNL A   1      36.879  32.534  33.894  1.00  0.00     0.116 C 
BRANCH   4   5
ATOM      5  N   UNL A   1      37.401  31.508  34.788  1.00  0.00    -0.354 N 
ATOM      6  C   UNL A   1      38.568  31.434  35.511  1.00  0.00     0.245 C 
ATOM      7  O   UNL A   1      38.722  30.429  36.214  1.00  0.00    -0.272 OA
ATOM      8  H   UNL A   1      36.811  30.728  34.894  1.00  0.00     0.163 HD
BRANCH   6   9
ATOM      9  C   UNL A   1      39.599  32.604  35.516  1.00  0.00     0.117 C 
ATOM     10  C   UNL A   1      38.970  33.911  36.051  1.00  0.00     0.045 C 
BRANCH   9  11
ATOM     11  C   UNL A   1      39.875  32.824  33.979  1.00  0.00     0.035 C 
ATOM     12  C   UNL A   1      40.183  34.237  33.507  1.00  0.00     0.007 C 
ENDBRANCH   9  11
BRANCH   9  13
ATOM     13  N   UNL A   1      40.843  32.325  36.290  1.00  0.00    -0.324 N 
ATOM     14  C   UNL A   1      41.514  31.190  36.620  1.00  0.00     0.318 C 
ATOM     15  H   UNL A   1      41.271  33.140  36.638  1.00  0.00     0.166 HD
ATOM     16  O   UNL A   1      41.994  31.183  37.758  1.00  0.00    -0.249 OA
ATOM     17  N   UNL A   1      41.683  30.124  35.771  1.00  0.00    -0.323 N 
ATOM     18  C   UNL A   1      42.397  28.939  36.272  1.00  0.00     0.135 C 
ATOM     19  C   UNL A   1      41.748  30.201  34.326  1.00  0.00     0.135 C 
ATOM     20  C   UNL A   1      41.901  27.615  35.689  1.00  0.00     0.126 C 
ATOM     21  C   UNL A   1      40.989  29.095  33.633  1.00  0.00     0.126 C 
ATOM     22  S   UNL A   1      41.882  27.534  33.870  1.00  0.00     0.025 S 
ATOM     23  O   UNL A   1      43.282  27.719  33.366  1.00  0.00    -0.259 OA
ENDBRANCH   9  13
ENDBRANCH   6   9
ENDBRANCH   4   5
ENDBRANCH   3   4
ENDBRANCH   2   3
ENDBRANCH   1   2
BRANCH   1  24
ATOM     24  C   UNL A   1      34.447  33.667  30.234  1.00  0.00     0.021 C 
BRANCH  24  25
ATOM     25  C   UNL A   1      35.160  32.858  29.157  1.00  0.00     0.116 C 
BRANCH  25  26
ATOM     26  N   UNL A   1      34.261  31.950  28.460  1.00  0.00    -0.352 N 
ATOM     27  C   UNL A   1      34.541  30.722  27.904  1.00  0.00     0.251 C 
ATOM     28  H   UNL A   1      33.329  32.255  28.377  1.00  0.00     0.163 HD
ATOM     29  O   UNL A   1      33.735  30.160  27.183  1.00  0.00    -0.269 OA
BRANCH  27  30
ATOM     30  C   UNL A   1      35.860  30.110  28.178  1.00  0.00     0.039 A 
ATOM     31  C   UNL A   1      36.863  30.191  27.211  1.00  0.00     0.014 A 
ATOM     32  C   UNL A   1      36.111  29.514  29.416  1.00  0.00     0.014 A 
ATOM     33  C   UNL A   1      38.148  29.734  27.518  1.00  0.00     0.010 A 
ATOM     34  C   UNL A   1      37.408  29.138  29.747  1.00  0.00     0.010 A 
ATOM     35  C   UNL A   1      38.441  29.242  28.801  1.00  0.00    -0.014 A 
BRANCH  35  36
ATOM     36  C   UNL A   1      39.814  28.824  29.178  1.00  0.00     0.031 A 
ATOM     37  C   UNL A   1      40.727  29.798  29.875  1.00  0.00     0.074 A 
ATOM     38  C   UNL A   1      40.265  27.601  28.827  1.00  0.00     0.049 A 
ATOM     39  N   UNL A   1      41.981  29.651  30.217  1.00  0.00    -0.248 NA
ATOM     40  C   UNL A   1      40.168  31.119  30.209  1.00  0.00     0.031 C 
ATOM     41  C   UNL A   1      39.491  26.581  28.113  1.00  0.00     0.029 A 
ATOM     42  N   UNL A   1      41.491  27.009  29.016  1.00  0.00    -0.354 N 
ATOM     43  C   UNL A   1      42.366  30.865  30.774  1.00  0.00     0.074 A 
ATOM     44  C   UNL A   1      41.227  31.751  30.691  1.00  0.00     0.031 C 
ATOM     45  C   UNL A   1      40.250  25.485  27.949  1.00  0.00     0.029 A 
ATOM     46  C   UNL A   1      41.577  25.736  28.502  1.00  0.00     0.049 A 
ATOM     47  H   UNL A   1      42.238  27.456  29.476  1.00  0.00     0.167 HD
ATOM     48  C   UNL A   1      43.557  31.205  31.320  1.00  0.00     0.031 A 
ATOM     49  C   UNL A   1      42.612  24.872  28.468  1.00  0.00     0.031 A 
ATOM     50  C   UNL A   1      44.676  30.309  31.431  1.00  0.00     0.049 A 
ATOM     51  C   UNL A   1      43.927  25.283  29.081  1.00  0.00     0.074 A 
ATOM     52  C   UNL A   1      45.894  30.533  32.045  1.00  0.00     0.029 A 
ATOM     53  N   UNL A   1      44.716  29.024  30.913  1.00  0.00    -0.354 N 
ATOM     54  N   UNL A   1      44.240  26.404  29.685  1.00  0.00    -0.248 NA
ATOM     55  C   UNL A   1      45.024  24.308  29.014  1.00  0.00     0.031 C 
ATOM     56  C   UNL A   1      46.697  29.407  31.844  1.00  0.00     0.029 A 
ATOM     57  C   UNL A   1      45.953  28.456  31.164  1.00  0.00     0.049 A 
ATOM     58  H   UNL A   1      43.976  28.581  30.439  1.00  0.00     0.167 HD
ATOM     59  C   UNL A   1      45.557  26.252  30.103  1.00  0.00     0.074 A 
ATOM     60  C   UNL A   1      45.977  24.928  29.695  1.00  0.00     0.031 C 
ATOM     61  C   UNL A   1      46.350  27.130  30.767  1.00  0.00     0.031 A 
BRANCH  48  62
ATOM     62  C   UNL A   1      43.725  32.609  31.835  1.00  0.00    -0.014 A 
ATOM     63  C   UNL A   1      43.617  32.904  33.206  1.00  0.00     0.010 A 
ATOM     64  C   UNL A   1      44.085  33.636  30.942  1.00  0.00     0.010 A 
ATOM     65  C   UNL A   1      43.845  34.202  33.671  1.00  0.00     0.020 A 
ATOM     66  C   UNL A   1      44.342  34.928  31.405  1.00  0.00     0.020 A 
ATOM     67  C   UNL A   1      44.213  35.205  32.767  1.00  0.00     0.054 A 
BRANCH  67  68
ATOM     68  S   UNL A   1      44.569  36.864  33.409  1.00  0.00     0.124 S 
ATOM     69  O   UNL A   1      43.555  37.671  32.735  1.00  0.00    -0.237 OA
ATOM     70  O   UNL A   1      44.383  36.695  34.848  1.00  0.00    -0.237 OA
ATOM     71  O   UNL A   1      45.944  37.113  32.985  1.00  0.00    -0.744 OA
ENDBRANCH  67  68
ENDBRANCH  48  62
BRANCH  49  72
ATOM     72  C   UNL A   1      42.461  23.532  27.835  1.00  0.00    -0.014 A 
ATOM     73  C   UNL A   1      41.898  22.460  28.552  1.00  0.00     0.010 A 
ATOM     74  C   UNL A   1      42.915  23.307  26.523  1.00  0.00     0.010 A 
ATOM     75  C   UNL A   1      41.834  21.183  27.987  1.00  0.00     0.020 A 
ATOM     76  C   UNL A   1      42.821  22.039  25.942  1.00  0.00     0.020 A 
ATOM     77  C   UNL A   1      42.301  20.979  26.686  1.00  0.00     0.054 A 
BRANCH  77  78
ATOM     78  S   UNL A   1      42.204  19.315  25.970  1.00  0.00     0.124 S 
ATOM     79  O   UNL A   1      40.777  19.190  25.689  1.00  0.00    -0.237 OA
ATOM     80  O   UNL A   1      43.074  19.421  24.803  1.00  0.00    -0.237 OA
ATOM     81  O   UNL A   1      42.708  18.455  27.040  1.00  0.00    -0.744 OA
ENDBRANCH  77  78
ENDBRANCH  49  72
BRANCH  61  82
ATOM     82  C   UNL A   1      47.734  26.674  31.146  1.00  0.00    -0.014 A 
ATOM     83  C   UNL A   1      48.043  26.288  32.462  1.00  0.00     0.010 A 
ATOM     84  C   UNL A   1      48.719  26.562  30.148  1.00  0.00     0.010 A 
ATOM     85  C   UNL A   1      49.323  25.824  32.777  1.00  0.00     0.020 A 
ATOM     86  C   UNL A   1      49.990  26.069  30.453  1.00  0.00     0.020 A 
ATOM     87  C   UNL A   1      50.287  25.715  31.769  1.00  0.00     0.054 A 
BRANCH  87  88
ATOM     88  S   UNL A   1      51.922  25.056  32.194  1.00  0.00     0.124 S 
ATOM     89  O   UNL A   1      52.759  25.610  31.132  1.00  0.00    -0.237 OA
ATOM     90  O   UNL A   1      52.153  25.607  33.527  1.00  0.00    -0.237 OA
ATOM     91  O   UNL A   1      51.736  23.607  32.148  1.00  0.00    -0.744 OA
ENDBRANCH  87  88
ENDBRANCH  61  82
ENDBRANCH  35  36
ENDBRANCH  27  30
ENDBRANCH  25  26
ENDBRANCH  24  25
ENDBRANCH   1  24
TORSDOF 18
ENDMDL
MODEL 3
REMARK VINA RESULT:      -9.7      1.170      8.303
REMARK SMILES CC[C@](C)(NC(=O)N1CCS(=O)CC1)C(=O)NCCCCCCNC(=O)c1ccc(-c2c3nc(c(-c4ccc(S(=O)(=O)[O-])cc4)c4ccc([nH]4)c(-c4ccc(S(=O)(=O)[O-])cc4)c4nc(c(-c5ccc(S(=O)(=O)[O-])cc5)c5ccc2[nH]5)C=C4)C=C3)cc1
REMARK SMILES IDX 21 1 20 2 19 3 18 4 17 5 15 6 16 7 3 9 4 10 2 11 1 12 5 13
REMARK SMILES IDX 6 14 7 16 8 17 9 18 14 19 10 20 13 21 11 22 12 23 22 24
REMARK SMILES IDX 23 25 24 26 25 27 26 29 27 30 28 31 86 32 29 33 85 34 30 35
REMARK SMILES IDX 31 36 32 37 79 38 33 39 84 40 78 41 80 42 34 43 83 44 77 45
REMARK SMILES IDX 76 46 35 48 65 49 46 50 64 51 47 52 50 53 63 54 81 55 48 56
REMARK SMILES IDX 49 57 62 59 82 60 51 61 36 62 37 63 45 64 38 65 44 66 39 67
REMARK SMILES IDX 40 68 41 69 42 70 43 71 66 72 67 73 75 74 68 75 74 76 69 77
REMARK SMILES IDX 70 78 71 79 72 80 73 81 52 82 53 83 61 84 54 85 60 86 55 87
REMARK SMILES IDX 56 88 57 89 58 90 59 91
REMARK H PARENT 17 8 5 15 24 28 80 47 50 58
REMARK Flexibility Score: inf
ROOT
ATOM      1  C   UNL A   1      31.772  27.821  25.617  1.00  0.00     0.002 C 
ENDROOT
BRANCH   1   2
ATOM      2  C   UNL A   1      31.342  26.951  24.443  1.00  0.00     0.002 C 
BRANCH   2   3
ATOM      3  C   UNL A   1      32.459  26.217  23.694  1.00  0.00     0.021 C 
BRANCH   3   4
ATOM      4  C   UNL A   1      32.916  24.878  24.279  1.00  0.00     0.116 C 
BRANCH   4   5
ATOM      5  N   UNL A   1      34.215  24.893  24.941  1.00  0.00    -0.354 N 
ATOM      6  C   UNL A   1      35.010  23.878  25.416  1.00  0.00     0.245 C 
ATOM      7  O   UNL A   1      36.091  24.207  25.916  1.00  0.00    -0.272 OA
ATOM      8  H   UNL A   1      34.590  25.793  25.071  1.00  0.00     0.163 HD
BRANCH   6   9
ATOM      9  C   UNL A   1      34.607  22.380  25.247  1.00  0.00     0.117 C 
ATOM     10  C   UNL A   1      34.829  21.583  26.553  1.00  0.00     0.045 C 
BRANCH   9  11
ATOM     11  C   UNL A   1      35.668  21.857  24.205  1.00  0.00     0.035 C 
ATOM     12  C   UNL A   1      36.122  22.812  23.110  1.00  0.00     0.007 C 
ENDBRANCH   9  11
BRANCH   9  13
ATOM     13  N   UNL A   1      33.202  22.168  24.794  1.00  0.00    -0.324 N 
ATOM     14  C   UNL A   1      32.602  21.268  23.972  1.00  0.00     0.318 C 
ATOM     15  H   UNL A   1      32.572  22.822  25.175  1.00  0.00     0.166 HD
ATOM     16  O   UNL A   1      31.708  21.734  23.258  1.00  0.00    -0.249 OA
ATOM     17  N   UNL A   1      32.924  19.934  23.927  1.00  0.00    -0.323 N 
ATOM     18  C   UNL A   1      32.221  19.078  22.958  1.00  0.00     0.135 C 
ATOM     19  C   UNL A   1      33.439  19.156  25.035  1.00  0.00     0.135 C 
ATOM     20  C   UNL A   1      33.071  17.936  22.400  1.00  0.00     0.126 C 
ATOM     21  C   UNL A   1      34.545  18.207  24.637  1.00  0.00     0.126 C 
ATOM     22  S   UNL A   1      33.834  16.858  23.654  1.00  0.00     0.025 S 
ATOM     23  O   UNL A   1      32.745  16.219  24.464  1.00  0.00    -0.259 OA
ENDBRANCH   9  13
ENDBRANCH   6   9
ENDBRANCH   4   5
ENDBRANCH   3   4
ENDBRANCH   2   3
ENDBRANCH   1   2
BRANCH   1  24
ATOM     24  C   UNL A   1      33.213  28.313  25.559  1.00  0.00     0.021 C 
BRANCH  24  25
ATOM     25  C   UNL A   1      33.879  28.480  26.919  1.00  0.00     0.116 C 
BRANCH  25  26
ATOM     26  N   UNL A   1      33.699  29.817  27.464  1.00  0.00    -0.352 N 
ATOM     27  C   UNL A   1      34.570  30.557  28.232  1.00  0.00     0.251 C 
ATOM     28  H   UNL A   1      32.840  30.250  27.254  1.00  0.00     0.163 HD
ATOM     29  O   UNL A   1      34.209  31.585  28.778  1.00  0.00    -0.269 OA
BRANCH  27  30
ATOM     30  C   UNL A   1      35.953  30.060  28.402  1.00  0.00     0.039 A 
ATOM     31  C   UNL A   1      36.857  30.185  27.346  1.00  0.00     0.014 A 
ATOM     32  C   UNL A   1      36.360  29.526  29.628  1.00  0.00     0.014 A 
ATOM     33  C   UNL A   1      38.196  29.841  27.547  1.00  0.00     0.010 A 
ATOM     34  C   UNL A   1      37.707  29.265  29.850  1.00  0.00     0.010 A 
ATOM     35  C   UNL A   1      38.640  29.417  28.811  1.00  0.00    -0.014 A 
BRANCH  35  36
ATOM     36  C   UNL A   1      40.071  29.120  29.073  1.00  0.00     0.031 A 
ATOM     37  C   UNL A   1      40.640  27.781  28.685  1.00  0.00     0.074 A 
ATOM     38  C   UNL A   1      40.836  30.020  29.727  1.00  0.00     0.049 A 
ATOM     39  N   UNL A   1      41.838  27.303  28.897  1.00  0.00    -0.248 NA
ATOM     40  C   UNL A   1      39.737  26.846  27.990  1.00  0.00     0.031 C 
ATOM     41  C   UNL A   1      40.390  31.337  30.192  1.00  0.00     0.029 A 
ATOM     42  N   UNL A   1      42.150  29.960  30.123  1.00  0.00    -0.354 N 
ATOM     43  C   UNL A   1      41.823  26.008  28.393  1.00  0.00     0.074 A 
ATOM     44  C   UNL A   1      40.489  25.758  27.899  1.00  0.00     0.031 C 
ATOM     45  C   UNL A   1      41.418  31.967  30.784  1.00  0.00     0.029 A 
ATOM     46  C   UNL A   1      42.582  31.086  30.784  1.00  0.00     0.049 A 
ATOM     47  H   UNL A   1      42.728  29.183  29.949  1.00  0.00     0.167 HD
ATOM     48  C   UNL A   1      42.836  25.112  28.333  1.00  0.00     0.031 A 
ATOM     49  C   UNL A   1      43.777  31.374  31.339  1.00  0.00     0.031 A 
ATOM     50  C   UNL A   1      44.172  25.376  28.795  1.00  0.00     0.049 A 
ATOM     51  C   UNL A   1      44.883  30.353  31.260  1.00  0.00     0.074 A 
ATOM     52  C   UNL A   1      45.288  24.565  28.699  1.00  0.00     0.029 A 
ATOM     53  N   UNL A   1      44.572  26.535  29.443  1.00  0.00    -0.354 N 
ATOM     54  N   UNL A   1      44.873  29.168  30.696  1.00  0.00    -0.248 NA
ATOM     55  C   UNL A   1      46.164  30.712  31.884  1.00  0.00     0.031 C 
ATOM     56  C   UNL A   1      46.348  25.204  29.345  1.00  0.00     0.029 A 
ATOM     57  C   UNL A   1      45.910  26.444  29.783  1.00  0.00     0.049 A 
ATOM     58  H   UNL A   1      43.991  27.307  29.631  1.00  0.00     0.167 HD
ATOM     59  C   UNL A   1      46.156  28.659  30.865  1.00  0.00     0.074 A 
ATOM     60  C   UNL A   1      46.919  29.668  31.570  1.00  0.00     0.031 C 
ATOM     61  C   UNL A   1      46.660  27.464  30.470  1.00  0.00     0.031 A 
BRANCH  48  62
ATOM     62  C   UNL A   1      42.547  23.751  27.756  1.00  0.00    -0.014 A 
ATOM     63  C   UNL A   1      42.705  23.490  26.384  1.00  0.00     0.010 A 
ATOM     64  C   UNL A   1      42.196  22.695  28.618  1.00  0.00     0.010 A 
ATOM     65  C   UNL A   1      42.498  22.203  25.880  1.00  0.00     0.020 A 
ATOM     66  C   UNL A   1      42.016  21.401  28.124  1.00  0.00     0.020 A 
ATOM     67  C   UNL A   1      42.160  21.165  26.755  1.00  0.00     0.054 A 
BRANCH  67  68
ATOM     68  S   UNL A   1      41.964  19.492  26.083  1.00  0.00     0.124 S 
ATOM     69  O   UNL A   1      42.480  18.667  27.173  1.00  0.00    -0.237 OA
ATOM     70  O   UNL A   1      40.523  19.406  25.859  1.00  0.00    -0.237 OA
ATOM     71  O   UNL A   1      42.781  19.505  24.872  1.00  0.00    -0.744 OA
ENDBRANCH  67  68
ENDBRANCH  48  62
BRANCH  49  72
ATOM     72  C   UNL A   1      44.002  32.679  32.022  1.00  0.00    -0.014 A 
ATOM     73  C   UNL A   1      43.717  32.829  33.392  1.00  0.00     0.010 A 
ATOM     74  C   UNL A   1      44.466  33.792  31.298  1.00  0.00     0.010 A 
ATOM     75  C   UNL A   1      43.849  34.074  34.012  1.00  0.00     0.020 A 
ATOM     76  C   UNL A   1      44.632  35.032  31.924  1.00  0.00     0.020 A 
ATOM     77  C   UNL A   1      44.301  35.170  33.272  1.00  0.00     0.054 A 
BRANCH  77  78
ATOM     78  S   UNL A   1      44.469  36.777  34.099  1.00  0.00     0.124 S 
ATOM     79  O   UNL A   1      45.489  37.429  33.284  1.00  0.00    -0.237 OA
ATOM     80  O   UNL A   1      43.123  37.329  33.994  1.00  0.00    -0.237 OA
ATOM     81  O   UNL A   1      44.885  36.419  35.454  1.00  0.00    -0.744 OA
ENDBRANCH  77  78
ENDBRANCH  49  72
BRANCH  61  82
ATOM     82  C   UNL A   1      48.116  27.195  30.739  1.00  0.00    -0.014 A 
ATOM     83  C   UNL A   1      48.536  26.541  31.910  1.00  0.00     0.010 A 
ATOM     84  C   UNL A   1      49.071  27.540  29.765  1.00  0.00     0.010 A 
ATOM     85  C   UNL A   1      49.890  26.262  32.113  1.00  0.00     0.020 A 
ATOM     86  C   UNL A   1      50.421  27.234  29.951  1.00  0.00     0.020 A 
ATOM     87  C   UNL A   1      50.824  26.608  31.130  1.00  0.00     0.054 A 
BRANCH  87  88
ATOM     88  S   UNL A   1      52.566  26.183  31.394  1.00  0.00     0.124 S 
ATOM     89  O   UNL A   1      53.105  26.248  30.038  1.00  0.00    -0.237 OA
ATOM     90  O   UNL A   1      53.019  27.235  32.300  1.00  0.00    -0.237 OA
ATOM     91  O   UNL A   1      52.513  24.844  31.979  1.00  0.00    -0.744 OA
ENDBRANCH  87  88
ENDBRANCH  61  82
ENDBRANCH  35  36
ENDBRANCH  27  30
ENDBRANCH  25  26
ENDBRANCH  24  25
ENDBRANCH   1  24
TORSDOF 18
ENDMDL
