MODEL 1
REMARK VINA RESULT:     -12.8      0.000      0.000
REMARK SMILES Cc1ccc(-c2nn(-c3ccccc3)cc2[C@@H]2[NH2+][C@H](C(=O)NCCCCCCNC(=O)c3ccc(-c4c5nc(c(-c6ccc(S(=O)(=O)[O-])cc6)c6ccc([nH]6)c(-c6ccc(S(=O)(=O)[O-])cc6)c6nc(c(-c7ccc(S(=O)(=O)[O-])cc7)c7ccc4[nH]7)C=C6)C=C5)cc3)CS2)cc1
REMARK SMILES IDX 26 1 25 2 24 3 23 4 22 5 20 6 21 7 19 9 17 10 18 11 93 12
REMARK SMILES IDX 92 15 16 16 6 17 7 18 8 19 15 20 5 21 1 22 2 23 3 24 95 25
REMARK SMILES IDX 4 26 94 27 9 28 10 29 14 30 11 31 13 32 12 33 27 34 28 35
REMARK SMILES IDX 29 36 30 37 31 39 32 40 33 41 91 42 34 43 90 44 35 45 36 46
REMARK SMILES IDX 37 47 84 48 38 49 89 50 83 51 85 52 39 53 88 54 82 55 81 56
REMARK SMILES IDX 40 58 70 59 51 60 69 61 52 62 55 63 68 64 86 65 53 66 54 67
REMARK SMILES IDX 67 69 87 70 56 71 41 72 42 73 50 74 43 75 49 76 44 77 45 78
REMARK SMILES IDX 46 79 47 80 48 81 71 82 72 83 80 84 73 85 79 86 74 87 75 88
REMARK SMILES IDX 76 89 77 90 78 91 57 92 58 93 66 94 59 95 65 96 60 97 61 98
REMARK SMILES IDX 62 99 63 100 64 101
REMARK H PARENT 22 8 18 13 18 14 29 38 85 57 55 68
REMARK Flexibility Score: inf
ROOT
ATOM      1  C   UNL A   1      31.981  29.558  27.014  1.00  0.00     0.002 C 
ENDROOT
BRANCH   1   2
ATOM      2  C   UNL A   1      31.762  28.037  26.976  1.00  0.00     0.002 C 
BRANCH   2   3
ATOM      3  C   UNL A   1      30.729  27.293  26.080  1.00  0.00     0.021 C 
BRANCH   3   4
ATOM      4  C   UNL A   1      30.451  25.790  26.152  1.00  0.00     0.116 C 
BRANCH   4   5
ATOM      5  N   UNL A   1      31.478  24.960  26.782  1.00  0.00    -0.351 N 
ATOM      6  C   UNL A   1      32.048  23.767  26.434  1.00  0.00     0.279 C 
ATOM      7  O   UNL A   1      33.069  23.464  27.076  1.00  0.00    -0.268 OA
ATOM      8  H   UNL A   1      31.828  25.336  27.622  1.00  0.00     0.163 HD
BRANCH   6   9
ATOM      9  C   UNL A   1      31.557  22.737  25.376  1.00  0.00     0.283 C 
ATOM     10  C   UNL A   1      32.687  21.972  23.372  1.00  0.00     0.278 C 
ATOM     11  N   UNL A   1      31.851  23.026  23.955  1.00  0.00    -0.320 N 
ATOM     12  S   UNL A   1      32.200  20.444  24.200  1.00  0.00    -0.087 SA
ATOM     13  H   UNL A   1      30.975  23.083  23.438  1.00  0.00     0.348 HD
ATOM     14  H   UNL A   1      32.355  23.911  23.900  1.00  0.00     0.348 HD
ATOM     15  C   UNL A   1      31.933  21.303  25.770  1.00  0.00     0.151 C 
BRANCH  10  16
ATOM     16  C   UNL A   1      34.119  22.347  23.567  1.00  0.00     0.067 A 
ATOM     17  C   UNL A   1      34.711  23.665  23.551  1.00  0.00     0.103 A 
ATOM     18  N   UNL A   1      36.047  23.578  23.760  1.00  0.00    -0.167 NA
ATOM     19  N   UNL A   1      36.257  22.289  24.128  1.00  0.00    -0.240 N 
ATOM     20  C   UNL A   1      35.172  21.509  23.873  1.00  0.00     0.126 A 
BRANCH  17  21
ATOM     21  C   UNL A   1      34.028  24.973  23.374  1.00  0.00     0.003 A 
ATOM     22  C   UNL A   1      32.166  28.861  22.753  1.00  0.00     0.044 C 
ATOM     23  C   UNL A   1      32.794  27.518  22.993  1.00  0.00    -0.051 A 
ATOM     24  C   UNL A   1      32.675  26.524  22.027  1.00  0.00     0.004 A 
ATOM     25  C   UNL A   1      33.489  27.219  24.171  1.00  0.00     0.004 A 
ATOM     26  C   UNL A   1      33.284  25.279  22.220  1.00  0.00     0.011 A 
ATOM     27  C   UNL A   1      34.091  25.960  24.364  1.00  0.00     0.011 A 
ENDBRANCH  17  21
BRANCH  19  28
ATOM     28  C   UNL A   1      37.372  21.854  24.883  1.00  0.00     0.065 A 
ATOM     29  C   UNL A   1      38.055  22.777  25.697  1.00  0.00     0.028 A 
ATOM     30  C   UNL A   1      37.779  20.524  24.839  1.00  0.00     0.028 A 
ATOM     31  C   UNL A   1      39.206  22.391  26.382  1.00  0.00     0.002 A 
ATOM     32  C   UNL A   1      38.882  20.126  25.603  1.00  0.00     0.002 A 
ATOM     33  C   UNL A   1      39.612  21.062  26.344  1.00  0.00     0.000 A 
ENDBRANCH  19  28
ENDBRANCH  10  16
ENDBRANCH   6   9
ENDBRANCH   4   5
ENDBRANCH   3   4
ENDBRANCH   2   3
ENDBRANCH   1   2
BRANCH   1  34
ATOM     34  C   UNL A   1      33.403  30.099  26.827  1.00  0.00     0.021 C 
BRANCH  34  35
ATOM     35  C   UNL A   1      34.372  29.979  28.007  1.00  0.00     0.116 C 
BRANCH  35  36
ATOM     36  N   UNL A   1      35.291  31.125  28.154  1.00  0.00    -0.352 N 
ATOM     37  C   UNL A   1      36.660  31.100  28.429  1.00  0.00     0.251 C 
ATOM     38  H   UNL A   1      34.889  32.017  28.043  1.00  0.00     0.163 HD
ATOM     39  O   UNL A   1      37.327  32.077  28.663  1.00  0.00    -0.269 OA
BRANCH  37  40
ATOM     40  C   UNL A   1      37.289  29.765  28.337  1.00  0.00     0.039 A 
ATOM     41  C   UNL A   1      37.403  29.062  29.544  1.00  0.00     0.014 A 
ATOM     42  C   UNL A   1      38.133  29.528  27.259  1.00  0.00     0.014 A 
ATOM     43  C   UNL A   1      38.538  28.296  29.766  1.00  0.00     0.010 A 
ATOM     44  C   UNL A   1      39.299  28.835  27.513  1.00  0.00     0.010 A 
ATOM     45  C   UNL A   1      39.532  28.291  28.790  1.00  0.00    -0.014 A 
BRANCH  45  46
ATOM     46  C   UNL A   1      40.884  27.809  29.026  1.00  0.00     0.031 A 
ATOM     47  C   UNL A   1      41.214  26.418  28.660  1.00  0.00     0.074 A 
ATOM     48  C   UNL A   1      41.855  28.617  29.509  1.00  0.00     0.049 A 
ATOM     49  N   UNL A   1      42.226  25.766  29.124  1.00  0.00    -0.248 NA
ATOM     50  C   UNL A   1      40.352  25.608  27.805  1.00  0.00     0.031 C 
ATOM     51  C   UNL A   1      43.295  28.365  29.465  1.00  0.00     0.029 A 
ATOM     52  N   UNL A   1      41.738  29.731  30.342  1.00  0.00    -0.354 N 
ATOM     53  C   UNL A   1      42.337  24.613  28.386  1.00  0.00     0.074 A 
ATOM     54  C   UNL A   1      41.074  24.490  27.701  1.00  0.00     0.031 C 
ATOM     55  C   UNL A   1      43.883  29.069  30.443  1.00  0.00     0.029 A 
ATOM     56  C   UNL A   1      42.827  29.676  31.232  1.00  0.00     0.049 A 
ATOM     57  H   UNL A   1      41.034  30.419  30.314  1.00  0.00     0.167 HD
ATOM     58  C   UNL A   1      43.543  23.983  28.323  1.00  0.00     0.031 A 
ATOM     59  C   UNL A   1      42.712  29.603  32.592  1.00  0.00     0.031 A 
ATOM     60  C   UNL A   1      44.499  24.527  29.292  1.00  0.00     0.049 A 
ATOM     61  C   UNL A   1      43.386  28.385  33.202  1.00  0.00     0.074 A 
ATOM     62  C   UNL A   1      45.661  25.277  29.211  1.00  0.00     0.029 A 
ATOM     63  N   UNL A   1      44.154  24.512  30.634  1.00  0.00    -0.354 N 
ATOM     64  N   UNL A   1      44.032  27.480  32.519  1.00  0.00    -0.248 NA
ATOM     65  C   UNL A   1      43.283  28.030  34.619  1.00  0.00     0.031 C 
ATOM     66  C   UNL A   1      46.011  25.700  30.528  1.00  0.00     0.029 A 
ATOM     67  C   UNL A   1      45.073  25.192  31.406  1.00  0.00     0.049 A 
ATOM     68  H   UNL A   1      43.350  24.070  30.992  1.00  0.00     0.167 HD
ATOM     69  C   UNL A   1      44.326  26.414  33.329  1.00  0.00     0.074 A 
ATOM     70  C   UNL A   1      43.863  26.815  34.643  1.00  0.00     0.031 C 
ATOM     71  C   UNL A   1      44.860  25.254  32.845  1.00  0.00     0.031 A 
BRANCH  58  72
ATOM     72  C   UNL A   1      43.933  23.008  27.229  1.00  0.00    -0.014 A 
ATOM     73  C   UNL A   1      43.019  22.014  26.824  1.00  0.00     0.010 A 
ATOM     74  C   UNL A   1      45.204  22.949  26.625  1.00  0.00     0.010 A 
ATOM     75  C   UNL A   1      43.379  20.984  25.939  1.00  0.00     0.020 A 
ATOM     76  C   UNL A   1      45.580  21.931  25.739  1.00  0.00     0.020 A 
ATOM     77  C   UNL A   1      44.669  20.937  25.418  1.00  0.00     0.054 A 
BRANCH  77  78
ATOM     78  S   UNL A   1      45.159  19.565  24.347  1.00  0.00     0.124 S 
ATOM     79  O   UNL A   1      44.525  19.920  23.079  1.00  0.00    -0.237 OA
ATOM     80  O   UNL A   1      46.615  19.648  24.373  1.00  0.00    -0.237 OA
ATOM     81  O   UNL A   1      44.592  18.389  25.008  1.00  0.00    -0.744 OA
ENDBRANCH  77  78
ENDBRANCH  58  72
BRANCH  59  82
ATOM     82  C   UNL A   1      41.480  30.248  33.122  1.00  0.00    -0.014 A 
ATOM     83  C   UNL A   1      41.443  31.659  33.140  1.00  0.00     0.010 A 
ATOM     84  C   UNL A   1      40.272  29.532  33.163  1.00  0.00     0.010 A 
ATOM     85  C   UNL A   1      40.229  32.336  33.019  1.00  0.00     0.020 A 
ATOM     86  C   UNL A   1      39.052  30.210  33.046  1.00  0.00     0.020 A 
ATOM     87  C   UNL A   1      39.047  31.602  32.910  1.00  0.00     0.054 A 
BRANCH  87  88
ATOM     88  S   UNL A   1      37.546  32.479  32.377  1.00  0.00     0.124 S 
ATOM     89  O   UNL A   1      36.722  31.394  31.859  1.00  0.00    -0.237 OA
ATOM     90  O   UNL A   1      37.086  33.079  33.627  1.00  0.00    -0.237 OA
ATOM     91  O   UNL A   1      38.049  33.422  31.381  1.00  0.00    -0.744 OA
ENDBRANCH  87  88
ENDBRANCH  59  82
BRANCH  71  92
ATOM     92  C   UNL A   1      45.173  24.038  33.680  1.00  0.00    -0.014 A 
ATOM     93  C   UNL A   1      46.366  23.893  34.404  1.00  0.00     0.010 A 
ATOM     94  C   UNL A   1      44.301  22.924  33.649  1.00  0.00     0.010 A 
ATOM     95  C   UNL A   1      46.650  22.708  35.103  1.00  0.00     0.020 A 
ATOM     96  C   UNL A   1      44.581  21.734  34.325  1.00  0.00     0.020 A 
ATOM     97  C   UNL A   1      45.752  21.638  35.063  1.00  0.00     0.054 A 
BRANCH  97  98
ATOM     98  S   UNL A   1      46.155  20.101  35.932  1.00  0.00     0.124 S 
ATOM     99  O   UNL A   1      45.283  19.127  35.279  1.00  0.00    -0.237 OA
ATOM    100  O   UNL A   1      47.580  19.957  35.647  1.00  0.00    -0.237 OA
ATOM    101  O   UNL A   1      45.824  20.389  37.325  1.00  0.00    -0.744 OA
ENDBRANCH  97  98
ENDBRANCH  71  92
ENDBRANCH  45  46
ENDBRANCH  37  40
ENDBRANCH  35  36
ENDBRANCH  34  35
ENDBRANCH   1  34
TORSDOF 19
ENDMDL
MODEL 2
REMARK VINA RESULT:     -12.7      1.715      2.347
REMARK SMILES Cc1ccc(-c2nn(-c3ccccc3)cc2[C@@H]2[NH2+][C@H](C(=O)NCCCCCCNC(=O)c3ccc(-c4c5nc(c(-c6ccc(S(=O)(=O)[O-])cc6)c6ccc([nH]6)c(-c6ccc(S(=O)(=O)[O-])cc6)c6nc(c(-c7ccc(S(=O)(=O)[O-])cc7)c7ccc4[nH]7)C=C6)C=C5)cc3)CS2)cc1
REMARK SMILES IDX 26 1 25 2 24 3 23 4 22 5 20 6 21 7 19 9 17 10 18 11 93 12
REMARK SMILES IDX 92 15 16 16 6 17 7 18 8 19 15 20 5 21 1 22 2 23 3 24 95 25
REMARK SMILES IDX 4 26 94 27 9 28 10 29 14 30 11 31 13 32 12 33 27 34 28 35
REMARK SMILES IDX 29 36 30 37 31 39 32 40 33 41 91 42 34 43 90 44 35 45 36 46
REMARK SMILES IDX 37 47 84 48 38 49 89 50 83 51 85 52 39 53 88 54 82 55 81 56
REMARK SMILES IDX 40 58 70 59 51 60 69 61 52 62 55 63 68 64 86 65 53 66 54 67
REMARK SMILES IDX 67 69 87 70 56 71 41 72 42 73 50 74 43 75 49 76 44 77 45 78
REMARK SMILES IDX 46 79 47 80 48 81 71 82 72 83 80 84 73 85 79 86 74 87 75 88
REMARK SMILES IDX 76 89 77 90 78 91 57 92 58 93 66 94 59 95 65 96 60 97 61 98
REMARK SMILES IDX 62 99 63 100 64 101
REMARK H PARENT 22 8 18 13 18 14 29 38 85 57 55 68
REMARK Flexibility Score: inf
ROOT
ATOM      1  C   UNL A   1      31.916  27.671  27.169  1.00  0.00     0.002 C 
ENDROOT
BRANCH   1   2
ATOM      2  C   UNL A   1      30.758  27.414  26.191  1.00  0.00     0.002 C 
BRANCH   2   3
ATOM      3  C   UNL A   1      30.313  26.020  25.660  1.00  0.00     0.021 C 
BRANCH   3   4
ATOM      4  C   UNL A   1      29.963  24.829  26.555  1.00  0.00     0.116 C 
BRANCH   4   5
ATOM      5  N   UNL A   1      31.082  24.034  27.061  1.00  0.00    -0.351 N 
ATOM      6  C   UNL A   1      31.812  23.012  26.521  1.00  0.00     0.279 C 
ATOM      7  O   UNL A   1      32.854  22.726  27.136  1.00  0.00    -0.268 OA
ATOM      8  H   UNL A   1      31.365  24.286  27.969  1.00  0.00     0.163 HD
BRANCH   6   9
ATOM      9  C   UNL A   1      31.480  22.148  25.271  1.00  0.00     0.283 C 
ATOM     10  C   UNL A   1      32.623  22.076  23.134  1.00  0.00     0.278 C 
ATOM     11  N   UNL A   1      31.626  22.783  23.942  1.00  0.00    -0.320 N 
ATOM     12  S   UNL A   1      32.506  20.341  23.616  1.00  0.00    -0.087 SA
ATOM     13  H   UNL A   1      30.728  22.762  23.461  1.00  0.00     0.348 HD
ATOM     14  H   UNL A   1      31.936  23.746  24.075  1.00  0.00     0.348 HD
ATOM     15  C   UNL A   1      32.162  20.774  25.339  1.00  0.00     0.151 C 
BRANCH  10  16
ATOM     16  C   UNL A   1      33.958  22.695  23.387  1.00  0.00     0.067 A 
ATOM     17  C   UNL A   1      34.329  24.090  23.311  1.00  0.00     0.103 A 
ATOM     18  N   UNL A   1      35.642  24.239  23.606  1.00  0.00    -0.167 NA
ATOM     19  N   UNL A   1      36.032  23.028  24.079  1.00  0.00    -0.240 N 
ATOM     20  C   UNL A   1      35.108  22.064  23.816  1.00  0.00     0.126 A 
BRANCH  17  21
ATOM     21  C   UNL A   1      33.457  25.253  22.999  1.00  0.00     0.003 A 
ATOM     22  C   UNL A   1      30.790  28.606  22.219  1.00  0.00     0.044 C 
ATOM     23  C   UNL A   1      31.718  27.450  22.460  1.00  0.00    -0.051 A 
ATOM     24  C   UNL A   1      32.657  27.527  23.483  1.00  0.00     0.004 A 
ATOM     25  C   UNL A   1      31.685  26.291  21.675  1.00  0.00     0.004 A 
ATOM     26  C   UNL A   1      33.506  26.446  23.744  1.00  0.00     0.011 A 
ATOM     27  C   UNL A   1      32.549  25.209  21.935  1.00  0.00     0.011 A 
ENDBRANCH  17  21
BRANCH  19  28
ATOM     28  C   UNL A   1      37.146  22.832  24.930  1.00  0.00     0.065 A 
ATOM     29  C   UNL A   1      37.605  23.902  25.720  1.00  0.00     0.028 A 
ATOM     30  C   UNL A   1      37.770  21.591  25.001  1.00  0.00     0.028 A 
ATOM     31  C   UNL A   1      38.751  23.757  26.500  1.00  0.00     0.002 A 
ATOM     32  C   UNL A   1      38.865  21.430  25.857  1.00  0.00     0.002 A 
ATOM     33  C   UNL A   1      39.374  22.515  26.577  1.00  0.00     0.000 A 
ENDBRANCH  19  28
ENDBRANCH  10  16
ENDBRANCH   6   9
ENDBRANCH   4   5
ENDBRANCH   3   4
ENDBRANCH   2   3
ENDBRANCH   1   2
BRANCH   1  34
ATOM     34  C   UNL A   1      32.213  29.115  27.589  1.00  0.00     0.021 C 
BRANCH  34  35
ATOM     35  C   UNL A   1      33.184  29.924  26.723  1.00  0.00     0.116 C 
BRANCH  35  36
ATOM     36  N   UNL A   1      33.633  31.188  27.338  1.00  0.00    -0.352 N 
ATOM     37  C   UNL A   1      34.700  31.387  28.216  1.00  0.00     0.251 C 
ATOM     38  H   UNL A   1      33.118  31.992  27.097  1.00  0.00     0.163 HD
ATOM     39  O   UNL A   1      34.936  32.425  28.782  1.00  0.00    -0.269 OA
BRANCH  37  40
ATOM     40  C   UNL A   1      35.611  30.230  28.361  1.00  0.00     0.039 A 
ATOM     41  C   UNL A   1      35.809  29.773  29.671  1.00  0.00     0.014 A 
ATOM     42  C   UNL A   1      36.543  30.019  27.352  1.00  0.00     0.014 A 
ATOM     43  C   UNL A   1      37.070  29.327  30.038  1.00  0.00     0.010 A 
ATOM     44  C   UNL A   1      37.817  29.655  27.741  1.00  0.00     0.010 A 
ATOM     45  C   UNL A   1      38.092  29.389  29.094  1.00  0.00    -0.014 A 
BRANCH  45  46
ATOM     46  C   UNL A   1      39.503  29.267  29.432  1.00  0.00     0.031 A 
ATOM     47  C   UNL A   1      40.197  28.001  29.127  1.00  0.00     0.074 A 
ATOM     48  C   UNL A   1      40.203  30.299  29.955  1.00  0.00     0.049 A 
ATOM     49  N   UNL A   1      41.305  27.631  29.675  1.00  0.00    -0.248 NA
ATOM     50  C   UNL A   1      39.629  26.991  28.240  1.00  0.00     0.031 C 
ATOM     51  C   UNL A   1      41.659  30.419  30.014  1.00  0.00     0.029 A 
ATOM     52  N   UNL A   1      39.751  31.355  30.748  1.00  0.00    -0.354 N 
ATOM     53  C   UNL A   1      41.754  26.536  28.978  1.00  0.00     0.074 A 
ATOM     54  C   UNL A   1      40.615  26.090  28.215  1.00  0.00     0.031 C 
ATOM     55  C   UNL A   1      41.981  31.258  31.008  1.00  0.00     0.029 A 
ATOM     56  C   UNL A   1      40.753  31.587  31.709  1.00  0.00     0.049 A 
ATOM     57  H   UNL A   1      38.900  31.843  30.654  1.00  0.00     0.167 HD
ATOM     58  C   UNL A   1      43.081  26.230  29.011  1.00  0.00     0.031 A 
ATOM     59  C   UNL A   1      40.564  31.501  33.059  1.00  0.00     0.031 A 
ATOM     60  C   UNL A   1      43.799  27.009  30.026  1.00  0.00     0.049 A 
ATOM     61  C   UNL A   1      41.478  30.499  33.746  1.00  0.00     0.074 A 
ATOM     62  C   UNL A   1      44.737  28.027  30.001  1.00  0.00     0.029 A 
ATOM     63  N   UNL A   1      43.375  26.920  31.342  1.00  0.00    -0.354 N 
ATOM     64  N   UNL A   1      42.377  29.780  33.132  1.00  0.00    -0.248 NA
ATOM     65  C   UNL A   1      41.368  30.143  35.163  1.00  0.00     0.031 C 
ATOM     66  C   UNL A   1      44.875  28.538  31.326  1.00  0.00     0.029 A 
ATOM     67  C   UNL A   1      44.036  27.818  32.154  1.00  0.00     0.049 A 
ATOM     68  H   UNL A   1      42.685  26.293  31.659  1.00  0.00     0.167 HD
ATOM     69  C   UNL A   1      42.872  28.831  33.988  1.00  0.00     0.074 A 
ATOM     70  C   UNL A   1      42.232  29.115  35.258  1.00  0.00     0.031 C 
ATOM     71  C   UNL A   1      43.713  27.839  33.573  1.00  0.00     0.031 A 
BRANCH  58  72
ATOM     72  C   UNL A   1      43.780  25.376  27.972  1.00  0.00    -0.014 A 
ATOM     73  C   UNL A   1      43.396  25.474  26.619  1.00  0.00     0.010 A 
ATOM     74  C   UNL A   1      44.747  24.393  28.261  1.00  0.00     0.010 A 
ATOM     75  C   UNL A   1      43.886  24.594  25.639  1.00  0.00     0.020 A 
ATOM     76  C   UNL A   1      45.248  23.510  27.296  1.00  0.00     0.020 A 
ATOM     77  C   UNL A   1      44.795  23.601  25.990  1.00  0.00     0.054 A 
BRANCH  77  78
ATOM     78  S   UNL A   1      45.360  22.416  24.746  1.00  0.00     0.124 S 
ATOM     79  O   UNL A   1      44.131  21.693  24.426  1.00  0.00    -0.237 OA
ATOM     80  O   UNL A   1      45.876  23.283  23.694  1.00  0.00    -0.237 OA
ATOM     81  O   UNL A   1      46.370  21.627  25.451  1.00  0.00    -0.744 OA
ENDBRANCH  77  78
ENDBRANCH  58  72
BRANCH  59  82
ATOM     82  C   UNL A   1      39.175  31.819  33.490  1.00  0.00    -0.014 A 
ATOM     83  C   UNL A   1      38.848  33.180  33.671  1.00  0.00     0.010 A 
ATOM     84  C   UNL A   1      38.142  30.889  33.279  1.00  0.00     0.010 A 
ATOM     85  C   UNL A   1      37.541  33.626  33.466  1.00  0.00     0.020 A 
ATOM     86  C   UNL A   1      36.830  31.335  33.078  1.00  0.00     0.020 A 
ATOM     87  C   UNL A   1      36.555  32.706  33.110  1.00  0.00     0.054 A 
BRANCH  87  88
ATOM     88  S   UNL A   1      34.974  33.352  32.485  1.00  0.00     0.124 S 
ATOM     89  O   UNL A   1      34.404  32.185  31.823  1.00  0.00    -0.237 OA
ATOM     90  O   UNL A   1      34.308  33.766  33.718  1.00  0.00    -0.237 OA
ATOM     91  O   UNL A   1      35.386  34.441  31.604  1.00  0.00    -0.744 OA
ENDBRANCH  87  88
ENDBRANCH  59  82
BRANCH  71  92
ATOM     92  C   UNL A   1      44.263  26.750  34.460  1.00  0.00    -0.014 A 
ATOM     93  C   UNL A   1      45.633  26.592  34.718  1.00  0.00     0.010 A 
ATOM     94  C   UNL A   1      43.394  25.753  34.964  1.00  0.00     0.010 A 
ATOM     95  C   UNL A   1      46.106  25.514  35.486  1.00  0.00     0.020 A 
ATOM     96  C   UNL A   1      43.855  24.668  35.712  1.00  0.00     0.020 A 
ATOM     97  C   UNL A   1      45.212  24.562  35.983  1.00  0.00     0.054 A 
BRANCH  97  98
ATOM     98  S   UNL A   1      45.843  23.154  36.931  1.00  0.00     0.124 S 
ATOM     99  O   UNL A   1      45.173  22.019  36.300  1.00  0.00    -0.237 OA
ATOM    100  O   UNL A   1      47.279  23.247  36.690  1.00  0.00    -0.237 OA
ATOM    101  O   UNL A   1      45.421  23.436  38.300  1.00  0.00    -0.744 OA
ENDBRANCH  97  98
ENDBRANCH  71  92
ENDBRANCH  45  46
ENDBRANCH  37  40
ENDBRANCH  35  36
ENDBRANCH  34  35
ENDBRANCH   1  34
TORSDOF 19
ENDMDL
MODEL 3
REMARK VINA RESULT:     -12.1      3.651     10.364
REMARK SMILES Cc1ccc(-c2nn(-c3ccccc3)cc2[C@@H]2[NH2+][C@H](C(=O)NCCCCCCNC(=O)c3ccc(-c4c5nc(c(-c6ccc(S(=O)(=O)[O-])cc6)c6ccc([nH]6)c(-c6ccc(S(=O)(=O)[O-])cc6)c6nc(c(-c7ccc(S(=O)(=O)[O-])cc7)c7ccc4[nH]7)C=C6)C=C5)cc3)CS2)cc1
REMARK SMILES IDX 26 1 25 2 24 3 23 4 22 5 20 6 21 7 19 9 17 10 18 11 93 12
REMARK SMILES IDX 92 15 16 16 6 17 7 18 8 19 15 20 5 21 1 22 2 23 3 24 95 25
REMARK SMILES IDX 4 26 94 27 9 28 10 29 14 30 11 31 13 32 12 33 27 34 28 35
REMARK SMILES IDX 29 36 30 37 31 39 32 40 33 41 91 42 34 43 90 44 35 45 36 46
REMARK SMILES IDX 37 47 84 48 38 49 89 50 83 51 85 52 39 53 88 54 82 55 81 56
REMARK SMILES IDX 40 58 70 59 51 60 69 61 52 62 55 63 68 64 86 65 53 66 54 67
REMARK SMILES IDX 67 69 87 70 56 71 41 72 42 73 50 74 43 75 49 76 44 77 45 78
REMARK SMILES IDX 46 79 47 80 48 81 71 82 72 83 80 84 73 85 79 86 74 87 75 88
REMARK SMILES IDX 76 89 77 90 78 91 57 92 58 93 66 94 59 95 65 96 60 97 61 98
REMARK SMILES IDX 62 99 63 100 64 101
REMARK H PARENT 22 8 18 13 18 14 29 38 85 57 55 68
REMARK Flexibility Score: inf
ROOT
ATOM      1  C   UNL A   1      36.039  20.371  25.001  1.00  0.00     0.002 C 
ENDROOT
BRANCH   1   2
ATOM      2  C   UNL A   1      34.613  20.932  25.123  1.00  0.00     0.002 C 
BRANCH   2   3
ATOM      3  C   UNL A   1      33.893  21.293  26.455  1.00  0.00     0.021 C 
BRANCH   3   4
ATOM      4  C   UNL A   1      34.000  22.651  27.152  1.00  0.00     0.116 C 
BRANCH   4   5
ATOM      5  N   UNL A   1      34.395  23.788  26.321  1.00  0.00    -0.351 N 
ATOM      6  C   UNL A   1      33.702  24.853  25.815  1.00  0.00     0.279 C 
ATOM      7  O   UNL A   1      34.405  25.766  25.348  1.00  0.00    -0.268 OA
ATOM      8  H   UNL A   1      35.349  23.786  26.078  1.00  0.00     0.163 HD
BRANCH   6   9
ATOM      9  C   UNL A   1      32.161  25.040  25.718  1.00  0.00     0.283 C 
ATOM     10  C   UNL A   1      30.846  27.028  26.161  1.00  0.00     0.278 C 
ATOM     11  N   UNL A   1      31.505  25.864  26.758  1.00  0.00    -0.320 N 
ATOM     12  S   UNL A   1      30.276  26.490  24.535  1.00  0.00    -0.087 SA
ATOM     13  H   UNL A   1      30.810  25.298  27.244  1.00  0.00     0.348 HD
ATOM     14  H   UNL A   1      32.218  26.190  27.411  1.00  0.00     0.348 HD
ATOM     15  C   UNL A   1      31.730  25.439  24.300  1.00  0.00     0.151 C 
BRANCH  10  16
ATOM     16  C   UNL A   1      31.825  28.155  26.127  1.00  0.00     0.067 A 
ATOM     17  C   UNL A   1      31.855  29.289  25.231  1.00  0.00     0.103 A 
ATOM     18  N   UNL A   1      32.912  30.084  25.522  1.00  0.00    -0.167 NA
ATOM     19  N   UNL A   1      33.394  29.606  26.697  1.00  0.00    -0.240 N 
ATOM     20  C   UNL A   1      32.874  28.384  26.994  1.00  0.00     0.126 A 
BRANCH  17  21
ATOM     21  C   UNL A   1      30.892  29.628  24.151  1.00  0.00     0.003 A 
ATOM     22  C   UNL A   1      27.953  30.500  21.058  1.00  0.00     0.044 C 
ATOM     23  C   UNL A   1      28.988  30.206  22.105  1.00  0.00    -0.051 A 
ATOM     24  C   UNL A   1      28.898  30.823  23.349  1.00  0.00     0.004 A 
ATOM     25  C   UNL A   1      30.061  29.339  21.871  1.00  0.00     0.004 A 
ATOM     26  C   UNL A   1      29.834  30.533  24.348  1.00  0.00     0.011 A 
ATOM     27  C   UNL A   1      31.007  29.059  22.877  1.00  0.00     0.011 A 
ENDBRANCH  17  21
BRANCH  19  28
ATOM     28  C   UNL A   1      34.162  30.370  27.608  1.00  0.00     0.065 A 
ATOM     29  C   UNL A   1      33.852  31.730  27.797  1.00  0.00     0.028 A 
ATOM     30  C   UNL A   1      35.199  29.782  28.325  1.00  0.00     0.028 A 
ATOM     31  C   UNL A   1      34.648  32.522  28.623  1.00  0.00     0.002 A 
ATOM     32  C   UNL A   1      35.934  30.565  29.221  1.00  0.00     0.002 A 
ATOM     33  C   UNL A   1      35.682  31.935  29.345  1.00  0.00     0.000 A 
ENDBRANCH  19  28
ENDBRANCH  10  16
ENDBRANCH   6   9
ENDBRANCH   4   5
ENDBRANCH   3   4
ENDBRANCH   2   3
ENDBRANCH   1   2
BRANCH   1  34
ATOM     34  C   UNL A   1      37.161  21.314  24.549  1.00  0.00     0.021 C 
BRANCH  34  35
ATOM     35  C   UNL A   1      37.768  22.252  25.596  1.00  0.00     0.116 C 
BRANCH  35  36
ATOM     36  N   UNL A   1      39.030  21.765  26.186  1.00  0.00    -0.352 N 
ATOM     37  C   UNL A   1      40.114  22.518  26.641  1.00  0.00     0.251 C 
ATOM     38  H   UNL A   1      39.118  20.789  26.270  1.00  0.00     0.163 HD
ATOM     39  O   UNL A   1      41.169  22.053  26.995  1.00  0.00    -0.269 OA
BRANCH  37  40
ATOM     40  C   UNL A   1      39.863  23.972  26.745  1.00  0.00     0.039 A 
ATOM     41  C   UNL A   1      40.729  24.793  26.011  1.00  0.00     0.014 A 
ATOM     42  C   UNL A   1      39.188  24.426  27.872  1.00  0.00     0.014 A 
ATOM     43  C   UNL A   1      41.126  26.004  26.559  1.00  0.00     0.010 A 
ATOM     44  C   UNL A   1      39.649  25.590  28.454  1.00  0.00     0.010 A 
ATOM     45  C   UNL A   1      40.672  26.331  27.835  1.00  0.00    -0.014 A 
BRANCH  45  46
ATOM     46  C   UNL A   1      41.257  27.388  28.647  1.00  0.00     0.031 A 
ATOM     47  C   UNL A   1      40.479  28.623  28.868  1.00  0.00     0.074 A 
ATOM     48  C   UNL A   1      42.457  27.241  29.252  1.00  0.00     0.049 A 
ATOM     49  N   UNL A   1      40.992  29.744  29.247  1.00  0.00    -0.248 NA
ATOM     50  C   UNL A   1      39.053  28.713  28.573  1.00  0.00     0.031 C 
ATOM     51  C   UNL A   1      42.985  28.058  30.344  1.00  0.00     0.029 A 
ATOM     52  N   UNL A   1      43.550  26.466  28.860  1.00  0.00    -0.354 N 
ATOM     53  C   UNL A   1      39.948  30.577  29.569  1.00  0.00     0.074 A 
ATOM     54  C   UNL A   1      38.785  29.954  28.988  1.00  0.00     0.031 C 
ATOM     55  C   UNL A   1      44.322  27.977  30.333  1.00  0.00     0.029 A 
ATOM     56  C   UNL A   1      44.699  27.226  29.150  1.00  0.00     0.049 A 
ATOM     57  H   UNL A   1      43.524  25.566  28.460  1.00  0.00     0.167 HD
ATOM     58  C   UNL A   1      40.171  31.615  30.422  1.00  0.00     0.031 A 
ATOM     59  C   UNL A   1      45.619  27.620  28.220  1.00  0.00     0.031 A 
ATOM     60  C   UNL A   1      41.600  31.825  30.672  1.00  0.00     0.049 A 
ATOM     61  C   UNL A   1      45.812  29.126  28.145  1.00  0.00     0.074 A 
ATOM     62  C   UNL A   1      42.444  31.652  31.756  1.00  0.00     0.029 A 
ATOM     63  N   UNL A   1      42.427  32.067  29.586  1.00  0.00    -0.354 N 
ATOM     64  N   UNL A   1      45.180  29.988  28.893  1.00  0.00    -0.248 NA
ATOM     65  C   UNL A   1      46.648  29.784  27.138  1.00  0.00     0.031 C 
ATOM     66  C   UNL A   1      43.789  31.805  31.303  1.00  0.00     0.029 A 
ATOM     67  C   UNL A   1      43.757  32.089  29.952  1.00  0.00     0.049 A 
ATOM     68  H   UNL A   1      42.104  32.206  28.666  1.00  0.00     0.167 HD
ATOM     69  C   UNL A   1      45.413  31.258  28.431  1.00  0.00     0.074 A 
ATOM     70  C   UNL A   1      46.362  31.083  27.348  1.00  0.00     0.031 C 
ATOM     71  C   UNL A   1      44.755  32.347  28.924  1.00  0.00     0.031 A 
BRANCH  58  72
ATOM     72  C   UNL A   1      39.079  32.313  31.210  1.00  0.00    -0.014 A 
ATOM     73  C   UNL A   1      38.339  31.587  32.166  1.00  0.00     0.010 A 
ATOM     74  C   UNL A   1      38.663  33.642  30.999  1.00  0.00     0.010 A 
ATOM     75  C   UNL A   1      37.211  32.129  32.805  1.00  0.00     0.020 A 
ATOM     76  C   UNL A   1      37.542  34.199  31.628  1.00  0.00     0.020 A 
ATOM     77  C   UNL A   1      36.807  33.428  32.514  1.00  0.00     0.054 A 
BRANCH  77  78
ATOM     78  S   UNL A   1      35.306  34.095  33.271  1.00  0.00     0.124 S 
ATOM     79  O   UNL A   1      35.227  33.341  34.521  1.00  0.00    -0.237 OA
ATOM     80  O   UNL A   1      35.623  35.512  33.406  1.00  0.00    -0.237 OA
ATOM     81  O   UNL A   1      34.258  33.784  32.299  1.00  0.00    -0.744 OA
ENDBRANCH  77  78
ENDBRANCH  58  72
BRANCH  59  82
ATOM     82  C   UNL A   1      45.739  26.689  27.065  1.00  0.00    -0.014 A 
ATOM     83  C   UNL A   1      46.485  25.506  27.260  1.00  0.00     0.010 A 
ATOM     84  C   UNL A   1      44.804  26.744  26.017  1.00  0.00     0.010 A 
ATOM     85  C   UNL A   1      46.175  24.349  26.543  1.00  0.00     0.020 A 
ATOM     86  C   UNL A   1      44.497  25.585  25.294  1.00  0.00     0.020 A 
ATOM     87  C   UNL A   1      45.140  24.383  25.608  1.00  0.00     0.054 A 
BRANCH  87  88
ATOM     88  S   UNL A   1      44.512  22.798  24.975  1.00  0.00     0.124 S 
ATOM     89  O   UNL A   1      45.443  22.508  23.890  1.00  0.00    -0.237 OA
ATOM     90  O   UNL A   1      44.626  21.937  26.150  1.00  0.00    -0.237 OA
ATOM     91  O   UNL A   1      43.148  23.121  24.568  1.00  0.00    -0.744 OA
ENDBRANCH  87  88
ENDBRANCH  59  82
BRANCH  71  92
ATOM     92  C   UNL A   1      44.945  33.761  28.433  1.00  0.00    -0.014 A 
ATOM     93  C   UNL A   1      46.071  34.537  28.752  1.00  0.00     0.010 A 
ATOM     94  C   UNL A   1      43.902  34.403  27.726  1.00  0.00     0.010 A 
ATOM     95  C   UNL A   1      46.167  35.876  28.340  1.00  0.00     0.020 A 
ATOM     96  C   UNL A   1      43.979  35.739  27.327  1.00  0.00     0.020 A 
ATOM     97  C   UNL A   1      45.122  36.467  27.624  1.00  0.00     0.054 A 
BRANCH  97  98
ATOM     98  S   UNL A   1      45.243  38.208  27.141  1.00  0.00     0.124 S 
ATOM     99  O   UNL A   1      43.894  38.500  26.662  1.00  0.00    -0.237 OA
ATOM    100  O   UNL A   1      45.612  38.846  28.401  1.00  0.00    -0.237 OA
ATOM    101  O   UNL A   1      46.279  38.215  26.112  1.00  0.00    -0.744 OA
ENDBRANCH  97  98
ENDBRANCH  71  92
ENDBRANCH  45  46
ENDBRANCH  37  40
ENDBRANCH  35  36
ENDBRANCH  34  35
ENDBRANCH   1  34
TORSDOF 19
ENDMDL
