MODEL 1
REMARK VINA RESULT:     -11.5      0.000      0.000
REMARK SMILES Cc1cc(C)c2c(O[C@@H](C)C(=O)NCCCCCCNC(=O)c3ccc(-c4c5nc(c(-c6ccc(S(=O)(=O)[O-])cc6)c6ccc([nH]6)c(-c6ccc(S(=O)(=O)[O-])cc6)c6nc(c(-c7ccc(S(=O)(=O)[O-])cc7)c7ccc4[nH]7)C=C6)C=C5)cc3)nsc2n1
REMARK SMILES IDX 17 1 16 2 15 3 14 4 13 5 11 6 12 7 9 9 10 10 8 11 7 12 1 13
REMARK SMILES IDX 2 14 3 15 86 16 4 17 85 18 5 19 6 20 84 21 83 22 18 23 19 24
REMARK SMILES IDX 20 25 21 26 22 28 23 29 24 30 82 31 25 32 81 33 26 34 27 35
REMARK SMILES IDX 28 36 75 37 29 38 80 39 74 40 76 41 30 42 79 43 73 44 72 45
REMARK SMILES IDX 31 47 61 48 42 49 60 50 43 51 46 52 59 53 77 54 44 55 45 56
REMARK SMILES IDX 58 58 78 59 47 60 32 61 33 62 41 63 34 64 40 65 35 66 36 67
REMARK SMILES IDX 37 68 38 69 39 70 62 71 63 72 71 73 64 74 70 75 65 76 66 77
REMARK SMILES IDX 67 78 68 79 69 80 48 81 49 82 57 83 50 84 56 85 51 86 52 87
REMARK SMILES IDX 53 88 54 89 55 90
REMARK H PARENT 13 8 20 27 76 46 46 57
REMARK Flexibility Score: inf
ROOT
ATOM      1  C   UNL A   1      40.414  21.415  26.862  1.00  0.00     0.002 C 
ENDROOT
BRANCH   1   2
ATOM      2  C   UNL A   1      39.357  22.085  25.958  1.00  0.00     0.002 C 
BRANCH   2   3
ATOM      3  C   UNL A   1      38.316  22.989  26.624  1.00  0.00     0.021 C 
BRANCH   3   4
ATOM      4  C   UNL A   1      37.461  23.805  25.671  1.00  0.00     0.116 C 
BRANCH   4   5
ATOM      5  N   UNL A   1      37.295  23.334  24.320  1.00  0.00    -0.353 N 
ATOM      6  C   UNL A   1      36.111  22.955  23.734  1.00  0.00     0.260 C 
ATOM      7  O   UNL A   1      36.009  23.163  22.518  1.00  0.00    -0.271 OA
ATOM      8  H   UNL A   1      38.105  23.281  23.763  1.00  0.00     0.163 HD
BRANCH   6   9
ATOM      9  C   UNL A   1      34.947  22.212  24.507  1.00  0.00     0.260 C 
ATOM     10  C   UNL A   1      35.347  20.908  25.213  1.00  0.00     0.064 C 
BRANCH   9  11
ATOM     11  O   UNL A   1      33.578  22.242  24.239  1.00  0.00    -0.463 OA
BRANCH  11  12
ATOM     12  C   UNL A   1      32.661  23.010  24.872  1.00  0.00     0.235 A 
ATOM     13  C   UNL A   1      31.619  28.002  27.362  1.00  0.00     0.067 C 
ATOM     14  C   UNL A   1      31.826  26.784  26.510  1.00  0.00     0.039 A 
ATOM     15  C   UNL A   1      32.604  26.872  25.370  1.00  0.00     0.027 A 
ATOM     16  N   UNL A   1      31.283  25.641  26.935  1.00  0.00    -0.240 NA
ATOM     17  C   UNL A   1      32.970  25.719  24.638  1.00  0.00    -0.034 A 
ATOM     18  C   UNL A   1      31.611  24.551  26.215  1.00  0.00     0.147 A 
ATOM     19  C   UNL A   1      33.869  26.005  23.464  1.00  0.00     0.045 C 
ATOM     20  C   UNL A   1      32.464  24.454  25.101  1.00  0.00     0.078 A 
ATOM     21  S   UNL A   1      31.012  23.028  26.666  1.00  0.00    -0.012 S 
ATOM     22  N   UNL A   1      31.885  22.183  25.570  1.00  0.00    -0.153 NA
ENDBRANCH  11  12
ENDBRANCH   9  11
ENDBRANCH   6   9
ENDBRANCH   4   5
ENDBRANCH   3   4
ENDBRANCH   2   3
ENDBRANCH   1   2
BRANCH   1  23
ATOM     23  C   UNL A   1      40.925  20.027  26.462  1.00  0.00     0.021 C 
BRANCH  23  24
ATOM     24  C   UNL A   1      42.250  19.634  27.081  1.00  0.00     0.116 C 
BRANCH  24  25
ATOM     25  N   UNL A   1      43.350  19.502  26.119  1.00  0.00    -0.352 N 
ATOM     26  C   UNL A   1      43.931  20.491  25.325  1.00  0.00     0.251 C 
ATOM     27  H   UNL A   1      43.727  18.597  26.022  1.00  0.00     0.163 HD
ATOM     28  O   UNL A   1      44.599  20.192  24.353  1.00  0.00    -0.269 OA
BRANCH  26  29
ATOM     29  C   UNL A   1      43.719  21.911  25.699  1.00  0.00     0.039 A 
ATOM     30  C   UNL A   1      43.042  22.835  24.899  1.00  0.00     0.014 A 
ATOM     31  C   UNL A   1      44.211  22.306  26.932  1.00  0.00     0.014 A 
ATOM     32  C   UNL A   1      42.862  24.132  25.393  1.00  0.00     0.010 A 
ATOM     33  C   UNL A   1      43.729  23.422  27.535  1.00  0.00     0.010 A 
ATOM     34  C   UNL A   1      43.222  24.409  26.724  1.00  0.00    -0.014 A 
BRANCH  34  35
ATOM     35  C   UNL A   1      43.013  25.687  27.383  1.00  0.00     0.031 A 
ATOM     36  C   UNL A   1      44.025  26.686  26.992  1.00  0.00     0.074 A 
ATOM     37  C   UNL A   1      41.878  26.008  28.049  1.00  0.00     0.049 A 
ATOM     38  N   UNL A   1      45.098  26.984  27.641  1.00  0.00    -0.248 NA
ATOM     39  C   UNL A   1      43.976  27.240  25.628  1.00  0.00     0.031 C 
ATOM     40  C   UNL A   1      40.648  25.212  28.209  1.00  0.00     0.029 A 
ATOM     41  N   UNL A   1      41.542  27.177  28.659  1.00  0.00    -0.354 N 
ATOM     42  C   UNL A   1      45.692  27.998  26.906  1.00  0.00     0.074 A 
ATOM     43  C   UNL A   1      45.132  27.907  25.582  1.00  0.00     0.031 C 
ATOM     44  C   UNL A   1      39.646  25.992  28.684  1.00  0.00     0.029 A 
ATOM     45  C   UNL A   1      40.201  27.285  29.038  1.00  0.00     0.049 A 
ATOM     46  H   UNL A   1      42.195  27.894  28.822  1.00  0.00     0.167 HD
ATOM     47  C   UNL A   1      46.299  29.040  27.539  1.00  0.00     0.031 A 
ATOM     48  C   UNL A   1      39.619  28.358  29.633  1.00  0.00     0.031 A 
ATOM     49  C   UNL A   1      46.380  28.792  28.960  1.00  0.00     0.049 A 
ATOM     50  C   UNL A   1      40.715  29.098  30.298  1.00  0.00     0.074 A 
ATOM     51  C   UNL A   1      47.091  27.955  29.790  1.00  0.00     0.029 A 
ATOM     52  N   UNL A   1      45.265  29.207  29.650  1.00  0.00    -0.354 N 
ATOM     53  N   UNL A   1      41.407  28.607  31.286  1.00  0.00    -0.248 NA
ATOM     54  C   UNL A   1      41.303  30.251  29.630  1.00  0.00     0.031 C 
ATOM     55  C   UNL A   1      46.244  27.703  30.911  1.00  0.00     0.029 A 
ATOM     56  C   UNL A   1      45.068  28.440  30.767  1.00  0.00     0.049 A 
ATOM     57  H   UNL A   1      44.685  29.954  29.377  1.00  0.00     0.167 HD
ATOM     58  C   UNL A   1      42.684  29.089  31.080  1.00  0.00     0.074 A 
ATOM     59  C   UNL A   1      42.525  30.217  30.169  1.00  0.00     0.031 C 
ATOM     60  C   UNL A   1      43.774  28.340  31.414  1.00  0.00     0.031 A 
BRANCH  47  61
ATOM     61  C   UNL A   1      46.341  30.453  27.006  1.00  0.00    -0.014 A 
ATOM     62  C   UNL A   1      47.567  31.147  27.047  1.00  0.00     0.010 A 
ATOM     63  C   UNL A   1      45.190  31.214  26.717  1.00  0.00     0.010 A 
ATOM     64  C   UNL A   1      47.631  32.532  26.848  1.00  0.00     0.020 A 
ATOM     65  C   UNL A   1      45.246  32.590  26.481  1.00  0.00     0.020 A 
ATOM     66  C   UNL A   1      46.465  33.245  26.569  1.00  0.00     0.054 A 
BRANCH  66  67
ATOM     67  S   UNL A   1      46.550  35.041  26.370  1.00  0.00     0.124 S 
ATOM     68  O   UNL A   1      45.763  35.251  25.160  1.00  0.00    -0.237 OA
ATOM     69  O   UNL A   1      45.946  35.514  27.612  1.00  0.00    -0.237 OA
ATOM     70  O   UNL A   1      47.982  35.303  26.242  1.00  0.00    -0.744 OA
ENDBRANCH  66  67
ENDBRANCH  47  61
BRANCH  48  71
ATOM     71  C   UNL A   1      38.262  28.952  29.525  1.00  0.00    -0.014 A 
ATOM     72  C   UNL A   1      37.539  29.273  30.695  1.00  0.00     0.010 A 
ATOM     73  C   UNL A   1      37.851  29.551  28.319  1.00  0.00     0.010 A 
ATOM     74  C   UNL A   1      36.529  30.249  30.684  1.00  0.00     0.020 A 
ATOM     75  C   UNL A   1      36.836  30.524  28.301  1.00  0.00     0.020 A 
ATOM     76  C   UNL A   1      36.211  30.898  29.491  1.00  0.00     0.054 A 
BRANCH  76  77
ATOM     77  S   UNL A   1      35.085  32.329  29.538  1.00  0.00     0.124 S 
ATOM     78  O   UNL A   1      35.990  33.448  29.289  1.00  0.00    -0.237 OA
ATOM     79  O   UNL A   1      34.147  32.027  28.460  1.00  0.00    -0.237 OA
ATOM     80  O   UNL A   1      34.518  32.279  30.883  1.00  0.00    -0.744 OA
ENDBRANCH  76  77
ENDBRANCH  48  71
BRANCH  60  81
ATOM     81  C   UNL A   1      43.588  27.248  32.436  1.00  0.00    -0.014 A 
ATOM     82  C   UNL A   1      44.011  25.915  32.274  1.00  0.00     0.010 A 
ATOM     83  C   UNL A   1      43.030  27.634  33.666  1.00  0.00     0.010 A 
ATOM     84  C   UNL A   1      43.867  24.990  33.324  1.00  0.00     0.020 A 
ATOM     85  C   UNL A   1      42.900  26.726  34.716  1.00  0.00     0.020 A 
ATOM     86  C   UNL A   1      43.313  25.407  34.541  1.00  0.00     0.054 A 
BRANCH  86  87
ATOM     87  S   UNL A   1      43.161  24.227  35.912  1.00  0.00     0.124 S 
ATOM     88  O   UNL A   1      41.734  24.275  36.218  1.00  0.00    -0.237 OA
ATOM     89  O   UNL A   1      43.636  22.978  35.319  1.00  0.00    -0.237 OA
ATOM     90  O   UNL A   1      44.033  24.781  36.947  1.00  0.00    -0.744 OA
ENDBRANCH  86  87
ENDBRANCH  60  81
ENDBRANCH  34  35
ENDBRANCH  26  29
ENDBRANCH  24  25
ENDBRANCH  23  24
ENDBRANCH   1  23
TORSDOF 18
ENDMDL
MODEL 2
REMARK VINA RESULT:     -11.3      2.309      3.085
REMARK SMILES Cc1cc(C)c2c(O[C@@H](C)C(=O)NCCCCCCNC(=O)c3ccc(-c4c5nc(c(-c6ccc(S(=O)(=O)[O-])cc6)c6ccc([nH]6)c(-c6ccc(S(=O)(=O)[O-])cc6)c6nc(c(-c7ccc(S(=O)(=O)[O-])cc7)c7ccc4[nH]7)C=C6)C=C5)cc3)nsc2n1
REMARK SMILES IDX 17 1 16 2 15 3 14 4 13 5 11 6 12 7 9 9 10 10 8 11 7 12 1 13
REMARK SMILES IDX 2 14 3 15 86 16 4 17 85 18 5 19 6 20 84 21 83 22 18 23 19 24
REMARK SMILES IDX 20 25 21 26 22 28 23 29 24 30 82 31 25 32 81 33 26 34 27 35
REMARK SMILES IDX 28 36 75 37 29 38 80 39 74 40 76 41 30 42 79 43 73 44 72 45
REMARK SMILES IDX 31 47 61 48 42 49 60 50 43 51 46 52 59 53 77 54 44 55 45 56
REMARK SMILES IDX 58 58 78 59 47 60 32 61 33 62 41 63 34 64 40 65 35 66 36 67
REMARK SMILES IDX 37 68 38 69 39 70 62 71 63 72 71 73 64 74 70 75 65 76 66 77
REMARK SMILES IDX 67 78 68 79 69 80 48 81 49 82 57 83 50 84 56 85 51 86 52 87
REMARK SMILES IDX 53 88 54 89 55 90
REMARK H PARENT 13 8 20 27 76 46 46 57
REMARK Flexibility Score: inf
ROOT
ATOM      1  C   UNL A   1      39.509  21.513  25.766  1.00  0.00     0.002 C 
ENDROOT
BRANCH   1   2
ATOM      2  C   UNL A   1      38.018  21.842  25.540  1.00  0.00     0.002 C 
BRANCH   2   3
ATOM      3  C   UNL A   1      37.139  20.771  24.890  1.00  0.00     0.021 C 
BRANCH   3   4
ATOM      4  C   UNL A   1      35.700  20.730  25.372  1.00  0.00     0.116 C 
BRANCH   4   5
ATOM      5  N   UNL A   1      35.339  21.512  26.527  1.00  0.00    -0.353 N 
ATOM      6  C   UNL A   1      34.408  22.522  26.563  1.00  0.00     0.260 C 
ATOM      7  O   UNL A   1      33.792  22.663  27.628  1.00  0.00    -0.271 OA
ATOM      8  H   UNL A   1      35.802  21.301  27.370  1.00  0.00     0.163 HD
BRANCH   6   9
ATOM      9  C   UNL A   1      34.160  23.531  25.370  1.00  0.00     0.260 C 
ATOM     10  C   UNL A   1      35.019  24.804  25.390  1.00  0.00     0.064 C 
BRANCH   9  11
ATOM     11  O   UNL A   1      32.994  23.720  24.629  1.00  0.00    -0.463 OA
BRANCH  11  12
ATOM     12  C   UNL A   1      32.745  24.749  23.786  1.00  0.00     0.235 A 
ATOM     13  C   UNL A   1      29.254  29.034  22.497  1.00  0.00     0.067 C 
ATOM     14  C   UNL A   1      30.288  28.054  22.970  1.00  0.00     0.039 A 
ATOM     15  C   UNL A   1      30.500  27.886  24.326  1.00  0.00     0.027 A 
ATOM     16  N   UNL A   1      30.922  27.338  22.039  1.00  0.00    -0.240 NA
ATOM     17  C   UNL A   1      31.332  26.853  24.818  1.00  0.00    -0.034 A 
ATOM     18  C   UNL A   1      31.736  26.376  22.515  1.00  0.00     0.147 A 
ATOM     19  C   UNL A   1      31.394  26.789  26.322  1.00  0.00     0.045 C 
ATOM     20  C   UNL A   1      31.982  26.011  23.850  1.00  0.00     0.078 A 
ATOM     21  S   UNL A   1      32.580  25.373  21.436  1.00  0.00    -0.012 S 
ATOM     22  N   UNL A   1      33.185  24.377  22.585  1.00  0.00    -0.153 NA
ENDBRANCH  11  12
ENDBRANCH   9  11
ENDBRANCH   6   9
ENDBRANCH   4   5
ENDBRANCH   3   4
ENDBRANCH   2   3
ENDBRANCH   1   2
BRANCH   1  23
ATOM     23  C   UNL A   1      40.106  21.796  27.149  1.00  0.00     0.021 C 
BRANCH  23  24
ATOM     24  C   UNL A   1      41.550  21.374  27.317  1.00  0.00     0.116 C 
BRANCH  24  25
ATOM     25  N   UNL A   1      42.409  21.689  26.170  1.00  0.00    -0.352 N 
ATOM     26  C   UNL A   1      42.749  22.943  25.660  1.00  0.00     0.251 C 
ATOM     27  H   UNL A   1      42.796  20.916  25.700  1.00  0.00     0.163 HD
ATOM     28  O   UNL A   1      43.193  23.053  24.532  1.00  0.00    -0.269 OA
BRANCH  26  29
ATOM     29  C   UNL A   1      42.562  24.132  26.526  1.00  0.00     0.039 A 
ATOM     30  C   UNL A   1      43.380  24.438  27.617  1.00  0.00     0.014 A 
ATOM     31  C   UNL A   1      41.522  24.984  26.193  1.00  0.00     0.014 A 
ATOM     32  C   UNL A   1      43.130  25.621  28.321  1.00  0.00     0.010 A 
ATOM     33  C   UNL A   1      41.516  26.265  26.640  1.00  0.00     0.010 A 
ATOM     34  C   UNL A   1      42.180  26.526  27.815  1.00  0.00    -0.014 A 
BRANCH  34  35
ATOM     35  C   UNL A   1      41.885  27.822  28.402  1.00  0.00     0.031 A 
ATOM     36  C   UNL A   1      42.899  28.835  28.055  1.00  0.00     0.074 A 
ATOM     37  C   UNL A   1      40.691  28.136  28.960  1.00  0.00     0.049 A 
ATOM     38  N   UNL A   1      43.906  29.188  28.777  1.00  0.00    -0.248 NA
ATOM     39  C   UNL A   1      42.949  29.333  26.670  1.00  0.00     0.031 C 
ATOM     40  C   UNL A   1      39.472  27.310  29.051  1.00  0.00     0.029 A 
ATOM     41  N   UNL A   1      40.274  29.316  29.492  1.00  0.00    -0.354 N 
ATOM     42  C   UNL A   1      44.532  30.190  28.052  1.00  0.00     0.074 A 
ATOM     43  C   UNL A   1      44.087  30.032  26.691  1.00  0.00     0.031 C 
ATOM     44  C   UNL A   1      38.415  28.079  29.410  1.00  0.00     0.029 A 
ATOM     45  C   UNL A   1      38.905  29.400  29.756  1.00  0.00     0.049 A 
ATOM     46  H   UNL A   1      40.893  30.059  29.678  1.00  0.00     0.167 HD
ATOM     47  C   UNL A   1      45.058  31.273  28.690  1.00  0.00     0.031 A 
ATOM     48  C   UNL A   1      38.248  30.477  30.257  1.00  0.00     0.031 A 
ATOM     49  C   UNL A   1      45.027  31.082  30.121  1.00  0.00     0.049 A 
ATOM     50  C   UNL A   1      39.265  31.275  30.978  1.00  0.00     0.074 A 
ATOM     51  C   UNL A   1      45.689  30.299  31.041  1.00  0.00     0.029 A 
ATOM     52  N   UNL A   1      43.848  31.491  30.701  1.00  0.00    -0.354 N 
ATOM     53  N   UNL A   1      39.885  30.842  32.039  1.00  0.00    -0.248 NA
ATOM     54  C   UNL A   1      39.876  32.418  30.314  1.00  0.00     0.031 C 
ATOM     55  C   UNL A   1      44.759  30.066  32.097  1.00  0.00     0.029 A 
ATOM     56  C   UNL A   1      43.580  30.762  31.828  1.00  0.00     0.049 A 
ATOM     57  H   UNL A   1      43.274  32.210  30.351  1.00  0.00     0.167 HD
ATOM     58  C   UNL A   1      41.163  31.353  31.918  1.00  0.00     0.074 A 
ATOM     59  C   UNL A   1      41.050  32.440  30.952  1.00  0.00     0.031 C 
ATOM     60  C   UNL A   1      42.240  30.650  32.370  1.00  0.00     0.031 A 
BRANCH  47  61
ATOM     61  C   UNL A   1      45.107  32.666  28.105  1.00  0.00    -0.014 A 
ATOM     62  C   UNL A   1      46.363  33.294  27.980  1.00  0.00     0.010 A 
ATOM     63  C   UNL A   1      43.969  33.477  27.922  1.00  0.00     0.010 A 
ATOM     64  C   UNL A   1      46.471  34.667  27.725  1.00  0.00     0.020 A 
ATOM     65  C   UNL A   1      44.065  34.840  27.632  1.00  0.00     0.020 A 
ATOM     66  C   UNL A   1      45.317  35.432  27.556  1.00  0.00     0.054 A 
BRANCH  66  67
ATOM     67  S   UNL A   1      45.467  37.214  27.284  1.00  0.00     0.124 S 
ATOM     68  O   UNL A   1      45.918  37.684  28.589  1.00  0.00    -0.237 OA
ATOM     69  O   UNL A   1      46.452  37.278  26.209  1.00  0.00    -0.237 OA
ATOM     70  O   UNL A   1      44.114  37.616  26.906  1.00  0.00    -0.744 OA
ENDBRANCH  66  67
ENDBRANCH  47  61
BRANCH  48  71
ATOM     71  C   UNL A   1      36.889  31.027  30.014  1.00  0.00    -0.014 A 
ATOM     72  C   UNL A   1      36.215  31.718  31.045  1.00  0.00     0.010 A 
ATOM     73  C   UNL A   1      36.432  31.214  28.696  1.00  0.00     0.010 A 
ATOM     74  C   UNL A   1      35.209  32.655  30.759  1.00  0.00     0.020 A 
ATOM     75  C   UNL A   1      35.421  32.146  28.404  1.00  0.00     0.020 A 
ATOM     76  C   UNL A   1      34.845  32.892  29.434  1.00  0.00     0.054 A 
BRANCH  76  77
ATOM     77  S   UNL A   1      33.726  34.281  29.060  1.00  0.00     0.124 S 
ATOM     78  O   UNL A   1      34.630  35.259  28.462  1.00  0.00    -0.237 OA
ATOM     79  O   UNL A   1      32.764  33.672  28.145  1.00  0.00    -0.237 OA
ATOM     80  O   UNL A   1      33.188  34.652  30.366  1.00  0.00    -0.744 OA
ENDBRANCH  76  77
ENDBRANCH  48  71
BRANCH  60  81
ATOM     81  C   UNL A   1      41.998  29.593  33.417  1.00  0.00    -0.014 A 
ATOM     82  C   UNL A   1      41.622  28.263  33.147  1.00  0.00     0.010 A 
ATOM     83  C   UNL A   1      42.261  29.961  34.747  1.00  0.00     0.010 A 
ATOM     84  C   UNL A   1      41.504  27.330  34.192  1.00  0.00     0.020 A 
ATOM     85  C   UNL A   1      42.162  29.037  35.786  1.00  0.00     0.020 A 
ATOM     86  C   UNL A   1      41.779  27.726  35.506  1.00  0.00     0.054 A 
BRANCH  86  87
ATOM     87  S   UNL A   1      41.667  26.515  36.854  1.00  0.00     0.124 S 
ATOM     88  O   UNL A   1      42.880  26.779  37.623  1.00  0.00    -0.237 OA
ATOM     89  O   UNL A   1      40.414  26.879  37.512  1.00  0.00    -0.237 OA
ATOM     90  O   UNL A   1      41.642  25.226  36.165  1.00  0.00    -0.744 OA
ENDBRANCH  86  87
ENDBRANCH  60  81
ENDBRANCH  34  35
ENDBRANCH  26  29
ENDBRANCH  24  25
ENDBRANCH  23  24
ENDBRANCH   1  23
TORSDOF 18
ENDMDL
MODEL 3
REMARK VINA RESULT:     -11.2      1.988      2.751
REMARK SMILES Cc1cc(C)c2c(O[C@@H](C)C(=O)NCCCCCCNC(=O)c3ccc(-c4c5nc(c(-c6ccc(S(=O)(=O)[O-])cc6)c6ccc([nH]6)c(-c6ccc(S(=O)(=O)[O-])cc6)c6nc(c(-c7ccc(S(=O)(=O)[O-])cc7)c7ccc4[nH]7)C=C6)C=C5)cc3)nsc2n1
REMARK SMILES IDX 17 1 16 2 15 3 14 4 13 5 11 6 12 7 9 9 10 10 8 11 7 12 1 13
REMARK SMILES IDX 2 14 3 15 86 16 4 17 85 18 5 19 6 20 84 21 83 22 18 23 19 24
REMARK SMILES IDX 20 25 21 26 22 28 23 29 24 30 82 31 25 32 81 33 26 34 27 35
REMARK SMILES IDX 28 36 75 37 29 38 80 39 74 40 76 41 30 42 79 43 73 44 72 45
REMARK SMILES IDX 31 47 61 48 42 49 60 50 43 51 46 52 59 53 77 54 44 55 45 56
REMARK SMILES IDX 58 58 78 59 47 60 32 61 33 62 41 63 34 64 40 65 35 66 36 67
REMARK SMILES IDX 37 68 38 69 39 70 62 71 63 72 71 73 64 74 70 75 65 76 66 77
REMARK SMILES IDX 67 78 68 79 69 80 48 81 49 82 57 83 50 84 56 85 51 86 52 87
REMARK SMILES IDX 53 88 54 89 55 90
REMARK H PARENT 13 8 20 27 76 46 46 57
REMARK Flexibility Score: inf
ROOT
ATOM      1  C   UNL A   1      38.487  21.081  25.591  1.00  0.00     0.002 C 
ENDROOT
BRANCH   1   2
ATOM      2  C   UNL A   1      37.274  21.671  24.841  1.00  0.00     0.002 C 
BRANCH   2   3
ATOM      3  C   UNL A   1      35.985  20.845  24.805  1.00  0.00     0.021 C 
BRANCH   3   4
ATOM      4  C   UNL A   1      34.997  21.137  25.921  1.00  0.00     0.116 C 
BRANCH   4   5
ATOM      5  N   UNL A   1      33.828  20.303  26.040  1.00  0.00    -0.353 N 
ATOM      6  C   UNL A   1      32.855  20.132  25.086  1.00  0.00     0.260 C 
ATOM      7  O   UNL A   1      32.305  19.023  25.054  1.00  0.00    -0.271 OA
ATOM      8  H   UNL A   1      33.717  19.808  26.884  1.00  0.00     0.163 HD
BRANCH   6   9
ATOM      9  C   UNL A   1      32.364  21.282  24.115  1.00  0.00     0.260 C 
ATOM     10  C   UNL A   1      32.089  20.854  22.666  1.00  0.00     0.064 C 
BRANCH   9  11
ATOM     11  O   UNL A   1      32.626  22.649  24.197  1.00  0.00    -0.463 OA
BRANCH  11  12
ATOM     12  C   UNL A   1      31.855  23.571  24.820  1.00  0.00     0.235 A 
ATOM     13  C   UNL A   1      31.722  28.626  27.396  1.00  0.00     0.067 C 
ATOM     14  C   UNL A   1      31.717  27.407  26.521  1.00  0.00     0.039 A 
ATOM     15  C   UNL A   1      32.538  27.360  25.410  1.00  0.00     0.027 A 
ATOM     16  N   UNL A   1      30.945  26.386  26.900  1.00  0.00    -0.240 NA
ATOM     17  C   UNL A   1      32.697  26.170  24.662  1.00  0.00    -0.034 A 
ATOM     18  C   UNL A   1      31.079  25.265  26.165  1.00  0.00     0.147 A 
ATOM     19  C   UNL A   1      33.677  26.295  23.525  1.00  0.00     0.045 C 
ATOM     20  C   UNL A   1      31.937  25.022  25.077  1.00  0.00     0.078 A 
ATOM     21  S   UNL A   1      30.177  23.882  26.559  1.00  0.00    -0.012 S 
ATOM     22  N   UNL A   1      30.906  22.901  25.471  1.00  0.00    -0.153 NA
ENDBRANCH  11  12
ENDBRANCH   9  11
ENDBRANCH   6   9
ENDBRANCH   4   5
ENDBRANCH   3   4
ENDBRANCH   2   3
ENDBRANCH   1   2
BRANCH   1  23
ATOM     23  C   UNL A   1      39.357  22.038  26.414  1.00  0.00     0.021 C 
BRANCH  23  24
ATOM     24  C   UNL A   1      40.665  21.450  26.901  1.00  0.00     0.116 C 
BRANCH  24  25
ATOM     25  N   UNL A   1      41.795  21.650  25.987  1.00  0.00    -0.352 N 
ATOM     26  C   UNL A   1      42.447  22.840  25.662  1.00  0.00     0.251 C 
ATOM     27  H   UNL A   1      42.137  20.839  25.546  1.00  0.00     0.163 HD
ATOM     28  O   UNL A   1      43.139  22.915  24.664  1.00  0.00    -0.269 OA
BRANCH  26  29
ATOM     29  C   UNL A   1      42.282  24.005  26.566  1.00  0.00     0.039 A 
ATOM     30  C   UNL A   1      42.986  24.171  27.761  1.00  0.00     0.014 A 
ATOM     31  C   UNL A   1      41.387  24.981  26.159  1.00  0.00     0.014 A 
ATOM     32  C   UNL A   1      42.778  25.344  28.495  1.00  0.00     0.010 A 
ATOM     33  C   UNL A   1      41.463  26.235  26.673  1.00  0.00     0.010 A 
ATOM     34  C   UNL A   1      42.000  26.370  27.931  1.00  0.00    -0.014 A 
BRANCH  34  35
ATOM     35  C   UNL A   1      41.773  27.665  28.551  1.00  0.00     0.031 A 
ATOM     36  C   UNL A   1      42.808  28.648  28.179  1.00  0.00     0.074 A 
ATOM     37  C   UNL A   1      40.614  28.009  29.160  1.00  0.00     0.049 A 
ATOM     38  N   UNL A   1      43.855  28.954  28.866  1.00  0.00    -0.248 NA
ATOM     39  C   UNL A   1      42.820  29.169  26.802  1.00  0.00     0.031 C 
ATOM     40  C   UNL A   1      39.371  27.225  29.287  1.00  0.00     0.029 A 
ATOM     41  N   UNL A   1      40.260  29.194  29.728  1.00  0.00    -0.354 N 
ATOM     42  C   UNL A   1      44.486  29.947  28.132  1.00  0.00     0.074 A 
ATOM     43  C   UNL A   1      43.982  29.827  26.788  1.00  0.00     0.031 C 
ATOM     44  C   UNL A   1      38.357  28.023  29.700  1.00  0.00     0.029 A 
ATOM     45  C   UNL A   1      38.906  29.320  30.047  1.00  0.00     0.049 A 
ATOM     46  H   UNL A   1      40.912  29.912  29.901  1.00  0.00     0.167 HD
ATOM     47  C   UNL A   1      45.074  30.999  28.766  1.00  0.00     0.031 A 
ATOM     48  C   UNL A   1      38.307  30.411  30.592  1.00  0.00     0.031 A 
ATOM     49  C   UNL A   1      45.093  30.785  30.194  1.00  0.00     0.049 A 
ATOM     50  C   UNL A   1      39.379  31.160  31.284  1.00  0.00     0.074 A 
ATOM     51  C   UNL A   1      45.763  29.964  31.074  1.00  0.00     0.029 A 
ATOM     52  N   UNL A   1      43.953  31.224  30.827  1.00  0.00    -0.354 N 
ATOM     53  N   UNL A   1      40.025  30.688  32.313  1.00  0.00    -0.248 NA
ATOM     54  C   UNL A   1      40.004  32.293  30.615  1.00  0.00     0.031 C 
ATOM     55  C   UNL A   1      44.867  29.745  32.163  1.00  0.00     0.029 A 
ATOM     56  C   UNL A   1      43.704  30.485  31.952  1.00  0.00     0.049 A 
ATOM     57  H   UNL A   1      43.391  31.968  30.512  1.00  0.00     0.167 HD
ATOM     58  C   UNL A   1      41.314  31.157  32.148  1.00  0.00     0.074 A 
ATOM     59  C   UNL A   1      41.202  32.264  31.205  1.00  0.00     0.031 C 
ATOM     60  C   UNL A   1      42.383  30.409  32.546  1.00  0.00     0.031 A 
BRANCH  47  61
ATOM     61  C   UNL A   1      45.148  32.400  28.201  1.00  0.00    -0.014 A 
ATOM     62  C   UNL A   1      46.356  33.113  28.342  1.00  0.00     0.010 A 
ATOM     63  C   UNL A   1      44.021  33.135  27.782  1.00  0.00     0.010 A 
ATOM     64  C   UNL A   1      46.421  34.494  28.113  1.00  0.00     0.020 A 
ATOM     65  C   UNL A   1      44.081  34.505  27.516  1.00  0.00     0.020 A 
ATOM     66  C   UNL A   1      45.278  35.180  27.704  1.00  0.00     0.054 A 
BRANCH  66  67
ATOM     67  S   UNL A   1      45.358  36.972  27.466  1.00  0.00     0.124 S 
ATOM     68  O   UNL A   1      46.347  37.094  26.402  1.00  0.00    -0.237 OA
ATOM     69  O   UNL A   1      43.982  37.292  27.096  1.00  0.00    -0.237 OA
ATOM     70  O   UNL A   1      45.777  37.472  28.774  1.00  0.00    -0.744 OA
ENDBRANCH  66  67
ENDBRANCH  47  61
BRANCH  48  71
ATOM     71  C   UNL A   1      36.960  31.011  30.412  1.00  0.00    -0.014 A 
ATOM     72  C   UNL A   1      36.505  32.001  31.311  1.00  0.00     0.010 A 
ATOM     73  C   UNL A   1      36.302  30.903  29.172  1.00  0.00     0.010 A 
ATOM     74  C   UNL A   1      35.520  32.929  30.937  1.00  0.00     0.020 A 
ATOM     75  C   UNL A   1      35.310  31.825  28.794  1.00  0.00     0.020 A 
ATOM     76  C   UNL A   1      34.955  32.859  29.663  1.00  0.00     0.054 A 
BRANCH  76  77
ATOM     77  S   UNL A   1      33.870  34.210  29.103  1.00  0.00     0.124 S 
ATOM     78  O   UNL A   1      33.006  33.538  28.137  1.00  0.00    -0.237 OA
ATOM     79  O   UNL A   1      33.222  34.629  30.342  1.00  0.00    -0.237 OA
ATOM     80  O   UNL A   1      34.798  35.183  28.531  1.00  0.00    -0.744 OA
ENDBRANCH  76  77
ENDBRANCH  48  71
BRANCH  60  81
ATOM     81  C   UNL A   1      42.147  29.344  33.585  1.00  0.00    -0.014 A 
ATOM     82  C   UNL A   1      41.690  28.040  33.310  1.00  0.00     0.010 A 
ATOM     83  C   UNL A   1      42.499  29.670  34.905  1.00  0.00     0.010 A 
ATOM     84  C   UNL A   1      41.583  27.091  34.343  1.00  0.00     0.020 A 
ATOM     85  C   UNL A   1      42.410  28.729  35.930  1.00  0.00     0.020 A 
ATOM     86  C   UNL A   1      41.948  27.445  35.647  1.00  0.00     0.054 A 
BRANCH  86  87
ATOM     87  S   UNL A   1      41.849  26.212  36.976  1.00  0.00     0.124 S 
ATOM     88  O   UNL A   1      40.454  26.308  37.397  1.00  0.00    -0.237 OA
ATOM     89  O   UNL A   1      42.217  24.973  36.296  1.00  0.00    -0.237 OA
ATOM     90  O   UNL A   1      42.823  26.681  37.961  1.00  0.00    -0.744 OA
ENDBRANCH  86  87
ENDBRANCH  60  81
ENDBRANCH  34  35
ENDBRANCH  26  29
ENDBRANCH  24  25
ENDBRANCH  23  24
ENDBRANCH   1  23
TORSDOF 18
ENDMDL
