MODEL 1
REMARK VINA RESULT:     -10.9      0.000      0.000
REMARK SMILES O=C(NCCCCCCNC(=O)[C@@H]1[NH2+]CC[C@H]1c1cc(F)c(F)c(F)c1)c1ccc(-c2c3nc(c(-c4ccc(S(=O)(=O)[O-])cc4)c4ccc([nH]4)c(-c4ccc(S(=O)(=O)[O-])cc4)c4nc(c(-c5ccc(S(=O)(=O)[O-])cc5)c5ccc2[nH]5)C=C4)C=C3)cc1
REMARK SMILES IDX 5 1 4 2 3 3 1 4 2 5 27 7 28 8 86 9 29 10 85 11 30 12 31 13
REMARK SMILES IDX 32 14 79 15 33 16 84 17 78 18 80 19 34 20 83 21 77 22 76 23
REMARK SMILES IDX 35 25 65 26 46 27 64 28 47 29 50 30 63 31 81 32 48 33 49 34
REMARK SMILES IDX 62 36 82 37 51 38 36 39 37 40 45 41 38 42 44 43 39 44 40 45
REMARK SMILES IDX 41 46 42 47 43 48 66 49 67 50 75 51 68 52 74 53 69 54 70 55
REMARK SMILES IDX 71 56 72 57 73 58 52 59 53 60 61 61 54 62 60 63 55 64 56 65
REMARK SMILES IDX 57 66 58 67 59 68 6 69 7 70 8 71 9 72 10 73 11 74 12 76
REMARK SMILES IDX 13 77 14 78 17 79 15 80 16 83 18 84 19 85 26 86 20 87 24 88
REMARK SMILES IDX 21 89 22 90 25 91 23 92
REMARK H PARENT 3 6 80 24 50 35 10 75 14 81 14 82
REMARK Flexibility Score: inf
ROOT
ATOM      1  C   UNL A   1      33.031  27.378  25.529  1.00  0.00     0.021 C 
ENDROOT
BRANCH   1   2
ATOM      2  C   UNL A   1      34.019  27.964  26.529  1.00  0.00     0.116 C 
BRANCH   2   3
ATOM      3  N   UNL A   1      33.661  29.304  26.955  1.00  0.00    -0.352 N 
ATOM      4  O   UNL A   1      33.859  31.244  28.078  1.00  0.00    -0.269 OA
ATOM      5  C   UNL A   1      34.387  30.212  27.689  1.00  0.00     0.251 C 
ATOM      6  H   UNL A   1      32.768  29.608  26.677  1.00  0.00     0.163 HD
BRANCH   5   7
ATOM      7  C   UNL A   1      35.799  29.921  28.029  1.00  0.00     0.039 A 
ATOM      8  C   UNL A   1      36.821  30.142  27.103  1.00  0.00     0.014 A 
ATOM      9  C   UNL A   1      36.103  29.433  29.303  1.00  0.00     0.014 A 
ATOM     10  C   UNL A   1      38.120  29.743  27.399  1.00  0.00     0.010 A 
ATOM     11  C   UNL A   1      37.425  29.115  29.630  1.00  0.00     0.010 A 
ATOM     12  C   UNL A   1      38.441  29.239  28.670  1.00  0.00    -0.014 A 
BRANCH  12  13
ATOM     13  C   UNL A   1      39.854  28.913  28.988  1.00  0.00     0.031 A 
ATOM     14  C   UNL A   1      40.735  29.884  29.727  1.00  0.00     0.074 A 
ATOM     15  C   UNL A   1      40.334  27.706  28.625  1.00  0.00     0.049 A 
ATOM     16  N   UNL A   1      41.973  29.731  30.123  1.00  0.00    -0.248 NA
ATOM     17  C   UNL A   1      40.157  31.195  30.061  1.00  0.00     0.031 C 
ATOM     18  C   UNL A   1      39.576  26.683  27.897  1.00  0.00     0.029 A 
ATOM     19  N   UNL A   1      41.555  27.122  28.839  1.00  0.00    -0.354 N 
ATOM     20  C   UNL A   1      42.332  30.928  30.731  1.00  0.00     0.074 A 
ATOM     21  C   UNL A   1      41.186  31.807  30.632  1.00  0.00     0.031 C 
ATOM     22  C   UNL A   1      40.326  25.579  27.781  1.00  0.00     0.029 A 
ATOM     23  C   UNL A   1      41.637  25.835  28.364  1.00  0.00     0.049 A 
ATOM     24  H   UNL A   1      42.301  27.580  29.289  1.00  0.00     0.167 HD
ATOM     25  C   UNL A   1      43.507  31.264  31.319  1.00  0.00     0.031 A 
ATOM     26  C   UNL A   1      42.657  24.956  28.384  1.00  0.00     0.031 A 
ATOM     27  C   UNL A   1      44.645  30.384  31.409  1.00  0.00     0.049 A 
ATOM     28  C   UNL A   1      43.955  25.362  29.017  1.00  0.00     0.074 A 
ATOM     29  C   UNL A   1      45.869  30.619  32.014  1.00  0.00     0.029 A 
ATOM     30  N   UNL A   1      44.704  29.106  30.876  1.00  0.00    -0.354 N 
ATOM     31  N   UNL A   1      44.260  26.487  29.618  1.00  0.00    -0.248 NA
ATOM     32  C   UNL A   1      45.046  24.381  28.974  1.00  0.00     0.031 C 
ATOM     33  C   UNL A   1      46.684  29.503  31.799  1.00  0.00     0.029 A 
ATOM     34  C   UNL A   1      45.951  28.549  31.112  1.00  0.00     0.049 A 
ATOM     35  H   UNL A   1      43.969  28.659  30.396  1.00  0.00     0.167 HD
ATOM     36  C   UNL A   1      45.575  26.342  30.042  1.00  0.00     0.074 A 
ATOM     37  C   UNL A   1      45.998  25.014  29.646  1.00  0.00     0.031 C 
ATOM     38  C   UNL A   1      46.360  27.229  30.702  1.00  0.00     0.031 A 
BRANCH  25  39
ATOM     39  C   UNL A   1      43.632  32.657  31.882  1.00  0.00    -0.014 A 
ATOM     40  C   UNL A   1      44.110  33.723  31.100  1.00  0.00     0.010 A 
ATOM     41  C   UNL A   1      43.232  32.910  33.207  1.00  0.00     0.010 A 
ATOM     42  C   UNL A   1      44.232  35.004  31.646  1.00  0.00     0.020 A 
ATOM     43  C   UNL A   1      43.327  34.194  33.750  1.00  0.00     0.020 A 
ATOM     44  C   UNL A   1      43.846  35.230  32.971  1.00  0.00     0.054 A 
BRANCH  44  45
ATOM     45  S   UNL A   1      44.014  36.902  33.655  1.00  0.00     0.124 S 
ATOM     46  O   UNL A   1      45.406  36.904  34.101  1.00  0.00    -0.237 OA
ATOM     47  O   UNL A   1      43.725  37.752  32.503  1.00  0.00    -0.237 OA
ATOM     48  O   UNL A   1      43.017  36.943  34.721  1.00  0.00    -0.744 OA
ENDBRANCH  44  45
ENDBRANCH  25  39
BRANCH  26  49
ATOM     49  C   UNL A   1      42.478  23.605  27.786  1.00  0.00    -0.014 A 
ATOM     50  C   UNL A   1      42.946  23.331  26.490  1.00  0.00     0.010 A 
ATOM     51  C   UNL A   1      41.869  22.577  28.528  1.00  0.00     0.010 A 
ATOM     52  C   UNL A   1      42.797  22.054  25.941  1.00  0.00     0.020 A 
ATOM     53  C   UNL A   1      41.746  21.292  27.995  1.00  0.00     0.020 A 
ATOM     54  C   UNL A   1      42.201  21.041  26.699  1.00  0.00     0.054 A 
BRANCH  54  55
ATOM     55  S   UNL A   1      42.075  19.376  25.990  1.00  0.00     0.124 S 
ATOM     56  O   UNL A   1      40.638  19.251  25.769  1.00  0.00    -0.237 OA
ATOM     57  O   UNL A   1      42.896  19.482  24.787  1.00  0.00    -0.237 OA
ATOM     58  O   UNL A   1      42.626  18.517  27.037  1.00  0.00    -0.744 OA
ENDBRANCH  54  55
ENDBRANCH  26  49
BRANCH  38  59
ATOM     59  C   UNL A   1      47.749  26.775  31.062  1.00  0.00    -0.014 A 
ATOM     60  C   UNL A   1      48.837  26.999  30.197  1.00  0.00     0.010 A 
ATOM     61  C   UNL A   1      47.972  26.136  32.295  1.00  0.00     0.010 A 
ATOM     62  C   UNL A   1      50.115  26.557  30.544  1.00  0.00     0.020 A 
ATOM     63  C   UNL A   1      49.254  25.717  32.657  1.00  0.00     0.020 A 
ATOM     64  C   UNL A   1      50.315  25.916  31.771  1.00  0.00     0.054 A 
BRANCH  64  65
ATOM     65  S   UNL A   1      51.988  25.374  32.212  1.00  0.00     0.124 S 
ATOM     66  O   UNL A   1      52.768  25.828  31.063  1.00  0.00    -0.237 OA
ATOM     67  O   UNL A   1      52.238  26.088  33.462  1.00  0.00    -0.237 OA
ATOM     68  O   UNL A   1      51.860  23.925  32.345  1.00  0.00    -0.744 OA
ENDBRANCH  64  65
ENDBRANCH  38  59
ENDBRANCH  12  13
ENDBRANCH   5   7
ENDBRANCH   2   3
ENDBRANCH   1   2
BRANCH   1  69
ATOM     69  C   UNL A   1      31.710  28.135  25.380  1.00  0.00     0.002 C 
BRANCH  69  70
ATOM     70  C   UNL A   1      30.835  27.743  24.184  1.00  0.00     0.002 C 
BRANCH  70  71
ATOM     71  C   UNL A   1      29.981  26.487  24.358  1.00  0.00     0.021 C 
BRANCH  71  72
ATOM     72  C   UNL A   1      30.637  25.182  23.921  1.00  0.00     0.116 C 
BRANCH  72  73
ATOM     73  N   UNL A   1      30.385  24.104  24.847  1.00  0.00    -0.351 N 
ATOM     74  C   UNL A   1      31.047  22.969  25.174  1.00  0.00     0.278 C 
ATOM     75  H   UNL A   1      29.548  24.220  25.353  1.00  0.00     0.163 HD
ATOM     76  O   UNL A   1      30.483  22.275  26.036  1.00  0.00    -0.268 OA
BRANCH  74  77
ATOM     77  C   UNL A   1      32.421  22.492  24.618  1.00  0.00     0.280 C 
ATOM     78  N   UNL A   1      32.298  22.223  23.163  1.00  0.00    -0.335 N 
ATOM     79  C   UNL A   1      33.179  21.290  25.206  1.00  0.00     0.093 C 
ATOM     80  C   UNL A   1      32.272  20.778  22.983  1.00  0.00     0.262 C 
ATOM     81  H   UNL A   1      33.095  22.621  22.667  1.00  0.00     0.346 HD
ATOM     82  H   UNL A   1      31.447  22.646  22.791  1.00  0.00     0.346 HD
ATOM     83  C   UNL A   1      32.750  20.140  24.275  1.00  0.00     0.076 C 
BRANCH  79  84
ATOM     84  C   UNL A   1      34.689  21.519  25.364  1.00  0.00    -0.032 A 
ATOM     85  C   UNL A   1      35.582  20.508  24.950  1.00  0.00     0.047 A 
ATOM     86  C   UNL A   1      35.251  22.738  25.782  1.00  0.00     0.047 A 
ATOM     87  C   UNL A   1      36.966  20.699  25.001  1.00  0.00     0.162 A 
ATOM     88  C   UNL A   1      36.637  22.916  25.818  1.00  0.00     0.162 A 
ATOM     89  F   UNL A   1      37.775  19.706  24.611  1.00  0.00    -0.204 F 
ATOM     90  C   UNL A   1      37.497  21.900  25.437  1.00  0.00     0.194 A 
ATOM     91  F   UNL A   1      37.129  24.097  26.216  1.00  0.00    -0.204 F 
ATOM     92  F   UNL A   1      38.823  22.082  25.474  1.00  0.00    -0.200 F 
ENDBRANCH  79  84
ENDBRANCH  74  77
ENDBRANCH  72  73
ENDBRANCH  71  72
ENDBRANCH  70  71
ENDBRANCH  69  70
ENDBRANCH   1  69
TORSDOF 17
ENDMDL
MODEL 2
REMARK VINA RESULT:     -10.9      1.049      1.892
REMARK SMILES O=C(NCCCCCCNC(=O)[C@@H]1[NH2+]CC[C@H]1c1cc(F)c(F)c(F)c1)c1ccc(-c2c3nc(c(-c4ccc(S(=O)(=O)[O-])cc4)c4ccc([nH]4)c(-c4ccc(S(=O)(=O)[O-])cc4)c4nc(c(-c5ccc(S(=O)(=O)[O-])cc5)c5ccc2[nH]5)C=C4)C=C3)cc1
REMARK SMILES IDX 5 1 4 2 3 3 1 4 2 5 27 7 28 8 86 9 29 10 85 11 30 12 31 13
REMARK SMILES IDX 32 14 79 15 33 16 84 17 78 18 80 19 34 20 83 21 77 22 76 23
REMARK SMILES IDX 35 25 65 26 46 27 64 28 47 29 50 30 63 31 81 32 48 33 49 34
REMARK SMILES IDX 62 36 82 37 51 38 36 39 37 40 45 41 38 42 44 43 39 44 40 45
REMARK SMILES IDX 41 46 42 47 43 48 66 49 67 50 75 51 68 52 74 53 69 54 70 55
REMARK SMILES IDX 71 56 72 57 73 58 52 59 53 60 61 61 54 62 60 63 55 64 56 65
REMARK SMILES IDX 57 66 58 67 59 68 6 69 7 70 8 71 9 72 10 73 11 74 12 76
REMARK SMILES IDX 13 77 14 78 17 79 15 80 16 83 18 84 19 85 26 86 20 87 24 88
REMARK SMILES IDX 21 89 22 90 25 91 23 92
REMARK H PARENT 3 6 80 24 50 35 10 75 14 81 14 82
REMARK Flexibility Score: inf
ROOT
ATOM      1  C   UNL A   1      32.494  27.383  26.718  1.00  0.00     0.021 C 
ENDROOT
BRANCH   1   2
ATOM      2  C   UNL A   1      33.790  28.162  26.901  1.00  0.00     0.116 C 
BRANCH   2   3
ATOM      3  N   UNL A   1      33.566  29.551  27.255  1.00  0.00    -0.352 N 
ATOM      4  O   UNL A   1      33.977  31.530  28.245  1.00  0.00    -0.269 OA
ATOM      5  C   UNL A   1      34.397  30.434  27.903  1.00  0.00     0.251 C 
ATOM      6  H   UNL A   1      32.691  29.915  26.992  1.00  0.00     0.163 HD
BRANCH   5   7
ATOM      7  C   UNL A   1      35.793  30.042  28.207  1.00  0.00     0.039 A 
ATOM      8  C   UNL A   1      36.146  29.568  29.473  1.00  0.00     0.014 A 
ATOM      9  C   UNL A   1      36.759  30.138  27.202  1.00  0.00     0.014 A 
ATOM     10  C   UNL A   1      37.482  29.328  29.774  1.00  0.00     0.010 A 
ATOM     11  C   UNL A   1      38.089  29.810  27.481  1.00  0.00     0.010 A 
ATOM     12  C   UNL A   1      38.468  29.430  28.778  1.00  0.00    -0.014 A 
BRANCH  12  13
ATOM     13  C   UNL A   1      39.872  29.073  29.105  1.00  0.00     0.031 A 
ATOM     14  C   UNL A   1      40.766  30.020  29.857  1.00  0.00     0.074 A 
ATOM     15  C   UNL A   1      40.328  27.859  28.738  1.00  0.00     0.049 A 
ATOM     16  N   UNL A   1      41.998  29.839  30.261  1.00  0.00    -0.248 NA
ATOM     17  C   UNL A   1      40.213  31.342  30.194  1.00  0.00     0.031 C 
ATOM     18  C   UNL A   1      39.555  26.856  27.998  1.00  0.00     0.029 A 
ATOM     19  N   UNL A   1      41.535  27.248  28.957  1.00  0.00    -0.354 N 
ATOM     20  C   UNL A   1      42.377  31.025  30.879  1.00  0.00     0.074 A 
ATOM     21  C   UNL A   1      41.250  31.928  30.777  1.00  0.00     0.031 C 
ATOM     22  C   UNL A   1      40.283  25.737  27.880  1.00  0.00     0.029 A 
ATOM     23  C   UNL A   1      41.595  25.962  28.475  1.00  0.00     0.049 A 
ATOM     24  H   UNL A   1      42.287  27.687  29.416  1.00  0.00     0.167 HD
ATOM     25  C   UNL A   1      43.554  31.332  31.478  1.00  0.00     0.031 A 
ATOM     26  C   UNL A   1      42.595  25.062  28.497  1.00  0.00     0.031 A 
ATOM     27  C   UNL A   1      44.673  30.429  31.571  1.00  0.00     0.049 A 
ATOM     28  C   UNL A   1      43.897  25.437  29.143  1.00  0.00     0.074 A 
ATOM     29  C   UNL A   1      45.897  30.635  32.186  1.00  0.00     0.029 A 
ATOM     30  N   UNL A   1      44.710  29.152  31.030  1.00  0.00    -0.354 N 
ATOM     31  N   UNL A   1      44.220  26.552  29.753  1.00  0.00    -0.248 NA
ATOM     32  C   UNL A   1      44.968  24.433  29.102  1.00  0.00     0.031 C 
ATOM     33  C   UNL A   1      46.690  29.503  31.971  1.00  0.00     0.029 A 
ATOM     34  C   UNL A   1      45.943  28.569  31.273  1.00  0.00     0.049 A 
ATOM     35  H   UNL A   1      43.969  28.724  30.543  1.00  0.00     0.167 HD
ATOM     36  C   UNL A   1      45.529  26.377  30.187  1.00  0.00     0.074 A 
ATOM     37  C   UNL A   1      45.927  25.042  29.785  1.00  0.00     0.031 C 
ATOM     38  C   UNL A   1      46.327  27.243  30.858  1.00  0.00     0.031 A 
BRANCH  25  39
ATOM     39  C   UNL A   1      43.704  32.719  32.050  1.00  0.00    -0.014 A 
ATOM     40  C   UNL A   1      43.386  32.996  33.392  1.00  0.00     0.010 A 
ATOM     41  C   UNL A   1      44.205  33.755  31.241  1.00  0.00     0.010 A 
ATOM     42  C   UNL A   1      43.519  34.292  33.899  1.00  0.00     0.020 A 
ATOM     43  C   UNL A   1      44.365  35.047  31.751  1.00  0.00     0.020 A 
ATOM     44  C   UNL A   1      44.001  35.312  33.072  1.00  0.00     0.054 A 
BRANCH  44  45
ATOM     45  S   UNL A   1      44.164  36.984  33.756  1.00  0.00     0.124 S 
ATOM     46  O   UNL A   1      42.773  37.329  34.039  1.00  0.00    -0.237 OA
ATOM     47  O   UNL A   1      45.007  36.772  34.929  1.00  0.00    -0.237 OA
ATOM     48  O   UNL A   1      44.787  37.742  32.674  1.00  0.00    -0.744 OA
ENDBRANCH  44  45
ENDBRANCH  25  39
BRANCH  26  49
ATOM     49  C   UNL A   1      42.393  23.718  27.890  1.00  0.00    -0.014 A 
ATOM     50  C   UNL A   1      42.944  23.413  26.634  1.00  0.00     0.010 A 
ATOM     51  C   UNL A   1      41.677  22.727  28.585  1.00  0.00     0.010 A 
ATOM     52  C   UNL A   1      42.771  22.142  26.078  1.00  0.00     0.020 A 
ATOM     53  C   UNL A   1      41.528  21.447  28.046  1.00  0.00     0.020 A 
ATOM     54  C   UNL A   1      42.068  21.166  26.789  1.00  0.00     0.054 A 
BRANCH  54  55
ATOM     55  S   UNL A   1      41.909  19.506  26.076  1.00  0.00     0.124 S 
ATOM     56  O   UNL A   1      42.754  19.604  24.890  1.00  0.00    -0.237 OA
ATOM     57  O   UNL A   1      42.417  18.653  27.147  1.00  0.00    -0.237 OA
ATOM     58  O   UNL A   1      40.476  19.380  25.818  1.00  0.00    -0.744 OA
ENDBRANCH  54  55
ENDBRANCH  26  49
BRANCH  38  59
ATOM     59  C   UNL A   1      47.704  26.758  31.225  1.00  0.00    -0.014 A 
ATOM     60  C   UNL A   1      47.936  26.061  32.425  1.00  0.00     0.010 A 
ATOM     61  C   UNL A   1      48.776  26.982  30.342  1.00  0.00     0.010 A 
ATOM     62  C   UNL A   1      49.224  25.631  32.753  1.00  0.00     0.020 A 
ATOM     63  C   UNL A   1      50.060  26.530  30.655  1.00  0.00     0.020 A 
ATOM     64  C   UNL A   1      50.279  25.872  31.867  1.00  0.00     0.054 A 
BRANCH  64  65
ATOM     65  S   UNL A   1      51.938  25.282  32.300  1.00  0.00     0.124 S 
ATOM     66  O   UNL A   1      51.699  23.864  32.554  1.00  0.00    -0.237 OA
ATOM     67  O   UNL A   1      52.711  25.584  31.097  1.00  0.00    -0.237 OA
ATOM     68  O   UNL A   1      52.291  26.075  33.475  1.00  0.00    -0.744 OA
ENDBRANCH  64  65
ENDBRANCH  38  59
ENDBRANCH  12  13
ENDBRANCH   5   7
ENDBRANCH   2   3
ENDBRANCH   1   2
BRANCH   1  69
ATOM     69  C   UNL A   1      31.419  28.070  25.875  1.00  0.00     0.002 C 
BRANCH  69  70
ATOM     70  C   UNL A   1      31.070  27.397  24.542  1.00  0.00     0.002 C 
BRANCH  70  71
ATOM     71  C   UNL A   1      30.501  25.982  24.632  1.00  0.00     0.021 C 
BRANCH  71  72
ATOM     72  C   UNL A   1      30.566  25.166  23.346  1.00  0.00     0.116 C 
BRANCH  72  73
ATOM     73  N   UNL A   1      31.572  25.657  22.435  1.00  0.00    -0.351 N 
ATOM     74  C   UNL A   1      32.809  25.233  22.080  1.00  0.00     0.278 C 
ATOM     75  H   UNL A   1      31.299  26.480  21.968  1.00  0.00     0.163 HD
ATOM     76  O   UNL A   1      33.380  25.956  21.247  1.00  0.00    -0.268 OA
BRANCH  74  77
ATOM     77  C   UNL A   1      33.537  23.949  22.574  1.00  0.00     0.280 C 
ATOM     78  N   UNL A   1      32.989  22.766  21.864  1.00  0.00    -0.335 N 
ATOM     79  C   UNL A   1      33.601  23.555  24.060  1.00  0.00     0.093 C 
ATOM     80  C   UNL A   1      32.129  22.051  22.796  1.00  0.00     0.262 C 
ATOM     81  H   UNL A   1      33.751  22.161  21.558  1.00  0.00     0.346 HD
ATOM     82  H   UNL A   1      32.461  23.056  21.040  1.00  0.00     0.346 HD
ATOM     83  C   UNL A   1      32.426  22.568  24.193  1.00  0.00     0.076 C 
BRANCH  79  84
ATOM     84  C   UNL A   1      34.977  23.048  24.513  1.00  0.00    -0.032 A 
ATOM     85  C   UNL A   1      35.883  23.955  25.102  1.00  0.00     0.047 A 
ATOM     86  C   UNL A   1      35.351  21.692  24.496  1.00  0.00     0.047 A 
ATOM     87  C   UNL A   1      37.117  23.527  25.600  1.00  0.00     0.162 A 
ATOM     88  C   UNL A   1      36.585  21.279  25.008  1.00  0.00     0.162 A 
ATOM     89  F   UNL A   1      37.950  24.428  26.137  1.00  0.00    -0.204 F 
ATOM     90  C   UNL A   1      37.472  22.191  25.552  1.00  0.00     0.194 A 
ATOM     91  F   UNL A   1      36.895  19.976  24.976  1.00  0.00    -0.204 F 
ATOM     92  F   UNL A   1      38.651  21.784  26.041  1.00  0.00    -0.200 F 
ENDBRANCH  79  84
ENDBRANCH  74  77
ENDBRANCH  72  73
ENDBRANCH  71  72
ENDBRANCH  70  71
ENDBRANCH  69  70
ENDBRANCH   1  69
TORSDOF 17
ENDMDL
MODEL 3
REMARK VINA RESULT:     -10.9      4.604     10.473
REMARK SMILES O=C(NCCCCCCNC(=O)[C@@H]1[NH2+]CC[C@H]1c1cc(F)c(F)c(F)c1)c1ccc(-c2c3nc(c(-c4ccc(S(=O)(=O)[O-])cc4)c4ccc([nH]4)c(-c4ccc(S(=O)(=O)[O-])cc4)c4nc(c(-c5ccc(S(=O)(=O)[O-])cc5)c5ccc2[nH]5)C=C4)C=C3)cc1
REMARK SMILES IDX 5 1 4 2 3 3 1 4 2 5 27 7 28 8 86 9 29 10 85 11 30 12 31 13
REMARK SMILES IDX 32 14 79 15 33 16 84 17 78 18 80 19 34 20 83 21 77 22 76 23
REMARK SMILES IDX 35 25 65 26 46 27 64 28 47 29 50 30 63 31 81 32 48 33 49 34
REMARK SMILES IDX 62 36 82 37 51 38 36 39 37 40 45 41 38 42 44 43 39 44 40 45
REMARK SMILES IDX 41 46 42 47 43 48 66 49 67 50 75 51 68 52 74 53 69 54 70 55
REMARK SMILES IDX 71 56 72 57 73 58 52 59 53 60 61 61 54 62 60 63 55 64 56 65
REMARK SMILES IDX 57 66 58 67 59 68 6 69 7 70 8 71 9 72 10 73 11 74 12 76
REMARK SMILES IDX 13 77 14 78 17 79 15 80 16 83 18 84 19 85 26 86 20 87 24 88
REMARK SMILES IDX 21 89 22 90 25 91 23 92
REMARK H PARENT 3 6 80 24 50 35 10 75 14 81 14 82
REMARK Flexibility Score: inf
ROOT
ATOM      1  C   UNL A   1      37.264  23.268  25.779  1.00  0.00     0.021 C 
ENDROOT
BRANCH   1   2
ATOM      2  C   UNL A   1      38.184  24.230  26.519  1.00  0.00     0.116 C 
BRANCH   2   3
ATOM      3  N   UNL A   1      39.568  24.122  26.097  1.00  0.00    -0.352 N 
ATOM      4  O   UNL A   1      41.730  24.718  25.909  1.00  0.00    -0.269 OA
ATOM      5  C   UNL A   1      40.662  24.858  26.487  1.00  0.00     0.251 C 
ATOM      6  H   UNL A   1      39.751  23.419  25.433  1.00  0.00     0.163 HD
BRANCH   5   7
ATOM      7  C   UNL A   1      40.533  25.837  27.591  1.00  0.00     0.039 A 
ATOM      8  C   UNL A   1      41.356  26.965  27.650  1.00  0.00     0.014 A 
ATOM      9  C   UNL A   1      39.563  25.627  28.574  1.00  0.00     0.014 A 
ATOM     10  C   UNL A   1      41.304  27.800  28.760  1.00  0.00     0.010 A 
ATOM     11  C   UNL A   1      39.453  26.519  29.646  1.00  0.00     0.010 A 
ATOM     12  C   UNL A   1      40.342  27.597  29.763  1.00  0.00    -0.014 A 
BRANCH  12  13
ATOM     13  C   UNL A   1      40.248  28.563  30.887  1.00  0.00     0.031 A 
ATOM     14  C   UNL A   1      41.185  28.491  32.062  1.00  0.00     0.074 A 
ATOM     15  C   UNL A   1      39.317  29.536  30.823  1.00  0.00     0.049 A 
ATOM     16  N   UNL A   1      41.265  29.288  33.098  1.00  0.00    -0.248 NA
ATOM     17  C   UNL A   1      42.152  27.383  32.083  1.00  0.00     0.031 C 
ATOM     18  C   UNL A   1      38.347  29.704  29.736  1.00  0.00     0.029 A 
ATOM     19  N   UNL A   1      39.049  30.581  31.668  1.00  0.00    -0.354 N 
ATOM     20  C   UNL A   1      42.271  28.768  33.904  1.00  0.00     0.074 A 
ATOM     21  C   UNL A   1      42.759  27.574  33.247  1.00  0.00     0.031 C 
ATOM     22  C   UNL A   1      37.635  30.819  29.949  1.00  0.00     0.029 A 
ATOM     23  C   UNL A   1      38.048  31.409  31.216  1.00  0.00     0.049 A 
ATOM     24  H   UNL A   1      39.526  30.726  32.517  1.00  0.00     0.167 HD
ATOM     25  C   UNL A   1      42.746  29.244  35.082  1.00  0.00     0.031 A 
ATOM     26  C   UNL A   1      37.511  32.516  31.762  1.00  0.00     0.031 A 
ATOM     27  C   UNL A   1      42.252  30.432  35.732  1.00  0.00     0.049 A 
ATOM     28  C   UNL A   1      38.038  33.005  33.080  1.00  0.00     0.074 A 
ATOM     29  C   UNL A   1      42.689  31.014  36.910  1.00  0.00     0.029 A 
ATOM     30  N   UNL A   1      41.207  31.215  35.266  1.00  0.00    -0.354 N 
ATOM     31  N   UNL A   1      39.014  32.519  33.807  1.00  0.00    -0.248 NA
ATOM     32  C   UNL A   1      37.388  34.193  33.650  1.00  0.00     0.031 C 
ATOM     33  C   UNL A   1      41.874  32.118  37.182  1.00  0.00     0.029 A 
ATOM     34  C   UNL A   1      40.967  32.259  36.145  1.00  0.00     0.049 A 
ATOM     35  H   UNL A   1      40.707  31.053  34.433  1.00  0.00     0.167 HD
ATOM     36  C   UNL A   1      39.110  33.353  34.914  1.00  0.00     0.074 A 
ATOM     37  C   UNL A   1      38.105  34.384  34.749  1.00  0.00     0.031 C 
ATOM     38  C   UNL A   1      39.956  33.272  35.971  1.00  0.00     0.031 A 
BRANCH  25  39
ATOM     39  C   UNL A   1      43.837  28.457  35.763  1.00  0.00    -0.014 A 
ATOM     40  C   UNL A   1      45.196  28.736  35.530  1.00  0.00     0.010 A 
ATOM     41  C   UNL A   1      43.496  27.444  36.678  1.00  0.00     0.010 A 
ATOM     42  C   UNL A   1      46.192  27.984  36.161  1.00  0.00     0.020 A 
ATOM     43  C   UNL A   1      44.489  26.707  37.331  1.00  0.00     0.020 A 
ATOM     44  C   UNL A   1      45.832  26.969  37.052  1.00  0.00     0.054 A 
BRANCH  44  45
ATOM     45  S   UNL A   1      47.144  26.009  37.857  1.00  0.00     0.124 S 
ATOM     46  O   UNL A   1      47.063  26.490  39.235  1.00  0.00    -0.237 OA
ATOM     47  O   UNL A   1      46.708  24.631  37.649  1.00  0.00    -0.237 OA
ATOM     48  O   UNL A   1      48.351  26.394  37.132  1.00  0.00    -0.744 OA
ENDBRANCH  44  45
ENDBRANCH  25  39
BRANCH  26  49
ATOM     49  C   UNL A   1      36.417  33.233  31.053  1.00  0.00    -0.014 A 
ATOM     50  C   UNL A   1      35.153  33.374  31.650  1.00  0.00     0.010 A 
ATOM     51  C   UNL A   1      36.648  33.807  29.790  1.00  0.00     0.010 A 
ATOM     52  C   UNL A   1      34.135  34.068  30.991  1.00  0.00     0.020 A 
ATOM     53  C   UNL A   1      35.642  34.527  29.142  1.00  0.00     0.020 A 
ATOM     54  C   UNL A   1      34.387  34.644  29.742  1.00  0.00     0.054 A 
BRANCH  54  55
ATOM     55  S   UNL A   1      33.070  35.593  28.932  1.00  0.00     0.124 S 
ATOM     56  O   UNL A   1      32.246  35.995  30.067  1.00  0.00    -0.237 OA
ATOM     57  O   UNL A   1      33.813  36.666  28.276  1.00  0.00    -0.237 OA
ATOM     58  O   UNL A   1      32.460  34.624  28.024  1.00  0.00    -0.744 OA
ENDBRANCH  54  55
ENDBRANCH  26  49
BRANCH  38  59
ATOM     59  C   UNL A   1      39.846  34.349  37.017  1.00  0.00    -0.014 A 
ATOM     60  C   UNL A   1      40.515  35.578  36.872  1.00  0.00     0.010 A 
ATOM     61  C   UNL A   1      39.040  34.135  38.149  1.00  0.00     0.010 A 
ATOM     62  C   UNL A   1      40.411  36.558  37.860  1.00  0.00     0.020 A 
ATOM     63  C   UNL A   1      38.911  35.124  39.127  1.00  0.00     0.020 A 
ATOM     64  C   UNL A   1      39.612  36.324  38.984  1.00  0.00     0.054 A 
BRANCH  64  65
ATOM     65  S   UNL A   1      39.469  37.621  40.243  1.00  0.00     0.124 S 
ATOM     66  O   UNL A   1      38.494  38.525  39.637  1.00  0.00    -0.237 OA
ATOM     67  O   UNL A   1      38.999  36.883  41.413  1.00  0.00    -0.237 OA
ATOM     68  O   UNL A   1      40.827  38.149  40.352  1.00  0.00    -0.744 OA
ENDBRANCH  64  65
ENDBRANCH  38  59
ENDBRANCH  12  13
ENDBRANCH   5   7
ENDBRANCH   2   3
ENDBRANCH   1   2
BRANCH   1  69
ATOM     69  C   UNL A   1      37.054  23.563  24.292  1.00  0.00     0.002 C 
BRANCH  69  70
ATOM     70  C   UNL A   1      36.077  22.644  23.551  1.00  0.00     0.002 C 
BRANCH  70  71
ATOM     71  C   UNL A   1      34.819  22.240  24.318  1.00  0.00     0.021 C 
BRANCH  71  72
ATOM     72  C   UNL A   1      33.693  23.269  24.323  1.00  0.00     0.116 C 
BRANCH  72  73
ATOM     73  N   UNL A   1      33.834  24.240  23.264  1.00  0.00    -0.351 N 
ATOM     74  C   UNL A   1      33.461  25.534  23.116  1.00  0.00     0.278 C 
ATOM     75  H   UNL A   1      34.306  23.884  22.476  1.00  0.00     0.163 HD
ATOM     76  O   UNL A   1      33.765  26.034  22.021  1.00  0.00    -0.268 OA
BRANCH  74  77
ATOM     77  C   UNL A   1      32.747  26.429  24.171  1.00  0.00     0.280 C 
ATOM     78  N   UNL A   1      31.444  25.818  24.537  1.00  0.00    -0.335 N 
ATOM     79  C   UNL A   1      32.460  27.921  23.930  1.00  0.00     0.093 C 
ATOM     80  C   UNL A   1      30.396  26.592  23.885  1.00  0.00     0.262 C 
ATOM     81  H   UNL A   1      31.319  25.846  25.549  1.00  0.00     0.346 HD
ATOM     82  H   UNL A   1      31.409  24.844  24.237  1.00  0.00     0.346 HD
ATOM     83  C   UNL A   1      31.008  27.901  23.417  1.00  0.00     0.076 C 
BRANCH  79  84
ATOM     84  C   UNL A   1      32.747  28.816  25.144  1.00  0.00    -0.032 A 
ATOM     85  C   UNL A   1      33.917  28.593  25.900  1.00  0.00     0.047 A 
ATOM     86  C   UNL A   1      31.973  29.940  25.482  1.00  0.00     0.047 A 
ATOM     87  C   UNL A   1      34.262  29.429  26.966  1.00  0.00     0.162 A 
ATOM     88  C   UNL A   1      32.336  30.772  26.545  1.00  0.00     0.162 A 
ATOM     89  F   UNL A   1      35.376  29.169  27.663  1.00  0.00    -0.204 F 
ATOM     90  C   UNL A   1      33.472  30.517  27.293  1.00  0.00     0.194 A 
ATOM     91  F   UNL A   1      31.572  31.836  26.826  1.00  0.00    -0.204 F 
ATOM     92  F   UNL A   1      33.812  31.321  28.309  1.00  0.00    -0.200 F 
ENDBRANCH  79  84
ENDBRANCH  74  77
ENDBRANCH  72  73
ENDBRANCH  71  72
ENDBRANCH  70  71
ENDBRANCH  69  70
ENDBRANCH   1  69
TORSDOF 17
ENDMDL
