MODEL 1
REMARK VINA RESULT:     -13.2      0.000      0.000
REMARK SMILES Cc1ccc(C(=O)N2CCCC[C@@H]2C(=O)NCCCCCCNC(=O)c2ccc(-c3c4nc(c(-c5ccc(S(=O)(=O)[O-])cc5)c5ccc([nH]5)c(-c5ccc(S(=O)(=O)[O-])cc5)c5nc(c(-c6ccc(S(=O)(=O)[O-])cc6)c6ccc3[nH]6)C=C5)C=C4)cc2)cc1S(=O)(=O)N1CCCCC1
REMARK SMILES IDX 19 1 18 2 17 3 16 4 14 5 15 6 13 8 8 9 9 10 10 11 12 12
REMARK SMILES IDX 11 13 6 14 7 15 5 16 1 17 2 18 3 19 87 20 4 21 86 22 88 23
REMARK SMILES IDX 89 24 90 25 91 26 92 27 96 28 93 29 95 30 94 31 20 32 21 33
REMARK SMILES IDX 22 34 23 35 24 36 25 38 26 39 27 40 85 41 28 42 84 43 29 44
REMARK SMILES IDX 30 45 31 46 78 47 32 48 83 49 77 50 79 51 33 52 82 53 76 54
REMARK SMILES IDX 75 55 34 57 64 58 45 59 63 60 46 61 49 62 62 63 80 64 47 65
REMARK SMILES IDX 48 66 61 68 81 69 50 70 35 71 36 72 44 73 37 74 43 75 38 76
REMARK SMILES IDX 39 77 40 78 41 79 42 80 65 81 66 82 74 83 67 84 73 85 68 86
REMARK SMILES IDX 69 87 70 88 71 89 72 90 51 91 52 92 60 93 53 94 59 95 54 96
REMARK SMILES IDX 55 97 56 98 57 99 58 100
REMARK H PARENT 16 7 23 37 79 56 49 67
REMARK Flexibility Score: inf
ROOT
ATOM      1  C   UNL A   1      31.262  29.304  24.892  1.00  0.00     0.002 C 
ENDROOT
BRANCH   1   2
ATOM      2  C   UNL A   1      31.178  29.050  23.380  1.00  0.00     0.021 C 
BRANCH   2   3
ATOM      3  C   UNL A   1      30.848  27.615  22.971  1.00  0.00     0.116 C 
BRANCH   3   4
ATOM      4  N   UNL A   1      31.748  27.136  21.941  1.00  0.00    -0.354 N 
ATOM      5  C   UNL A   1      32.828  26.313  22.028  1.00  0.00     0.242 C 
ATOM      6  O   UNL A   1      33.509  26.161  21.009  1.00  0.00    -0.273 OA
ATOM      7  H   UNL A   1      31.544  27.456  21.033  1.00  0.00     0.163 HD
BRANCH   5   8
ATOM      8  C   UNL A   1      33.285  25.685  23.371  1.00  0.00     0.174 C 
ATOM      9  N   UNL A   1      32.257  24.889  24.095  1.00  0.00    -0.327 N 
ATOM     10  C   UNL A   1      32.483  24.643  25.518  1.00  0.00     0.120 C 
ATOM     11  C   UNL A   1      32.929  25.864  26.297  1.00  0.00     0.022 C 
ATOM     12  C   UNL A   1      33.853  26.853  24.212  1.00  0.00     0.035 C 
ATOM     13  C   UNL A   1      34.161  26.473  25.652  1.00  0.00     0.004 C 
BRANCH   9  14
ATOM     14  C   UNL A   1      31.378  23.972  23.503  1.00  0.00     0.254 C 
ATOM     15  O   UNL A   1      30.190  24.228  23.297  1.00  0.00    -0.269 OA
BRANCH  14  16
ATOM     16  C   UNL A   1      31.811  22.611  23.126  1.00  0.00     0.041 A 
ATOM     17  C   UNL A   1      32.405  18.507  21.944  1.00  0.00     0.046 C 
ATOM     18  C   UNL A   1      32.299  19.897  22.487  1.00  0.00    -0.031 A 
ATOM     19  C   UNL A   1      31.735  20.803  21.551  1.00  0.00     0.005 A 
ATOM     20  C   UNL A   1      32.651  20.389  23.758  1.00  0.00     0.086 A 
ATOM     21  C   UNL A   1      31.489  22.137  21.861  1.00  0.00     0.014 A 
ATOM     22  C   UNL A   1      32.368  21.743  24.065  1.00  0.00     0.035 A 
BRANCH  20  23
ATOM     23  S   UNL A   1      33.425  19.569  25.162  1.00  0.00     0.243 S 
ATOM     24  O   UNL A   1      34.795  20.039  25.188  1.00  0.00    -0.207 OA
ATOM     25  O   UNL A   1      32.543  19.835  26.284  1.00  0.00    -0.207 OA
BRANCH  23  26
ATOM     26  N   UNL A   1      33.484  17.888  24.991  1.00  0.00    -0.198 NA
ATOM     27  C   UNL A   1      34.764  17.311  24.540  1.00  0.00     0.102 C 
ATOM     28  C   UNL A   1      32.481  17.103  25.745  1.00  0.00     0.102 C 
ATOM     29  C   UNL A   1      34.711  15.809  24.316  1.00  0.00     0.017 C 
ATOM     30  C   UNL A   1      32.562  15.602  25.510  1.00  0.00     0.017 C 
ATOM     31  C   UNL A   1      33.990  15.088  25.439  1.00  0.00     0.003 C 
ENDBRANCH  23  26
ENDBRANCH  20  23
ENDBRANCH  14  16
ENDBRANCH   9  14
ENDBRANCH   5   8
ENDBRANCH   3   4
ENDBRANCH   2   3
ENDBRANCH   1   2
BRANCH   1  32
ATOM     32  C   UNL A   1      32.542  29.977  25.407  1.00  0.00     0.002 C 
BRANCH  32  33
ATOM     33  C   UNL A   1      32.856  29.783  26.891  1.00  0.00     0.021 C 
BRANCH  33  34
ATOM     34  C   UNL A   1      34.339  29.599  27.190  1.00  0.00     0.116 C 
BRANCH  34  35
ATOM     35  N   UNL A   1      35.058  30.856  27.324  1.00  0.00    -0.352 N 
ATOM     36  C   UNL A   1      36.260  31.050  27.990  1.00  0.00     0.251 C 
ATOM     37  H   UNL A   1      34.653  31.646  26.901  1.00  0.00     0.163 HD
ATOM     38  O   UNL A   1      36.617  32.122  28.429  1.00  0.00    -0.269 OA
BRANCH  36  39
ATOM     39  C   UNL A   1      37.182  29.893  27.986  1.00  0.00     0.039 A 
ATOM     40  C   UNL A   1      37.244  29.127  29.157  1.00  0.00     0.014 A 
ATOM     41  C   UNL A   1      38.143  29.768  26.988  1.00  0.00     0.014 A 
ATOM     42  C   UNL A   1      38.368  28.347  29.404  1.00  0.00     0.010 A 
ATOM     43  C   UNL A   1      39.297  29.068  27.277  1.00  0.00     0.010 A 
ATOM     44  C   UNL A   1      39.429  28.395  28.501  1.00  0.00    -0.014 A 
BRANCH  44  45
ATOM     45  C   UNL A   1      40.743  27.823  28.763  1.00  0.00     0.031 A 
ATOM     46  C   UNL A   1      41.023  26.418  28.397  1.00  0.00     0.074 A 
ATOM     47  C   UNL A   1      41.744  28.598  29.238  1.00  0.00     0.049 A 
ATOM     48  N   UNL A   1      41.978  25.714  28.902  1.00  0.00    -0.248 NA
ATOM     49  C   UNL A   1      40.203  25.678  27.443  1.00  0.00     0.031 C 
ATOM     50  C   UNL A   1      43.171  28.284  29.230  1.00  0.00     0.029 A 
ATOM     51  N   UNL A   1      41.660  29.743  30.031  1.00  0.00    -0.354 N 
ATOM     52  C   UNL A   1      42.106  24.586  28.124  1.00  0.00     0.074 A 
ATOM     53  C   UNL A   1      40.922  24.563  27.295  1.00  0.00     0.031 C 
ATOM     54  C   UNL A   1      43.770  28.994  30.197  1.00  0.00     0.029 A 
ATOM     55  C   UNL A   1      42.721  29.659  30.950  1.00  0.00     0.049 A 
ATOM     56  H   UNL A   1      40.992  30.463  29.962  1.00  0.00     0.167 HD
ATOM     57  C   UNL A   1      43.269  23.876  28.147  1.00  0.00     0.031 A 
ATOM     58  C   UNL A   1      42.554  29.591  32.303  1.00  0.00     0.031 A 
ATOM     59  C   UNL A   1      44.224  24.403  29.122  1.00  0.00     0.049 A 
ATOM     60  C   UNL A   1      43.179  28.358  32.938  1.00  0.00     0.074 A 
ATOM     61  C   UNL A   1      45.399  25.133  29.031  1.00  0.00     0.029 A 
ATOM     62  N   UNL A   1      43.869  24.422  30.462  1.00  0.00    -0.354 N 
ATOM     63  N   UNL A   1      43.760  27.398  32.272  1.00  0.00    -0.248 NA
ATOM     64  C   UNL A   1      43.102  28.062  34.367  1.00  0.00     0.031 C 
ATOM     65  C   UNL A   1      45.754  25.575  30.336  1.00  0.00     0.029 A 
ATOM     66  C   UNL A   1      44.800  25.108  31.219  1.00  0.00     0.049 A 
ATOM     67  H   UNL A   1      43.058  24.002  30.827  1.00  0.00     0.167 HD
ATOM     68  C   UNL A   1      44.071  26.363  33.118  1.00  0.00     0.074 A 
ATOM     69  C   UNL A   1      43.644  26.830  34.424  1.00  0.00     0.031 C 
ATOM     70  C   UNL A   1      44.608  25.191  32.661  1.00  0.00     0.031 A 
BRANCH  57  71
ATOM     71  C   UNL A   1      43.631  22.865  27.081  1.00  0.00    -0.014 A 
ATOM     72  C   UNL A   1      42.800  21.746  26.869  1.00  0.00     0.010 A 
ATOM     73  C   UNL A   1      44.795  22.930  26.291  1.00  0.00     0.010 A 
ATOM     74  C   UNL A   1      43.168  20.696  26.014  1.00  0.00     0.020 A 
ATOM     75  C   UNL A   1      45.197  21.870  25.463  1.00  0.00     0.020 A 
ATOM     76  C   UNL A   1      44.385  20.748  25.342  1.00  0.00     0.054 A 
BRANCH  76  77
ATOM     77  S   UNL A   1      44.892  19.336  24.327  1.00  0.00     0.124 S 
ATOM     78  O   UNL A   1      44.209  18.220  24.977  1.00  0.00    -0.237 OA
ATOM     79  O   UNL A   1      44.388  19.702  23.007  1.00  0.00    -0.237 OA
ATOM     80  O   UNL A   1      46.348  19.323  24.456  1.00  0.00    -0.744 OA
ENDBRANCH  76  77
ENDBRANCH  57  71
BRANCH  58  81
ATOM     81  C   UNL A   1      41.319  30.270  32.790  1.00  0.00    -0.014 A 
ATOM     82  C   UNL A   1      40.199  29.459  33.078  1.00  0.00     0.010 A 
ATOM     83  C   UNL A   1      41.396  31.551  33.364  1.00  0.00     0.010 A 
ATOM     84  C   UNL A   1      39.277  29.842  34.055  1.00  0.00     0.020 A 
ATOM     85  C   UNL A   1      40.465  31.940  34.338  1.00  0.00     0.020 A 
ATOM     86  C   UNL A   1      39.458  31.051  34.726  1.00  0.00     0.054 A 
BRANCH  86  87
ATOM     87  S   UNL A   1      38.477  31.351  36.230  1.00  0.00     0.124 S 
ATOM     88  O   UNL A   1      39.410  32.095  37.069  1.00  0.00    -0.237 OA
ATOM     89  O   UNL A   1      37.346  32.120  35.711  1.00  0.00    -0.237 OA
ATOM     90  O   UNL A   1      38.151  30.005  36.690  1.00  0.00    -0.744 OA
ENDBRANCH  86  87
ENDBRANCH  58  81
BRANCH  70  91
ATOM     91  C   UNL A   1      44.965  23.977  33.494  1.00  0.00    -0.014 A 
ATOM     92  C   UNL A   1      44.103  22.897  33.732  1.00  0.00     0.010 A 
ATOM     93  C   UNL A   1      46.212  23.949  34.169  1.00  0.00     0.010 A 
ATOM     94  C   UNL A   1      44.501  21.809  34.529  1.00  0.00     0.020 A 
ATOM     95  C   UNL A   1      46.612  22.883  34.979  1.00  0.00     0.020 A 
ATOM     96  C   UNL A   1      45.756  21.805  35.140  1.00  0.00     0.054 A 
BRANCH  96  97
ATOM     97  S   UNL A   1      46.241  20.397  36.167  1.00  0.00     0.124 S 
ATOM     98  O   UNL A   1      45.427  19.315  35.619  1.00  0.00    -0.237 OA
ATOM     99  O   UNL A   1      47.674  20.302  35.898  1.00  0.00    -0.237 OA
ATOM    100  O   UNL A   1      45.890  20.811  37.523  1.00  0.00    -0.744 OA
ENDBRANCH  96  97
ENDBRANCH  70  91
ENDBRANCH  44  45
ENDBRANCH  36  39
ENDBRANCH  34  35
ENDBRANCH  33  34
ENDBRANCH  32  33
ENDBRANCH   1  32
TORSDOF 20
ENDMDL
MODEL 2
REMARK VINA RESULT:     -13.1      1.343      2.068
REMARK SMILES Cc1ccc(C(=O)N2CCCC[C@@H]2C(=O)NCCCCCCNC(=O)c2ccc(-c3c4nc(c(-c5ccc(S(=O)(=O)[O-])cc5)c5ccc([nH]5)c(-c5ccc(S(=O)(=O)[O-])cc5)c5nc(c(-c6ccc(S(=O)(=O)[O-])cc6)c6ccc3[nH]6)C=C5)C=C4)cc2)cc1S(=O)(=O)N1CCCCC1
REMARK SMILES IDX 19 1 18 2 17 3 16 4 14 5 15 6 13 8 8 9 9 10 10 11 12 12
REMARK SMILES IDX 11 13 6 14 7 15 5 16 1 17 2 18 3 19 87 20 4 21 86 22 88 23
REMARK SMILES IDX 89 24 90 25 91 26 92 27 96 28 93 29 95 30 94 31 20 32 21 33
REMARK SMILES IDX 22 34 23 35 24 36 25 38 26 39 27 40 85 41 28 42 84 43 29 44
REMARK SMILES IDX 30 45 31 46 78 47 32 48 83 49 77 50 79 51 33 52 82 53 76 54
REMARK SMILES IDX 75 55 34 57 64 58 45 59 63 60 46 61 49 62 62 63 80 64 47 65
REMARK SMILES IDX 48 66 61 68 81 69 50 70 35 71 36 72 44 73 37 74 43 75 38 76
REMARK SMILES IDX 39 77 40 78 41 79 42 80 65 81 66 82 74 83 67 84 73 85 68 86
REMARK SMILES IDX 69 87 70 88 71 89 72 90 51 91 52 92 60 93 53 94 59 95 54 96
REMARK SMILES IDX 55 97 56 98 57 99 58 100
REMARK H PARENT 16 7 23 37 79 56 49 67
REMARK Flexibility Score: inf
ROOT
ATOM      1  C   UNL A   1      31.227  29.168  24.712  1.00  0.00     0.002 C 
ENDROOT
BRANCH   1   2
ATOM      2  C   UNL A   1      31.169  28.863  23.209  1.00  0.00     0.021 C 
BRANCH   2   3
ATOM      3  C   UNL A   1      30.830  27.418  22.843  1.00  0.00     0.116 C 
BRANCH   3   4
ATOM      4  N   UNL A   1      31.700  26.918  21.796  1.00  0.00    -0.354 N 
ATOM      5  C   UNL A   1      32.784  26.099  21.869  1.00  0.00     0.242 C 
ATOM      6  O   UNL A   1      33.434  25.925  20.833  1.00  0.00    -0.273 OA
ATOM      7  H   UNL A   1      31.468  27.218  20.888  1.00  0.00     0.163 HD
BRANCH   5   8
ATOM      8  C   UNL A   1      33.282  25.501  23.210  1.00  0.00     0.174 C 
ATOM      9  N   UNL A   1      32.307  24.645  23.939  1.00  0.00    -0.327 N 
ATOM     10  C   UNL A   1      32.553  24.414  25.361  1.00  0.00     0.120 C 
ATOM     11  C   UNL A   1      32.927  25.661  26.138  1.00  0.00     0.022 C 
ATOM     12  C   UNL A   1      33.782  26.702  24.048  1.00  0.00     0.035 C 
ATOM     13  C   UNL A   1      34.117  26.343  25.487  1.00  0.00     0.004 C 
BRANCH   9  14
ATOM     14  C   UNL A   1      31.483  23.675  23.351  1.00  0.00     0.254 C 
ATOM     15  O   UNL A   1      30.310  23.896  23.046  1.00  0.00    -0.269 OA
BRANCH  14  16
ATOM     16  C   UNL A   1      31.959  22.300  23.097  1.00  0.00     0.041 A 
ATOM     17  C   UNL A   1      32.691  18.101  22.450  1.00  0.00     0.046 C 
ATOM     18  C   UNL A   1      32.566  19.553  22.784  1.00  0.00    -0.031 A 
ATOM     19  C   UNL A   1      31.731  20.249  21.873  1.00  0.00     0.005 A 
ATOM     20  C   UNL A   1      33.128  20.274  23.854  1.00  0.00     0.086 A 
ATOM     21  C   UNL A   1      31.425  21.599  22.024  1.00  0.00     0.014 A 
ATOM     22  C   UNL A   1      32.784  21.640  24.008  1.00  0.00     0.035 A 
BRANCH  20  23
ATOM     23  S   UNL A   1      34.258  19.755  25.157  1.00  0.00     0.243 S 
ATOM     24  O   UNL A   1      33.445  19.600  26.346  1.00  0.00    -0.207 OA
ATOM     25  O   UNL A   1      34.966  18.614  24.606  1.00  0.00    -0.207 OA
BRANCH  23  26
ATOM     26  N   UNL A   1      35.432  20.918  25.512  1.00  0.00    -0.198 NA
ATOM     27  C   UNL A   1      36.569  21.020  24.578  1.00  0.00     0.102 C 
ATOM     28  C   UNL A   1      35.021  22.038  26.387  1.00  0.00     0.102 C 
ATOM     29  C   UNL A   1      37.630  22.016  25.015  1.00  0.00     0.017 C 
ATOM     30  C   UNL A   1      36.138  23.023  26.702  1.00  0.00     0.017 C 
ATOM     31  C   UNL A   1      37.025  23.318  25.505  1.00  0.00     0.003 C 
ENDBRANCH  23  26
ENDBRANCH  20  23
ENDBRANCH  14  16
ENDBRANCH   9  14
ENDBRANCH   5   8
ENDBRANCH   3   4
ENDBRANCH   2   3
ENDBRANCH   1   2
BRANCH   1  32
ATOM     32  C   UNL A   1      32.527  29.791  25.238  1.00  0.00     0.002 C 
BRANCH  32  33
ATOM     33  C   UNL A   1      32.742  29.727  26.751  1.00  0.00     0.021 C 
BRANCH  33  34
ATOM     34  C   UNL A   1      34.197  29.527  27.161  1.00  0.00     0.116 C 
BRANCH  34  35
ATOM     35  N   UNL A   1      34.935  30.774  27.286  1.00  0.00    -0.352 N 
ATOM     36  C   UNL A   1      36.116  30.963  27.990  1.00  0.00     0.251 C 
ATOM     37  H   UNL A   1      34.561  31.559  26.828  1.00  0.00     0.163 HD
ATOM     38  O   UNL A   1      36.478  32.040  28.413  1.00  0.00    -0.269 OA
BRANCH  36  39
ATOM     39  C   UNL A   1      37.015  29.790  28.051  1.00  0.00     0.039 A 
ATOM     40  C   UNL A   1      37.144  29.153  29.292  1.00  0.00     0.014 A 
ATOM     41  C   UNL A   1      37.902  29.534  27.010  1.00  0.00     0.014 A 
ATOM     42  C   UNL A   1      38.269  28.377  29.547  1.00  0.00     0.010 A 
ATOM     43  C   UNL A   1      39.061  28.841  27.296  1.00  0.00     0.010 A 
ATOM     44  C   UNL A   1      39.265  28.300  28.574  1.00  0.00    -0.014 A 
BRANCH  44  45
ATOM     45  C   UNL A   1      40.584  27.728  28.809  1.00  0.00     0.031 A 
ATOM     46  C   UNL A   1      40.853  26.320  28.443  1.00  0.00     0.074 A 
ATOM     47  C   UNL A   1      41.597  28.503  29.256  1.00  0.00     0.049 A 
ATOM     48  N   UNL A   1      41.818  25.616  28.930  1.00  0.00    -0.248 NA
ATOM     49  C   UNL A   1      40.009  25.576  27.513  1.00  0.00     0.031 C 
ATOM     50  C   UNL A   1      43.023  28.186  29.215  1.00  0.00     0.029 A 
ATOM     51  N   UNL A   1      41.534  29.652  30.044  1.00  0.00    -0.354 N 
ATOM     52  C   UNL A   1      41.926  24.485  28.154  1.00  0.00     0.074 A 
ATOM     53  C   UNL A   1      40.722  24.459  27.354  1.00  0.00     0.031 C 
ATOM     54  C   UNL A   1      43.647  28.900  30.164  1.00  0.00     0.029 A 
ATOM     55  C   UNL A   1      42.617  29.571  30.938  1.00  0.00     0.049 A 
ATOM     56  H   UNL A   1      40.866  30.373  29.987  1.00  0.00     0.167 HD
ATOM     57  C   UNL A   1      43.088  23.772  28.154  1.00  0.00     0.031 A 
ATOM     58  C   UNL A   1      42.482  29.510  32.295  1.00  0.00     0.031 A 
ATOM     59  C   UNL A   1      44.066  24.303  29.103  1.00  0.00     0.049 A 
ATOM     60  C   UNL A   1      43.119  28.280  32.921  1.00  0.00     0.074 A 
ATOM     61  C   UNL A   1      45.240  25.030  28.980  1.00  0.00     0.029 A 
ATOM     62  N   UNL A   1      43.744  24.330  30.451  1.00  0.00    -0.354 N 
ATOM     63  N   UNL A   1      43.683  27.315  32.248  1.00  0.00    -0.248 NA
ATOM     64  C   UNL A   1      43.076  27.991  34.354  1.00  0.00     0.031 C 
ATOM     65  C   UNL A   1      45.627  25.478  30.275  1.00  0.00     0.029 A 
ATOM     66  C   UNL A   1      44.693  25.018  31.182  1.00  0.00     0.049 A 
ATOM     67  H   UNL A   1      42.940  23.912  30.837  1.00  0.00     0.167 HD
ATOM     68  C   UNL A   1      44.012  26.284  33.091  1.00  0.00     0.074 A 
ATOM     69  C   UNL A   1      43.616  26.759  34.404  1.00  0.00     0.031 C 
ATOM     70  C   UNL A   1      44.536  25.109  32.627  1.00  0.00     0.031 A 
BRANCH  57  71
ATOM     71  C   UNL A   1      43.423  22.755  27.085  1.00  0.00    -0.014 A 
ATOM     72  C   UNL A   1      42.683  21.557  27.004  1.00  0.00     0.010 A 
ATOM     73  C   UNL A   1      44.480  22.893  26.165  1.00  0.00     0.010 A 
ATOM     74  C   UNL A   1      43.051  20.511  26.145  1.00  0.00     0.020 A 
ATOM     75  C   UNL A   1      44.885  21.840  25.330  1.00  0.00     0.020 A 
ATOM     76  C   UNL A   1      44.175  20.645  25.337  1.00  0.00     0.054 A 
BRANCH  76  77
ATOM     77  S   UNL A   1      44.696  19.244  24.314  1.00  0.00     0.124 S 
ATOM     78  O   UNL A   1      43.775  18.190  24.731  1.00  0.00    -0.237 OA
ATOM     79  O   UNL A   1      44.502  19.754  22.961  1.00  0.00    -0.237 OA
ATOM     80  O   UNL A   1      46.089  19.031  24.705  1.00  0.00    -0.744 OA
ENDBRANCH  76  77
ENDBRANCH  57  71
BRANCH  58  81
ATOM     81  C   UNL A   1      41.260  30.194  32.808  1.00  0.00    -0.014 A 
ATOM     82  C   UNL A   1      41.150  31.585  32.590  1.00  0.00     0.010 A 
ATOM     83  C   UNL A   1      40.094  29.454  33.072  1.00  0.00     0.010 A 
ATOM     84  C   UNL A   1      39.896  32.187  32.455  1.00  0.00     0.020 A 
ATOM     85  C   UNL A   1      38.835  30.060  32.947  1.00  0.00     0.020 A 
ATOM     86  C   UNL A   1      38.749  31.403  32.568  1.00  0.00     0.054 A 
BRANCH  86  87
ATOM     87  S   UNL A   1      37.165  32.119  32.026  1.00  0.00     0.124 S 
ATOM     88  O   UNL A   1      37.590  33.119  31.053  1.00  0.00    -0.237 OA
ATOM     89  O   UNL A   1      36.474  30.955  31.473  1.00  0.00    -0.237 OA
ATOM     90  O   UNL A   1      36.597  32.645  33.263  1.00  0.00    -0.744 OA
ENDBRANCH  86  87
ENDBRANCH  58  81
BRANCH  70  91
ATOM     91  C   UNL A   1      44.910  23.899  33.459  1.00  0.00    -0.014 A 
ATOM     92  C   UNL A   1      44.091  22.774  33.636  1.00  0.00     0.010 A 
ATOM     93  C   UNL A   1      46.122  23.918  34.195  1.00  0.00     0.010 A 
ATOM     94  C   UNL A   1      44.502  21.692  34.435  1.00  0.00     0.020 A 
ATOM     95  C   UNL A   1      46.533  22.858  35.007  1.00  0.00     0.020 A 
ATOM     96  C   UNL A   1      45.724  21.737  35.108  1.00  0.00     0.054 A 
BRANCH  96  97
ATOM     97  S   UNL A   1      46.226  20.336  36.136  1.00  0.00     0.124 S 
ATOM     98  O   UNL A   1      45.460  19.234  35.559  1.00  0.00    -0.237 OA
ATOM     99  O   UNL A   1      47.668  20.287  35.903  1.00  0.00    -0.237 OA
ATOM    100  O   UNL A   1      45.828  20.727  37.486  1.00  0.00    -0.744 OA
ENDBRANCH  96  97
ENDBRANCH  70  91
ENDBRANCH  44  45
ENDBRANCH  36  39
ENDBRANCH  34  35
ENDBRANCH  33  34
ENDBRANCH  32  33
ENDBRANCH   1  32
TORSDOF 20
ENDMDL
MODEL 3
REMARK VINA RESULT:     -12.5      1.485      1.959
REMARK SMILES Cc1ccc(C(=O)N2CCCC[C@@H]2C(=O)NCCCCCCNC(=O)c2ccc(-c3c4nc(c(-c5ccc(S(=O)(=O)[O-])cc5)c5ccc([nH]5)c(-c5ccc(S(=O)(=O)[O-])cc5)c5nc(c(-c6ccc(S(=O)(=O)[O-])cc6)c6ccc3[nH]6)C=C5)C=C4)cc2)cc1S(=O)(=O)N1CCCCC1
REMARK SMILES IDX 19 1 18 2 17 3 16 4 14 5 15 6 13 8 8 9 9 10 10 11 12 12
REMARK SMILES IDX 11 13 6 14 7 15 5 16 1 17 2 18 3 19 87 20 4 21 86 22 88 23
REMARK SMILES IDX 89 24 90 25 91 26 92 27 96 28 93 29 95 30 94 31 20 32 21 33
REMARK SMILES IDX 22 34 23 35 24 36 25 38 26 39 27 40 85 41 28 42 84 43 29 44
REMARK SMILES IDX 30 45 31 46 78 47 32 48 83 49 77 50 79 51 33 52 82 53 76 54
REMARK SMILES IDX 75 55 34 57 64 58 45 59 63 60 46 61 49 62 62 63 80 64 47 65
REMARK SMILES IDX 48 66 61 68 81 69 50 70 35 71 36 72 44 73 37 74 43 75 38 76
REMARK SMILES IDX 39 77 40 78 41 79 42 80 65 81 66 82 74 83 67 84 73 85 68 86
REMARK SMILES IDX 69 87 70 88 71 89 72 90 51 91 52 92 60 93 53 94 59 95 54 96
REMARK SMILES IDX 55 97 56 98 57 99 58 100
REMARK H PARENT 16 7 23 37 79 56 49 67
REMARK Flexibility Score: inf
ROOT
ATOM      1  C   UNL A   1      30.723  29.483  24.394  1.00  0.00     0.002 C 
ENDROOT
BRANCH   1   2
ATOM      2  C   UNL A   1      30.997  28.979  22.970  1.00  0.00     0.021 C 
BRANCH   2   3
ATOM      3  C   UNL A   1      30.629  27.519  22.706  1.00  0.00     0.116 C 
BRANCH   3   4
ATOM      4  N   UNL A   1      31.498  26.924  21.711  1.00  0.00    -0.354 N 
ATOM      5  C   UNL A   1      32.633  26.188  21.861  1.00  0.00     0.242 C 
ATOM      6  O   UNL A   1      33.264  25.904  20.838  1.00  0.00    -0.273 OA
ATOM      7  H   UNL A   1      31.224  27.076  20.778  1.00  0.00     0.163 HD
BRANCH   5   8
ATOM      8  C   UNL A   1      33.204  25.819  23.255  1.00  0.00     0.174 C 
ATOM      9  N   UNL A   1      32.255  25.148  24.186  1.00  0.00    -0.327 N 
ATOM     10  C   UNL A   1      32.591  25.166  25.608  1.00  0.00     0.120 C 
ATOM     11  C   UNL A   1      33.054  26.515  26.121  1.00  0.00     0.022 C 
ATOM     12  C   UNL A   1      33.794  27.129  23.829  1.00  0.00     0.035 C 
ATOM     13  C   UNL A   1      34.216  27.020  25.286  1.00  0.00     0.004 C 
BRANCH   9  14
ATOM     14  C   UNL A   1      31.365  24.124  23.835  1.00  0.00     0.254 C 
ATOM     15  O   UNL A   1      30.142  24.265  23.876  1.00  0.00    -0.269 OA
BRANCH  14  16
ATOM     16  C   UNL A   1      31.840  22.784  23.433  1.00  0.00     0.041 A 
ATOM     17  C   UNL A   1      32.562  18.690  22.293  1.00  0.00     0.046 C 
ATOM     18  C   UNL A   1      32.434  20.089  22.804  1.00  0.00    -0.031 A 
ATOM     19  C   UNL A   1      31.663  20.912  21.944  1.00  0.00     0.005 A 
ATOM     20  C   UNL A   1      32.938  20.656  23.990  1.00  0.00     0.086 A 
ATOM     21  C   UNL A   1      31.364  22.237  22.250  1.00  0.00     0.014 A 
ATOM     22  C   UNL A   1      32.601  21.997  24.298  1.00  0.00     0.035 A 
BRANCH  20  23
ATOM     23  S   UNL A   1      33.981  19.952  25.278  1.00  0.00     0.243 S 
ATOM     24  O   UNL A   1      35.343  20.276  24.904  1.00  0.00    -0.207 OA
ATOM     25  O   UNL A   1      33.429  20.455  26.523  1.00  0.00    -0.207 OA
BRANCH  23  26
ATOM     26  N   UNL A   1      33.880  18.267  25.358  1.00  0.00    -0.198 NA
ATOM     27  C   UNL A   1      32.571  17.698  25.731  1.00  0.00     0.102 C 
ATOM     28  C   UNL A   1      34.893  17.498  24.601  1.00  0.00     0.102 C 
ATOM     29  C   UNL A   1      32.583  16.185  25.878  1.00  0.00     0.017 C 
ATOM     30  C   UNL A   1      34.770  15.990  24.754  1.00  0.00     0.017 C 
ATOM     31  C   UNL A   1      33.331  15.506  24.746  1.00  0.00     0.003 C 
ENDBRANCH  23  26
ENDBRANCH  20  23
ENDBRANCH  14  16
ENDBRANCH   9  14
ENDBRANCH   5   8
ENDBRANCH   3   4
ENDBRANCH   2   3
ENDBRANCH   1   2
BRANCH   1  32
ATOM     32  C   UNL A   1      31.927  30.027  25.175  1.00  0.00     0.002 C 
BRANCH  32  33
ATOM     33  C   UNL A   1      31.824  29.968  26.700  1.00  0.00     0.021 C 
BRANCH  33  34
ATOM     34  C   UNL A   1      33.172  29.906  27.409  1.00  0.00     0.116 C 
BRANCH  34  35
ATOM     35  N   UNL A   1      33.675  31.212  27.804  1.00  0.00    -0.352 N 
ATOM     36  C   UNL A   1      34.714  31.459  28.690  1.00  0.00     0.251 C 
ATOM     37  H   UNL A   1      33.236  31.996  27.404  1.00  0.00     0.163 HD
ATOM     38  O   UNL A   1      34.840  32.500  29.300  1.00  0.00    -0.269 OA
BRANCH  36  39
ATOM     39  C   UNL A   1      35.779  30.433  28.724  1.00  0.00     0.039 A 
ATOM     40  C   UNL A   1      36.051  29.843  29.965  1.00  0.00     0.014 A 
ATOM     41  C   UNL A   1      36.651  30.294  27.650  1.00  0.00     0.014 A 
ATOM     42  C   UNL A   1      37.288  29.245  30.180  1.00  0.00     0.010 A 
ATOM     43  C   UNL A   1      37.911  29.785  27.893  1.00  0.00     0.010 A 
ATOM     44  C   UNL A   1      38.244  29.301  29.167  1.00  0.00    -0.014 A 
BRANCH  44  45
ATOM     45  C   UNL A   1      39.642  28.933  29.351  1.00  0.00     0.031 A 
ATOM     46  C   UNL A   1      40.143  27.648  28.819  1.00  0.00     0.074 A 
ATOM     47  C   UNL A   1      40.512  29.806  29.907  1.00  0.00     0.049 A 
ATOM     48  N   UNL A   1      41.215  27.061  29.231  1.00  0.00    -0.248 NA
ATOM     49  C   UNL A   1      39.433  26.894  27.790  1.00  0.00     0.031 C 
ATOM     50  C   UNL A   1      41.970  29.740  29.852  1.00  0.00     0.029 A 
ATOM     51  N   UNL A   1      40.259  30.820  30.831  1.00  0.00    -0.354 N 
ATOM     52  C   UNL A   1      41.509  26.069  28.324  1.00  0.00     0.074 A 
ATOM     53  C   UNL A   1      40.324  25.942  27.506  1.00  0.00     0.031 C 
ATOM     54  C   UNL A   1      42.468  30.426  30.892  1.00  0.00     0.029 A 
ATOM     55  C   UNL A   1      41.344  30.812  31.726  1.00  0.00     0.049 A 
ATOM     56  H   UNL A   1      39.478  31.421  30.852  1.00  0.00     0.167 HD
ATOM     57  C   UNL A   1      42.774  25.568  28.255  1.00  0.00     0.031 A 
ATOM     58  C   UNL A   1      41.227  30.561  33.063  1.00  0.00     0.031 A 
ATOM     59  C   UNL A   1      43.653  26.132  29.278  1.00  0.00     0.049 A 
ATOM     60  C   UNL A   1      42.065  29.387  33.542  1.00  0.00     0.074 A 
ATOM     61  C   UNL A   1      44.687  27.056  29.266  1.00  0.00     0.029 A 
ATOM     62  N   UNL A   1      43.337  25.936  30.614  1.00  0.00    -0.354 N 
ATOM     63  N   UNL A   1      42.780  28.622  32.765  1.00  0.00    -0.248 NA
ATOM     64  C   UNL A   1      42.077  28.918  34.928  1.00  0.00     0.031 C 
ATOM     65  C   UNL A   1      44.999  27.398  30.613  1.00  0.00     0.029 A 
ATOM     66  C   UNL A   1      44.160  26.678  31.440  1.00  0.00     0.049 A 
ATOM     67  H   UNL A   1      42.617  25.345  30.932  1.00  0.00     0.167 HD
ATOM     68  C   UNL A   1      43.282  27.563  33.479  1.00  0.00     0.074 A 
ATOM     69  C   UNL A   1      42.818  27.798  34.834  1.00  0.00     0.031 C 
ATOM     70  C   UNL A   1      43.995  26.560  32.883  1.00  0.00     0.031 A 
BRANCH  57  71
ATOM     71  C   UNL A   1      43.272  24.763  27.074  1.00  0.00    -0.014 A 
ATOM     72  C   UNL A   1      42.533  23.648  26.628  1.00  0.00     0.010 A 
ATOM     73  C   UNL A   1      44.478  25.018  26.394  1.00  0.00     0.010 A 
ATOM     74  C   UNL A   1      43.024  22.771  25.650  1.00  0.00     0.020 A 
ATOM     75  C   UNL A   1      45.002  24.128  25.443  1.00  0.00     0.020 A 
ATOM     76  C   UNL A   1      44.276  22.997  25.087  1.00  0.00     0.054 A 
BRANCH  76  77
ATOM     77  S   UNL A   1      44.941  21.796  23.905  1.00  0.00     0.124 S 
ATOM     78  O   UNL A   1      44.266  22.170  22.664  1.00  0.00    -0.237 OA
ATOM     79  O   UNL A   1      46.373  22.070  23.952  1.00  0.00    -0.237 OA
ATOM     80  O   UNL A   1      44.535  20.505  24.459  1.00  0.00    -0.744 OA
ENDBRANCH  76  77
ENDBRANCH  57  71
BRANCH  58  81
ATOM     81  C   UNL A   1      39.908  30.960  33.635  1.00  0.00    -0.014 A 
ATOM     82  C   UNL A   1      39.744  32.311  34.014  1.00  0.00     0.010 A 
ATOM     83  C   UNL A   1      38.766  30.179  33.391  1.00  0.00     0.010 A 
ATOM     84  C   UNL A   1      38.483  32.913  33.968  1.00  0.00     0.020 A 
ATOM     85  C   UNL A   1      37.499  30.780  33.355  1.00  0.00     0.020 A 
ATOM     86  C   UNL A   1      37.381  32.156  33.571  1.00  0.00     0.054 A 
BRANCH  86  87
ATOM     87  S   UNL A   1      35.840  33.036  33.163  1.00  0.00     0.124 S 
ATOM     88  O   UNL A   1      35.303  33.355  34.481  1.00  0.00    -0.237 OA
ATOM     89  O   UNL A   1      36.333  34.176  32.390  1.00  0.00    -0.237 OA
ATOM     90  O   UNL A   1      35.086  32.049  32.396  1.00  0.00    -0.744 OA
ENDBRANCH  86  87
ENDBRANCH  58  81
BRANCH  70  91
ATOM     91  C   UNL A   1      44.572  25.336  33.565  1.00  0.00    -0.014 A 
ATOM     92  C   UNL A   1      43.810  24.255  34.032  1.00  0.00     0.010 A 
ATOM     93  C   UNL A   1      45.961  25.297  33.847  1.00  0.00     0.010 A 
ATOM     94  C   UNL A   1      44.416  23.158  34.669  1.00  0.00     0.020 A 
ATOM     95  C   UNL A   1      46.573  24.221  34.495  1.00  0.00     0.020 A 
ATOM     96  C   UNL A   1      45.795  23.143  34.887  1.00  0.00     0.054 A 
BRANCH  96  97
ATOM     97  S   UNL A   1      46.549  21.722  35.716  1.00  0.00     0.124 S 
ATOM     98  O   UNL A   1      46.596  20.726  34.647  1.00  0.00    -0.237 OA
ATOM     99  O   UNL A   1      47.842  22.261  36.128  1.00  0.00    -0.237 OA
ATOM    100  O   UNL A   1      45.627  21.418  36.806  1.00  0.00    -0.744 OA
ENDBRANCH  96  97
ENDBRANCH  70  91
ENDBRANCH  44  45
ENDBRANCH  36  39
ENDBRANCH  34  35
ENDBRANCH  33  34
ENDBRANCH  32  33
ENDBRANCH   1  32
TORSDOF 20
ENDMDL
