MODEL 1
REMARK VINA RESULT:      -9.7      0.000      0.000
REMARK SMILES CCCc1sc(C(=O)NCCC(=O)NCCCCCCNC(=O)c2ccc(-c3c4nc(c(-c5ccc(S(=O)(=O)[O-])cc5)c5ccc([nH]5)c(-c5ccc(S(=O)(=O)[O-])cc5)c5nc(c(-c6ccc(S(=O)(=O)[O-])cc6)c6ccc3[nH]6)C=C5)C=C4)cc2)cc1CC
REMARK SMILES IDX 16 1 15 2 14 3 12 4 13 5 11 7 10 8 9 9 7 10 8 11 6 13 4 14
REMARK SMILES IDX 5 15 85 16 84 17 3 18 2 19 1 20 86 21 87 22 17 23 18 24
REMARK SMILES IDX 19 25 20 26 21 27 22 28 23 30 24 31 25 32 83 33 26 34 82 35
REMARK SMILES IDX 27 36 28 37 29 38 76 39 30 40 81 41 75 42 77 43 31 44 80 45
REMARK SMILES IDX 74 46 73 47 32 49 62 50 43 51 61 52 44 53 47 54 60 55 78 56
REMARK SMILES IDX 45 57 46 58 59 60 79 61 48 62 33 63 34 64 42 65 35 66 41 67
REMARK SMILES IDX 36 68 37 69 38 70 39 71 40 72 63 73 64 74 72 75 65 76 71 77
REMARK SMILES IDX 66 78 67 79 68 80 69 81 70 82 49 83 50 84 58 85 51 86 57 87
REMARK SMILES IDX 52 88 53 89 54 90 55 91 56 92
REMARK H PARENT 14 6 9 12 21 29 77 48 47 59
REMARK Flexibility Score: inf
ROOT
ATOM      1  C   UNL A   1      34.536  29.649  27.126  1.00  0.00     0.021 C 
ENDROOT
BRANCH   1   2
ATOM      2  C   UNL A   1      33.809  28.677  26.196  1.00  0.00     0.116 C 
BRANCH   2   3
ATOM      3  N   UNL A   1      32.521  29.214  25.798  1.00  0.00    -0.356 N 
ATOM      4  C   UNL A   1      31.886  29.117  24.598  1.00  0.00     0.221 C 
ATOM      5  O   UNL A   1      30.833  29.734  24.431  1.00  0.00    -0.275 OA
ATOM      6  H   UNL A   1      32.039  29.719  26.493  1.00  0.00     0.163 HD
BRANCH   4   7
ATOM      7  C   UNL A   1      32.469  28.266  23.491  1.00  0.00     0.121 C 
BRANCH   7   8
ATOM      8  C   UNL A   1      31.404  27.437  22.778  1.00  0.00     0.126 C 
BRANCH   8   9
ATOM      9  N   UNL A   1      31.902  26.782  21.578  1.00  0.00    -0.351 N 
ATOM     10  C   UNL A   1      32.649  25.650  21.356  1.00  0.00     0.261 C 
ATOM     11  O   UNL A   1      33.048  25.526  20.193  1.00  0.00    -0.268 OA
ATOM     12  H   UNL A   1      31.650  27.249  20.750  1.00  0.00     0.163 HD
BRANCH  10  13
ATOM     13  C   UNL A   1      32.872  24.665  22.401  1.00  0.00     0.092 A 
ATOM     14  C   UNL A   1      34.097  23.304  24.107  1.00  0.00     0.009 A 
ATOM     15  S   UNL A   1      34.169  24.915  23.496  1.00  0.00    -0.135 S 
ATOM     16  C   UNL A   1      33.021  22.622  23.558  1.00  0.00    -0.034 A 
ATOM     17  C   UNL A   1      32.248  23.477  22.703  1.00  0.00     0.029 A 
BRANCH  14  18
ATOM     18  C   UNL A   1      35.224  22.857  25.006  1.00  0.00     0.047 C 
BRANCH  18  19
ATOM     19  C   UNL A   1      36.240  21.893  24.387  1.00  0.00     0.002 C 
ATOM     20  C   UNL A   1      36.255  20.508  25.022  1.00  0.00     0.004 C 
ENDBRANCH  18  19
ENDBRANCH  14  18
BRANCH  16  21
ATOM     21  C   UNL A   1      32.663  21.174  23.699  1.00  0.00     0.033 C 
ATOM     22  C   UNL A   1      32.216  20.808  25.105  1.00  0.00     0.009 C 
ENDBRANCH  16  21
ENDBRANCH  10  13
ENDBRANCH   8   9
ENDBRANCH   7   8
ENDBRANCH   4   7
ENDBRANCH   2   3
ENDBRANCH   1   2
BRANCH   1  23
ATOM     23  C   UNL A   1      33.723  30.880  27.528  1.00  0.00     0.002 C 
BRANCH  23  24
ATOM     24  C   UNL A   1      34.548  32.102  27.935  1.00  0.00     0.002 C 
BRANCH  24  25
ATOM     25  C   UNL A   1      34.775  32.274  29.440  1.00  0.00     0.021 C 
BRANCH  25  26
ATOM     26  C   UNL A   1      35.639  31.199  30.098  1.00  0.00     0.116 C 
BRANCH  26  27
ATOM     27  N   UNL A   1      36.036  31.570  31.444  1.00  0.00    -0.352 N 
ATOM     28  C   UNL A   1      37.205  31.326  32.116  1.00  0.00     0.251 C 
ATOM     29  H   UNL A   1      35.361  32.074  31.953  1.00  0.00     0.163 HD
ATOM     30  O   UNL A   1      37.256  31.541  33.325  1.00  0.00    -0.269 OA
BRANCH  28  31
ATOM     31  C   UNL A   1      38.396  30.808  31.406  1.00  0.00     0.039 A 
ATOM     32  C   UNL A   1      39.355  30.105  32.141  1.00  0.00     0.014 A 
ATOM     33  C   UNL A   1      38.615  31.073  30.051  1.00  0.00     0.014 A 
ATOM     34  C   UNL A   1      40.521  29.656  31.518  1.00  0.00     0.010 A 
ATOM     35  C   UNL A   1      39.747  30.567  29.413  1.00  0.00     0.010 A 
ATOM     36  C   UNL A   1      40.725  29.881  30.147  1.00  0.00    -0.014 A 
BRANCH  36  37
ATOM     37  C   UNL A   1      41.987  29.453  29.493  1.00  0.00     0.031 A 
ATOM     38  C   UNL A   1      43.138  30.418  29.369  1.00  0.00     0.074 A 
ATOM     39  C   UNL A   1      42.099  28.204  28.999  1.00  0.00     0.049 A 
ATOM     40  N   UNL A   1      44.325  30.227  28.851  1.00  0.00    -0.248 NA
ATOM     41  C   UNL A   1      42.918  31.784  29.873  1.00  0.00     0.031 C 
ATOM     42  C   UNL A   1      41.043  27.189  29.019  1.00  0.00     0.029 A 
ATOM     43  N   UNL A   1      43.154  27.575  28.388  1.00  0.00    -0.354 N 
ATOM     44  C   UNL A   1      44.984  31.447  28.952  1.00  0.00     0.074 A 
ATOM     45  C   UNL A   1      44.050  32.385  29.535  1.00  0.00     0.031 C 
ATOM     46  C   UNL A   1      41.516  26.055  28.474  1.00  0.00     0.029 A 
ATOM     47  C   UNL A   1      42.895  26.269  28.048  1.00  0.00     0.049 A 
ATOM     48  H   UNL A   1      44.015  28.018  28.210  1.00  0.00     0.167 HD
ATOM     49  C   UNL A   1      46.259  31.756  28.613  1.00  0.00     0.031 A 
ATOM     50  C   UNL A   1      43.684  25.344  27.468  1.00  0.00     0.031 A 
ATOM     51  C   UNL A   1      47.193  30.819  28.050  1.00  0.00     0.049 A 
ATOM     52  C   UNL A   1      45.107  25.700  27.131  1.00  0.00     0.074 A 
ATOM     53  C   UNL A   1      48.520  31.021  27.710  1.00  0.00     0.029 A 
ATOM     54  N   UNL A   1      46.900  29.498  27.748  1.00  0.00    -0.354 N 
ATOM     55  N   UNL A   1      45.729  26.844  27.287  1.00  0.00    -0.248 NA
ATOM     56  C   UNL A   1      45.939  24.630  26.565  1.00  0.00     0.031 C 
ATOM     57  C   UNL A   1      49.020  29.829  27.173  1.00  0.00     0.029 A 
ATOM     58  C   UNL A   1      48.018  28.872  27.223  1.00  0.00     0.049 A 
ATOM     59  H   UNL A   1      46.025  29.068  27.886  1.00  0.00     0.167 HD
ATOM     60  C   UNL A   1      47.037  26.622  26.870  1.00  0.00     0.074 A 
ATOM     61  C   UNL A   1      47.116  25.232  26.467  1.00  0.00     0.031 C 
ATOM     62  C   UNL A   1      48.080  27.489  26.829  1.00  0.00     0.031 A 
BRANCH  49  63
ATOM     63  C   UNL A   1      46.712  33.174  28.847  1.00  0.00    -0.014 A 
ATOM     64  C   UNL A   1      46.552  34.161  27.856  1.00  0.00     0.010 A 
ATOM     65  C   UNL A   1      47.287  33.532  30.080  1.00  0.00     0.010 A 
ATOM     66  C   UNL A   1      47.001  35.465  28.075  1.00  0.00     0.020 A 
ATOM     67  C   UNL A   1      47.714  34.843  30.313  1.00  0.00     0.020 A 
ATOM     68  C   UNL A   1      47.586  35.797  29.300  1.00  0.00     0.054 A 
BRANCH  68  69
ATOM     69  S   UNL A   1      48.152  37.500  29.564  1.00  0.00     0.124 S 
ATOM     70  O   UNL A   1      49.063  37.342  30.696  1.00  0.00    -0.237 OA
ATOM     71  O   UNL A   1      48.786  37.830  28.291  1.00  0.00    -0.237 OA
ATOM     72  O   UNL A   1      46.922  38.234  29.853  1.00  0.00    -0.744 OA
ENDBRANCH  68  69
ENDBRANCH  49  63
BRANCH  50  73
ATOM     73  C   UNL A   1      43.159  23.976  27.213  1.00  0.00    -0.014 A 
ATOM     74  C   UNL A   1      42.595  23.650  25.967  1.00  0.00     0.010 A 
ATOM     75  C   UNL A   1      43.233  22.987  28.210  1.00  0.00     0.010 A 
ATOM     76  C   UNL A   1      42.094  22.366  25.729  1.00  0.00     0.020 A 
ATOM     77  C   UNL A   1      42.756  21.696  27.968  1.00  0.00     0.020 A 
ATOM     78  C   UNL A   1      42.177  21.397  26.732  1.00  0.00     0.054 A 
BRANCH  78  79
ATOM     79  S   UNL A   1      41.568  19.723  26.387  1.00  0.00     0.124 S 
ATOM     80  O   UNL A   1      41.820  19.042  27.654  1.00  0.00    -0.237 OA
ATOM     81  O   UNL A   1      40.163  19.956  26.063  1.00  0.00    -0.237 OA
ATOM     82  O   UNL A   1      42.393  19.285  25.265  1.00  0.00    -0.744 OA
ENDBRANCH  78  79
ENDBRANCH  50  73
BRANCH  62  83
ATOM     83  C   UNL A   1      49.408  26.944  26.377  1.00  0.00    -0.014 A 
ATOM     84  C   UNL A   1      49.810  27.015  25.032  1.00  0.00     0.010 A 
ATOM     85  C   UNL A   1      50.276  26.371  27.325  1.00  0.00     0.010 A 
ATOM     86  C   UNL A   1      51.037  26.477  24.634  1.00  0.00     0.020 A 
ATOM     87  C   UNL A   1      51.515  25.857  26.935  1.00  0.00     0.020 A 
ATOM     88  C   UNL A   1      51.879  25.895  25.587  1.00  0.00     0.054 A 
BRANCH  88  89
ATOM     89  S   UNL A   1      53.472  25.215  25.052  1.00  0.00     0.124 S 
ATOM     90  O   UNL A   1      54.403  25.861  25.973  1.00  0.00    -0.237 OA
ATOM     91  O   UNL A   1      53.293  23.777  25.246  1.00  0.00    -0.237 OA
ATOM     92  O   UNL A   1      53.578  25.638  23.657  1.00  0.00    -0.744 OA
ENDBRANCH  88  89
ENDBRANCH  62  83
ENDBRANCH  36  37
ENDBRANCH  28  31
ENDBRANCH  26  27
ENDBRANCH  25  26
ENDBRANCH  24  25
ENDBRANCH  23  24
ENDBRANCH   1  23
TORSDOF 22
ENDMDL
MODEL 2
REMARK VINA RESULT:      -9.5      2.787      9.148
REMARK SMILES CCCc1sc(C(=O)NCCC(=O)NCCCCCCNC(=O)c2ccc(-c3c4nc(c(-c5ccc(S(=O)(=O)[O-])cc5)c5ccc([nH]5)c(-c5ccc(S(=O)(=O)[O-])cc5)c5nc(c(-c6ccc(S(=O)(=O)[O-])cc6)c6ccc3[nH]6)C=C5)C=C4)cc2)cc1CC
REMARK SMILES IDX 16 1 15 2 14 3 12 4 13 5 11 7 10 8 9 9 7 10 8 11 6 13 4 14
REMARK SMILES IDX 5 15 85 16 84 17 3 18 2 19 1 20 86 21 87 22 17 23 18 24
REMARK SMILES IDX 19 25 20 26 21 27 22 28 23 30 24 31 25 32 83 33 26 34 82 35
REMARK SMILES IDX 27 36 28 37 29 38 76 39 30 40 81 41 75 42 77 43 31 44 80 45
REMARK SMILES IDX 74 46 73 47 32 49 62 50 43 51 61 52 44 53 47 54 60 55 78 56
REMARK SMILES IDX 45 57 46 58 59 60 79 61 48 62 33 63 34 64 42 65 35 66 41 67
REMARK SMILES IDX 36 68 37 69 38 70 39 71 40 72 63 73 64 74 72 75 65 76 71 77
REMARK SMILES IDX 66 78 67 79 68 80 69 81 70 82 49 83 50 84 58 85 51 86 57 87
REMARK SMILES IDX 52 88 53 89 54 90 55 91 56 92
REMARK H PARENT 14 6 9 12 21 29 77 48 47 59
REMARK Flexibility Score: inf
ROOT
ATOM      1  C   UNL A   1      39.673  23.726  27.408  1.00  0.00     0.021 C 
ENDROOT
BRANCH   1   2
ATOM      2  C   UNL A   1      38.619  23.776  26.301  1.00  0.00     0.116 C 
BRANCH   2   3
ATOM      3  N   UNL A   1      37.949  22.496  26.173  1.00  0.00    -0.356 N 
ATOM      4  C   UNL A   1      37.036  22.095  25.246  1.00  0.00     0.221 C 
ATOM      5  O   UNL A   1      36.508  20.989  25.370  1.00  0.00    -0.275 OA
ATOM      6  H   UNL A   1      38.188  21.822  26.851  1.00  0.00     0.163 HD
BRANCH   4   7
ATOM      7  C   UNL A   1      36.681  22.997  24.084  1.00  0.00     0.121 C 
BRANCH   7   8
ATOM      8  C   UNL A   1      35.243  23.504  24.165  1.00  0.00     0.126 C 
BRANCH   8   9
ATOM      9  N   UNL A   1      34.283  22.584  23.575  1.00  0.00    -0.351 N 
ATOM     10  C   UNL A   1      32.921  22.621  23.397  1.00  0.00     0.261 C 
ATOM     11  O   UNL A   1      32.427  21.549  23.030  1.00  0.00    -0.268 OA
ATOM     12  H   UNL A   1      34.697  21.761  23.230  1.00  0.00     0.163 HD
BRANCH  10  13
ATOM     13  C   UNL A   1      32.162  23.850  23.560  1.00  0.00     0.092 A 
ATOM     14  C   UNL A   1      31.511  26.250  23.276  1.00  0.00     0.009 A 
ATOM     15  S   UNL A   1      32.207  25.012  22.298  1.00  0.00    -0.135 S 
ATOM     16  C   UNL A   1      31.148  25.747  24.516  1.00  0.00    -0.034 A 
ATOM     17  C   UNL A   1      31.392  24.334  24.592  1.00  0.00     0.029 A 
BRANCH  14  18
ATOM     18  C   UNL A   1      31.511  27.652  22.716  1.00  0.00     0.047 C 
BRANCH  18  19
ATOM     19  C   UNL A   1      32.857  28.382  22.725  1.00  0.00     0.002 C 
ATOM     20  C   UNL A   1      33.273  28.908  24.093  1.00  0.00     0.004 C 
ENDBRANCH  18  19
ENDBRANCH  14  18
BRANCH  16  21
ATOM     21  C   UNL A   1      30.641  26.489  25.714  1.00  0.00     0.033 C 
ATOM     22  C   UNL A   1      31.756  26.972  26.627  1.00  0.00     0.009 C 
ENDBRANCH  16  21
ENDBRANCH  10  13
ENDBRANCH   8   9
ENDBRANCH   7   8
ENDBRANCH   4   7
ENDBRANCH   2   3
ENDBRANCH   1   2
BRANCH   1  23
ATOM     23  C   UNL A   1      40.412  22.393  27.529  1.00  0.00     0.002 C 
BRANCH  23  24
ATOM     24  C   UNL A   1      41.082  21.900  26.246  1.00  0.00     0.002 C 
BRANCH  24  25
ATOM     25  C   UNL A   1      41.080  20.382  26.039  1.00  0.00     0.021 C 
BRANCH  25  26
ATOM     26  C   UNL A   1      42.319  19.651  26.550  1.00  0.00     0.116 C 
BRANCH  26  27
ATOM     27  N   UNL A   1      43.194  19.242  25.466  1.00  0.00    -0.352 N 
ATOM     28  C   UNL A   1      44.056  19.984  24.702  1.00  0.00     0.251 C 
ATOM     29  H   UNL A   1      43.162  18.284  25.244  1.00  0.00     0.163 HD
ATOM     30  O   UNL A   1      44.546  19.482  23.693  1.00  0.00    -0.269 OA
BRANCH  28  31
ATOM     31  C   UNL A   1      44.399  21.375  25.076  1.00  0.00     0.039 A 
ATOM     32  C   UNL A   1      44.975  21.604  26.330  1.00  0.00     0.014 A 
ATOM     33  C   UNL A   1      44.091  22.456  24.244  1.00  0.00     0.014 A 
ATOM     34  C   UNL A   1      45.254  22.909  26.741  1.00  0.00     0.010 A 
ATOM     35  C   UNL A   1      44.431  23.753  24.628  1.00  0.00     0.010 A 
ATOM     36  C   UNL A   1      44.987  23.994  25.892  1.00  0.00    -0.014 A 
BRANCH  36  37
ATOM     37  C   UNL A   1      45.232  25.386  26.347  1.00  0.00     0.031 A 
ATOM     38  C   UNL A   1      46.613  25.982  26.243  1.00  0.00     0.074 A 
ATOM     39  C   UNL A   1      44.221  26.112  26.863  1.00  0.00     0.049 A 
ATOM     40  N   UNL A   1      47.021  27.183  26.567  1.00  0.00    -0.248 NA
ATOM     41  C   UNL A   1      47.679  25.106  25.731  1.00  0.00     0.031 C 
ATOM     42  C   UNL A   1      42.850  25.636  27.055  1.00  0.00     0.029 A 
ATOM     43  N   UNL A   1      44.191  27.407  27.316  1.00  0.00    -0.354 N 
ATOM     44  C   UNL A   1      48.387  27.201  26.312  1.00  0.00     0.074 A 
ATOM     45  C   UNL A   1      48.749  25.877  25.855  1.00  0.00     0.031 C 
ATOM     46  C   UNL A   1      42.105  26.636  27.558  1.00  0.00     0.029 A 
ATOM     47  C   UNL A   1      42.949  27.812  27.743  1.00  0.00     0.049 A 
ATOM     48  H   UNL A   1      44.984  27.990  27.333  1.00  0.00     0.167 HD
ATOM     49  C   UNL A   1      49.261  28.231  26.425  1.00  0.00     0.031 A 
ATOM     50  C   UNL A   1      42.534  29.001  28.221  1.00  0.00     0.031 A 
ATOM     51  C   UNL A   1      48.897  29.551  26.864  1.00  0.00     0.049 A 
ATOM     52  C   UNL A   1      43.515  30.140  28.307  1.00  0.00     0.074 A 
ATOM     53  C   UNL A   1      49.698  30.675  26.973  1.00  0.00     0.029 A 
ATOM     54  N   UNL A   1      47.623  29.928  27.260  1.00  0.00    -0.354 N 
ATOM     55  N   UNL A   1      44.792  30.153  28.007  1.00  0.00    -0.248 NA
ATOM     56  C   UNL A   1      42.989  31.431  28.769  1.00  0.00     0.031 C 
ATOM     57  C   UNL A   1      48.913  31.724  27.466  1.00  0.00     0.029 A 
ATOM     58  C   UNL A   1      47.614  31.265  27.618  1.00  0.00     0.049 A 
ATOM     59  H   UNL A   1      46.840  29.332  27.283  1.00  0.00     0.167 HD
ATOM     60  C   UNL A   1      45.214  31.461  28.213  1.00  0.00     0.074 A 
ATOM     61  C   UNL A   1      44.054  32.211  28.650  1.00  0.00     0.031 C 
ATOM     62  C   UNL A   1      46.450  31.996  28.049  1.00  0.00     0.031 A 
BRANCH  49  63
ATOM     63  C   UNL A   1      50.699  27.960  26.066  1.00  0.00    -0.014 A 
ATOM     64  C   UNL A   1      51.173  28.171  24.758  1.00  0.00     0.010 A 
ATOM     65  C   UNL A   1      51.595  27.509  27.052  1.00  0.00     0.010 A 
ATOM     66  C   UNL A   1      52.501  27.889  24.431  1.00  0.00     0.020 A 
ATOM     67  C   UNL A   1      52.932  27.252  26.735  1.00  0.00     0.020 A 
ATOM     68  C   UNL A   1      53.372  27.425  25.421  1.00  0.00     0.054 A 
BRANCH  68  69
ATOM     69  S   UNL A   1      55.095  27.077  24.974  1.00  0.00     0.124 S 
ATOM     70  O   UNL A   1      55.422  28.221  24.125  1.00  0.00    -0.237 OA
ATOM     71  O   UNL A   1      55.765  27.047  26.271  1.00  0.00    -0.237 OA
ATOM     72  O   UNL A   1      55.022  25.791  24.284  1.00  0.00    -0.744 OA
ENDBRANCH  68  69
ENDBRANCH  49  63
BRANCH  50  73
ATOM     73  C   UNL A   1      41.111  29.188  28.611  1.00  0.00    -0.014 A 
ATOM     74  C   UNL A   1      40.745  29.239  29.967  1.00  0.00     0.010 A 
ATOM     75  C   UNL A   1      40.116  29.331  27.627  1.00  0.00     0.010 A 
ATOM     76  C   UNL A   1      39.406  29.407  30.334  1.00  0.00     0.020 A 
ATOM     77  C   UNL A   1      38.781  29.524  27.990  1.00  0.00     0.020 A 
ATOM     78  C   UNL A   1      38.432  29.548  29.343  1.00  0.00     0.054 A 
BRANCH  78  79
ATOM     79  S   UNL A   1      36.707  29.817  29.839  1.00  0.00     0.124 S 
ATOM     80  O   UNL A   1      36.609  29.001  31.045  1.00  0.00    -0.237 OA
ATOM     81  O   UNL A   1      36.657  31.262  30.047  1.00  0.00    -0.237 OA
ATOM     82  O   UNL A   1      35.943  29.335  28.691  1.00  0.00    -0.744 OA
ENDBRANCH  78  79
ENDBRANCH  50  73
BRANCH  62  83
ATOM     83  C   UNL A   1      46.598  33.473  28.297  1.00  0.00    -0.014 A 
ATOM     84  C   UNL A   1      46.958  33.971  29.562  1.00  0.00     0.010 A 
ATOM     85  C   UNL A   1      46.393  34.374  27.237  1.00  0.00     0.010 A 
ATOM     86  C   UNL A   1      47.062  35.349  29.773  1.00  0.00     0.020 A 
ATOM     87  C   UNL A   1      46.523  35.750  27.437  1.00  0.00     0.020 A 
ATOM     88  C   UNL A   1      46.837  36.230  28.711  1.00  0.00     0.054 A 
BRANCH  88  89
ATOM     89  S   UNL A   1      46.990  38.013  29.002  1.00  0.00     0.124 S 
ATOM     90  O   UNL A   1      46.583  38.128  30.400  1.00  0.00    -0.237 OA
ATOM     91  O   UNL A   1      48.405  38.265  28.738  1.00  0.00    -0.237 OA
ATOM     92  O   UNL A   1      46.069  38.602  28.032  1.00  0.00    -0.744 OA
ENDBRANCH  88  89
ENDBRANCH  62  83
ENDBRANCH  36  37
ENDBRANCH  28  31
ENDBRANCH  26  27
ENDBRANCH  25  26
ENDBRANCH  24  25
ENDBRANCH  23  24
ENDBRANCH   1  23
TORSDOF 22
ENDMDL
MODEL 3
REMARK VINA RESULT:      -9.4      5.669      8.137
REMARK SMILES CCCc1sc(C(=O)NCCC(=O)NCCCCCCNC(=O)c2ccc(-c3c4nc(c(-c5ccc(S(=O)(=O)[O-])cc5)c5ccc([nH]5)c(-c5ccc(S(=O)(=O)[O-])cc5)c5nc(c(-c6ccc(S(=O)(=O)[O-])cc6)c6ccc3[nH]6)C=C5)C=C4)cc2)cc1CC
REMARK SMILES IDX 16 1 15 2 14 3 12 4 13 5 11 7 10 8 9 9 7 10 8 11 6 13 4 14
REMARK SMILES IDX 5 15 85 16 84 17 3 18 2 19 1 20 86 21 87 22 17 23 18 24
REMARK SMILES IDX 19 25 20 26 21 27 22 28 23 30 24 31 25 32 83 33 26 34 82 35
REMARK SMILES IDX 27 36 28 37 29 38 76 39 30 40 81 41 75 42 77 43 31 44 80 45
REMARK SMILES IDX 74 46 73 47 32 49 62 50 43 51 61 52 44 53 47 54 60 55 78 56
REMARK SMILES IDX 45 57 46 58 59 60 79 61 48 62 33 63 34 64 42 65 35 66 41 67
REMARK SMILES IDX 36 68 37 69 38 70 39 71 40 72 63 73 64 74 72 75 65 76 71 77
REMARK SMILES IDX 66 78 67 79 68 80 69 81 70 82 49 83 50 84 58 85 51 86 57 87
REMARK SMILES IDX 52 88 53 89 54 90 55 91 56 92
REMARK H PARENT 14 6 9 12 21 29 77 48 47 59
REMARK Flexibility Score: inf
ROOT
ATOM      1  C   UNL A   1      32.081  29.494  27.270  1.00  0.00     0.021 C 
ENDROOT
BRANCH   1   2
ATOM      2  C   UNL A   1      31.455  28.294  26.558  1.00  0.00     0.116 C 
BRANCH   2   3
ATOM      3  N   UNL A   1      31.321  28.555  25.137  1.00  0.00    -0.356 N 
ATOM      4  C   UNL A   1      30.992  27.693  24.135  1.00  0.00     0.221 C 
ATOM      5  O   UNL A   1      31.028  28.094  22.971  1.00  0.00    -0.275 OA
ATOM      6  H   UNL A   1      31.491  29.484  24.859  1.00  0.00     0.163 HD
BRANCH   4   7
ATOM      7  C   UNL A   1      30.590  26.269  24.452  1.00  0.00     0.121 C 
BRANCH   7   8
ATOM      8  C   UNL A   1      31.795  25.386  24.766  1.00  0.00     0.126 C 
BRANCH   8   9
ATOM      9  N   UNL A   1      31.644  24.640  26.006  1.00  0.00    -0.351 N 
ATOM     10  C   UNL A   1      32.001  23.373  26.400  1.00  0.00     0.261 C 
ATOM     11  O   UNL A   1      31.518  23.024  27.484  1.00  0.00    -0.268 OA
ATOM     12  H   UNL A   1      31.192  25.154  26.714  1.00  0.00     0.163 HD
BRANCH  10  13
ATOM     13  C   UNL A   1      32.927  22.565  25.625  1.00  0.00     0.092 A 
ATOM     14  C   UNL A   1      34.145  20.533  24.818  1.00  0.00     0.009 A 
ATOM     15  S   UNL A   1      32.560  20.906  25.386  1.00  0.00    -0.135 S 
ATOM     16  C   UNL A   1      34.908  21.686  24.708  1.00  0.00    -0.034 A 
ATOM     17  C   UNL A   1      34.133  22.851  25.030  1.00  0.00     0.029 A 
BRANCH  14  18
ATOM     18  C   UNL A   1      34.491  19.073  24.649  1.00  0.00     0.047 C 
BRANCH  18  19
ATOM     19  C   UNL A   1      33.417  18.196  23.999  1.00  0.00     0.002 C 
ATOM     20  C   UNL A   1      33.967  16.997  23.236  1.00  0.00     0.004 C 
ENDBRANCH  18  19
ENDBRANCH  14  18
BRANCH  16  21
ATOM     21  C   UNL A   1      36.366  21.814  24.389  1.00  0.00     0.033 C 
ATOM     22  C   UNL A   1      36.643  22.825  23.287  1.00  0.00     0.009 C 
ENDBRANCH  16  21
ENDBRANCH  10  13
ENDBRANCH   8   9
ENDBRANCH   7   8
ENDBRANCH   4   7
ENDBRANCH   2   3
ENDBRANCH   1   2
BRANCH   1  23
ATOM     23  C   UNL A   1      33.346  30.042  26.610  1.00  0.00     0.002 C 
BRANCH  23  24
ATOM     24  C   UNL A   1      34.284  30.815  27.539  1.00  0.00     0.002 C 
BRANCH  24  25
ATOM     25  C   UNL A   1      34.176  32.341  27.468  1.00  0.00     0.021 C 
BRANCH  25  26
ATOM     26  C   UNL A   1      32.789  32.912  27.755  1.00  0.00     0.116 C 
BRANCH  26  27
ATOM     27  N   UNL A   1      32.845  34.314  28.123  1.00  0.00    -0.352 N 
ATOM     28  C   UNL A   1      33.648  34.956  29.030  1.00  0.00     0.251 C 
ATOM     29  H   UNL A   1      32.207  34.895  27.650  1.00  0.00     0.163 HD
ATOM     30  O   UNL A   1      33.387  36.115  29.346  1.00  0.00    -0.269 OA
BRANCH  28  31
ATOM     31  C   UNL A   1      34.815  34.272  29.629  1.00  0.00     0.039 A 
ATOM     32  C   UNL A   1      34.604  33.431  30.726  1.00  0.00     0.014 A 
ATOM     33  C   UNL A   1      36.117  34.508  29.175  1.00  0.00     0.014 A 
ATOM     34  C   UNL A   1      35.689  32.818  31.355  1.00  0.00     0.010 A 
ATOM     35  C   UNL A   1      37.194  33.844  29.761  1.00  0.00     0.010 A 
ATOM     36  C   UNL A   1      36.993  33.017  30.876  1.00  0.00    -0.014 A 
BRANCH  36  37
ATOM     37  C   UNL A   1      38.155  32.411  31.575  1.00  0.00     0.031 A 
ATOM     38  C   UNL A   1      38.563  32.915  32.935  1.00  0.00     0.074 A 
ATOM     39  C   UNL A   1      38.851  31.419  30.986  1.00  0.00     0.049 A 
ATOM     40  N   UNL A   1      39.533  32.502  33.712  1.00  0.00    -0.248 NA
ATOM     41  C   UNL A   1      37.797  34.045  33.485  1.00  0.00     0.031 C 
ATOM     42  C   UNL A   1      38.581  30.871  29.655  1.00  0.00     0.029 A 
ATOM     43  N   UNL A   1      39.923  30.691  31.435  1.00  0.00    -0.354 N 
ATOM     44  C   UNL A   1      39.502  33.328  34.830  1.00  0.00     0.074 A 
ATOM     45  C   UNL A   1      38.450  34.297  34.609  1.00  0.00     0.031 C 
ATOM     46  C   UNL A   1      39.447  29.873  29.408  1.00  0.00     0.029 A 
ATOM     47  C   UNL A   1      40.343  29.725  30.551  1.00  0.00     0.049 A 
ATOM     48  H   UNL A   1      40.352  30.846  32.308  1.00  0.00     0.167 HD
ATOM     49  C   UNL A   1      40.261  33.274  35.950  1.00  0.00     0.031 A 
ATOM     50  C   UNL A   1      41.331  28.816  30.654  1.00  0.00     0.031 A 
ATOM     51  C   UNL A   1      41.294  32.299  36.177  1.00  0.00     0.049 A 
ATOM     52  C   UNL A   1      42.140  28.752  31.922  1.00  0.00     0.074 A 
ATOM     53  C   UNL A   1      42.093  32.132  37.295  1.00  0.00     0.029 A 
ATOM     54  N   UNL A   1      41.668  31.321  35.269  1.00  0.00    -0.354 N 
ATOM     55  N   UNL A   1      42.057  29.507  32.992  1.00  0.00    -0.248 NA
ATOM     56  C   UNL A   1      43.157  27.696  32.004  1.00  0.00     0.031 C 
ATOM     57  C   UNL A   1      42.972  31.071  37.049  1.00  0.00     0.029 A 
ATOM     58  C   UNL A   1      42.688  30.548  35.797  1.00  0.00     0.049 A 
ATOM     59  H   UNL A   1      41.267  31.194  34.378  1.00  0.00     0.167 HD
ATOM     60  C   UNL A   1      42.989  28.994  33.888  1.00  0.00     0.074 A 
ATOM     61  C   UNL A   1      43.612  27.859  33.238  1.00  0.00     0.031 C 
ATOM     62  C   UNL A   1      43.296  29.421  35.138  1.00  0.00     0.031 A 
BRANCH  49  63
ATOM     63  C   UNL A   1      39.996  34.305  37.016  1.00  0.00    -0.014 A 
ATOM     64  C   UNL A   1      39.096  34.048  38.068  1.00  0.00     0.010 A 
ATOM     65  C   UNL A   1      40.669  35.540  36.980  1.00  0.00     0.010 A 
ATOM     66  C   UNL A   1      38.838  35.023  39.034  1.00  0.00     0.020 A 
ATOM     67  C   UNL A   1      40.433  36.508  37.961  1.00  0.00     0.020 A 
ATOM     68  C   UNL A   1      39.503  36.251  38.971  1.00  0.00     0.054 A 
BRANCH  68  69
ATOM     69  S   UNL A   1      39.158  37.496  40.244  1.00  0.00     0.124 S 
ATOM     70  O   UNL A   1      40.484  38.069  40.470  1.00  0.00    -0.237 OA
ATOM     71  O   UNL A   1      38.201  38.378  39.581  1.00  0.00    -0.237 OA
ATOM     72  O   UNL A   1      38.618  36.717  41.355  1.00  0.00    -0.744 OA
ENDBRANCH  68  69
ENDBRANCH  49  63
BRANCH  50  73
ATOM     73  C   UNL A   1      41.579  27.861  29.542  1.00  0.00    -0.014 A 
ATOM     74  C   UNL A   1      40.751  26.737  29.370  1.00  0.00     0.010 A 
ATOM     75  C   UNL A   1      42.636  28.077  28.640  1.00  0.00     0.010 A 
ATOM     76  C   UNL A   1      40.989  25.834  28.329  1.00  0.00     0.020 A 
ATOM     77  C   UNL A   1      42.861  27.190  27.583  1.00  0.00     0.020 A 
ATOM     78  C   UNL A   1      42.043  26.066  27.442  1.00  0.00     0.054 A 
BRANCH  78  79
ATOM     79  S   UNL A   1      42.304  24.911  26.067  1.00  0.00     0.124 S 
ATOM     80  O   UNL A   1      41.929  25.723  24.914  1.00  0.00    -0.237 OA
ATOM     81  O   UNL A   1      43.725  24.594  26.183  1.00  0.00    -0.237 OA
ATOM     82  O   UNL A   1      41.402  23.805  26.376  1.00  0.00    -0.744 OA
ENDBRANCH  78  79
ENDBRANCH  50  73
BRANCH  62  83
ATOM     83  C   UNL A   1      44.319  28.626  35.903  1.00  0.00    -0.014 A 
ATOM     84  C   UNL A   1      45.690  28.927  35.823  1.00  0.00     0.010 A 
ATOM     85  C   UNL A   1      43.894  27.573  36.733  1.00  0.00     0.010 A 
ATOM     86  C   UNL A   1      46.623  28.156  36.523  1.00  0.00     0.020 A 
ATOM     87  C   UNL A   1      44.821  26.817  37.455  1.00  0.00     0.020 A 
ATOM     88  C   UNL A   1      46.182  27.101  37.329  1.00  0.00     0.054 A 
BRANCH  88  89
ATOM     89  S   UNL A   1      47.407  26.121  38.238  1.00  0.00     0.124 S 
ATOM     90  O   UNL A   1      46.603  25.555  39.317  1.00  0.00    -0.237 OA
ATOM     91  O   UNL A   1      47.870  25.166  37.233  1.00  0.00    -0.237 OA
ATOM     92  O   UNL A   1      48.402  27.108  38.652  1.00  0.00    -0.744 OA
ENDBRANCH  88  89
ENDBRANCH  62  83
ENDBRANCH  36  37
ENDBRANCH  28  31
ENDBRANCH  26  27
ENDBRANCH  25  26
ENDBRANCH  24  25
ENDBRANCH  23  24
ENDBRANCH   1  23
TORSDOF 22
ENDMDL
