MODEL 1
REMARK VINA RESULT:     -11.8      0.000      0.000
REMARK SMILES CC(C)(C)c1cc2c(cc1Cl)C=C(C(=O)NCCCCCCNC(=O)c1ccc(-c3c4nc(c(-c5ccc(S(=O)(=O)[O-])cc5)c5ccc([nH]5)c(-c5ccc(S(=O)(=O)[O-])cc5)c5nc(c(-c6ccc(S(=O)(=O)[O-])cc6)c6ccc3[nH]6)C=C5)C=C4)cc1)[C@@H](C(F)(F)F)O2
REMARK SMILES IDX 20 1 19 2 18 3 17 4 16 5 14 6 15 7 13 9 5 10 6 11 10 12 7 13
REMARK SMILES IDX 9 14 11 15 8 16 91 17 12 18 86 19 2 20 1 21 3 22 4 23 87 24
REMARK SMILES IDX 88 25 89 26 90 27 21 28 22 29 23 30 24 31 25 33 26 34 27 35
REMARK SMILES IDX 85 36 28 37 84 38 29 39 30 40 31 41 78 42 32 43 83 44 77 45
REMARK SMILES IDX 79 46 33 47 82 48 76 49 75 50 34 52 64 53 45 54 63 55 46 56
REMARK SMILES IDX 49 57 62 58 80 59 47 60 48 61 61 63 81 64 50 65 35 66 36 67
REMARK SMILES IDX 44 68 37 69 43 70 38 71 39 72 40 73 41 74 42 75 65 76 66 77
REMARK SMILES IDX 74 78 67 79 73 80 68 81 69 82 70 83 71 84 72 85 51 86 52 87
REMARK SMILES IDX 60 88 53 89 59 90 54 91 55 92 56 93 57 94 58 95
REMARK H PARENT 16 8 23 32 79 51 49 62
REMARK Flexibility Score: inf
ROOT
ATOM      1  C   UNL A   1      37.257  23.155  25.215  1.00  0.00     0.002 C 
ENDROOT
BRANCH   1   2
ATOM      2  C   UNL A   1      37.104  21.757  24.602  1.00  0.00     0.002 C 
BRANCH   2   3
ATOM      3  C   UNL A   1      35.693  21.158  24.652  1.00  0.00     0.021 C 
BRANCH   3   4
ATOM      4  C   UNL A   1      35.653  19.673  25.005  1.00  0.00     0.116 C 
BRANCH   4   5
ATOM      5  N   UNL A   1      34.293  19.162  25.029  1.00  0.00    -0.352 N 
ATOM      6  C   UNL A   1      33.039  19.667  25.031  1.00  0.00     0.251 C 
ATOM      7  O   UNL A   1      32.136  18.823  25.039  1.00  0.00    -0.270 OA
ATOM      8  H   UNL A   1      34.282  18.176  25.050  1.00  0.00     0.163 HD
BRANCH   6   9
ATOM      9  C   UNL A   1      32.685  21.119  25.031  1.00  0.00     0.067 C 
ATOM     10  C   UNL A   1      31.771  25.934  23.607  1.00  0.00    -0.020 A 
ATOM     11  C   UNL A   1      31.495  25.127  24.739  1.00  0.00     0.053 A 
ATOM     12  C   UNL A   1      32.432  25.285  22.541  1.00  0.00     0.045 A 
ATOM     13  C   UNL A   1      31.874  23.787  24.823  1.00  0.00     0.128 A 
ATOM     14  C   UNL A   1      32.801  23.925  22.630  1.00  0.00     0.032 A 
ATOM     15  Cl  UNL A   1      32.826  26.009  21.023  1.00  0.00    -0.084 Cl
ATOM     16  C   UNL A   1      32.523  23.173  23.768  1.00  0.00     0.019 A 
ATOM     17  O   UNL A   1      31.520  23.128  25.961  1.00  0.00    -0.475 OA
ATOM     18  C   UNL A   1      32.839  21.752  23.853  1.00  0.00     0.025 C 
ATOM     19  C   UNL A   1      32.225  21.887  26.241  1.00  0.00     0.314 C 
BRANCH  10  20
ATOM     20  C   UNL A   1      31.265  27.399  23.668  1.00  0.00    -0.012 C 
ATOM     21  C   UNL A   1      30.194  27.827  22.644  1.00  0.00     0.016 C 
ATOM     22  C   UNL A   1      32.444  28.388  23.454  1.00  0.00     0.016 C 
ATOM     23  C   UNL A   1      30.664  27.638  25.074  1.00  0.00     0.016 C 
ENDBRANCH  10  20
BRANCH  19  24
ATOM     24  C   UNL A   1      33.369  22.169  27.231  1.00  0.00     0.429 C 
ATOM     25  F   UNL A   1      32.877  22.600  28.417  1.00  0.00    -0.167 F 
ATOM     26  F   UNL A   1      34.104  21.065  27.497  1.00  0.00    -0.167 F 
ATOM     27  F   UNL A   1      34.224  23.112  26.773  1.00  0.00    -0.167 F 
ENDBRANCH  19  24
ENDBRANCH   6   9
ENDBRANCH   4   5
ENDBRANCH   3   4
ENDBRANCH   2   3
ENDBRANCH   1   2
BRANCH   1  28
ATOM     28  C   UNL A   1      38.247  23.269  26.377  1.00  0.00     0.021 C 
BRANCH  28  29
ATOM     29  C   UNL A   1      38.882  24.644  26.549  1.00  0.00     0.116 C 
BRANCH  29  30
ATOM     30  N   UNL A   1      40.075  24.813  25.733  1.00  0.00    -0.352 N 
ATOM     31  C   UNL A   1      41.139  25.659  25.933  1.00  0.00     0.251 C 
ATOM     32  H   UNL A   1      40.126  24.245  24.931  1.00  0.00     0.163 HD
ATOM     33  O   UNL A   1      42.004  25.786  25.071  1.00  0.00    -0.269 OA
BRANCH  31  34
ATOM     34  C   UNL A   1      41.211  26.443  27.184  1.00  0.00     0.039 A 
ATOM     35  C   UNL A   1      40.643  25.948  28.361  1.00  0.00     0.014 A 
ATOM     36  C   UNL A   1      41.803  27.708  27.161  1.00  0.00     0.014 A 
ATOM     37  C   UNL A   1      40.529  26.780  29.470  1.00  0.00     0.010 A 
ATOM     38  C   UNL A   1      41.749  28.516  28.299  1.00  0.00     0.010 A 
ATOM     39  C   UNL A   1      41.070  28.076  29.447  1.00  0.00    -0.014 A 
BRANCH  39  40
ATOM     40  C   UNL A   1      40.904  28.967  30.624  1.00  0.00     0.031 A 
ATOM     41  C   UNL A   1      39.799  29.989  30.658  1.00  0.00     0.074 A 
ATOM     42  C   UNL A   1      41.722  28.821  31.685  1.00  0.00     0.049 A 
ATOM     43  N   UNL A   1      39.515  30.858  31.593  1.00  0.00    -0.248 NA
ATOM     44  C   UNL A   1      38.891  30.040  29.499  1.00  0.00     0.031 C 
ATOM     45  C   UNL A   1      42.801  27.836  31.783  1.00  0.00     0.029 A 
ATOM     46  N   UNL A   1      41.759  29.478  32.888  1.00  0.00    -0.354 N 
ATOM     47  C   UNL A   1      38.412  31.567  31.133  1.00  0.00     0.074 A 
ATOM     48  C   UNL A   1      38.088  31.045  29.824  1.00  0.00     0.031 C 
ATOM     49  C   UNL A   1      43.360  27.919  32.999  1.00  0.00     0.029 A 
ATOM     50  C   UNL A   1      42.729  29.007  33.741  1.00  0.00     0.049 A 
ATOM     51  H   UNL A   1      41.151  30.217  33.118  1.00  0.00     0.167 HD
ATOM     52  C   UNL A   1      37.727  32.557  31.753  1.00  0.00     0.031 A 
ATOM     53  C   UNL A   1      43.087  29.410  34.977  1.00  0.00     0.031 A 
ATOM     54  C   UNL A   1      38.047  33.063  33.061  1.00  0.00     0.049 A 
ATOM     55  C   UNL A   1      42.358  30.557  35.614  1.00  0.00     0.074 A 
ATOM     56  C   UNL A   1      37.404  34.062  33.771  1.00  0.00     0.029 A 
ATOM     57  N   UNL A   1      39.087  32.610  33.857  1.00  0.00    -0.354 N 
ATOM     58  N   UNL A   1      41.331  31.229  35.153  1.00  0.00    -0.248 NA
ATOM     59  C   UNL A   1      42.837  31.009  36.928  1.00  0.00     0.031 C 
ATOM     60  C   UNL A   1      38.088  34.250  34.974  1.00  0.00     0.029 A 
ATOM     61  C   UNL A   1      39.120  33.327  35.041  1.00  0.00     0.049 A 
ATOM     62  H   UNL A   1      39.710  31.886  33.617  1.00  0.00     0.167 HD
ATOM     63  C   UNL A   1      41.037  32.181  36.120  1.00  0.00     0.074 A 
ATOM     64  C   UNL A   1      41.984  31.989  37.201  1.00  0.00     0.031 C 
ATOM     65  C   UNL A   1      40.071  33.130  36.107  1.00  0.00     0.031 A 
BRANCH  52  66
ATOM     66  C   UNL A   1      36.559  33.178  31.034  1.00  0.00    -0.014 A 
ATOM     67  C   UNL A   1      36.764  33.832  29.805  1.00  0.00     0.010 A 
ATOM     68  C   UNL A   1      35.284  33.218  31.626  1.00  0.00     0.010 A 
ATOM     69  C   UNL A   1      35.725  34.538  29.192  1.00  0.00     0.020 A 
ATOM     70  C   UNL A   1      34.235  33.903  31.005  1.00  0.00     0.020 A 
ATOM     71  C   UNL A   1      34.468  34.577  29.802  1.00  0.00     0.054 A 
BRANCH  71  72
ATOM     72  S   UNL A   1      33.132  35.507  29.002  1.00  0.00     0.124 S 
ATOM     73  O   UNL A   1      33.851  36.626  28.402  1.00  0.00    -0.237 OA
ATOM     74  O   UNL A   1      32.580  34.534  28.063  1.00  0.00    -0.237 OA
ATOM     75  O   UNL A   1      32.248  35.854  30.114  1.00  0.00    -0.744 OA
ENDBRANCH  71  72
ENDBRANCH  52  66
BRANCH  53  76
ATOM     76  C   UNL A   1      44.194  28.699  35.672  1.00  0.00    -0.014 A 
ATOM     77  C   UNL A   1      43.914  27.625  36.538  1.00  0.00     0.010 A 
ATOM     78  C   UNL A   1      45.516  29.160  35.557  1.00  0.00     0.010 A 
ATOM     79  C   UNL A   1      44.923  27.071  37.328  1.00  0.00     0.020 A 
ATOM     80  C   UNL A   1      46.534  28.589  36.328  1.00  0.00     0.020 A 
ATOM     81  C   UNL A   1      46.223  27.571  37.232  1.00  0.00     0.054 A 
BRANCH  81  82
ATOM     82  S   UNL A   1      47.505  26.888  38.319  1.00  0.00     0.124 S 
ATOM     83  O   UNL A   1      48.473  27.980  38.360  1.00  0.00    -0.237 OA
ATOM     84  O   UNL A   1      46.778  26.643  39.562  1.00  0.00    -0.237 OA
ATOM     85  O   UNL A   1      47.945  25.688  37.611  1.00  0.00    -0.744 OA
ENDBRANCH  81  82
ENDBRANCH  53  76
BRANCH  65  86
ATOM     86  C   UNL A   1      39.966  34.059  37.285  1.00  0.00    -0.014 A 
ATOM     87  C   UNL A   1      39.113  33.733  38.356  1.00  0.00     0.010 A 
ATOM     88  C   UNL A   1      40.582  35.322  37.255  1.00  0.00     0.010 A 
ATOM     89  C   UNL A   1      38.838  34.672  39.353  1.00  0.00     0.020 A 
ATOM     90  C   UNL A   1      40.328  36.256  38.263  1.00  0.00     0.020 A 
ATOM     91  C   UNL A   1      39.435  35.935  39.288  1.00  0.00     0.054 A 
BRANCH  91  92
ATOM     92  S   UNL A   1      39.017  37.163  40.556  1.00  0.00     0.124 S 
ATOM     93  O   UNL A   1      38.230  36.376  41.499  1.00  0.00    -0.237 OA
ATOM     94  O   UNL A   1      40.329  37.592  41.035  1.00  0.00    -0.237 OA
ATOM     95  O   UNL A   1      38.272  38.179  39.814  1.00  0.00    -0.744 OA
ENDBRANCH  91  92
ENDBRANCH  65  86
ENDBRANCH  39  40
ENDBRANCH  31  34
ENDBRANCH  29  30
ENDBRANCH  28  29
ENDBRANCH   1  28
TORSDOF 18
ENDMDL
MODEL 2
REMARK VINA RESULT:     -11.8      6.263     11.497
REMARK SMILES CC(C)(C)c1cc2c(cc1Cl)C=C(C(=O)NCCCCCCNC(=O)c1ccc(-c3c4nc(c(-c5ccc(S(=O)(=O)[O-])cc5)c5ccc([nH]5)c(-c5ccc(S(=O)(=O)[O-])cc5)c5nc(c(-c6ccc(S(=O)(=O)[O-])cc6)c6ccc3[nH]6)C=C5)C=C4)cc1)[C@@H](C(F)(F)F)O2
REMARK SMILES IDX 20 1 19 2 18 3 17 4 16 5 14 6 15 7 13 9 5 10 6 11 10 12 7 13
REMARK SMILES IDX 9 14 11 15 8 16 91 17 12 18 86 19 2 20 1 21 3 22 4 23 87 24
REMARK SMILES IDX 88 25 89 26 90 27 21 28 22 29 23 30 24 31 25 33 26 34 27 35
REMARK SMILES IDX 85 36 28 37 84 38 29 39 30 40 31 41 78 42 32 43 83 44 77 45
REMARK SMILES IDX 79 46 33 47 82 48 76 49 75 50 34 52 64 53 45 54 63 55 46 56
REMARK SMILES IDX 49 57 62 58 80 59 47 60 48 61 61 63 81 64 50 65 35 66 36 67
REMARK SMILES IDX 44 68 37 69 43 70 38 71 39 72 40 73 41 74 42 75 65 76 66 77
REMARK SMILES IDX 74 78 67 79 73 80 68 81 69 82 70 83 71 84 72 85 51 86 52 87
REMARK SMILES IDX 60 88 53 89 59 90 54 91 55 92 56 93 57 94 58 95
REMARK H PARENT 16 8 23 32 79 51 49 62
REMARK Flexibility Score: inf
ROOT
ATOM      1  C   UNL A   1      33.933  31.974  27.717  1.00  0.00     0.002 C 
ENDROOT
BRANCH   1   2
ATOM      2  C   UNL A   1      34.470  30.558  27.470  1.00  0.00     0.002 C 
BRANCH   2   3
ATOM      3  C   UNL A   1      33.589  29.654  26.600  1.00  0.00     0.021 C 
BRANCH   3   4
ATOM      4  C   UNL A   1      32.219  30.241  26.271  1.00  0.00     0.116 C 
BRANCH   4   5
ATOM      5  N   UNL A   1      31.799  29.907  24.921  1.00  0.00    -0.352 N 
ATOM      6  C   UNL A   1      31.689  28.795  24.159  1.00  0.00     0.251 C 
ATOM      7  O   UNL A   1      31.250  28.985  23.019  1.00  0.00    -0.270 OA
ATOM      8  H   UNL A   1      31.518  30.710  24.424  1.00  0.00     0.163 HD
BRANCH   6   9
ATOM      9  C   UNL A   1      32.053  27.409  24.582  1.00  0.00     0.067 C 
ATOM     10  C   UNL A   1      34.416  22.917  25.120  1.00  0.00    -0.020 A 
ATOM     11  C   UNL A   1      33.411  23.639  25.811  1.00  0.00     0.053 A 
ATOM     12  C   UNL A   1      34.984  23.575  24.008  1.00  0.00     0.045 A 
ATOM     13  C   UNL A   1      32.977  24.903  25.411  1.00  0.00     0.128 A 
ATOM     14  C   UNL A   1      34.548  24.860  23.617  1.00  0.00     0.032 A 
ATOM     15  Cl  UNL A   1      36.271  22.957  23.033  1.00  0.00    -0.084 Cl
ATOM     16  C   UNL A   1      33.546  25.528  24.316  1.00  0.00     0.019 A 
ATOM     17  O   UNL A   1      32.022  25.488  26.185  1.00  0.00    -0.475 OA
ATOM     18  C   UNL A   1      33.128  26.879  23.967  1.00  0.00     0.025 C 
ATOM     19  C   UNL A   1      31.288  26.594  25.589  1.00  0.00     0.314 C 
BRANCH  10  20
ATOM     20  C   UNL A   1      34.794  21.533  25.708  1.00  0.00    -0.012 C 
ATOM     21  C   UNL A   1      36.289  21.155  25.741  1.00  0.00     0.016 C 
ATOM     22  C   UNL A   1      34.111  20.396  24.897  1.00  0.00     0.016 C 
ATOM     23  C   UNL A   1      34.283  21.478  27.167  1.00  0.00     0.016 C 
ENDBRANCH  10  20
BRANCH  19  24
ATOM     24  C   UNL A   1      29.953  26.068  25.031  1.00  0.00     0.429 C 
ATOM     25  F   UNL A   1      29.241  27.075  24.470  1.00  0.00    -0.167 F 
ATOM     26  F   UNL A   1      30.129  25.136  24.065  1.00  0.00    -0.167 F 
ATOM     27  F   UNL A   1      29.182  25.503  25.988  1.00  0.00    -0.167 F 
ENDBRANCH  19  24
ENDBRANCH   6   9
ENDBRANCH   4   5
ENDBRANCH   3   4
ENDBRANCH   2   3
ENDBRANCH   1   2
BRANCH   1  28
ATOM     28  C   UNL A   1      34.896  32.940  28.412  1.00  0.00     0.021 C 
BRANCH  28  29
ATOM     29  C   UNL A   1      36.107  32.284  29.064  1.00  0.00     0.116 C 
BRANCH  29  30
ATOM     30  N   UNL A   1      35.820  31.790  30.402  1.00  0.00    -0.352 N 
ATOM     31  C   UNL A   1      36.459  30.798  31.107  1.00  0.00     0.251 C 
ATOM     32  H   UNL A   1      35.067  32.224  30.864  1.00  0.00     0.163 HD
ATOM     33  O   UNL A   1      36.001  30.399  32.174  1.00  0.00    -0.269 OA
BRANCH  31  34
ATOM     34  C   UNL A   1      37.685  30.191  30.547  1.00  0.00     0.039 A 
ATOM     35  C   UNL A   1      38.661  29.661  31.394  1.00  0.00     0.014 A 
ATOM     36  C   UNL A   1      37.881  30.208  29.164  1.00  0.00     0.014 A 
ATOM     37  C   UNL A   1      39.895  29.289  30.872  1.00  0.00     0.010 A 
ATOM     38  C   UNL A   1      39.096  29.768  28.634  1.00  0.00     0.010 A 
ATOM     39  C   UNL A   1      40.130  29.350  29.488  1.00  0.00    -0.014 A 
BRANCH  39  40
ATOM     40  C   UNL A   1      41.466  28.990  28.949  1.00  0.00     0.031 A 
ATOM     41  C   UNL A   1      42.586  29.997  28.948  1.00  0.00     0.074 A 
ATOM     42  C   UNL A   1      41.685  27.738  28.505  1.00  0.00     0.049 A 
ATOM     43  N   UNL A   1      43.809  29.862  28.504  1.00  0.00    -0.248 NA
ATOM     44  C   UNL A   1      42.301  31.324  29.523  1.00  0.00     0.031 C 
ATOM     45  C   UNL A   1      40.689  26.664  28.498  1.00  0.00     0.029 A 
ATOM     46  N   UNL A   1      42.816  27.147  28.000  1.00  0.00    -0.354 N 
ATOM     47  C   UNL A   1      44.434  31.084  28.729  1.00  0.00     0.074 A 
ATOM     48  C   UNL A   1      43.450  31.958  29.329  1.00  0.00     0.031 C 
ATOM     49  C   UNL A   1      41.265  25.535  28.061  1.00  0.00     0.029 A 
ATOM     50  C   UNL A   1      42.650  25.817  27.691  1.00  0.00     0.049 A 
ATOM     51  H   UNL A   1      43.664  27.629  27.870  1.00  0.00     0.167 HD
ATOM     52  C   UNL A   1      45.714  31.438  28.467  1.00  0.00     0.031 A 
ATOM     53  C   UNL A   1      43.505  24.923  27.156  1.00  0.00     0.031 A 
ATOM     54  C   UNL A   1      46.690  30.558  27.882  1.00  0.00     0.049 A 
ATOM     55  C   UNL A   1      44.899  25.360  26.809  1.00  0.00     0.074 A 
ATOM     56  C   UNL A   1      48.015  30.828  27.586  1.00  0.00     0.029 A 
ATOM     57  N   UNL A   1      46.457  29.243  27.512  1.00  0.00    -0.354 N 
ATOM     58  N   UNL A   1      45.463  26.525  27.010  1.00  0.00    -0.248 NA
ATOM     59  C   UNL A   1      45.768  24.371  26.156  1.00  0.00     0.031 C 
ATOM     60  C   UNL A   1      48.568  29.694  26.988  1.00  0.00     0.029 A 
ATOM     61  C   UNL A   1      47.606  28.696  26.967  1.00  0.00     0.049 A 
ATOM     62  H   UNL A   1      45.601  28.767  27.622  1.00  0.00     0.167 HD
ATOM     63  C   UNL A   1      46.755  26.411  26.512  1.00  0.00     0.074 A 
ATOM     64  C   UNL A   1      46.895  25.057  26.015  1.00  0.00     0.031 C 
ATOM     65  C   UNL A   1      47.732  27.348  26.470  1.00  0.00     0.031 A 
BRANCH  52  66
ATOM     66  C   UNL A   1      46.152  32.839  28.801  1.00  0.00    -0.014 A 
ATOM     67  C   UNL A   1      45.978  33.867  27.857  1.00  0.00     0.010 A 
ATOM     68  C   UNL A   1      46.839  33.115  29.996  1.00  0.00     0.010 A 
ATOM     69  C   UNL A   1      46.505  35.141  28.087  1.00  0.00     0.020 A 
ATOM     70  C   UNL A   1      47.349  34.395  30.241  1.00  0.00     0.020 A 
ATOM     71  C   UNL A   1      47.196  35.394  29.274  1.00  0.00     0.054 A 
BRANCH  71  72
ATOM     72  S   UNL A   1      47.887  37.048  29.554  1.00  0.00     0.124 S 
ATOM     73  O   UNL A   1      46.744  37.772  30.098  1.00  0.00    -0.237 OA
ATOM     74  O   UNL A   1      48.976  36.787  30.493  1.00  0.00    -0.237 OA
ATOM     75  O   UNL A   1      48.317  37.466  28.221  1.00  0.00    -0.744 OA
ENDBRANCH  71  72
ENDBRANCH  52  66
BRANCH  53  76
ATOM     76  C   UNL A   1      43.038  23.529  26.930  1.00  0.00    -0.014 A 
ATOM     77  C   UNL A   1      43.004  22.611  27.997  1.00  0.00     0.010 A 
ATOM     78  C   UNL A   1      42.734  23.084  25.633  1.00  0.00     0.010 A 
ATOM     79  C   UNL A   1      42.741  21.260  27.760  1.00  0.00     0.020 A 
ATOM     80  C   UNL A   1      42.442  21.736  25.397  1.00  0.00     0.020 A 
ATOM     81  C   UNL A   1      42.481  20.829  26.458  1.00  0.00     0.054 A 
BRANCH  81  82
ATOM     82  S   UNL A   1      42.213  19.059  26.160  1.00  0.00     0.124 S 
ATOM     83  O   UNL A   1      43.174  18.788  25.095  1.00  0.00    -0.237 OA
ATOM     84  O   UNL A   1      42.525  18.462  27.456  1.00  0.00    -0.237 OA
ATOM     85  O   UNL A   1      40.808  18.991  25.768  1.00  0.00    -0.744 OA
ENDBRANCH  81  82
ENDBRANCH  53  76
BRANCH  65  86
ATOM     86  C   UNL A   1      49.055  26.974  25.861  1.00  0.00    -0.014 A 
ATOM     87  C   UNL A   1      50.026  26.326  26.648  1.00  0.00     0.010 A 
ATOM     88  C   UNL A   1      49.394  27.408  24.568  1.00  0.00     0.010 A 
ATOM     89  C   UNL A   1      51.328  26.161  26.172  1.00  0.00     0.020 A 
ATOM     90  C   UNL A   1      50.690  27.225  24.079  1.00  0.00     0.020 A 
ATOM     91  C   UNL A   1      51.655  26.629  24.896  1.00  0.00     0.054 A 
BRANCH  91  92
ATOM     92  S   UNL A   1      53.367  26.465  24.318  1.00  0.00     0.124 S 
ATOM     93  O   UNL A   1      53.198  25.741  23.061  1.00  0.00    -0.237 OA
ATOM     94  O   UNL A   1      53.800  27.854  24.191  1.00  0.00    -0.237 OA
ATOM     95  O   UNL A   1      54.018  25.714  25.389  1.00  0.00    -0.744 OA
ENDBRANCH  91  92
ENDBRANCH  65  86
ENDBRANCH  39  40
ENDBRANCH  31  34
ENDBRANCH  29  30
ENDBRANCH  28  29
ENDBRANCH   1  28
TORSDOF 18
ENDMDL
MODEL 3
REMARK VINA RESULT:     -11.6      5.138      9.996
REMARK SMILES CC(C)(C)c1cc2c(cc1Cl)C=C(C(=O)NCCCCCCNC(=O)c1ccc(-c3c4nc(c(-c5ccc(S(=O)(=O)[O-])cc5)c5ccc([nH]5)c(-c5ccc(S(=O)(=O)[O-])cc5)c5nc(c(-c6ccc(S(=O)(=O)[O-])cc6)c6ccc3[nH]6)C=C5)C=C4)cc1)[C@@H](C(F)(F)F)O2
REMARK SMILES IDX 20 1 19 2 18 3 17 4 16 5 14 6 15 7 13 9 5 10 6 11 10 12 7 13
REMARK SMILES IDX 9 14 11 15 8 16 91 17 12 18 86 19 2 20 1 21 3 22 4 23 87 24
REMARK SMILES IDX 88 25 89 26 90 27 21 28 22 29 23 30 24 31 25 33 26 34 27 35
REMARK SMILES IDX 85 36 28 37 84 38 29 39 30 40 31 41 78 42 32 43 83 44 77 45
REMARK SMILES IDX 79 46 33 47 82 48 76 49 75 50 34 52 64 53 45 54 63 55 46 56
REMARK SMILES IDX 49 57 62 58 80 59 47 60 48 61 61 63 81 64 50 65 35 66 36 67
REMARK SMILES IDX 44 68 37 69 43 70 38 71 39 72 40 73 41 74 42 75 65 76 66 77
REMARK SMILES IDX 74 78 67 79 73 80 68 81 69 82 70 83 71 84 72 85 51 86 52 87
REMARK SMILES IDX 60 88 53 89 59 90 54 91 55 92 56 93 57 94 58 95
REMARK H PARENT 16 8 23 32 79 51 49 62
REMARK Flexibility Score: inf
ROOT
ATOM      1  C   UNL A   1      48.438  25.169  28.181  1.00  0.00     0.002 C 
ENDROOT
BRANCH   1   2
ATOM      2  C   UNL A   1      46.967  24.799  27.947  1.00  0.00     0.002 C 
BRANCH   2   3
ATOM      3  C   UNL A   1      46.678  23.984  26.681  1.00  0.00     0.021 C 
BRANCH   3   4
ATOM      4  C   UNL A   1      45.414  23.132  26.756  1.00  0.00     0.116 C 
BRANCH   4   5
ATOM      5  N   UNL A   1      44.924  23.014  28.119  1.00  0.00    -0.352 N 
ATOM      6  C   UNL A   1      43.729  23.033  28.752  1.00  0.00     0.251 C 
ATOM      7  O   UNL A   1      43.785  22.870  29.977  1.00  0.00    -0.270 OA
ATOM      8  H   UNL A   1      45.664  22.885  28.756  1.00  0.00     0.163 HD
BRANCH   6   9
ATOM      9  C   UNL A   1      42.400  23.236  28.100  1.00  0.00     0.067 C 
ATOM     10  C   UNL A   1      37.942  22.477  25.733  1.00  0.00    -0.020 A 
ATOM     11  C   UNL A   1      38.553  23.528  26.462  1.00  0.00     0.053 A 
ATOM     12  C   UNL A   1      38.692  21.285  25.637  1.00  0.00     0.045 A 
ATOM     13  C   UNL A   1      39.825  23.419  27.023  1.00  0.00     0.128 A 
ATOM     14  C   UNL A   1      39.974  21.179  26.219  1.00  0.00     0.032 A 
ATOM     15  Cl  UNL A   1      38.160  19.830  24.871  1.00  0.00    -0.084 Cl
ATOM     16  C   UNL A   1      40.544  22.242  26.914  1.00  0.00     0.019 A 
ATOM     17  O   UNL A   1      40.276  24.501  27.717  1.00  0.00    -0.475 OA
ATOM     18  C   UNL A   1      41.837  22.130  27.577  1.00  0.00     0.025 C 
ATOM     19  C   UNL A   1      41.707  24.565  27.966  1.00  0.00     0.314 C 
BRANCH  10  20
ATOM     20  C   UNL A   1      36.517  22.757  25.190  1.00  0.00    -0.012 C 
ATOM     21  C   UNL A   1      36.316  22.715  23.661  1.00  0.00     0.016 C 
ATOM     22  C   UNL A   1      36.043  24.173  25.618  1.00  0.00     0.016 C 
ATOM     23  C   UNL A   1      35.559  21.707  25.799  1.00  0.00     0.016 C 
ENDBRANCH  10  20
BRANCH  19  24
ATOM     24  C   UNL A   1      42.362  25.468  26.905  1.00  0.00     0.429 C 
ATOM     25  F   UNL A   1      41.531  26.480  26.561  1.00  0.00    -0.167 F 
ATOM     26  F   UNL A   1      43.504  26.042  27.351  1.00  0.00    -0.167 F 
ATOM     27  F   UNL A   1      42.676  24.792  25.776  1.00  0.00    -0.167 F 
ENDBRANCH  19  24
ENDBRANCH   6   9
ENDBRANCH   4   5
ENDBRANCH   3   4
ENDBRANCH   2   3
ENDBRANCH   1   2
BRANCH   1  28
ATOM     28  C   UNL A   1      49.380  24.936  26.998  1.00  0.00     0.021 C 
BRANCH  28  29
ATOM     29  C   UNL A   1      50.403  26.042  26.764  1.00  0.00     0.116 C 
BRANCH  29  30
ATOM     30  N   UNL A   1      50.325  26.598  25.423  1.00  0.00    -0.352 N 
ATOM     31  C   UNL A   1      49.426  27.511  24.922  1.00  0.00     0.251 C 
ATOM     32  H   UNL A   1      51.006  26.279  24.788  1.00  0.00     0.163 HD
ATOM     33  O   UNL A   1      49.406  27.771  23.722  1.00  0.00    -0.269 OA
BRANCH  31  34
ATOM     34  C   UNL A   1      48.459  28.148  25.841  1.00  0.00     0.039 A 
ATOM     35  C   UNL A   1      48.906  28.986  26.865  1.00  0.00     0.014 A 
ATOM     36  C   UNL A   1      47.100  27.855  25.707  1.00  0.00     0.014 A 
ATOM     37  C   UNL A   1      48.014  29.407  27.846  1.00  0.00     0.010 A 
ATOM     38  C   UNL A   1      46.195  28.336  26.656  1.00  0.00     0.010 A 
ATOM     39  C   UNL A   1      46.652  29.076  27.759  1.00  0.00    -0.014 A 
BRANCH  39  40
ATOM     40  C   UNL A   1      45.719  29.496  28.835  1.00  0.00     0.031 A 
ATOM     41  C   UNL A   1      45.441  28.586  30.003  1.00  0.00     0.074 A 
ATOM     42  C   UNL A   1      45.159  30.720  28.786  1.00  0.00     0.049 A 
ATOM     43  N   UNL A   1      44.645  28.781  31.022  1.00  0.00    -0.248 NA
ATOM     44  C   UNL A   1      46.149  27.294  30.035  1.00  0.00     0.031 C 
ATOM     45  C   UNL A   1      45.388  31.705  27.727  1.00  0.00     0.029 A 
ATOM     46  N   UNL A   1      44.307  31.355  29.653  1.00  0.00    -0.354 N 
ATOM     47  C   UNL A   1      44.743  27.637  31.807  1.00  0.00     0.074 A 
ATOM     48  C   UNL A   1      45.658  26.740  31.136  1.00  0.00     0.031 C 
ATOM     49  C   UNL A   1      44.736  32.836  28.032  1.00  0.00     0.029 A 
ATOM     50  C   UNL A   1      43.987  32.636  29.270  1.00  0.00     0.049 A 
ATOM     51  H   UNL A   1      43.958  30.934  30.471  1.00  0.00     0.167 HD
ATOM     52  C   UNL A   1      44.132  27.367  32.984  1.00  0.00     0.031 A 
ATOM     53  C   UNL A   1      43.171  33.547  29.836  1.00  0.00     0.031 A 
ATOM     54  C   UNL A   1      43.233  28.270  33.652  1.00  0.00     0.049 A 
ATOM     55  C   UNL A   1      42.450  33.197  31.105  1.00  0.00     0.074 A 
ATOM     56  C   UNL A   1      42.571  28.083  34.853  1.00  0.00     0.029 A 
ATOM     57  N   UNL A   1      42.875  29.526  33.188  1.00  0.00    -0.354 N 
ATOM     58  N   UNL A   1      42.539  32.102  31.819  1.00  0.00    -0.248 NA
ATOM     59  C   UNL A   1      41.512  34.194  31.640  1.00  0.00     0.031 C 
ATOM     60  C   UNL A   1      41.771  29.204  35.088  1.00  0.00     0.029 A 
ATOM     61  C   UNL A   1      41.982  30.115  34.066  1.00  0.00     0.049 A 
ATOM     62  H   UNL A   1      43.208  29.938  32.358  1.00  0.00     0.167 HD
ATOM     63  C   UNL A   1      41.672  32.278  32.891  1.00  0.00     0.074 A 
ATOM     64  C   UNL A   1      41.079  33.591  32.741  1.00  0.00     0.031 C 
ATOM     65  C   UNL A   1      41.394  31.422  33.903  1.00  0.00     0.031 A 
BRANCH  52  66
ATOM     66  C   UNL A   1      44.399  26.039  33.641  1.00  0.00    -0.014 A 
ATOM     67  C   UNL A   1      45.315  25.959  34.706  1.00  0.00     0.010 A 
ATOM     68  C   UNL A   1      43.836  24.855  33.132  1.00  0.00     0.010 A 
ATOM     69  C   UNL A   1      45.686  24.720  35.234  1.00  0.00     0.020 A 
ATOM     70  C   UNL A   1      44.187  23.614  33.673  1.00  0.00     0.020 A 
ATOM     71  C   UNL A   1      45.127  23.553  34.707  1.00  0.00     0.054 A 
BRANCH  71  72
ATOM     72  S   UNL A   1      45.627  21.951  35.394  1.00  0.00     0.124 S 
ATOM     73  O   UNL A   1      46.977  21.795  34.863  1.00  0.00    -0.237 OA
ATOM     74  O   UNL A   1      45.536  22.176  36.835  1.00  0.00    -0.237 OA
ATOM     75  O   UNL A   1      44.631  21.025  34.856  1.00  0.00    -0.744 OA
ENDBRANCH  71  72
ENDBRANCH  52  66
BRANCH  53  76
ATOM     76  C   UNL A   1      43.016  34.876  29.184  1.00  0.00    -0.014 A 
ATOM     77  C   UNL A   1      43.989  35.875  29.371  1.00  0.00     0.010 A 
ATOM     78  C   UNL A   1      41.846  35.183  28.469  1.00  0.00     0.010 A 
ATOM     79  C   UNL A   1      43.765  37.176  28.913  1.00  0.00     0.020 A 
ATOM     80  C   UNL A   1      41.632  36.478  27.985  1.00  0.00     0.020 A 
ATOM     81  C   UNL A   1      42.578  37.473  28.241  1.00  0.00     0.054 A 
BRANCH  81  82
ATOM     82  S   UNL A   1      42.273  39.183  27.718  1.00  0.00     0.124 S 
ATOM     83  O   UNL A   1      41.449  39.686  28.813  1.00  0.00    -0.237 OA
ATOM     84  O   UNL A   1      43.620  39.741  27.636  1.00  0.00    -0.237 OA
ATOM     85  O   UNL A   1      41.587  39.029  26.438  1.00  0.00    -0.744 OA
ENDBRANCH  81  82
ENDBRANCH  53  76
BRANCH  65  86
ATOM     86  C   UNL A   1      40.398  31.849  34.946  1.00  0.00    -0.014 A 
ATOM     87  C   UNL A   1      40.849  32.445  36.138  1.00  0.00     0.010 A 
ATOM     88  C   UNL A   1      39.040  31.512  34.815  1.00  0.00     0.010 A 
ATOM     89  C   UNL A   1      39.970  32.653  37.202  1.00  0.00     0.020 A 
ATOM     90  C   UNL A   1      38.151  31.740  35.870  1.00  0.00     0.020 A 
ATOM     91  C   UNL A   1      38.629  32.281  37.066  1.00  0.00     0.054 A 
BRANCH  91  92
ATOM     92  S   UNL A   1      37.514  32.500  38.480  1.00  0.00     0.124 S 
ATOM     93  O   UNL A   1      37.463  31.153  39.041  1.00  0.00    -0.237 OA
ATOM     94  O   UNL A   1      38.213  33.493  39.292  1.00  0.00    -0.237 OA
ATOM     95  O   UNL A   1      36.273  32.969  37.868  1.00  0.00    -0.744 OA
ENDBRANCH  91  92
ENDBRANCH  65  86
ENDBRANCH  39  40
ENDBRANCH  31  34
ENDBRANCH  29  30
ENDBRANCH  28  29
ENDBRANCH   1  28
TORSDOF 18
ENDMDL
