MODEL 1
REMARK VINA RESULT:     -12.4      0.000      0.000
REMARK SMILES O=C(NCCCCCCNC(=O)[C@@H]1CCCC[C@@H]1C(=O)Nc1nc(-c2ccc(Cl)c(Cl)c2)cs1)c1ccc(-c2c3nc(c(-c4ccc(S(=O)(=O)[O-])cc4)c4ccc([nH]4)c(-c4ccc(S(=O)(=O)[O-])cc4)c4nc(c(-c5ccc(S(=O)(=O)[O-])cc5)c5ccc2[nH]5)C=C4)C=C3)cc1
REMARK SMILES IDX 6 1 5 2 4 3 3 4 1 5 2 6 35 8 36 9 94 10 37 11 93 12 38 13
REMARK SMILES IDX 39 14 40 15 87 16 41 17 92 18 86 19 88 20 42 21 91 22 85 23
REMARK SMILES IDX 84 24 43 26 73 27 54 28 72 29 55 30 58 31 71 32 89 33 56 34
REMARK SMILES IDX 57 35 70 37 90 38 59 39 44 40 45 41 53 42 46 43 52 44 47 45
REMARK SMILES IDX 48 46 49 47 50 48 51 49 74 50 75 51 83 52 76 53 82 54 77 55
REMARK SMILES IDX 78 56 79 57 80 58 81 59 60 60 61 61 69 62 62 63 68 64 63 65
REMARK SMILES IDX 64 66 65 67 66 68 67 69 7 70 8 71 9 72 10 73 11 74 12 76
REMARK SMILES IDX 13 77 14 78 18 79 15 80 17 81 16 82 19 83 20 84 21 85 22 87
REMARK SMILES IDX 23 88 34 89 24 90 33 91 25 92 26 93 32 94 27 95 30 96 28 97
REMARK SMILES IDX 31 98 29 99
REMARK H PARENT 3 7 88 25 58 36 10 75 21 86
REMARK Flexibility Score: inf
ROOT
ATOM      1  C   UNL A   1      36.509  24.115  25.655  1.00  0.00     0.002 C 
ENDROOT
BRANCH   1   2
ATOM      2  C   UNL A   1      37.721  23.297  26.085  1.00  0.00     0.021 C 
BRANCH   2   3
ATOM      3  C   UNL A   1      38.770  24.102  26.829  1.00  0.00     0.116 C 
BRANCH   3   4
ATOM      4  N   UNL A   1      39.832  24.543  25.941  1.00  0.00    -0.352 N 
ATOM      5  O   UNL A   1      41.316  26.022  25.116  1.00  0.00    -0.269 OA
ATOM      6  C   UNL A   1      40.652  25.639  26.073  1.00  0.00     0.251 C 
ATOM      7  H   UNL A   1      39.985  23.986  25.144  1.00  0.00     0.163 HD
BRANCH   6   8
ATOM      8  C   UNL A   1      40.730  26.347  27.372  1.00  0.00     0.039 A 
ATOM      9  C   UNL A   1      41.752  27.272  27.612  1.00  0.00     0.014 A 
ATOM     10  C   UNL A   1      39.740  26.134  28.337  1.00  0.00     0.014 A 
ATOM     11  C   UNL A   1      41.845  27.905  28.842  1.00  0.00     0.010 A 
ATOM     12  C   UNL A   1      39.769  26.858  29.532  1.00  0.00     0.010 A 
ATOM     13  C   UNL A   1      40.814  27.761  29.782  1.00  0.00    -0.014 A 
BRANCH  13  14
ATOM     14  C   UNL A   1      40.748  28.727  30.905  1.00  0.00     0.031 A 
ATOM     15  C   UNL A   1      41.655  28.626  32.092  1.00  0.00     0.074 A 
ATOM     16  C   UNL A   1      39.826  29.709  30.815  1.00  0.00     0.049 A 
ATOM     17  N   UNL A   1      41.694  29.392  33.152  1.00  0.00    -0.248 NA
ATOM     18  C   UNL A   1      42.636  27.529  32.107  1.00  0.00     0.031 C 
ATOM     19  C   UNL A   1      38.877  29.874  29.705  1.00  0.00     0.029 A 
ATOM     20  N   UNL A   1      39.537  30.758  31.646  1.00  0.00    -0.354 N 
ATOM     21  C   UNL A   1      42.675  28.855  33.975  1.00  0.00     0.074 A 
ATOM     22  C   UNL A   1      43.213  27.698  33.292  1.00  0.00     0.031 C 
ATOM     23  C   UNL A   1      38.152  30.981  29.900  1.00  0.00     0.029 A 
ATOM     24  C   UNL A   1      38.515  31.556  31.186  1.00  0.00     0.049 A 
ATOM     25  H   UNL A   1      40.014  30.925  32.491  1.00  0.00     0.167 HD
ATOM     26  C   UNL A   1      43.075  29.292  35.193  1.00  0.00     0.031 A 
ATOM     27  C   UNL A   1      37.901  32.610  31.752  1.00  0.00     0.031 A 
ATOM     28  C   UNL A   1      42.529  30.455  35.847  1.00  0.00     0.049 A 
ATOM     29  C   UNL A   1      38.355  33.050  33.111  1.00  0.00     0.074 A 
ATOM     30  C   UNL A   1      42.914  31.021  37.050  1.00  0.00     0.029 A 
ATOM     31  N   UNL A   1      41.477  31.217  35.365  1.00  0.00    -0.354 N 
ATOM     32  N   UNL A   1      39.332  32.570  33.842  1.00  0.00    -0.248 NA
ATOM     33  C   UNL A   1      37.617  34.157  33.730  1.00  0.00     0.031 C 
ATOM     34  C   UNL A   1      42.054  32.089  37.324  1.00  0.00     0.029 A 
ATOM     35  C   UNL A   1      41.168  32.221  36.268  1.00  0.00     0.049 A 
ATOM     36  H   UNL A   1      41.017  31.068  34.507  1.00  0.00     0.167 HD
ATOM     37  C   UNL A   1      39.321  33.311  35.013  1.00  0.00     0.074 A 
ATOM     38  C   UNL A   1      38.265  34.295  34.877  1.00  0.00     0.031 C 
ATOM     39  C   UNL A   1      40.103  33.179  36.112  1.00  0.00     0.031 A 
BRANCH  26  40
ATOM     40  C   UNL A   1      44.124  28.503  35.928  1.00  0.00    -0.014 A 
ATOM     41  C   UNL A   1      43.785  27.382  36.707  1.00  0.00     0.010 A 
ATOM     42  C   UNL A   1      45.482  28.828  35.748  1.00  0.00     0.010 A 
ATOM     43  C   UNL A   1      44.788  26.608  37.302  1.00  0.00     0.020 A 
ATOM     44  C   UNL A   1      46.487  28.045  36.326  1.00  0.00     0.020 A 
ATOM     45  C   UNL A   1      46.131  26.942  37.105  1.00  0.00     0.054 A 
BRANCH  45  46
ATOM     46  S   UNL A   1      47.411  25.882  37.835  1.00  0.00     0.124 S 
ATOM     47  O   UNL A   1      48.635  26.495  37.330  1.00  0.00    -0.237 OA
ATOM     48  O   UNL A   1      47.176  26.038  39.268  1.00  0.00    -0.237 OA
ATOM     49  O   UNL A   1      47.111  24.556  37.300  1.00  0.00    -0.744 OA
ENDBRANCH  45  46
ENDBRANCH  26  40
BRANCH  27  50
ATOM     50  C   UNL A   1      36.750  33.256  31.068  1.00  0.00    -0.014 A 
ATOM     51  C   UNL A   1      35.447  33.145  31.579  1.00  0.00     0.010 A 
ATOM     52  C   UNL A   1      36.964  34.008  29.896  1.00  0.00     0.010 A 
ATOM     53  C   UNL A   1      34.376  33.755  30.919  1.00  0.00     0.020 A 
ATOM     54  C   UNL A   1      35.901  34.647  29.252  1.00  0.00     0.020 A 
ATOM     55  C   UNL A   1      34.610  34.501  29.759  1.00  0.00     0.054 A 
BRANCH  55  56
ATOM     56  S   UNL A   1      33.213  35.313  28.935  1.00  0.00     0.124 S 
ATOM     57  O   UNL A   1      32.665  34.227  28.131  1.00  0.00    -0.237 OA
ATOM     58  O   UNL A   1      32.389  35.748  30.060  1.00  0.00    -0.237 OA
ATOM     59  O   UNL A   1      33.845  36.395  28.183  1.00  0.00    -0.744 OA
ENDBRANCH  55  56
ENDBRANCH  27  50
BRANCH  39  60
ATOM     60  C   UNL A   1      39.838  34.122  37.249  1.00  0.00    -0.014 A 
ATOM     61  C   UNL A   1      38.985  33.749  38.303  1.00  0.00     0.010 A 
ATOM     62  C   UNL A   1      40.488  35.367  37.292  1.00  0.00     0.010 A 
ATOM     63  C   UNL A   1      38.770  34.617  39.374  1.00  0.00     0.020 A 
ATOM     64  C   UNL A   1      40.295  36.228  38.374  1.00  0.00     0.020 A 
ATOM     65  C   UNL A   1      39.429  35.850  39.404  1.00  0.00     0.054 A 
BRANCH  65  66
ATOM     66  S   UNL A   1      39.182  36.935  40.836  1.00  0.00     0.124 S 
ATOM     67  O   UNL A   1      38.503  36.047  41.775  1.00  0.00    -0.237 OA
ATOM     68  O   UNL A   1      40.548  37.306  41.196  1.00  0.00    -0.237 OA
ATOM     69  O   UNL A   1      38.365  38.024  40.307  1.00  0.00    -0.744 OA
ENDBRANCH  65  66
ENDBRANCH  39  60
ENDBRANCH  13  14
ENDBRANCH   6   8
ENDBRANCH   3   4
ENDBRANCH   2   3
ENDBRANCH   1   2
BRANCH   1  70
ATOM     70  C   UNL A   1      35.149  23.439  25.859  1.00  0.00     0.002 C 
BRANCH  70  71
ATOM     71  C   UNL A   1      33.908  24.344  25.964  1.00  0.00     0.021 C 
BRANCH  71  72
ATOM     72  C   UNL A   1      32.939  24.068  27.116  1.00  0.00     0.116 C 
BRANCH  72  73
ATOM     73  N   UNL A   1      31.587  24.485  26.797  1.00  0.00    -0.356 N 
ATOM     74  C   UNL A   1      31.094  25.690  26.404  1.00  0.00     0.223 C 
ATOM     75  H   UNL A   1      30.910  23.774  26.878  1.00  0.00     0.163 HD
ATOM     76  O   UNL A   1      29.869  25.772  26.311  1.00  0.00    -0.275 OA
BRANCH  74  77
ATOM     77  C   UNL A   1      32.030  26.886  26.230  1.00  0.00     0.091 C 
ATOM     78  C   UNL A   1      31.528  27.951  27.222  1.00  0.00     0.014 C 
ATOM     79  C   UNL A   1      32.184  27.414  24.774  1.00  0.00     0.091 C 
ATOM     80  C   UNL A   1      32.288  29.262  27.123  1.00  0.00     0.001 C 
ATOM     81  C   UNL A   1      32.757  28.850  24.701  1.00  0.00     0.014 C 
ATOM     82  C   UNL A   1      32.173  29.824  25.718  1.00  0.00     0.001 C 
BRANCH  79  83
ATOM     83  C   UNL A   1      30.935  27.306  23.885  1.00  0.00     0.230 C 
ATOM     84  O   UNL A   1      30.091  28.210  23.872  1.00  0.00    -0.274 OA
ATOM     85  N   UNL A   1      30.716  26.235  23.069  1.00  0.00    -0.302 N 
ATOM     86  H   UNL A   1      29.914  26.282  22.500  1.00  0.00     0.172 HD
BRANCH  85  87
ATOM     87  C   UNL A   1      31.473  25.107  22.946  1.00  0.00     0.189 A 
ATOM     88  N   UNL A   1      31.322  23.941  23.516  1.00  0.00    -0.220 NA
ATOM     89  S   UNL A   1      32.777  25.244  21.849  1.00  0.00    -0.105 S 
ATOM     90  C   UNL A   1      32.284  23.068  23.049  1.00  0.00     0.084 A 
ATOM     91  C   UNL A   1      33.153  23.586  22.111  1.00  0.00     0.097 A 
BRANCH  90  92
ATOM     92  C   UNL A   1      32.259  21.683  23.462  1.00  0.00     0.003 A 
ATOM     93  C   UNL A   1      32.401  21.399  24.818  1.00  0.00     0.012 A 
ATOM     94  C   UNL A   1      32.195  20.634  22.544  1.00  0.00     0.032 A 
ATOM     95  C   UNL A   1      32.513  20.082  25.260  1.00  0.00     0.023 A 
ATOM     96  C   UNL A   1      32.290  19.307  22.989  1.00  0.00     0.060 A 
ATOM     97  C   UNL A   1      32.460  19.031  24.350  1.00  0.00     0.059 A 
ATOM     98  Cl  UNL A   1      32.212  18.054  21.803  1.00  0.00    -0.083 Cl
ATOM     99  Cl  UNL A   1      32.620  17.430  24.975  1.00  0.00    -0.083 Cl
ENDBRANCH  90  92
ENDBRANCH  85  87
ENDBRANCH  79  83
ENDBRANCH  74  77
ENDBRANCH  72  73
ENDBRANCH  71  72
ENDBRANCH  70  71
ENDBRANCH   1  70
TORSDOF 19
ENDMDL
MODEL 2
REMARK VINA RESULT:     -12.1      2.406      8.234
REMARK SMILES O=C(NCCCCCCNC(=O)[C@@H]1CCCC[C@@H]1C(=O)Nc1nc(-c2ccc(Cl)c(Cl)c2)cs1)c1ccc(-c2c3nc(c(-c4ccc(S(=O)(=O)[O-])cc4)c4ccc([nH]4)c(-c4ccc(S(=O)(=O)[O-])cc4)c4nc(c(-c5ccc(S(=O)(=O)[O-])cc5)c5ccc2[nH]5)C=C4)C=C3)cc1
REMARK SMILES IDX 6 1 5 2 4 3 3 4 1 5 2 6 35 8 36 9 94 10 37 11 93 12 38 13
REMARK SMILES IDX 39 14 40 15 87 16 41 17 92 18 86 19 88 20 42 21 91 22 85 23
REMARK SMILES IDX 84 24 43 26 73 27 54 28 72 29 55 30 58 31 71 32 89 33 56 34
REMARK SMILES IDX 57 35 70 37 90 38 59 39 44 40 45 41 53 42 46 43 52 44 47 45
REMARK SMILES IDX 48 46 49 47 50 48 51 49 74 50 75 51 83 52 76 53 82 54 77 55
REMARK SMILES IDX 78 56 79 57 80 58 81 59 60 60 61 61 69 62 62 63 68 64 63 65
REMARK SMILES IDX 64 66 65 67 66 68 67 69 7 70 8 71 9 72 10 73 11 74 12 76
REMARK SMILES IDX 13 77 14 78 18 79 15 80 17 81 16 82 19 83 20 84 21 85 22 87
REMARK SMILES IDX 23 88 34 89 24 90 33 91 25 92 26 93 32 94 27 95 30 96 28 97
REMARK SMILES IDX 31 98 29 99
REMARK H PARENT 3 7 88 25 58 36 10 75 21 86
REMARK Flexibility Score: inf
ROOT
ATOM      1  C   UNL A   1      35.391  22.384  25.812  1.00  0.00     0.002 C 
ENDROOT
BRANCH   1   2
ATOM      2  C   UNL A   1      36.818  21.853  25.733  1.00  0.00     0.021 C 
BRANCH   2   3
ATOM      3  C   UNL A   1      37.880  22.931  25.838  1.00  0.00     0.116 C 
BRANCH   3   4
ATOM      4  N   UNL A   1      39.218  22.369  25.786  1.00  0.00    -0.352 N 
ATOM      5  O   UNL A   1      41.467  22.459  25.750  1.00  0.00    -0.269 OA
ATOM      6  C   UNL A   1      40.411  22.978  26.093  1.00  0.00     0.251 C 
ATOM      7  H   UNL A   1      39.278  21.430  25.494  1.00  0.00     0.163 HD
BRANCH   6   8
ATOM      8  C   UNL A   1      40.412  24.257  26.841  1.00  0.00     0.039 A 
ATOM      9  C   UNL A   1      39.795  24.344  28.094  1.00  0.00     0.014 A 
ATOM     10  C   UNL A   1      41.086  25.365  26.317  1.00  0.00     0.014 A 
ATOM     11  C   UNL A   1      39.764  25.552  28.774  1.00  0.00     0.010 A 
ATOM     12  C   UNL A   1      41.153  26.549  27.055  1.00  0.00     0.010 A 
ATOM     13  C   UNL A   1      40.506  26.643  28.296  1.00  0.00    -0.014 A 
BRANCH  13  14
ATOM     14  C   UNL A   1      40.762  27.774  29.220  1.00  0.00     0.031 A 
ATOM     15  C   UNL A   1      39.777  28.887  29.403  1.00  0.00     0.074 A 
ATOM     16  C   UNL A   1      41.933  27.764  29.891  1.00  0.00     0.049 A 
ATOM     17  N   UNL A   1      39.880  29.945  30.164  1.00  0.00    -0.248 NA
ATOM     18  C   UNL A   1      38.522  28.817  28.638  1.00  0.00     0.031 C 
ATOM     19  C   UNL A   1      42.972  26.733  29.756  1.00  0.00     0.029 A 
ATOM     20  N   UNL A   1      42.450  28.623  30.824  1.00  0.00    -0.354 N 
ATOM     21  C   UNL A   1      38.726  30.686  29.947  1.00  0.00     0.074 A 
ATOM     22  C   UNL A   1      37.930  29.954  28.985  1.00  0.00     0.031 C 
ATOM     23  C   UNL A   1      43.970  26.991  30.609  1.00  0.00     0.029 A 
ATOM     24  C   UNL A   1      43.692  28.250  31.284  1.00  0.00     0.049 A 
ATOM     25  H   UNL A   1      41.979  29.429  31.134  1.00  0.00     0.167 HD
ATOM     26  C   UNL A   1      38.378  31.872  30.500  1.00  0.00     0.031 A 
ATOM     27  C   UNL A   1      44.540  28.869  32.123  1.00  0.00     0.031 A 
ATOM     28  C   UNL A   1      39.185  32.575  31.465  1.00  0.00     0.049 A 
ATOM     29  C   UNL A   1      44.130  30.192  32.697  1.00  0.00     0.074 A 
ATOM     30  C   UNL A   1      38.890  33.749  32.137  1.00  0.00     0.029 A 
ATOM     31  N   UNL A   1      40.447  32.183  31.882  1.00  0.00    -0.354 N 
ATOM     32  N   UNL A   1      43.003  30.841  32.532  1.00  0.00    -0.248 NA
ATOM     33  C   UNL A   1      45.108  30.875  33.552  1.00  0.00     0.031 C 
ATOM     34  C   UNL A   1      39.999  34.097  32.914  1.00  0.00     0.029 A 
ATOM     35  C   UNL A   1      40.965  33.114  32.767  1.00  0.00     0.049 A 
ATOM     36  H   UNL A   1      40.908  31.362  31.593  1.00  0.00     0.167 HD
ATOM     37  C   UNL A   1      43.139  32.016  33.256  1.00  0.00     0.074 A 
ATOM     38  C   UNL A   1      44.441  31.969  33.890  1.00  0.00     0.031 C 
ATOM     39  C   UNL A   1      42.270  33.048  33.373  1.00  0.00     0.031 A 
BRANCH  26  40
ATOM     40  C   UNL A   1      37.092  32.517  30.060  1.00  0.00    -0.014 A 
ATOM     41  C   UNL A   1      35.889  32.302  30.756  1.00  0.00     0.010 A 
ATOM     42  C   UNL A   1      37.111  33.435  28.993  1.00  0.00     0.010 A 
ATOM     43  C   UNL A   1      34.727  32.987  30.386  1.00  0.00     0.020 A 
ATOM     44  C   UNL A   1      35.956  34.136  28.632  1.00  0.00     0.020 A 
ATOM     45  C   UNL A   1      34.769  33.902  29.329  1.00  0.00     0.054 A 
BRANCH  45  46
ATOM     46  S   UNL A   1      33.262  34.825  28.913  1.00  0.00     0.124 S 
ATOM     47  O   UNL A   1      32.609  34.938  30.214  1.00  0.00    -0.237 OA
ATOM     48  O   UNL A   1      33.791  36.071  28.366  1.00  0.00    -0.237 OA
ATOM     49  O   UNL A   1      32.582  33.964  27.947  1.00  0.00    -0.744 OA
ENDBRANCH  45  46
ENDBRANCH  26  40
BRANCH  27  50
ATOM     50  C   UNL A   1      45.877  28.281  32.398  1.00  0.00    -0.014 A 
ATOM     51  C   UNL A   1      46.964  28.520  31.540  1.00  0.00     0.010 A 
ATOM     52  C   UNL A   1      46.072  27.485  33.543  1.00  0.00     0.010 A 
ATOM     53  C   UNL A   1      48.213  27.955  31.812  1.00  0.00     0.020 A 
ATOM     54  C   UNL A   1      47.326  26.946  33.835  1.00  0.00     0.020 A 
ATOM     55  C   UNL A   1      48.386  27.170  32.957  1.00  0.00     0.054 A 
BRANCH  55  56
ATOM     56  S   UNL A   1      50.023  26.472  33.310  1.00  0.00     0.124 S 
ATOM     57  O   UNL A   1      49.976  25.210  32.581  1.00  0.00    -0.237 OA
ATOM     58  O   UNL A   1      50.925  27.485  32.768  1.00  0.00    -0.237 OA
ATOM     59  O   UNL A   1      50.035  26.356  34.767  1.00  0.00    -0.744 OA
ENDBRANCH  55  56
ENDBRANCH  27  50
BRANCH  39  60
ATOM     60  C   UNL A   1      42.709  34.210  34.216  1.00  0.00    -0.014 A 
ATOM     61  C   UNL A   1      42.568  34.173  35.614  1.00  0.00     0.010 A 
ATOM     62  C   UNL A   1      43.318  35.323  33.611  1.00  0.00     0.010 A 
ATOM     63  C   UNL A   1      43.010  35.242  36.395  1.00  0.00     0.020 A 
ATOM     64  C   UNL A   1      43.784  36.383  34.390  1.00  0.00     0.020 A 
ATOM     65  C   UNL A   1      43.618  36.339  35.777  1.00  0.00     0.054 A 
BRANCH  65  66
ATOM     66  S   UNL A   1      44.240  37.689  36.817  1.00  0.00     0.124 S 
ATOM     67  O   UNL A   1      45.503  37.139  37.303  1.00  0.00    -0.237 OA
ATOM     68  O   UNL A   1      44.359  38.794  35.869  1.00  0.00    -0.237 OA
ATOM     69  O   UNL A   1      43.200  37.852  37.830  1.00  0.00    -0.744 OA
ENDBRANCH  65  66
ENDBRANCH  39  60
ENDBRANCH  13  14
ENDBRANCH   6   8
ENDBRANCH   3   4
ENDBRANCH   2   3
ENDBRANCH   1   2
BRANCH   1  70
ATOM     70  C   UNL A   1      34.684  22.184  27.156  1.00  0.00     0.002 C 
BRANCH  70  71
ATOM     71  C   UNL A   1      33.467  23.075  27.466  1.00  0.00     0.021 C 
BRANCH  71  72
ATOM     72  C   UNL A   1      33.186  24.231  26.504  1.00  0.00     0.116 C 
BRANCH  72  73
ATOM     73  N   UNL A   1      31.790  24.625  26.527  1.00  0.00    -0.356 N 
ATOM     74  C   UNL A   1      31.206  25.845  26.385  1.00  0.00     0.223 C 
ATOM     75  H   UNL A   1      31.159  23.884  26.670  1.00  0.00     0.163 HD
ATOM     76  O   UNL A   1      29.987  25.888  26.563  1.00  0.00    -0.275 OA
BRANCH  74  77
ATOM     77  C   UNL A   1      32.063  27.089  26.152  1.00  0.00     0.091 C 
ATOM     78  C   UNL A   1      31.560  28.133  27.165  1.00  0.00     0.014 C 
ATOM     79  C   UNL A   1      32.105  27.612  24.687  1.00  0.00     0.091 C 
ATOM     80  C   UNL A   1      32.239  29.482  27.016  1.00  0.00     0.001 C 
ATOM     81  C   UNL A   1      32.594  29.077  24.575  1.00  0.00     0.014 C 
ATOM     82  C   UNL A   1      32.015  30.025  25.617  1.00  0.00     0.001 C 
BRANCH  79  83
ATOM     83  C   UNL A   1      30.816  27.429  23.871  1.00  0.00     0.230 C 
ATOM     84  O   UNL A   1      29.941  28.303  23.870  1.00  0.00    -0.274 OA
ATOM     85  N   UNL A   1      30.592  26.321  23.107  1.00  0.00    -0.302 N 
ATOM     86  H   UNL A   1      29.760  26.319  22.581  1.00  0.00     0.172 HD
BRANCH  85  87
ATOM     87  C   UNL A   1      31.381  25.215  22.985  1.00  0.00     0.189 A 
ATOM     88  N   UNL A   1      31.192  24.007  23.448  1.00  0.00    -0.220 NA
ATOM     89  S   UNL A   1      32.793  25.450  22.050  1.00  0.00    -0.105 S 
ATOM     90  C   UNL A   1      32.218  23.184  23.026  1.00  0.00     0.084 A 
ATOM     91  C   UNL A   1      33.172  23.781  22.229  1.00  0.00     0.097 A 
BRANCH  90  92
ATOM     92  C   UNL A   1      32.176  21.771  23.330  1.00  0.00     0.003 A 
ATOM     93  C   UNL A   1      32.278  21.384  24.663  1.00  0.00     0.012 A 
ATOM     94  C   UNL A   1      32.133  20.796  22.333  1.00  0.00     0.032 A 
ATOM     95  C   UNL A   1      32.374  20.036  25.007  1.00  0.00     0.023 A 
ATOM     96  C   UNL A   1      32.212  19.439  22.678  1.00  0.00     0.060 A 
ATOM     97  C   UNL A   1      32.343  19.058  24.017  1.00  0.00     0.059 A 
ATOM     98  Cl  UNL A   1      32.162  18.281  21.397  1.00  0.00    -0.083 Cl
ATOM     99  Cl  UNL A   1      32.480  17.413  24.521  1.00  0.00    -0.083 Cl
ENDBRANCH  90  92
ENDBRANCH  85  87
ENDBRANCH  79  83
ENDBRANCH  74  77
ENDBRANCH  72  73
ENDBRANCH  71  72
ENDBRANCH  70  71
ENDBRANCH   1  70
TORSDOF 19
ENDMDL
MODEL 3
REMARK VINA RESULT:     -12.1      6.049     10.336
REMARK SMILES O=C(NCCCCCCNC(=O)[C@@H]1CCCC[C@@H]1C(=O)Nc1nc(-c2ccc(Cl)c(Cl)c2)cs1)c1ccc(-c2c3nc(c(-c4ccc(S(=O)(=O)[O-])cc4)c4ccc([nH]4)c(-c4ccc(S(=O)(=O)[O-])cc4)c4nc(c(-c5ccc(S(=O)(=O)[O-])cc5)c5ccc2[nH]5)C=C4)C=C3)cc1
REMARK SMILES IDX 6 1 5 2 4 3 3 4 1 5 2 6 35 8 36 9 94 10 37 11 93 12 38 13
REMARK SMILES IDX 39 14 40 15 87 16 41 17 92 18 86 19 88 20 42 21 91 22 85 23
REMARK SMILES IDX 84 24 43 26 73 27 54 28 72 29 55 30 58 31 71 32 89 33 56 34
REMARK SMILES IDX 57 35 70 37 90 38 59 39 44 40 45 41 53 42 46 43 52 44 47 45
REMARK SMILES IDX 48 46 49 47 50 48 51 49 74 50 75 51 83 52 76 53 82 54 77 55
REMARK SMILES IDX 78 56 79 57 80 58 81 59 60 60 61 61 69 62 62 63 68 64 63 65
REMARK SMILES IDX 64 66 65 67 66 68 67 69 7 70 8 71 9 72 10 73 11 74 12 76
REMARK SMILES IDX 13 77 14 78 18 79 15 80 17 81 16 82 19 83 20 84 21 85 22 87
REMARK SMILES IDX 23 88 34 89 24 90 33 91 25 92 26 93 32 94 27 95 30 96 28 97
REMARK SMILES IDX 31 98 29 99
REMARK H PARENT 3 7 88 25 58 36 10 75 21 86
REMARK Flexibility Score: inf
ROOT
ATOM      1  C   UNL A   1      37.269  22.595  24.622  1.00  0.00     0.002 C 
ENDROOT
BRANCH   1   2
ATOM      2  C   UNL A   1      37.792  21.289  25.209  1.00  0.00     0.021 C 
BRANCH   2   3
ATOM      3  C   UNL A   1      39.012  21.462  26.095  1.00  0.00     0.116 C 
BRANCH   3   4
ATOM      4  N   UNL A   1      39.830  20.262  26.115  1.00  0.00    -0.352 N 
ATOM      5  O   UNL A   1      41.738  19.092  25.871  1.00  0.00    -0.269 OA
ATOM      6  C   UNL A   1      41.201  20.166  26.118  1.00  0.00     0.251 C 
ATOM      7  H   UNL A   1      39.340  19.408  26.128  1.00  0.00     0.163 HD
BRANCH   6   8
ATOM      8  C   UNL A   1      42.021  21.361  26.425  1.00  0.00     0.039 A 
ATOM      9  C   UNL A   1      42.384  22.249  25.406  1.00  0.00     0.014 A 
ATOM     10  C   UNL A   1      42.380  21.634  27.749  1.00  0.00     0.014 A 
ATOM     11  C   UNL A   1      43.184  23.346  25.689  1.00  0.00     0.010 A 
ATOM     12  C   UNL A   1      43.088  22.800  28.050  1.00  0.00     0.010 A 
ATOM     13  C   UNL A   1      43.478  23.672  27.022  1.00  0.00    -0.014 A 
BRANCH  13  14
ATOM     14  C   UNL A   1      43.996  25.030  27.313  1.00  0.00     0.031 A 
ATOM     15  C   UNL A   1      43.111  26.123  27.829  1.00  0.00     0.074 A 
ATOM     16  C   UNL A   1      45.310  25.246  27.089  1.00  0.00     0.049 A 
ATOM     17  N   UNL A   1      43.428  27.360  28.109  1.00  0.00    -0.248 NA
ATOM     18  C   UNL A   1      41.692  25.800  28.052  1.00  0.00     0.031 C 
ATOM     19  C   UNL A   1      46.249  24.247  26.560  1.00  0.00     0.029 A 
ATOM     20  N   UNL A   1      46.091  26.353  27.284  1.00  0.00    -0.354 N 
ATOM     21  C   UNL A   1      42.249  27.975  28.508  1.00  0.00     0.074 A 
ATOM     22  C   UNL A   1      41.206  26.974  28.439  1.00  0.00     0.031 C 
ATOM     23  C   UNL A   1      47.480  24.769  26.522  1.00  0.00     0.029 A 
ATOM     24  C   UNL A   1      47.408  26.163  26.934  1.00  0.00     0.049 A 
ATOM     25  H   UNL A   1      45.745  27.203  27.639  1.00  0.00     0.167 HD
ATOM     26  C   UNL A   1      42.066  29.262  28.887  1.00  0.00     0.031 A 
ATOM     27  C   UNL A   1      48.442  27.022  26.903  1.00  0.00     0.031 A 
ATOM     28  C   UNL A   1      43.124  30.237  28.958  1.00  0.00     0.049 A 
ATOM     29  C   UNL A   1      48.195  28.444  27.307  1.00  0.00     0.074 A 
ATOM     30  C   UNL A   1      43.055  31.548  29.396  1.00  0.00     0.029 A 
ATOM     31  N   UNL A   1      44.436  30.016  28.568  1.00  0.00    -0.354 N 
ATOM     32  N   UNL A   1      47.085  28.987  27.748  1.00  0.00    -0.248 NA
ATOM     33  C   UNL A   1      49.326  29.371  27.193  1.00  0.00     0.031 C 
ATOM     34  C   UNL A   1      44.310  32.136  29.213  1.00  0.00     0.029 A 
ATOM     35  C   UNL A   1      45.175  31.178  28.711  1.00  0.00     0.049 A 
ATOM     36  H   UNL A   1      44.790  29.158  28.238  1.00  0.00     0.167 HD
ATOM     37  C   UNL A   1      47.383  30.326  27.956  1.00  0.00     0.074 A 
ATOM     38  C   UNL A   1      48.785  30.500  27.629  1.00  0.00     0.031 C 
ATOM     39  C   UNL A   1      46.566  31.326  28.366  1.00  0.00     0.031 A 
BRANCH  26  40
ATOM     40  C   UNL A   1      40.670  29.717  29.222  1.00  0.00    -0.014 A 
ATOM     41  C   UNL A   1      39.628  29.634  28.282  1.00  0.00     0.010 A 
ATOM     42  C   UNL A   1      40.379  30.137  30.533  1.00  0.00     0.010 A 
ATOM     43  C   UNL A   1      38.321  29.973  28.647  1.00  0.00     0.020 A 
ATOM     44  C   UNL A   1      39.070  30.459  30.906  1.00  0.00     0.020 A 
ATOM     45  C   UNL A   1      38.050  30.380  29.957  1.00  0.00     0.054 A 
BRANCH  45  46
ATOM     46  S   UNL A   1      36.334  30.751  30.418  1.00  0.00     0.124 S 
ATOM     47  O   UNL A   1      35.690  30.874  29.114  1.00  0.00    -0.237 OA
ATOM     48  O   UNL A   1      35.951  29.577  31.198  1.00  0.00    -0.237 OA
ATOM     49  O   UNL A   1      36.439  31.993  31.181  1.00  0.00    -0.744 OA
ENDBRANCH  45  46
ENDBRANCH  26  40
BRANCH  27  50
ATOM     50  C   UNL A   1      49.767  26.574  26.400  1.00  0.00    -0.014 A 
ATOM     51  C   UNL A   1      50.156  26.811  25.071  1.00  0.00     0.010 A 
ATOM     52  C   UNL A   1      50.660  25.915  27.268  1.00  0.00     0.010 A 
ATOM     53  C   UNL A   1      51.405  26.378  24.615  1.00  0.00     0.020 A 
ATOM     54  C   UNL A   1      51.921  25.511  26.824  1.00  0.00     0.020 A 
ATOM     55  C   UNL A   1      52.278  25.729  25.493  1.00  0.00     0.054 A 
BRANCH  55  56
ATOM     56  S   UNL A   1      53.907  25.204  24.892  1.00  0.00     0.124 S 
ATOM     57  O   UNL A   1      53.776  23.752  24.897  1.00  0.00    -0.237 OA
ATOM     58  O   UNL A   1      53.977  25.830  23.573  1.00  0.00    -0.237 OA
ATOM     59  O   UNL A   1      54.829  25.756  25.882  1.00  0.00    -0.744 OA
ENDBRANCH  55  56
ENDBRANCH  27  50
BRANCH  39  60
ATOM     60  C   UNL A   1      47.173  32.694  28.476  1.00  0.00    -0.014 A 
ATOM     61  C   UNL A   1      47.814  33.097  29.660  1.00  0.00     0.010 A 
ATOM     62  C   UNL A   1      47.151  33.561  27.370  1.00  0.00     0.010 A 
ATOM     63  C   UNL A   1      48.407  34.358  29.744  1.00  0.00     0.020 A 
ATOM     64  C   UNL A   1      47.764  34.813  27.442  1.00  0.00     0.020 A 
ATOM     65  C   UNL A   1      48.380  35.207  28.633  1.00  0.00     0.054 A 
BRANCH  65  66
ATOM     66  S   UNL A   1      49.210  36.815  28.745  1.00  0.00     0.124 S 
ATOM     67  O   UNL A   1      48.702  37.331  30.014  1.00  0.00    -0.237 OA
ATOM     68  O   UNL A   1      50.624  36.447  28.737  1.00  0.00    -0.237 OA
ATOM     69  O   UNL A   1      48.750  37.525  27.554  1.00  0.00    -0.744 OA
ENDBRANCH  65  66
ENDBRANCH  39  60
ENDBRANCH  13  14
ENDBRANCH   6   8
ENDBRANCH   3   4
ENDBRANCH   2   3
ENDBRANCH   1   2
BRANCH   1  70
ATOM     70  C   UNL A   1      36.920  23.685  25.640  1.00  0.00     0.002 C 
BRANCH  70  71
ATOM     71  C   UNL A   1      35.472  23.742  26.162  1.00  0.00     0.021 C 
BRANCH  71  72
ATOM     72  C   UNL A   1      34.531  24.749  25.497  1.00  0.00     0.116 C 
BRANCH  72  73
ATOM     73  N   UNL A   1      33.220  24.754  26.119  1.00  0.00    -0.356 N 
ATOM     74  C   UNL A   1      32.267  25.722  26.185  1.00  0.00     0.223 C 
ATOM     75  H   UNL A   1      32.979  23.913  26.570  1.00  0.00     0.163 HD
ATOM     76  O   UNL A   1      31.285  25.472  26.885  1.00  0.00    -0.275 OA
BRANCH  74  77
ATOM     77  C   UNL A   1      32.502  27.081  25.523  1.00  0.00     0.091 C 
ATOM     78  C   UNL A   1      32.174  28.128  26.604  1.00  0.00     0.014 C 
ATOM     79  C   UNL A   1      31.750  27.315  24.181  1.00  0.00     0.091 C 
ATOM     80  C   UNL A   1      32.260  29.555  26.095  1.00  0.00     0.001 C 
ATOM     81  C   UNL A   1      31.652  28.809  23.787  1.00  0.00     0.014 C 
ATOM     82  C   UNL A   1      31.304  29.750  24.933  1.00  0.00     0.001 C 
BRANCH  79  83
ATOM     83  C   UNL A   1      30.368  26.653  24.062  1.00  0.00     0.230 C 
ATOM     84  O   UNL A   1      29.339  27.294  24.306  1.00  0.00    -0.274 OA
ATOM     85  N   UNL A   1      30.216  25.356  23.667  1.00  0.00    -0.302 N 
ATOM     86  H   UNL A   1      29.290  25.039  23.571  1.00  0.00     0.172 HD
BRANCH  85  87
ATOM     87  C   UNL A   1      31.193  24.446  23.389  1.00  0.00     0.189 A 
ATOM     88  N   UNL A   1      31.410  23.273  23.924  1.00  0.00    -0.220 NA
ATOM     89  S   UNL A   1      32.250  24.901  22.124  1.00  0.00    -0.105 S 
ATOM     90  C   UNL A   1      32.473  22.662  23.288  1.00  0.00     0.084 A 
ATOM     91  C   UNL A   1      33.044  23.381  22.259  1.00  0.00     0.097 A 
BRANCH  90  92
ATOM     92  C   UNL A   1      32.840  21.309  23.641  1.00  0.00     0.003 A 
ATOM     93  C   UNL A   1      33.818  21.127  24.615  1.00  0.00     0.012 A 
ATOM     94  C   UNL A   1      32.318  20.199  22.975  1.00  0.00     0.032 A 
ATOM     95  C   UNL A   1      34.304  19.853  24.904  1.00  0.00     0.023 A 
ATOM     96  C   UNL A   1      32.793  18.915  23.278  1.00  0.00     0.060 A 
ATOM     97  C   UNL A   1      33.796  18.742  24.238  1.00  0.00     0.059 A 
ATOM     98  Cl  UNL A   1      32.114  17.583  22.414  1.00  0.00    -0.083 Cl
ATOM     99  Cl  UNL A   1      34.459  17.201  24.642  1.00  0.00    -0.083 Cl
ENDBRANCH  90  92
ENDBRANCH  85  87
ENDBRANCH  79  83
ENDBRANCH  74  77
ENDBRANCH  72  73
ENDBRANCH  71  72
ENDBRANCH  70  71
ENDBRANCH   1  70
TORSDOF 19
ENDMDL
