MODEL 1
REMARK VINA RESULT:     -10.1      0.000      0.000
REMARK SMILES C[C@H](Cc1ccc(N)cc1)C(=O)NCCCCCCNC(=O)c1ccc(-c2c3nc(c(-c4ccc(S(=O)(=O)[O-])cc4)c4ccc([nH]4)c(-c4ccc(S(=O)(=O)[O-])cc4)c4nc(c(-c5ccc(S(=O)(=O)[O-])cc5)c5ccc2[nH]5)C=C4)C=C3)cc1
REMARK SMILES IDX 16 1 15 2 14 3 13 4 11 5 12 6 2 8 1 9 3 10 4 11 5 12 10 13
REMARK SMILES IDX 6 14 9 15 7 16 8 17 17 20 18 21 19 22 20 23 21 24 22 26
REMARK SMILES IDX 23 27 24 28 82 29 25 30 81 31 26 32 27 33 28 34 75 35 29 36
REMARK SMILES IDX 80 37 74 38 76 39 30 40 79 41 73 42 72 43 31 45 61 46 42 47
REMARK SMILES IDX 60 48 43 49 46 50 59 51 77 52 44 53 45 54 58 56 78 57 47 58
REMARK SMILES IDX 32 59 33 60 41 61 34 62 40 63 35 64 36 65 37 66 38 67 39 68
REMARK SMILES IDX 62 69 63 70 71 71 64 72 70 73 65 74 66 75 67 76 68 77 69 78
REMARK SMILES IDX 48 79 49 80 57 81 50 82 56 83 51 84 52 85 53 86 54 87 55 88
REMARK H PARENT 13 7 8 18 8 19 20 25 76 44 46 55
REMARK Flexibility Score: inf
ROOT
ATOM      1  C   UNL A   1      37.331  22.768  24.952  1.00  0.00     0.002 C 
ENDROOT
BRANCH   1   2
ATOM      2  C   UNL A   1      36.182  23.769  25.081  1.00  0.00     0.021 C 
BRANCH   2   3
ATOM      3  C   UNL A   1      34.803  23.211  24.718  1.00  0.00     0.116 C 
BRANCH   3   4
ATOM      4  N   UNL A   1      34.497  23.434  23.318  1.00  0.00    -0.356 N 
ATOM      5  C   UNL A   1      33.390  23.187  22.579  1.00  0.00     0.223 C 
ATOM      6  O   UNL A   1      33.477  23.424  21.367  1.00  0.00    -0.275 OA
ATOM      7  H   UNL A   1      35.235  23.842  22.809  1.00  0.00     0.163 HD
BRANCH   5   8
ATOM      8  C   UNL A   1      32.064  22.678  23.149  1.00  0.00     0.079 C 
ATOM      9  C   UNL A   1      31.015  23.766  23.332  1.00  0.00     0.018 C 
BRANCH   8  10
ATOM     10  C   UNL A   1      32.171  21.588  24.237  1.00  0.00     0.048 C 
BRANCH  10  11
ATOM     11  C   UNL A   1      32.653  20.182  23.966  1.00  0.00    -0.047 A 
ATOM     12  C   UNL A   1      32.181  19.388  22.916  1.00  0.00     0.006 A 
ATOM     13  C   UNL A   1      33.701  19.665  24.746  1.00  0.00     0.006 A 
ATOM     14  C   UNL A   1      32.653  18.081  22.732  1.00  0.00     0.026 A 
ATOM     15  C   UNL A   1      34.192  18.370  24.539  1.00  0.00     0.026 A 
ATOM     16  C   UNL A   1      33.674  17.565  23.528  1.00  0.00     0.031 A 
BRANCH  16  17
ATOM     17  N   UNL A   1      34.050  16.233  23.423  1.00  0.00    -0.399 N 
ATOM     18  H   UNL A   1      33.973  15.637  24.203  1.00  0.00     0.156 HD
ATOM     19  H   UNL A   1      34.394  15.884  22.569  1.00  0.00     0.156 HD
ENDBRANCH  16  17
ENDBRANCH  10  11
ENDBRANCH   8  10
ENDBRANCH   5   8
ENDBRANCH   3   4
ENDBRANCH   2   3
ENDBRANCH   1   2
BRANCH   1  20
ATOM     20  C   UNL A   1      36.923  21.361  24.491  1.00  0.00     0.002 C 
BRANCH  20  21
ATOM     21  C   UNL A   1      37.814  20.204  24.965  1.00  0.00     0.021 C 
BRANCH  21  22
ATOM     22  C   UNL A   1      38.926  20.578  25.948  1.00  0.00     0.116 C 
BRANCH  22  23
ATOM     23  N   UNL A   1      39.971  19.567  25.998  1.00  0.00    -0.352 N 
ATOM     24  C   UNL A   1      41.331  19.701  26.116  1.00  0.00     0.251 C 
ATOM     25  H   UNL A   1      39.651  18.638  25.939  1.00  0.00     0.163 HD
ATOM     26  O   UNL A   1      42.050  18.716  25.933  1.00  0.00    -0.269 OA
BRANCH  24  27
ATOM     27  C   UNL A   1      41.955  21.003  26.450  1.00  0.00     0.039 A 
ATOM     28  C   UNL A   1      42.267  21.885  25.409  1.00  0.00     0.014 A 
ATOM     29  C   UNL A   1      42.302  21.334  27.764  1.00  0.00     0.014 A 
ATOM     30  C   UNL A   1      42.878  23.113  25.686  1.00  0.00     0.010 A 
ATOM     31  C   UNL A   1      42.872  22.579  28.044  1.00  0.00     0.010 A 
ATOM     32  C   UNL A   1      43.165  23.481  27.009  1.00  0.00    -0.014 A 
BRANCH  32  33
ATOM     33  C   UNL A   1      43.767  24.804  27.327  1.00  0.00     0.031 A 
ATOM     34  C   UNL A   1      42.909  25.931  27.838  1.00  0.00     0.074 A 
ATOM     35  C   UNL A   1      45.079  25.014  27.095  1.00  0.00     0.049 A 
ATOM     36  N   UNL A   1      43.245  27.171  28.093  1.00  0.00    -0.248 NA
ATOM     37  C   UNL A   1      41.487  25.634  28.073  1.00  0.00     0.031 C 
ATOM     38  C   UNL A   1      46.020  24.017  26.579  1.00  0.00     0.029 A 
ATOM     39  N   UNL A   1      45.846  26.142  27.252  1.00  0.00    -0.354 N 
ATOM     40  C   UNL A   1      42.076  27.807  28.494  1.00  0.00     0.074 A 
ATOM     41  C   UNL A   1      41.017  26.823  28.426  1.00  0.00     0.031 C 
ATOM     42  C   UNL A   1      47.237  24.575  26.470  1.00  0.00     0.029 A 
ATOM     43  C   UNL A   1      47.159  25.975  26.875  1.00  0.00     0.049 A 
ATOM     44  H   UNL A   1      45.490  26.991  27.602  1.00  0.00     0.167 HD
ATOM     45  C   UNL A   1      41.901  29.091  28.890  1.00  0.00     0.031 A 
ATOM     46  C   UNL A   1      48.183  26.851  26.847  1.00  0.00     0.031 A 
ATOM     47  C   UNL A   1      42.956  30.063  28.991  1.00  0.00     0.049 A 
ATOM     48  C   UNL A   1      47.959  28.271  27.291  1.00  0.00     0.074 A 
ATOM     49  C   UNL A   1      42.883  31.364  29.462  1.00  0.00     0.029 A 
ATOM     50  N   UNL A   1      44.273  29.847  28.618  1.00  0.00    -0.354 N 
ATOM     51  N   UNL A   1      46.859  28.831  27.735  1.00  0.00    -0.248 NA
ATOM     52  C   UNL A   1      49.117  29.175  27.238  1.00  0.00     0.031 C 
ATOM     53  C   UNL A   1      44.146  31.949  29.332  1.00  0.00     0.029 A 
ATOM     54  C   UNL A   1      45.015  30.999  28.822  1.00  0.00     0.049 A 
ATOM     55  H   UNL A   1      44.627  29.002  28.260  1.00  0.00     0.167 HD
ATOM     56  C   UNL A   1      47.202  30.143  28.042  1.00  0.00     0.074 A 
ATOM     57  C   UNL A   1      48.610  30.293  27.741  1.00  0.00     0.031 C 
ATOM     58  C   UNL A   1      46.419  31.134  28.531  1.00  0.00     0.031 A 
BRANCH  45  59
ATOM     59  C   UNL A   1      40.507  29.535  29.240  1.00  0.00    -0.014 A 
ATOM     60  C   UNL A   1      40.144  29.808  30.571  1.00  0.00     0.010 A 
ATOM     61  C   UNL A   1      39.571  29.761  28.214  1.00  0.00     0.010 A 
ATOM     62  C   UNL A   1      38.861  30.274  30.872  1.00  0.00     0.020 A 
ATOM     63  C   UNL A   1      38.295  30.248  28.508  1.00  0.00     0.020 A 
ATOM     64  C   UNL A   1      37.944  30.490  29.838  1.00  0.00     0.054 A 
BRANCH  64  65
ATOM     65  S   UNL A   1      36.300  31.139  30.250  1.00  0.00     0.124 S 
ATOM     66  O   UNL A   1      36.516  32.581  30.159  1.00  0.00    -0.237 OA
ATOM     67  O   UNL A   1      35.456  30.563  29.206  1.00  0.00    -0.237 OA
ATOM     68  O   UNL A   1      36.054  30.629  31.597  1.00  0.00    -0.744 OA
ENDBRANCH  64  65
ENDBRANCH  45  59
BRANCH  46  69
ATOM     69  C   UNL A   1      49.525  26.417  26.375  1.00  0.00    -0.014 A 
ATOM     70  C   UNL A   1      50.423  25.794  27.258  1.00  0.00     0.010 A 
ATOM     71  C   UNL A   1      49.920  26.650  25.045  1.00  0.00     0.010 A 
ATOM     72  C   UNL A   1      51.704  25.436  26.829  1.00  0.00     0.020 A 
ATOM     73  C   UNL A   1      51.191  26.271  24.605  1.00  0.00     0.020 A 
ATOM     74  C   UNL A   1      52.081  25.682  25.505  1.00  0.00     0.054 A 
BRANCH  74  75
ATOM     75  S   UNL A   1      53.739  25.188  24.956  1.00  0.00     0.124 S 
ATOM     76  O   UNL A   1      53.847  25.869  23.670  1.00  0.00    -0.237 OA
ATOM     77  O   UNL A   1      54.596  25.703  26.020  1.00  0.00    -0.237 OA
ATOM     78  O   UNL A   1      53.652  23.731  24.890  1.00  0.00    -0.744 OA
ENDBRANCH  74  75
ENDBRANCH  46  69
BRANCH  58  79
ATOM     79  C   UNL A   1      47.070  32.460  28.816  1.00  0.00    -0.014 A 
ATOM     80  C   UNL A   1      47.726  32.699  30.036  1.00  0.00     0.010 A 
ATOM     81  C   UNL A   1      47.078  33.456  27.824  1.00  0.00     0.010 A 
ATOM     82  C   UNL A   1      48.359  33.923  30.267  1.00  0.00     0.020 A 
ATOM     83  C   UNL A   1      47.728  34.673  28.043  1.00  0.00     0.020 A 
ATOM     84  C   UNL A   1      48.355  34.903  29.270  1.00  0.00     0.054 A 
BRANCH  84  85
ATOM     85  S   UNL A   1      49.231  36.464  29.570  1.00  0.00     0.124 S 
ATOM     86  O   UNL A   1      49.680  36.821  28.227  1.00  0.00    -0.237 OA
ATOM     87  O   UNL A   1      48.189  37.318  30.131  1.00  0.00    -0.237 OA
ATOM     88  O   UNL A   1      50.291  36.091  30.503  1.00  0.00    -0.744 OA
ENDBRANCH  84  85
ENDBRANCH  58  79
ENDBRANCH  32  33
ENDBRANCH  24  27
ENDBRANCH  22  23
ENDBRANCH  21  22
ENDBRANCH  20  21
ENDBRANCH   1  20
TORSDOF 19
ENDMDL
MODEL 2
REMARK VINA RESULT:     -10.0      6.542     12.429
REMARK SMILES C[C@H](Cc1ccc(N)cc1)C(=O)NCCCCCCNC(=O)c1ccc(-c2c3nc(c(-c4ccc(S(=O)(=O)[O-])cc4)c4ccc([nH]4)c(-c4ccc(S(=O)(=O)[O-])cc4)c4nc(c(-c5ccc(S(=O)(=O)[O-])cc5)c5ccc2[nH]5)C=C4)C=C3)cc1
REMARK SMILES IDX 16 1 15 2 14 3 13 4 11 5 12 6 2 8 1 9 3 10 4 11 5 12 10 13
REMARK SMILES IDX 6 14 9 15 7 16 8 17 17 20 18 21 19 22 20 23 21 24 22 26
REMARK SMILES IDX 23 27 24 28 82 29 25 30 81 31 26 32 27 33 28 34 75 35 29 36
REMARK SMILES IDX 80 37 74 38 76 39 30 40 79 41 73 42 72 43 31 45 61 46 42 47
REMARK SMILES IDX 60 48 43 49 46 50 59 51 77 52 44 53 45 54 58 56 78 57 47 58
REMARK SMILES IDX 32 59 33 60 41 61 34 62 40 63 35 64 36 65 37 66 38 67 39 68
REMARK SMILES IDX 62 69 63 70 71 71 64 72 70 73 65 74 66 75 67 76 68 77 69 78
REMARK SMILES IDX 48 79 49 80 57 81 50 82 56 83 51 84 52 85 53 86 54 87 55 88
REMARK H PARENT 13 7 8 18 8 19 20 25 76 44 46 55
REMARK Flexibility Score: inf
ROOT
ATOM      1  C   UNL A   1      41.444  19.602  27.395  1.00  0.00     0.002 C 
ENDROOT
BRANCH   1   2
ATOM      2  C   UNL A   1      42.663  18.687  27.523  1.00  0.00     0.021 C 
BRANCH   2   3
ATOM      3  C   UNL A   1      43.225  18.180  26.192  1.00  0.00     0.116 C 
BRANCH   3   4
ATOM      4  N   UNL A   1      44.674  18.158  26.206  1.00  0.00    -0.356 N 
ATOM      5  C   UNL A   1      45.601  18.767  25.428  1.00  0.00     0.223 C 
ATOM      6  O   UNL A   1      46.783  18.474  25.653  1.00  0.00    -0.275 OA
ATOM      7  H   UNL A   1      45.058  17.594  26.916  1.00  0.00     0.163 HD
BRANCH   5   8
ATOM      8  C   UNL A   1      45.279  19.794  24.340  1.00  0.00     0.079 C 
ATOM      9  C   UNL A   1      44.998  19.178  22.977  1.00  0.00     0.018 C 
BRANCH   8  10
ATOM     10  C   UNL A   1      46.094  21.104  24.386  1.00  0.00     0.048 C 
BRANCH  10  11
ATOM     11  C   UNL A   1      45.700  22.303  25.218  1.00  0.00    -0.047 A 
ATOM     12  C   UNL A   1      45.381  22.234  26.577  1.00  0.00     0.006 A 
ATOM     13  C   UNL A   1      45.745  23.578  24.628  1.00  0.00     0.006 A 
ATOM     14  C   UNL A   1      45.000  23.381  27.288  1.00  0.00     0.026 A 
ATOM     15  C   UNL A   1      45.394  24.726  25.350  1.00  0.00     0.026 A 
ATOM     16  C   UNL A   1      45.020  24.639  26.689  1.00  0.00     0.031 A 
BRANCH  16  17
ATOM     17  N   UNL A   1      44.525  25.750  27.357  1.00  0.00    -0.399 N 
ATOM     18  H   UNL A   1      44.389  25.717  28.332  1.00  0.00     0.156 HD
ATOM     19  H   UNL A   1      44.309  26.570  26.857  1.00  0.00     0.156 HD
ENDBRANCH  16  17
ENDBRANCH  10  11
ENDBRANCH   8  10
ENDBRANCH   5   8
ENDBRANCH   3   4
ENDBRANCH   2   3
ENDBRANCH   1   2
BRANCH   1  20
ATOM     20  C   UNL A   1      41.756  21.056  27.013  1.00  0.00     0.002 C 
BRANCH  20  21
ATOM     21  C   UNL A   1      41.327  22.133  28.020  1.00  0.00     0.021 C 
BRANCH  21  22
ATOM     22  C   UNL A   1      40.342  23.180  27.497  1.00  0.00     0.116 C 
BRANCH  22  23
ATOM     23  N   UNL A   1      40.871  23.899  26.347  1.00  0.00    -0.352 N 
ATOM     24  C   UNL A   1      41.066  25.243  26.152  1.00  0.00     0.251 C 
ATOM     25  H   UNL A   1      41.131  23.329  25.587  1.00  0.00     0.163 HD
ATOM     26  O   UNL A   1      41.337  25.653  25.022  1.00  0.00    -0.269 OA
BRANCH  24  27
ATOM     27  C   UNL A   1      40.950  26.211  27.268  1.00  0.00     0.039 A 
ATOM     28  C   UNL A   1      40.023  25.957  28.285  1.00  0.00     0.014 A 
ATOM     29  C   UNL A   1      41.688  27.399  27.287  1.00  0.00     0.014 A 
ATOM     30  C   UNL A   1      39.870  26.862  29.341  1.00  0.00     0.010 A 
ATOM     31  C   UNL A   1      41.566  28.281  28.364  1.00  0.00     0.010 A 
ATOM     32  C   UNL A   1      40.658  28.022  29.402  1.00  0.00    -0.014 A 
BRANCH  32  33
ATOM     33  C   UNL A   1      40.546  28.969  30.544  1.00  0.00     0.031 A 
ATOM     34  C   UNL A   1      41.419  28.808  31.760  1.00  0.00     0.074 A 
ATOM     35  C   UNL A   1      39.611  29.941  30.517  1.00  0.00     0.049 A 
ATOM     36  N   UNL A   1      41.408  29.489  32.878  1.00  0.00    -0.248 NA
ATOM     37  C   UNL A   1      42.421  27.730  31.723  1.00  0.00     0.031 C 
ATOM     38  C   UNL A   1      38.682  30.195  29.412  1.00  0.00     0.029 A 
ATOM     39  N   UNL A   1      39.278  30.890  31.452  1.00  0.00    -0.354 N 
ATOM     40  C   UNL A   1      42.379  28.909  33.687  1.00  0.00     0.074 A 
ATOM     41  C   UNL A   1      42.946  27.807  32.940  1.00  0.00     0.031 C 
ATOM     42  C   UNL A   1      37.893  31.234  29.731  1.00  0.00     0.029 A 
ATOM     43  C   UNL A   1      38.234  31.700  31.071  1.00  0.00     0.049 A 
ATOM     44  H   UNL A   1      39.744  30.982  32.315  1.00  0.00     0.167 HD
ATOM     45  C   UNL A   1      42.770  29.267  34.934  1.00  0.00     0.031 A 
ATOM     46  C   UNL A   1      37.611  32.697  31.729  1.00  0.00     0.031 A 
ATOM     47  C   UNL A   1      42.234  30.383  35.666  1.00  0.00     0.049 A 
ATOM     48  C   UNL A   1      38.065  33.072  33.113  1.00  0.00     0.074 A 
ATOM     49  C   UNL A   1      42.628  30.867  36.902  1.00  0.00     0.029 A 
ATOM     50  N   UNL A   1      41.191  31.187  35.237  1.00  0.00    -0.354 N 
ATOM     51  N   UNL A   1      39.035  32.556  33.830  1.00  0.00    -0.248 NA
ATOM     52  C   UNL A   1      37.345  34.170  33.775  1.00  0.00     0.031 C 
ATOM     53  C   UNL A   1      41.795  31.938  37.240  1.00  0.00     0.029 A 
ATOM     54  C   UNL A   1      40.910  32.147  36.195  1.00  0.00     0.049 A 
ATOM     55  H   UNL A   1      40.719  31.090  34.378  1.00  0.00     0.167 HD
ATOM     56  C   UNL A   1      39.060  33.287  35.012  1.00  0.00     0.074 A 
ATOM     57  C   UNL A   1      38.015  34.284  34.915  1.00  0.00     0.031 C 
ATOM     58  C   UNL A   1      39.877  33.143  36.083  1.00  0.00     0.031 A 
BRANCH  45  59
ATOM     59  C   UNL A   1      43.831  28.437  35.603  1.00  0.00    -0.014 A 
ATOM     60  C   UNL A   1      43.492  27.321  36.389  1.00  0.00     0.010 A 
ATOM     61  C   UNL A   1      45.188  28.731  35.377  1.00  0.00     0.010 A 
ATOM     62  C   UNL A   1      44.493  26.528  36.957  1.00  0.00     0.020 A 
ATOM     63  C   UNL A   1      46.192  27.928  35.926  1.00  0.00     0.020 A 
ATOM     64  C   UNL A   1      45.837  26.838  36.723  1.00  0.00     0.054 A 
BRANCH  64  65
ATOM     65  S   UNL A   1      47.117  25.766  37.434  1.00  0.00     0.124 S 
ATOM     66  O   UNL A   1      46.323  24.857  38.256  1.00  0.00    -0.237 OA
ATOM     67  O   UNL A   1      47.731  25.169  36.251  1.00  0.00    -0.237 OA
ATOM     68  O   UNL A   1      47.971  26.691  38.175  1.00  0.00    -0.744 OA
ENDBRANCH  64  65
ENDBRANCH  45  59
BRANCH  46  69
ATOM     69  C   UNL A   1      36.477  33.420  31.092  1.00  0.00    -0.014 A 
ATOM     70  C   UNL A   1      36.593  33.910  29.780  1.00  0.00     0.010 A 
ATOM     71  C   UNL A   1      35.286  33.644  31.805  1.00  0.00     0.010 A 
ATOM     72  C   UNL A   1      35.549  34.636  29.200  1.00  0.00     0.020 A 
ATOM     73  C   UNL A   1      34.230  34.349  31.220  1.00  0.00     0.020 A 
ATOM     74  C   UNL A   1      34.375  34.855  29.928  1.00  0.00     0.054 A 
BRANCH  74  75
ATOM     75  S   UNL A   1      33.019  35.778  29.153  1.00  0.00     0.124 S 
ATOM     76  O   UNL A   1      32.432  34.772  28.274  1.00  0.00    -0.237 OA
ATOM     77  O   UNL A   1      32.204  36.174  30.299  1.00  0.00    -0.237 OA
ATOM     78  O   UNL A   1      33.703  36.879  28.478  1.00  0.00    -0.744 OA
ENDBRANCH  74  75
ENDBRANCH  46  69
BRANCH  58  79
ATOM     79  C   UNL A   1      39.711  34.113  37.221  1.00  0.00    -0.014 A 
ATOM     80  C   UNL A   1      40.129  35.450  37.103  1.00  0.00     0.010 A 
ATOM     81  C   UNL A   1      39.070  33.694  38.401  1.00  0.00     0.010 A 
ATOM     82  C   UNL A   1      39.930  36.346  38.157  1.00  0.00     0.020 A 
ATOM     83  C   UNL A   1      38.850  34.593  39.447  1.00  0.00     0.020 A 
ATOM     84  C   UNL A   1      39.293  35.911  39.323  1.00  0.00     0.054 A 
BRANCH  84  85
ATOM     85  S   UNL A   1      38.994  37.105  40.657  1.00  0.00     0.124 S 
ATOM     86  O   UNL A   1      38.212  36.313  41.602  1.00  0.00    -0.237 OA
ATOM     87  O   UNL A   1      40.345  37.449  41.093  1.00  0.00    -0.237 OA
ATOM     88  O   UNL A   1      38.266  38.186  39.996  1.00  0.00    -0.744 OA
ENDBRANCH  84  85
ENDBRANCH  58  79
ENDBRANCH  32  33
ENDBRANCH  24  27
ENDBRANCH  22  23
ENDBRANCH  21  22
ENDBRANCH  20  21
ENDBRANCH   1  20
TORSDOF 19
ENDMDL
MODEL 3
REMARK VINA RESULT:     -10.0      0.921      8.453
REMARK SMILES C[C@H](Cc1ccc(N)cc1)C(=O)NCCCCCCNC(=O)c1ccc(-c2c3nc(c(-c4ccc(S(=O)(=O)[O-])cc4)c4ccc([nH]4)c(-c4ccc(S(=O)(=O)[O-])cc4)c4nc(c(-c5ccc(S(=O)(=O)[O-])cc5)c5ccc2[nH]5)C=C4)C=C3)cc1
REMARK SMILES IDX 16 1 15 2 14 3 13 4 11 5 12 6 2 8 1 9 3 10 4 11 5 12 10 13
REMARK SMILES IDX 6 14 9 15 7 16 8 17 17 20 18 21 19 22 20 23 21 24 22 26
REMARK SMILES IDX 23 27 24 28 82 29 25 30 81 31 26 32 27 33 28 34 75 35 29 36
REMARK SMILES IDX 80 37 74 38 76 39 30 40 79 41 73 42 72 43 31 45 61 46 42 47
REMARK SMILES IDX 60 48 43 49 46 50 59 51 77 52 44 53 45 54 58 56 78 57 47 58
REMARK SMILES IDX 32 59 33 60 41 61 34 62 40 63 35 64 36 65 37 66 38 67 39 68
REMARK SMILES IDX 62 69 63 70 71 71 64 72 70 73 65 74 66 75 67 76 68 77 69 78
REMARK SMILES IDX 48 79 49 80 57 81 50 82 56 83 51 84 52 85 53 86 54 87 55 88
REMARK H PARENT 13 7 8 18 8 19 20 25 76 44 46 55
REMARK Flexibility Score: inf
ROOT
ATOM      1  C   UNL A   1      36.364  21.665  25.683  1.00  0.00     0.002 C 
ENDROOT
BRANCH   1   2
ATOM      2  C   UNL A   1      36.785  23.105  25.387  1.00  0.00     0.021 C 
BRANCH   2   3
ATOM      3  C   UNL A   1      35.848  23.866  24.445  1.00  0.00     0.116 C 
BRANCH   3   4
ATOM      4  N   UNL A   1      34.484  23.854  24.937  1.00  0.00    -0.356 N 
ATOM      5  C   UNL A   1      33.329  23.395  24.400  1.00  0.00     0.223 C 
ATOM      6  O   UNL A   1      32.299  23.612  25.053  1.00  0.00    -0.275 OA
ATOM      7  H   UNL A   1      34.379  24.257  25.829  1.00  0.00     0.163 HD
BRANCH   5   8
ATOM      8  C   UNL A   1      33.232  22.615  23.088  1.00  0.00     0.079 C 
ATOM      9  C   UNL A   1      33.293  23.492  21.845  1.00  0.00     0.018 C 
BRANCH   8  10
ATOM     10  C   UNL A   1      32.253  21.422  23.082  1.00  0.00     0.048 C 
BRANCH  10  11
ATOM     11  C   UNL A   1      32.508  20.129  23.821  1.00  0.00    -0.047 A 
ATOM     12  C   UNL A   1      32.563  18.878  23.201  1.00  0.00     0.006 A 
ATOM     13  C   UNL A   1      32.800  20.183  25.195  1.00  0.00     0.006 A 
ATOM     14  C   UNL A   1      32.780  17.711  23.948  1.00  0.00     0.026 A 
ATOM     15  C   UNL A   1      33.048  19.018  25.932  1.00  0.00     0.026 A 
ATOM     16  C   UNL A   1      33.043  17.770  25.315  1.00  0.00     0.031 A 
BRANCH  16  17
ATOM     17  N   UNL A   1      33.133  16.608  26.070  1.00  0.00    -0.399 N 
ATOM     18  H   UNL A   1      33.425  15.769  25.647  1.00  0.00     0.156 HD
ATOM     19  H   UNL A   1      32.904  16.624  27.028  1.00  0.00     0.156 HD
ENDBRANCH  16  17
ENDBRANCH  10  11
ENDBRANCH   8  10
ENDBRANCH   5   8
ENDBRANCH   3   4
ENDBRANCH   2   3
ENDBRANCH   1   2
BRANCH   1  20
ATOM     20  C   UNL A   1      36.822  20.625  24.650  1.00  0.00     0.002 C 
BRANCH  20  21
ATOM     21  C   UNL A   1      37.961  19.692  25.081  1.00  0.00     0.021 C 
BRANCH  21  22
ATOM     22  C   UNL A   1      39.086  20.343  25.890  1.00  0.00     0.116 C 
BRANCH  22  23
ATOM     23  N   UNL A   1      40.201  19.432  26.105  1.00  0.00    -0.352 N 
ATOM     24  C   UNL A   1      41.537  19.690  26.274  1.00  0.00     0.251 C 
ATOM     25  H   UNL A   1      39.956  18.479  26.134  1.00  0.00     0.163 HD
ATOM     26  O   UNL A   1      42.339  18.753  26.238  1.00  0.00    -0.269 OA
BRANCH  24  27
ATOM     27  C   UNL A   1      42.039  21.067  26.490  1.00  0.00     0.039 A 
ATOM     28  C   UNL A   1      42.301  21.490  27.798  1.00  0.00     0.014 A 
ATOM     29  C   UNL A   1      42.185  21.968  25.430  1.00  0.00     0.014 A 
ATOM     30  C   UNL A   1      42.753  22.791  28.041  1.00  0.00     0.010 A 
ATOM     31  C   UNL A   1      42.679  23.254  25.669  1.00  0.00     0.010 A 
ATOM     32  C   UNL A   1      42.969  23.679  26.975  1.00  0.00    -0.014 A 
BRANCH  32  33
ATOM     33  C   UNL A   1      43.499  25.049  27.210  1.00  0.00     0.031 A 
ATOM     34  C   UNL A   1      44.945  25.366  26.938  1.00  0.00     0.074 A 
ATOM     35  C   UNL A   1      42.692  25.997  27.730  1.00  0.00     0.049 A 
ATOM     36  N   UNL A   1      45.599  26.479  27.156  1.00  0.00    -0.248 NA
ATOM     37  C   UNL A   1      45.769  24.288  26.368  1.00  0.00     0.031 C 
ATOM     38  C   UNL A   1      41.276  25.818  28.062  1.00  0.00     0.029 A 
ATOM     39  N   UNL A   1      42.952  27.299  28.081  1.00  0.00    -0.354 N 
ATOM     40  C   UNL A   1      46.912  26.231  26.774  1.00  0.00     0.074 A 
ATOM     41  C   UNL A   1      46.969  24.854  26.333  1.00  0.00     0.031 C 
ATOM     42  C   UNL A   1      40.793  26.968  28.561  1.00  0.00     0.029 A 
ATOM     43  C   UNL A   1      41.868  27.955  28.616  1.00  0.00     0.049 A 
ATOM     44  H   UNL A   1      43.833  27.723  27.962  1.00  0.00     0.167 HD
ATOM     45  C   UNL A   1      47.973  27.073  26.783  1.00  0.00     0.031 A 
ATOM     46  C   UNL A   1      41.751  29.205  29.106  1.00  0.00     0.031 A 
ATOM     47  C   UNL A   1      47.914  28.452  27.189  1.00  0.00     0.049 A 
ATOM     48  C   UNL A   1      42.946  30.118  29.104  1.00  0.00     0.074 A 
ATOM     49  C   UNL A   1      48.923  29.401  27.152  1.00  0.00     0.029 A 
ATOM     50  N   UNL A   1      46.794  29.081  27.705  1.00  0.00    -0.354 N 
ATOM     51  N   UNL A   1      44.162  29.883  28.671  1.00  0.00    -0.248 NA
ATOM     52  C   UNL A   1      42.752  31.469  29.651  1.00  0.00     0.031 C 
ATOM     53  C   UNL A   1      48.424  30.593  27.687  1.00  0.00     0.029 A 
ATOM     54  C   UNL A   1      47.092  30.397  28.017  1.00  0.00     0.049 A 
ATOM     55  H   UNL A   1      45.915  28.655  27.833  1.00  0.00     0.167 HD
ATOM     56  C   UNL A   1      44.866  31.066  28.865  1.00  0.00     0.074 A 
ATOM     57  C   UNL A   1      43.943  32.017  29.447  1.00  0.00     0.031 C 
ATOM     58  C   UNL A   1      46.163  31.339  28.584  1.00  0.00     0.031 A 
BRANCH  45  59
ATOM     59  C   UNL A   1      49.306  26.530  26.347  1.00  0.00    -0.014 A 
ATOM     60  C   UNL A   1      49.820  26.807  25.067  1.00  0.00     0.010 A 
ATOM     61  C   UNL A   1      50.092  25.801  27.259  1.00  0.00     0.010 A 
ATOM     62  C   UNL A   1      51.086  26.342  24.699  1.00  0.00     0.020 A 
ATOM     63  C   UNL A   1      51.366  25.352  26.902  1.00  0.00     0.020 A 
ATOM     64  C   UNL A   1      51.850  25.616  25.618  1.00  0.00     0.054 A 
BRANCH  64  65
ATOM     65  S   UNL A   1      53.508  25.063  25.131  1.00  0.00     0.124 S 
ATOM     66  O   UNL A   1      54.351  25.748  26.108  1.00  0.00    -0.237 OA
ATOM     67  O   UNL A   1      53.422  23.612  25.284  1.00  0.00    -0.237 OA
ATOM     68  O   UNL A   1      53.641  25.534  23.755  1.00  0.00    -0.744 OA
ENDBRANCH  64  65
ENDBRANCH  45  59
BRANCH  46  69
ATOM     69  C   UNL A   1      40.449  29.676  29.650  1.00  0.00    -0.014 A 
ATOM     70  C   UNL A   1      39.468  30.200  28.792  1.00  0.00     0.010 A 
ATOM     71  C   UNL A   1      40.197  29.627  31.033  1.00  0.00     0.010 A 
ATOM     72  C   UNL A   1      38.266  30.694  29.309  1.00  0.00     0.020 A 
ATOM     73  C   UNL A   1      38.987  30.097  31.551  1.00  0.00     0.020 A 
ATOM     74  C   UNL A   1      38.036  30.643  30.687  1.00  0.00     0.054 A 
BRANCH  74  75
ATOM     75  S   UNL A   1      36.462  31.264  31.340  1.00  0.00     0.124 S 
ATOM     76  O   UNL A   1      35.589  31.158  30.176  1.00  0.00    -0.237 OA
ATOM     77  O   UNL A   1      36.179  30.336  32.432  1.00  0.00    -0.237 OA
ATOM     78  O   UNL A   1      36.785  32.626  31.761  1.00  0.00    -0.744 OA
ENDBRANCH  74  75
ENDBRANCH  46  69
BRANCH  58  79
ATOM     79  C   UNL A   1      46.657  32.732  28.859  1.00  0.00    -0.014 A 
ATOM     80  C   UNL A   1      46.550  33.745  27.888  1.00  0.00     0.010 A 
ATOM     81  C   UNL A   1      47.177  33.047  30.127  1.00  0.00     0.010 A 
ATOM     82  C   UNL A   1      46.978  35.043  28.176  1.00  0.00     0.020 A 
ATOM     83  C   UNL A   1      47.585  34.350  30.424  1.00  0.00     0.020 A 
ATOM     84  C   UNL A   1      47.494  35.338  29.441  1.00  0.00     0.054 A 
BRANCH  84  85
ATOM     85  S   UNL A   1      47.992  37.043  29.812  1.00  0.00     0.124 S 
ATOM     86  O   UNL A   1      48.063  37.634  28.479  1.00  0.00    -0.237 OA
ATOM     87  O   UNL A   1      46.901  37.523  30.655  1.00  0.00    -0.237 OA
ATOM     88  O   UNL A   1      49.275  36.888  30.494  1.00  0.00    -0.744 OA
ENDBRANCH  84  85
ENDBRANCH  58  79
ENDBRANCH  32  33
ENDBRANCH  24  27
ENDBRANCH  22  23
ENDBRANCH  21  22
ENDBRANCH  20  21
ENDBRANCH   1  20
TORSDOF 19
ENDMDL
