MODEL 1
REMARK VINA RESULT:     -12.5      0.000      0.000
REMARK SMILES O=C(NCCCCCCNC(=O)c1ccc(-c2c3nc(c(-c4ccc(S(=O)(=O)[O-])cc4)c4ccc([nH]4)c(-c4ccc(S(=O)(=O)[O-])cc4)c4nc(c(-c5ccc(S(=O)(=O)[O-])cc5)c5ccc2[nH]5)C=C4)C=C3)cc1)C1=NN(c2cc(F)ccc2F)[C@@H](c2ccccc2)C1
REMARK SMILES IDX 7 1 6 2 5 3 4 4 3 5 1 6 2 7 73 9 74 10 91 11 75 12 84 13
REMARK SMILES IDX 76 14 77 15 82 16 78 17 81 18 83 19 79 20 80 21 85 22 86 23
REMARK SMILES IDX 90 24 87 25 89 26 88 27 8 28 9 29 10 30 11 31 12 33 13 34
REMARK SMILES IDX 14 35 72 36 15 37 71 38 16 39 17 40 18 41 65 42 19 43 70 44
REMARK SMILES IDX 64 45 66 46 20 47 69 48 63 49 62 50 21 52 51 53 32 54 50 55
REMARK SMILES IDX 33 56 36 57 49 58 67 59 34 60 35 61 48 63 68 64 37 65 22 66
REMARK SMILES IDX 23 67 31 68 24 69 30 70 25 71 26 72 27 73 28 74 29 75 52 76
REMARK SMILES IDX 53 77 61 78 54 79 60 80 55 81 56 82 57 83 58 84 59 85 38 86
REMARK SMILES IDX 39 87 47 88 40 89 46 90 41 91 42 92 43 93 44 94 45 95
REMARK H PARENT 3 8 10 32 66 51 36 62
REMARK Flexibility Score: inf
ROOT
ATOM      1  C   UNL A   1      34.666  24.595  25.472  1.00  0.00     0.002 C 
ENDROOT
BRANCH   1   2
ATOM      2  C   UNL A   1      34.237  24.104  24.087  1.00  0.00     0.002 C 
BRANCH   2   3
ATOM      3  C   UNL A   1      32.933  23.298  24.034  1.00  0.00     0.021 C 
BRANCH   3   4
ATOM      4  C   UNL A   1      31.889  23.791  23.031  1.00  0.00     0.116 C 
BRANCH   4   5
ATOM      5  N   UNL A   1      32.467  24.074  21.728  1.00  0.00    -0.351 N 
ATOM      6  O   UNL A   1      33.159  25.441  20.038  1.00  0.00    -0.268 OA
ATOM      7  C   UNL A   1      32.653  25.302  21.145  1.00  0.00     0.267 C 
ATOM      8  H   UNL A   1      32.758  23.294  21.202  1.00  0.00     0.163 HD
BRANCH   7   9
ATOM      9  C   UNL A   1      32.163  26.522  21.867  1.00  0.00     0.128 C 
ATOM     10  N   UNL A   1      30.956  26.980  21.752  1.00  0.00    -0.171 NA
ATOM     11  C   UNL A   1      33.106  27.281  22.735  1.00  0.00     0.096 C 
ATOM     12  N   UNL A   1      30.926  28.133  22.484  1.00  0.00    -0.254 N 
ATOM     13  C   UNL A   1      32.172  28.394  23.220  1.00  0.00     0.144 C 
BRANCH  12  14
ATOM     14  C   UNL A   1      29.796  28.948  22.494  1.00  0.00     0.099 A 
ATOM     15  C   UNL A   1      29.845  30.229  21.918  1.00  0.00     0.070 A 
ATOM     16  C   UNL A   1      28.569  28.559  23.065  1.00  0.00     0.148 A 
ATOM     17  C   UNL A   1      28.719  31.049  21.891  1.00  0.00     0.125 A 
ATOM     18  C   UNL A   1      27.445  29.389  23.055  1.00  0.00     0.044 A 
ATOM     19  F   UNL A   1      28.448  27.373  23.683  1.00  0.00    -0.205 F 
ATOM     20  F   UNL A   1      28.791  32.249  21.300  1.00  0.00    -0.207 F 
ATOM     21  C   UNL A   1      27.518  30.642  22.457  1.00  0.00     0.042 A 
ENDBRANCH  12  14
BRANCH  13  22
ATOM     22  C   UNL A   1      31.942  28.355  24.724  1.00  0.00    -0.023 A 
ATOM     23  C   UNL A   1      32.029  29.513  25.515  1.00  0.00     0.006 A 
ATOM     24  C   UNL A   1      31.677  27.131  25.359  1.00  0.00     0.006 A 
ATOM     25  C   UNL A   1      31.856  29.448  26.898  1.00  0.00     0.000 A 
ATOM     26  C   UNL A   1      31.508  27.068  26.743  1.00  0.00     0.000 A 
ATOM     27  C   UNL A   1      31.597  28.225  27.512  1.00  0.00     0.000 A 
ENDBRANCH  13  22
ENDBRANCH   7   9
ENDBRANCH   4   5
ENDBRANCH   3   4
ENDBRANCH   2   3
ENDBRANCH   1   2
BRANCH   1  28
ATOM     28  C   UNL A   1      35.952  23.984  26.038  1.00  0.00     0.021 C 
BRANCH  28  29
ATOM     29  C   UNL A   1      37.058  23.685  25.025  1.00  0.00     0.116 C 
BRANCH  29  30
ATOM     30  N   UNL A   1      37.998  22.682  25.492  1.00  0.00    -0.352 N 
ATOM     31  C   UNL A   1      39.131  22.830  26.255  1.00  0.00     0.251 C 
ATOM     32  H   UNL A   1      37.792  21.757  25.224  1.00  0.00     0.163 HD
ATOM     33  O   UNL A   1      39.860  21.861  26.447  1.00  0.00    -0.269 OA
BRANCH  31  34
ATOM     34  C   UNL A   1      39.500  24.150  26.822  1.00  0.00     0.039 A 
ATOM     35  C   UNL A   1      39.087  24.453  28.125  1.00  0.00     0.014 A 
ATOM     36  C   UNL A   1      40.206  25.099  26.078  1.00  0.00     0.014 A 
ATOM     37  C   UNL A   1      39.433  25.678  28.703  1.00  0.00     0.010 A 
ATOM     38  C   UNL A   1      40.580  26.310  26.667  1.00  0.00     0.010 A 
ATOM     39  C   UNL A   1      40.203  26.607  27.986  1.00  0.00    -0.014 A 
BRANCH  39  40
ATOM     40  C   UNL A   1      40.643  27.879  28.610  1.00  0.00     0.031 A 
ATOM     41  C   UNL A   1      42.028  28.015  29.175  1.00  0.00     0.074 A 
ATOM     42  C   UNL A   1      39.772  28.900  28.720  1.00  0.00     0.049 A 
ATOM     43  N   UNL A   1      42.550  29.013  29.842  1.00  0.00    -0.248 NA
ATOM     44  C   UNL A   1      42.937  26.875  28.981  1.00  0.00     0.031 C 
ATOM     45  C   UNL A   1      38.390  28.893  28.237  1.00  0.00     0.029 A 
ATOM     46  N   UNL A   1      39.920  30.141  29.290  1.00  0.00    -0.354 N 
ATOM     47  C   UNL A   1      43.839  28.615  30.170  1.00  0.00     0.074 A 
ATOM     48  C   UNL A   1      44.018  27.280  29.634  1.00  0.00     0.031 C 
ATOM     49  C   UNL A   1      37.819  30.074  28.527  1.00  0.00     0.029 A 
ATOM     50  C   UNL A   1      38.784  30.910  29.235  1.00  0.00     0.049 A 
ATOM     51  H   UNL A   1      40.761  30.448  29.699  1.00  0.00     0.167 HD
ATOM     52  C   UNL A   1      44.789  29.294  30.856  1.00  0.00     0.031 A 
ATOM     53  C   UNL A   1      38.539  32.147  29.706  1.00  0.00     0.031 A 
ATOM     54  C   UNL A   1      44.629  30.624  31.379  1.00  0.00     0.049 A 
ATOM     55  C   UNL A   1      39.622  32.900  30.422  1.00  0.00     0.074 A 
ATOM     56  C   UNL A   1      45.544  31.392  32.080  1.00  0.00     0.029 A 
ATOM     57  N   UNL A   1      43.481  31.389  31.252  1.00  0.00    -0.354 N 
ATOM     58  N   UNL A   1      40.837  32.506  30.718  1.00  0.00    -0.248 NA
ATOM     59  C   UNL A   1      39.302  34.265  30.861  1.00  0.00     0.031 C 
ATOM     60  C   UNL A   1      44.944  32.621  32.384  1.00  0.00     0.029 A 
ATOM     61  C   UNL A   1      43.663  32.622  31.855  1.00  0.00     0.049 A 
ATOM     62  H   UNL A   1      42.657  31.098  30.799  1.00  0.00     0.167 HD
ATOM     63  C   UNL A   1      41.430  33.578  31.374  1.00  0.00     0.074 A 
ATOM     64  C   UNL A   1      40.446  34.640  31.420  1.00  0.00     0.031 C 
ATOM     65  C   UNL A   1      42.678  33.669  31.893  1.00  0.00     0.031 A 
BRANCH  52  66
ATOM     66  C   UNL A   1      46.093  28.586  31.090  1.00  0.00    -0.014 A 
ATOM     67  C   UNL A   1      47.125  28.648  30.138  1.00  0.00     0.010 A 
ATOM     68  C   UNL A   1      46.286  27.853  32.273  1.00  0.00     0.010 A 
ATOM     69  C   UNL A   1      48.318  27.951  30.346  1.00  0.00     0.020 A 
ATOM     70  C   UNL A   1      47.483  27.165  32.490  1.00  0.00     0.020 A 
ATOM     71  C   UNL A   1      48.482  27.200  31.514  1.00  0.00     0.054 A 
BRANCH  71  72
ATOM     72  S   UNL A   1      50.030  26.288  31.773  1.00  0.00     0.124 S 
ATOM     73  O   UNL A   1      50.999  27.150  31.099  1.00  0.00    -0.237 OA
ATOM     74  O   UNL A   1      50.144  26.235  33.228  1.00  0.00    -0.237 OA
ATOM     75  O   UNL A   1      49.779  25.003  31.126  1.00  0.00    -0.744 OA
ENDBRANCH  71  72
ENDBRANCH  52  66
BRANCH  53  76
ATOM     76  C   UNL A   1      37.201  32.754  29.507  1.00  0.00    -0.014 A 
ATOM     77  C   UNL A   1      36.269  32.770  30.557  1.00  0.00     0.010 A 
ATOM     78  C   UNL A   1      36.869  33.348  28.277  1.00  0.00     0.010 A 
ATOM     79  C   UNL A   1      35.019  33.368  30.380  1.00  0.00     0.020 A 
ATOM     80  C   UNL A   1      35.624  33.957  28.102  1.00  0.00     0.020 A 
ATOM     81  C   UNL A   1      34.704  33.958  29.152  1.00  0.00     0.054 A 
BRANCH  81  82
ATOM     82  S   UNL A   1      33.109  34.801  28.951  1.00  0.00     0.124 S 
ATOM     83  O   UNL A   1      33.522  36.116  28.471  1.00  0.00    -0.237 OA
ATOM     84  O   UNL A   1      32.416  33.961  27.978  1.00  0.00    -0.237 OA
ATOM     85  O   UNL A   1      32.547  34.769  30.300  1.00  0.00    -0.744 OA
ENDBRANCH  81  82
ENDBRANCH  53  76
BRANCH  65  86
ATOM     86  C   UNL A   1      43.054  34.970  32.541  1.00  0.00    -0.014 A 
ATOM     87  C   UNL A   1      43.582  36.024  31.777  1.00  0.00     0.010 A 
ATOM     88  C   UNL A   1      42.843  35.151  33.918  1.00  0.00     0.010 A 
ATOM     89  C   UNL A   1      43.915  37.237  32.386  1.00  0.00     0.020 A 
ATOM     90  C   UNL A   1      43.166  36.365  34.529  1.00  0.00     0.020 A 
ATOM     91  C   UNL A   1      43.713  37.398  33.760  1.00  0.00     0.054 A 
BRANCH  91  92
ATOM     92  S   UNL A   1      44.109  38.990  34.536  1.00  0.00     0.124 S 
ATOM     93  O   UNL A   1      43.099  39.869  33.954  1.00  0.00    -0.237 OA
ATOM     94  O   UNL A   1      43.953  38.712  35.961  1.00  0.00    -0.237 OA
ATOM     95  O   UNL A   1      45.483  39.243  34.106  1.00  0.00    -0.744 OA
ENDBRANCH  91  92
ENDBRANCH  65  86
ENDBRANCH  39  40
ENDBRANCH  31  34
ENDBRANCH  29  30
ENDBRANCH  28  29
ENDBRANCH   1  28
TORSDOF 18
ENDMDL
MODEL 2
REMARK VINA RESULT:     -11.4      3.039      9.571
REMARK SMILES O=C(NCCCCCCNC(=O)c1ccc(-c2c3nc(c(-c4ccc(S(=O)(=O)[O-])cc4)c4ccc([nH]4)c(-c4ccc(S(=O)(=O)[O-])cc4)c4nc(c(-c5ccc(S(=O)(=O)[O-])cc5)c5ccc2[nH]5)C=C4)C=C3)cc1)C1=NN(c2cc(F)ccc2F)[C@@H](c2ccccc2)C1
REMARK SMILES IDX 7 1 6 2 5 3 4 4 3 5 1 6 2 7 73 9 74 10 91 11 75 12 84 13
REMARK SMILES IDX 76 14 77 15 82 16 78 17 81 18 83 19 79 20 80 21 85 22 86 23
REMARK SMILES IDX 90 24 87 25 89 26 88 27 8 28 9 29 10 30 11 31 12 33 13 34
REMARK SMILES IDX 14 35 72 36 15 37 71 38 16 39 17 40 18 41 65 42 19 43 70 44
REMARK SMILES IDX 64 45 66 46 20 47 69 48 63 49 62 50 21 52 51 53 32 54 50 55
REMARK SMILES IDX 33 56 36 57 49 58 67 59 34 60 35 61 48 63 68 64 37 65 22 66
REMARK SMILES IDX 23 67 31 68 24 69 30 70 25 71 26 72 27 73 28 74 29 75 52 76
REMARK SMILES IDX 53 77 61 78 54 79 60 80 55 81 56 82 57 83 58 84 59 85 38 86
REMARK SMILES IDX 39 87 47 88 40 89 46 90 41 91 42 92 43 93 44 94 45 95
REMARK H PARENT 3 8 10 32 66 51 36 62
REMARK Flexibility Score: inf
ROOT
ATOM      1  C   UNL A   1      32.224  29.375  24.593  1.00  0.00     0.002 C 
ENDROOT
BRANCH   1   2
ATOM      2  C   UNL A   1      30.918  28.633  24.289  1.00  0.00     0.002 C 
BRANCH   2   3
ATOM      3  C   UNL A   1      30.843  27.180  24.772  1.00  0.00     0.021 C 
BRANCH   3   4
ATOM      4  C   UNL A   1      30.754  26.120  23.674  1.00  0.00     0.116 C 
BRANCH   4   5
ATOM      5  N   UNL A   1      31.712  26.351  22.605  1.00  0.00    -0.351 N 
ATOM      6  O   UNL A   1      33.602  25.910  21.408  1.00  0.00    -0.268 OA
ATOM      7  C   UNL A   1      32.857  25.643  22.342  1.00  0.00     0.267 C 
ATOM      8  H   UNL A   1      31.517  27.103  22.001  1.00  0.00     0.163 HD
BRANCH   7   9
ATOM      9  C   UNL A   1      33.244  24.531  23.272  1.00  0.00     0.128 C 
ATOM     10  N   UNL A   1      32.898  23.296  23.087  1.00  0.00    -0.171 NA
ATOM     11  C   UNL A   1      34.031  24.848  24.497  1.00  0.00     0.096 C 
ATOM     12  N   UNL A   1      33.359  22.615  24.178  1.00  0.00    -0.254 N 
ATOM     13  C   UNL A   1      34.159  23.443  25.092  1.00  0.00     0.144 C 
BRANCH  12  14
ATOM     14  C   UNL A   1      33.068  21.264  24.357  1.00  0.00     0.099 A 
ATOM     15  C   UNL A   1      32.714  20.467  23.255  1.00  0.00     0.070 A 
ATOM     16  C   UNL A   1      33.105  20.626  25.612  1.00  0.00     0.148 A 
ATOM     17  C   UNL A   1      32.447  19.108  23.407  1.00  0.00     0.125 A 
ATOM     18  C   UNL A   1      32.819  19.267  25.768  1.00  0.00     0.044 A 
ATOM     19  F   UNL A   1      33.382  21.324  26.725  1.00  0.00    -0.205 F 
ATOM     20  F   UNL A   1      32.150  18.369  22.330  1.00  0.00    -0.207 F 
ATOM     21  C   UNL A   1      32.494  18.500  24.655  1.00  0.00     0.042 A 
ENDBRANCH  12  14
BRANCH  13  22
ATOM     22  C   UNL A   1      35.601  22.960  25.155  1.00  0.00    -0.023 A 
ATOM     23  C   UNL A   1      36.029  21.819  24.455  1.00  0.00     0.006 A 
ATOM     24  C   UNL A   1      36.530  23.637  25.961  1.00  0.00     0.006 A 
ATOM     25  C   UNL A   1      37.347  21.370  24.559  1.00  0.00     0.000 A 
ATOM     26  C   UNL A   1      37.847  23.184  26.066  1.00  0.00     0.000 A 
ATOM     27  C   UNL A   1      38.254  22.052  25.367  1.00  0.00     0.000 A 
ENDBRANCH  13  22
ENDBRANCH   7   9
ENDBRANCH   4   5
ENDBRANCH   3   4
ENDBRANCH   2   3
ENDBRANCH   1   2
BRANCH   1  28
ATOM     28  C   UNL A   1      33.438  28.499  24.915  1.00  0.00     0.021 C 
BRANCH  28  29
ATOM     29  C   UNL A   1      34.015  28.640  26.324  1.00  0.00     0.116 C 
BRANCH  29  30
ATOM     30  N   UNL A   1      33.852  29.974  26.872  1.00  0.00    -0.352 N 
ATOM     31  C   UNL A   1      34.670  30.680  27.723  1.00  0.00     0.251 C 
ATOM     32  H   UNL A   1      33.034  30.446  26.592  1.00  0.00     0.163 HD
ATOM     33  O   UNL A   1      34.292  31.761  28.164  1.00  0.00    -0.269 OA
BRANCH  31  34
ATOM     34  C   UNL A   1      35.987  30.137  28.136  1.00  0.00     0.039 A 
ATOM     35  C   UNL A   1      37.028  30.137  27.200  1.00  0.00     0.014 A 
ATOM     36  C   UNL A   1      36.194  29.598  29.408  1.00  0.00     0.014 A 
ATOM     37  C   UNL A   1      38.292  29.654  27.558  1.00  0.00     0.010 A 
ATOM     38  C   UNL A   1      37.464  29.146  29.775  1.00  0.00     0.010 A 
ATOM     39  C   UNL A   1      38.525  29.177  28.857  1.00  0.00    -0.014 A 
BRANCH  39  40
ATOM     40  C   UNL A   1      39.877  28.731  29.276  1.00  0.00     0.031 A 
ATOM     41  C   UNL A   1      40.787  29.657  30.032  1.00  0.00     0.074 A 
ATOM     42  C   UNL A   1      40.311  27.506  28.924  1.00  0.00     0.049 A 
ATOM     43  N   UNL A   1      42.032  29.474  30.392  1.00  0.00    -0.248 NA
ATOM     44  C   UNL A   1      40.230  30.963  30.418  1.00  0.00     0.031 C 
ATOM     45  C   UNL A   1      39.540  26.518  28.168  1.00  0.00     0.029 A 
ATOM     46  N   UNL A   1      41.517  26.890  29.146  1.00  0.00    -0.354 N 
ATOM     47  C   UNL A   1      42.419  30.648  31.024  1.00  0.00     0.074 A 
ATOM     48  C   UNL A   1      41.277  31.540  30.993  1.00  0.00     0.031 C 
ATOM     49  C   UNL A   1      40.291  25.417  27.993  1.00  0.00     0.029 A 
ATOM     50  C   UNL A   1      41.600  25.631  28.602  1.00  0.00     0.049 A 
ATOM     51  H   UNL A   1      42.253  27.311  29.647  1.00  0.00     0.167 HD
ATOM     52  C   UNL A   1      43.615  30.959  31.579  1.00  0.00     0.031 A 
ATOM     53  C   UNL A   1      42.616  24.749  28.587  1.00  0.00     0.031 A 
ATOM     54  C   UNL A   1      44.750  30.078  31.629  1.00  0.00     0.049 A 
ATOM     55  C   UNL A   1      43.917  25.097  29.250  1.00  0.00     0.074 A 
ATOM     56  C   UNL A   1      45.999  30.309  32.181  1.00  0.00     0.029 A 
ATOM     57  N   UNL A   1      44.772  28.791  31.116  1.00  0.00    -0.354 N 
ATOM     58  N   UNL A   1      44.260  26.213  29.846  1.00  0.00    -0.248 NA
ATOM     59  C   UNL A   1      44.963  24.065  29.241  1.00  0.00     0.031 C 
ATOM     60  C   UNL A   1      46.780  29.161  31.994  1.00  0.00     0.029 A 
ATOM     61  C   UNL A   1      46.009  28.212  31.342  1.00  0.00     0.049 A 
ATOM     62  H   UNL A   1      44.018  28.352  30.660  1.00  0.00     0.167 HD
ATOM     63  C   UNL A   1      45.562  26.014  30.291  1.00  0.00     0.074 A 
ATOM     64  C   UNL A   1      45.940  24.670  29.906  1.00  0.00     0.031 C 
ATOM     65  C   UNL A   1      46.371  26.874  30.956  1.00  0.00     0.031 A 
BRANCH  52  66
ATOM     66  C   UNL A   1      43.751  32.335  32.167  1.00  0.00    -0.014 A 
ATOM     67  C   UNL A   1      43.387  32.585  33.501  1.00  0.00     0.010 A 
ATOM     68  C   UNL A   1      44.249  33.385  31.377  1.00  0.00     0.010 A 
ATOM     69  C   UNL A   1      43.478  33.878  34.025  1.00  0.00     0.020 A 
ATOM     70  C   UNL A   1      44.353  34.676  31.902  1.00  0.00     0.020 A 
ATOM     71  C   UNL A   1      43.946  34.918  33.216  1.00  0.00     0.054 A 
BRANCH  71  72
ATOM     72  S   UNL A   1      44.051  36.596  33.900  1.00  0.00     0.124 S 
ATOM     73  O   UNL A   1      42.752  37.150  33.527  1.00  0.00    -0.237 OA
ATOM     74  O   UNL A   1      44.245  36.359  35.328  1.00  0.00    -0.237 OA
ATOM     75  O   UNL A   1      45.200  37.173  33.208  1.00  0.00    -0.744 OA
ENDBRANCH  71  72
ENDBRANCH  52  66
BRANCH  53  76
ATOM     76  C   UNL A   1      42.435  23.437  27.918  1.00  0.00    -0.014 A 
ATOM     77  C   UNL A   1      42.939  23.229  26.623  1.00  0.00     0.010 A 
ATOM     78  C   UNL A   1      41.790  22.384  28.588  1.00  0.00     0.010 A 
ATOM     79  C   UNL A   1      42.796  21.985  26.004  1.00  0.00     0.020 A 
ATOM     80  C   UNL A   1      41.656  21.136  27.975  1.00  0.00     0.020 A 
ATOM     81  C   UNL A   1      42.154  20.946  26.684  1.00  0.00     0.054 A 
BRANCH  81  82
ATOM     82  S   UNL A   1      42.038  19.310  25.907  1.00  0.00     0.124 S 
ATOM     83  O   UNL A   1      42.528  18.436  26.968  1.00  0.00    -0.237 OA
ATOM     84  O   UNL A   1      40.615  19.194  25.598  1.00  0.00    -0.237 OA
ATOM     85  O   UNL A   1      42.910  19.436  24.740  1.00  0.00    -0.744 OA
ENDBRANCH  81  82
ENDBRANCH  53  76
BRANCH  65  86
ATOM     86  C   UNL A   1      47.739  26.378  31.323  1.00  0.00    -0.014 A 
ATOM     87  C   UNL A   1      48.814  26.511  30.428  1.00  0.00     0.010 A 
ATOM     88  C   UNL A   1      47.959  25.806  32.588  1.00  0.00     0.010 A 
ATOM     89  C   UNL A   1      50.088  26.061  30.784  1.00  0.00     0.020 A 
ATOM     90  C   UNL A   1      49.233  25.362  32.951  1.00  0.00     0.020 A 
ATOM     91  C   UNL A   1      50.288  25.482  32.041  1.00  0.00     0.054 A 
BRANCH  91  92
ATOM     92  S   UNL A   1      51.954  24.937  32.512  1.00  0.00     0.124 S 
ATOM     93  O   UNL A   1      52.786  25.630  31.533  1.00  0.00    -0.237 OA
ATOM     94  O   UNL A   1      52.080  25.407  33.888  1.00  0.00    -0.237 OA
ATOM     95  O   UNL A   1      51.890  23.484  32.362  1.00  0.00    -0.744 OA
ENDBRANCH  91  92
ENDBRANCH  65  86
ENDBRANCH  39  40
ENDBRANCH  31  34
ENDBRANCH  29  30
ENDBRANCH  28  29
ENDBRANCH   1  28
TORSDOF 18
ENDMDL
MODEL 3
REMARK VINA RESULT:     -10.6      4.165      9.462
REMARK SMILES O=C(NCCCCCCNC(=O)c1ccc(-c2c3nc(c(-c4ccc(S(=O)(=O)[O-])cc4)c4ccc([nH]4)c(-c4ccc(S(=O)(=O)[O-])cc4)c4nc(c(-c5ccc(S(=O)(=O)[O-])cc5)c5ccc2[nH]5)C=C4)C=C3)cc1)C1=NN(c2cc(F)ccc2F)[C@@H](c2ccccc2)C1
REMARK SMILES IDX 7 1 6 2 5 3 4 4 3 5 1 6 2 7 73 9 74 10 91 11 75 12 84 13
REMARK SMILES IDX 76 14 77 15 82 16 78 17 81 18 83 19 79 20 80 21 85 22 86 23
REMARK SMILES IDX 90 24 87 25 89 26 88 27 8 28 9 29 10 30 11 31 12 33 13 34
REMARK SMILES IDX 14 35 72 36 15 37 71 38 16 39 17 40 18 41 65 42 19 43 70 44
REMARK SMILES IDX 64 45 66 46 20 47 69 48 63 49 62 50 21 52 51 53 32 54 50 55
REMARK SMILES IDX 33 56 36 57 49 58 67 59 34 60 35 61 48 63 68 64 37 65 22 66
REMARK SMILES IDX 23 67 31 68 24 69 30 70 25 71 26 72 27 73 28 74 29 75 52 76
REMARK SMILES IDX 53 77 61 78 54 79 60 80 55 81 56 82 57 83 58 84 59 85 38 86
REMARK SMILES IDX 39 87 47 88 40 89 46 90 41 91 42 92 43 93 44 94 45 95
REMARK H PARENT 3 8 10 32 66 51 36 62
REMARK Flexibility Score: inf
ROOT
ATOM      1  C   UNL A   1      36.816  21.190  24.977  1.00  0.00     0.002 C 
ENDROOT
BRANCH   1   2
ATOM      2  C   UNL A   1      35.436  20.615  25.311  1.00  0.00     0.002 C 
BRANCH   2   3
ATOM      3  C   UNL A   1      34.267  21.145  24.472  1.00  0.00     0.021 C 
BRANCH   3   4
ATOM      4  C   UNL A   1      32.876  20.954  25.079  1.00  0.00     0.116 C 
BRANCH   4   5
ATOM      5  N   UNL A   1      32.871  21.147  26.519  1.00  0.00    -0.351 N 
ATOM      6  O   UNL A   1      32.580  22.356  28.431  1.00  0.00    -0.268 OA
ATOM      7  C   UNL A   1      32.563  22.292  27.209  1.00  0.00     0.267 C 
ATOM      8  H   UNL A   1      33.118  20.365  27.063  1.00  0.00     0.163 HD
BRANCH   7   9
ATOM      9  C   UNL A   1      32.250  23.536  26.430  1.00  0.00     0.128 C 
ATOM     10  N   UNL A   1      32.834  24.674  26.641  1.00  0.00    -0.171 NA
ATOM     11  C   UNL A   1      31.189  23.492  25.385  1.00  0.00     0.096 C 
ATOM     12  N   UNL A   1      32.222  25.565  25.807  1.00  0.00    -0.254 N 
ATOM     13  C   UNL A   1      31.239  24.946  24.905  1.00  0.00     0.144 C 
BRANCH  12  14
ATOM     14  C   UNL A   1      32.537  26.921  25.849  1.00  0.00     0.099 A 
ATOM     15  C   UNL A   1      31.765  27.800  26.628  1.00  0.00     0.070 A 
ATOM     16  C   UNL A   1      33.612  27.487  25.136  1.00  0.00     0.148 A 
ATOM     17  C   UNL A   1      32.079  29.155  26.707  1.00  0.00     0.125 A 
ATOM     18  C   UNL A   1      33.915  28.849  25.201  1.00  0.00     0.044 A 
ATOM     19  F   UNL A   1      34.369  26.730  24.326  1.00  0.00    -0.205 F 
ATOM     20  F   UNL A   1      31.345  29.958  27.489  1.00  0.00    -0.207 F 
ATOM     21  C   UNL A   1      33.147  29.690  25.998  1.00  0.00     0.042 A 
ENDBRANCH  12  14
BRANCH  13  22
ATOM     22  C   UNL A   1      31.669  25.070  23.451  1.00  0.00    -0.023 A 
ATOM     23  C   UNL A   1      32.594  24.181  22.875  1.00  0.00     0.006 A 
ATOM     24  C   UNL A   1      31.171  26.119  22.662  1.00  0.00     0.006 A 
ATOM     25  C   UNL A   1      33.006  24.338  21.551  1.00  0.00     0.000 A 
ATOM     26  C   UNL A   1      31.588  26.276  21.338  1.00  0.00     0.000 A 
ATOM     27  C   UNL A   1      32.504  25.387  20.784  1.00  0.00     0.000 A 
ENDBRANCH  13  22
ENDBRANCH   7   9
ENDBRANCH   4   5
ENDBRANCH   3   4
ENDBRANCH   2   3
ENDBRANCH   1   2
BRANCH   1  28
ATOM     28  C   UNL A   1      37.978  20.193  24.963  1.00  0.00     0.021 C 
BRANCH  28  29
ATOM     29  C   UNL A   1      39.201  20.571  25.800  1.00  0.00     0.116 C 
BRANCH  29  30
ATOM     30  N   UNL A   1      40.185  19.506  25.878  1.00  0.00    -0.352 N 
ATOM     31  C   UNL A   1      41.536  19.576  26.119  1.00  0.00     0.251 C 
ATOM     32  H   UNL A   1      39.832  18.598  25.738  1.00  0.00     0.163 HD
ATOM     33  O   UNL A   1      42.218  18.559  26.028  1.00  0.00    -0.269 OA
BRANCH  31  34
ATOM     34  C   UNL A   1      42.183  20.868  26.456  1.00  0.00     0.039 A 
ATOM     35  C   UNL A   1      42.619  21.686  25.408  1.00  0.00     0.014 A 
ATOM     36  C   UNL A   1      42.399  21.258  27.780  1.00  0.00     0.014 A 
ATOM     37  C   UNL A   1      43.214  22.922  25.685  1.00  0.00     0.010 A 
ATOM     38  C   UNL A   1      42.964  22.506  28.056  1.00  0.00     0.010 A 
ATOM     39  C   UNL A   1      43.369  23.351  27.012  1.00  0.00    -0.014 A 
BRANCH  39  40
ATOM     40  C   UNL A   1      43.930  24.689  27.321  1.00  0.00     0.031 A 
ATOM     41  C   UNL A   1      43.036  25.803  27.789  1.00  0.00     0.074 A 
ATOM     42  C   UNL A   1      45.241  24.922  27.126  1.00  0.00     0.049 A 
ATOM     43  N   UNL A   1      43.333  27.058  28.010  1.00  0.00    -0.248 NA
ATOM     44  C   UNL A   1      41.623  25.465  28.020  1.00  0.00     0.031 C 
ATOM     45  C   UNL A   1      46.216  23.937  26.652  1.00  0.00     0.029 A 
ATOM     46  N   UNL A   1      45.978  26.068  27.290  1.00  0.00    -0.354 N 
ATOM     47  C   UNL A   1      42.143  27.668  28.382  1.00  0.00     0.074 A 
ATOM     48  C   UNL A   1      41.117  26.646  28.350  1.00  0.00     0.031 C 
ATOM     49  C   UNL A   1      47.423  24.521  26.568  1.00  0.00     0.029 A 
ATOM     50  C   UNL A   1      47.303  25.923  26.958  1.00  0.00     0.049 A 
ATOM     51  H   UNL A   1      45.593  26.914  27.614  1.00  0.00     0.167 HD
ATOM     52  C   UNL A   1      41.920  28.962  28.719  1.00  0.00     0.031 A 
ATOM     53  C   UNL A   1      48.310  26.816  26.960  1.00  0.00     0.031 A 
ATOM     54  C   UNL A   1      42.933  29.982  28.768  1.00  0.00     0.049 A 
ATOM     55  C   UNL A   1      48.050  28.233  27.381  1.00  0.00     0.074 A 
ATOM     56  C   UNL A   1      42.796  31.318  29.108  1.00  0.00     0.029 A 
ATOM     57  N   UNL A   1      44.273  29.778  28.479  1.00  0.00    -0.354 N 
ATOM     58  N   UNL A   1      46.916  28.788  27.734  1.00  0.00    -0.248 NA
ATOM     59  C   UNL A   1      49.206  29.140  27.411  1.00  0.00     0.031 C 
ATOM     60  C   UNL A   1      44.056  31.924  29.016  1.00  0.00     0.029 A 
ATOM     61  C   UNL A   1      44.977  30.960  28.637  1.00  0.00     0.049 A 
ATOM     62  H   UNL A   1      44.666  28.919  28.203  1.00  0.00     0.167 HD
ATOM     63  C   UNL A   1      47.223  30.110  28.034  1.00  0.00     0.074 A 
ATOM     64  C   UNL A   1      48.648  30.268  27.833  1.00  0.00     0.031 C 
ATOM     65  C   UNL A   1      46.394  31.103  28.436  1.00  0.00     0.031 A 
BRANCH  52  66
ATOM     66  C   UNL A   1      40.505  29.343  29.046  1.00  0.00    -0.014 A 
ATOM     67  C   UNL A   1      39.582  29.620  28.023  1.00  0.00     0.010 A 
ATOM     68  C   UNL A   1      40.096  29.424  30.388  1.00  0.00     0.010 A 
ATOM     69  C   UNL A   1      38.278  30.014  28.338  1.00  0.00     0.020 A 
ATOM     70  C   UNL A   1      38.790  29.806  30.706  1.00  0.00     0.020 A 
ATOM     71  C   UNL A   1      37.896  30.120  29.679  1.00  0.00     0.054 A 
BRANCH  71  72
ATOM     72  S   UNL A   1      36.206  30.644  30.082  1.00  0.00     0.124 S 
ATOM     73  O   UNL A   1      35.449  30.095  28.959  1.00  0.00    -0.237 OA
ATOM     74  O   UNL A   1      35.961  30.009  31.373  1.00  0.00    -0.237 OA
ATOM     75  O   UNL A   1      36.301  32.101  30.118  1.00  0.00    -0.744 OA
ENDBRANCH  71  72
ENDBRANCH  52  66
BRANCH  53  76
ATOM     76  C   UNL A   1      49.669  26.387  26.548  1.00  0.00    -0.014 A 
ATOM     77  C   UNL A   1      50.541  25.808  27.484  1.00  0.00     0.010 A 
ATOM     78  C   UNL A   1      50.079  26.524  25.210  1.00  0.00     0.010 A 
ATOM     79  C   UNL A   1      51.810  25.376  27.091  1.00  0.00     0.020 A 
ATOM     80  C   UNL A   1      51.343  26.081  24.813  1.00  0.00     0.020 A 
ATOM     81  C   UNL A   1      52.203  25.516  25.756  1.00  0.00     0.054 A 
BRANCH  81  82
ATOM     82  S   UNL A   1      53.822  24.883  25.233  1.00  0.00     0.124 S 
ATOM     83  O   UNL A   1      53.541  23.465  25.032  1.00  0.00    -0.237 OA
ATOM     84  O   UNL A   1      54.098  25.652  24.022  1.00  0.00    -0.237 OA
ATOM     85  O   UNL A   1      54.684  25.201  26.370  1.00  0.00    -0.744 OA
ENDBRANCH  81  82
ENDBRANCH  53  76
BRANCH  65  86
ATOM     86  C   UNL A   1      47.013  32.444  28.702  1.00  0.00    -0.014 A 
ATOM     87  C   UNL A   1      47.449  32.788  29.992  1.00  0.00     0.010 A 
ATOM     88  C   UNL A   1      47.194  33.352  27.645  1.00  0.00     0.010 A 
ATOM     89  C   UNL A   1      48.039  34.033  30.228  1.00  0.00     0.020 A 
ATOM     90  C   UNL A   1      47.791  34.594  27.875  1.00  0.00     0.020 A 
ATOM     91  C   UNL A   1      48.199  34.932  29.169  1.00  0.00     0.054 A 
BRANCH  91  92
ATOM     92  S   UNL A   1      49.004  36.530  29.475  1.00  0.00     0.124 S 
ATOM     93  O   UNL A   1      48.198  37.434  28.660  1.00  0.00    -0.237 OA
ATOM     94  O   UNL A   1      48.869  36.697  30.919  1.00  0.00    -0.237 OA
ATOM     95  O   UNL A   1      50.371  36.315  29.006  1.00  0.00    -0.744 OA
ENDBRANCH  91  92
ENDBRANCH  65  86
ENDBRANCH  39  40
ENDBRANCH  31  34
ENDBRANCH  29  30
ENDBRANCH  28  29
ENDBRANCH   1  28
TORSDOF 18
ENDMDL
