MODEL 1
REMARK VINA RESULT:     -10.8      0.000      0.000
REMARK SMILES Cc1cccc(Nc2ccccc2C(=O)NCCCCCCNC(=O)c2ccc(-c3c4nc(c(-c5ccc(S(=O)(=O)[O-])cc5)c5ccc([nH]5)c(-c5ccc(S(=O)(=O)[O-])cc5)c5nc(c(-c6ccc(S(=O)(=O)[O-])cc6)c6ccc3[nH]6)C=C5)C=C4)cc2)c1C
REMARK SMILES IDX 20 1 19 2 18 3 17 4 16 5 14 6 15 7 13 9 8 10 9 11 10 12
REMARK SMILES IDX 12 13 11 14 7 15 6 17 1 18 2 19 3 20 86 21 4 22 87 23 5 24
REMARK SMILES IDX 21 25 22 26 23 27 24 28 25 30 26 31 27 32 85 33 28 34 84 35
REMARK SMILES IDX 29 36 30 37 31 38 78 39 32 40 83 41 77 42 79 43 33 44 82 45
REMARK SMILES IDX 76 46 75 47 34 49 64 50 45 51 63 52 46 53 49 54 62 55 80 56
REMARK SMILES IDX 47 57 48 58 61 60 81 61 50 62 35 63 36 64 44 65 37 66 43 67
REMARK SMILES IDX 38 68 39 69 40 70 41 71 42 72 65 73 66 74 74 75 67 76 73 77
REMARK SMILES IDX 68 78 69 79 70 80 71 81 72 82 51 83 52 84 60 85 53 86 59 87
REMARK SMILES IDX 54 88 55 89 56 90 57 91 58 92
REMARK H PARENT 16 8 7 16 23 29 79 48 49 59
REMARK Flexibility Score: inf
ROOT
ATOM      1  C   UNL A   1      33.583  23.934  26.340  1.00  0.00     0.002 C 
ENDROOT
BRANCH   1   2
ATOM      2  C   UNL A   1      32.695  24.935  25.587  1.00  0.00     0.002 C 
BRANCH   2   3
ATOM      3  C   UNL A   1      31.261  25.136  26.096  1.00  0.00     0.021 C 
BRANCH   3   4
ATOM      4  C   UNL A   1      30.373  26.074  25.283  1.00  0.00     0.116 C 
BRANCH   4   5
ATOM      5  N   UNL A   1      30.598  26.030  23.859  1.00  0.00    -0.352 N 
ATOM      6  C   UNL A   1      30.442  27.010  22.907  1.00  0.00     0.253 C 
ATOM      7  O   UNL A   1      30.820  26.736  21.763  1.00  0.00    -0.269 OA
ATOM      8  H   UNL A   1      30.914  25.163  23.515  1.00  0.00     0.163 HD
BRANCH   6   9
ATOM      9  C   UNL A   1      29.735  28.312  23.129  1.00  0.00     0.063 A 
ATOM     10  C   UNL A   1      30.238  29.511  23.675  1.00  0.00     0.051 A 
ATOM     11  C   UNL A   1      29.339  30.596  23.841  1.00  0.00     0.027 A 
ATOM     12  C   UNL A   1      28.013  30.542  23.414  1.00  0.00     0.002 A 
ATOM     13  C   UNL A   1      28.388  28.289  22.684  1.00  0.00     0.016 A 
ATOM     14  C   UNL A   1      27.541  29.391  22.811  1.00  0.00     0.001 A 
BRANCH  10  15
ATOM     15  N   UNL A   1      31.580  29.830  23.965  1.00  0.00    -0.355 N 
ATOM     16  H   UNL A   1      32.002  30.380  23.267  1.00  0.00     0.167 HD
BRANCH  15  17
ATOM     17  C   UNL A   1      32.454  29.538  25.034  1.00  0.00     0.042 A 
ATOM     18  C   UNL A   1      34.081  30.953  28.199  1.00  0.00     0.044 C 
ATOM     19  C   UNL A   1      33.755  30.064  27.028  1.00  0.00    -0.046 A 
ATOM     20  C   UNL A   1      34.554  28.934  26.806  1.00  0.00     0.004 A 
ATOM     21  C   UNL A   1      32.649  30.335  26.178  1.00  0.00    -0.025 A 
ATOM     22  C   UNL A   1      34.284  28.079  25.750  1.00  0.00     0.002 A 
ATOM     23  C   UNL A   1      31.684  31.424  26.570  1.00  0.00     0.047 C 
ATOM     24  C   UNL A   1      33.252  28.386  24.870  1.00  0.00     0.026 A 
ENDBRANCH  15  17
ENDBRANCH  10  15
ENDBRANCH   6   9
ENDBRANCH   4   5
ENDBRANCH   3   4
ENDBRANCH   2   3
ENDBRANCH   1   2
BRANCH   1  25
ATOM     25  C   UNL A   1      34.796  23.383  25.588  1.00  0.00     0.021 C 
BRANCH  25  26
ATOM     26  C   UNL A   1      36.157  23.924  26.010  1.00  0.00     0.116 C 
BRANCH  26  27
ATOM     27  N   UNL A   1      37.207  22.923  25.953  1.00  0.00    -0.352 N 
ATOM     28  C   UNL A   1      38.540  23.018  26.278  1.00  0.00     0.251 C 
ATOM     29  H   UNL A   1      36.921  22.038  25.631  1.00  0.00     0.163 HD
ATOM     30  O   UNL A   1      39.293  22.085  26.015  1.00  0.00    -0.269 OA
BRANCH  28  31
ATOM     31  C   UNL A   1      39.083  24.241  26.920  1.00  0.00     0.039 A 
ATOM     32  C   UNL A   1      39.852  25.121  26.149  1.00  0.00     0.014 A 
ATOM     33  C   UNL A   1      38.874  24.513  28.273  1.00  0.00     0.014 A 
ATOM     34  C   UNL A   1      40.358  26.295  26.719  1.00  0.00     0.010 A 
ATOM     35  C   UNL A   1      39.311  25.718  28.820  1.00  0.00     0.010 A 
ATOM     36  C   UNL A   1      40.066  26.619  28.053  1.00  0.00    -0.014 A 
BRANCH  36  37
ATOM     37  C   UNL A   1      40.552  27.878  28.679  1.00  0.00     0.031 A 
ATOM     38  C   UNL A   1      41.947  27.946  29.244  1.00  0.00     0.074 A 
ATOM     39  C   UNL A   1      39.718  28.929  28.819  1.00  0.00     0.049 A 
ATOM     40  N   UNL A   1      42.512  28.903  29.934  1.00  0.00    -0.248 NA
ATOM     41  C   UNL A   1      42.806  26.770  29.033  1.00  0.00     0.031 C 
ATOM     42  C   UNL A   1      38.333  28.981  28.346  1.00  0.00     0.029 A 
ATOM     43  N   UNL A   1      39.911  30.150  29.416  1.00  0.00    -0.354 N 
ATOM     44  C   UNL A   1      43.777  28.432  30.270  1.00  0.00     0.074 A 
ATOM     45  C   UNL A   1      43.880  27.089  29.740  1.00  0.00     0.031 C 
ATOM     46  C   UNL A   1      37.806  30.175  28.662  1.00  0.00     0.029 A 
ATOM     47  C   UNL A   1      38.797  30.958  29.395  1.00  0.00     0.049 A 
ATOM     48  H   UNL A   1      40.765  30.422  29.822  1.00  0.00     0.167 HD
ATOM     49  C   UNL A   1      44.769  29.061  30.945  1.00  0.00     0.031 A 
ATOM     50  C   UNL A   1      38.589  32.182  29.918  1.00  0.00     0.031 A 
ATOM     51  C   UNL A   1      44.673  30.407  31.445  1.00  0.00     0.049 A 
ATOM     52  C   UNL A   1      39.706  32.870  30.652  1.00  0.00     0.074 A 
ATOM     53  C   UNL A   1      45.647  31.158  32.079  1.00  0.00     0.029 A 
ATOM     54  N   UNL A   1      43.539  31.200  31.370  1.00  0.00    -0.354 N 
ATOM     55  N   UNL A   1      40.916  32.431  30.905  1.00  0.00    -0.248 NA
ATOM     56  C   UNL A   1      39.435  34.221  31.164  1.00  0.00     0.031 C 
ATOM     57  C   UNL A   1      45.086  32.391  32.429  1.00  0.00     0.029 A 
ATOM     58  C   UNL A   1      43.781  32.427  31.965  1.00  0.00     0.049 A 
ATOM     59  H   UNL A   1      42.688  30.931  30.955  1.00  0.00     0.167 HD
ATOM     60  C   UNL A   1      41.559  33.460  31.582  1.00  0.00     0.074 A 
ATOM     61  C   UNL A   1      40.608  34.547  31.693  1.00  0.00     0.031 C 
ATOM     62  C   UNL A   1      42.825  33.502  32.064  1.00  0.00     0.031 A 
BRANCH  49  63
ATOM     63  C   UNL A   1      46.039  28.290  31.194  1.00  0.00    -0.014 A 
ATOM     64  C   UNL A   1      47.089  28.289  30.257  1.00  0.00     0.010 A 
ATOM     65  C   UNL A   1      46.195  27.574  32.394  1.00  0.00     0.010 A 
ATOM     66  C   UNL A   1      48.245  27.541  30.490  1.00  0.00     0.020 A 
ATOM     67  C   UNL A   1      47.363  26.848  32.646  1.00  0.00     0.020 A 
ATOM     68  C   UNL A   1      48.371  26.817  31.680  1.00  0.00     0.054 A 
BRANCH  68  69
ATOM     69  S   UNL A   1      49.881  25.854  31.959  1.00  0.00     0.124 S 
ATOM     70  O   UNL A   1      49.376  24.722  32.733  1.00  0.00    -0.237 OA
ATOM     71  O   UNL A   1      50.319  25.539  30.600  1.00  0.00    -0.237 OA
ATOM     72  O   UNL A   1      50.749  26.772  32.693  1.00  0.00    -0.744 OA
ENDBRANCH  68  69
ENDBRANCH  49  63
BRANCH  50  73
ATOM     73  C   UNL A   1      37.262  32.835  29.751  1.00  0.00    -0.014 A 
ATOM     74  C   UNL A   1      36.318  32.808  30.793  1.00  0.00     0.010 A 
ATOM     75  C   UNL A   1      36.952  33.526  28.565  1.00  0.00     0.010 A 
ATOM     76  C   UNL A   1      35.087  33.456  30.650  1.00  0.00     0.020 A 
ATOM     77  C   UNL A   1      35.732  34.195  28.428  1.00  0.00     0.020 A 
ATOM     78  C   UNL A   1      34.804  34.150  29.470  1.00  0.00     0.054 A 
BRANCH  78  79
ATOM     79  S   UNL A   1      33.233  35.049  29.337  1.00  0.00     0.124 S 
ATOM     80  O   UNL A   1      32.710  34.950  30.696  1.00  0.00    -0.237 OA
ATOM     81  O   UNL A   1      33.666  36.380  28.921  1.00  0.00    -0.237 OA
ATOM     82  O   UNL A   1      32.495  34.297  28.324  1.00  0.00    -0.744 OA
ENDBRANCH  78  79
ENDBRANCH  50  73
BRANCH  62  83
ATOM     83  C   UNL A   1      43.281  34.772  32.729  1.00  0.00    -0.014 A 
ATOM     84  C   UNL A   1      43.878  35.807  31.990  1.00  0.00     0.010 A 
ATOM     85  C   UNL A   1      43.023  34.966  34.099  1.00  0.00     0.010 A 
ATOM     86  C   UNL A   1      44.219  37.011  32.611  1.00  0.00     0.020 A 
ATOM     87  C   UNL A   1      43.341  36.177  34.718  1.00  0.00     0.020 A 
ATOM     88  C   UNL A   1      43.944  37.191  33.970  1.00  0.00     0.054 A 
BRANCH  88  89
ATOM     89  S   UNL A   1      44.326  38.791  34.736  1.00  0.00     0.124 S 
ATOM     90  O   UNL A   1      43.366  39.676  34.082  1.00  0.00    -0.237 OA
ATOM     91  O   UNL A   1      44.081  38.534  36.153  1.00  0.00    -0.237 OA
ATOM     92  O   UNL A   1      45.725  39.019  34.383  1.00  0.00    -0.744 OA
ENDBRANCH  88  89
ENDBRANCH  62  83
ENDBRANCH  36  37
ENDBRANCH  28  31
ENDBRANCH  26  27
ENDBRANCH  25  26
ENDBRANCH   1  25
TORSDOF 18
ENDMDL
MODEL 2
REMARK VINA RESULT:     -10.6      3.378      9.588
REMARK SMILES Cc1cccc(Nc2ccccc2C(=O)NCCCCCCNC(=O)c2ccc(-c3c4nc(c(-c5ccc(S(=O)(=O)[O-])cc5)c5ccc([nH]5)c(-c5ccc(S(=O)(=O)[O-])cc5)c5nc(c(-c6ccc(S(=O)(=O)[O-])cc6)c6ccc3[nH]6)C=C5)C=C4)cc2)c1C
REMARK SMILES IDX 20 1 19 2 18 3 17 4 16 5 14 6 15 7 13 9 8 10 9 11 10 12
REMARK SMILES IDX 12 13 11 14 7 15 6 17 1 18 2 19 3 20 86 21 4 22 87 23 5 24
REMARK SMILES IDX 21 25 22 26 23 27 24 28 25 30 26 31 27 32 85 33 28 34 84 35
REMARK SMILES IDX 29 36 30 37 31 38 78 39 32 40 83 41 77 42 79 43 33 44 82 45
REMARK SMILES IDX 76 46 75 47 34 49 64 50 45 51 63 52 46 53 49 54 62 55 80 56
REMARK SMILES IDX 47 57 48 58 61 60 81 61 50 62 35 63 36 64 44 65 37 66 43 67
REMARK SMILES IDX 38 68 39 69 40 70 41 71 42 72 65 73 66 74 74 75 67 76 73 77
REMARK SMILES IDX 68 78 69 79 70 80 71 81 72 82 51 83 52 84 60 85 53 86 59 87
REMARK SMILES IDX 54 88 55 89 56 90 57 91 58 92
REMARK H PARENT 16 8 7 16 23 29 79 48 49 59
REMARK Flexibility Score: inf
ROOT
ATOM      1  C   UNL A   1      32.778  26.658  26.111  1.00  0.00     0.002 C 
ENDROOT
BRANCH   1   2
ATOM      2  C   UNL A   1      33.684  26.088  25.011  1.00  0.00     0.002 C 
BRANCH   2   3
ATOM      3  C   UNL A   1      33.026  25.692  23.681  1.00  0.00     0.021 C 
BRANCH   3   4
ATOM      4  C   UNL A   1      33.824  24.758  22.776  1.00  0.00     0.116 C 
BRANCH   4   5
ATOM      5  N   UNL A   1      33.214  23.471  22.553  1.00  0.00    -0.352 N 
ATOM      6  C   UNL A   1      32.811  22.513  23.453  1.00  0.00     0.253 C 
ATOM      7  O   UNL A   1      32.207  21.539  22.993  1.00  0.00    -0.269 OA
ATOM      8  H   UNL A   1      33.063  23.241  21.607  1.00  0.00     0.163 HD
BRANCH   6   9
ATOM      9  C   UNL A   1      33.166  22.506  24.909  1.00  0.00     0.063 A 
ATOM     10  C   UNL A   1      34.436  22.385  25.510  1.00  0.00     0.051 A 
ATOM     11  C   UNL A   1      34.501  22.341  26.926  1.00  0.00     0.027 A 
ATOM     12  C   UNL A   1      33.374  22.492  27.733  1.00  0.00     0.002 A 
ATOM     13  C   UNL A   1      32.037  22.677  25.750  1.00  0.00     0.016 A 
ATOM     14  C   UNL A   1      32.138  22.684  27.142  1.00  0.00     0.001 A 
BRANCH  10  15
ATOM     15  N   UNL A   1      35.697  22.436  24.881  1.00  0.00    -0.355 N 
ATOM     16  H   UNL A   1      35.641  22.329  23.904  1.00  0.00     0.167 HD
BRANCH  15  17
ATOM     17  C   UNL A   1      37.021  22.605  25.338  1.00  0.00     0.042 A 
ATOM     18  C   UNL A   1      40.167  20.762  26.509  1.00  0.00     0.044 C 
ATOM     19  C   UNL A   1      39.166  21.847  26.217  1.00  0.00    -0.046 A 
ATOM     20  C   UNL A   1      39.445  23.148  26.658  1.00  0.00     0.004 A 
ATOM     21  C   UNL A   1      37.976  21.581  25.488  1.00  0.00    -0.025 A 
ATOM     22  C   UNL A   1      38.561  24.184  26.400  1.00  0.00     0.002 A 
ATOM     23  C   UNL A   1      37.810  20.230  24.841  1.00  0.00     0.047 C 
ATOM     24  C   UNL A   1      37.359  23.909  25.757  1.00  0.00     0.026 A 
ENDBRANCH  15  17
ENDBRANCH  10  15
ENDBRANCH   6   9
ENDBRANCH   4   5
ENDBRANCH   3   4
ENDBRANCH   2   3
ENDBRANCH   1   2
BRANCH   1  25
ATOM     25  C   UNL A   1      33.315  27.854  26.899  1.00  0.00     0.021 C 
BRANCH  25  26
ATOM     26  C   UNL A   1      34.094  28.895  26.104  1.00  0.00     0.116 C 
BRANCH  26  27
ATOM     27  N   UNL A   1      33.846  30.253  26.552  1.00  0.00    -0.352 N 
ATOM     28  C   UNL A   1      34.488  31.000  27.512  1.00  0.00     0.251 C 
ATOM     29  H   UNL A   1      33.103  30.711  26.098  1.00  0.00     0.163 HD
ATOM     30  O   UNL A   1      34.021  32.087  27.841  1.00  0.00    -0.269 OA
BRANCH  28  31
ATOM     31  C   UNL A   1      35.720  30.500  28.171  1.00  0.00     0.039 A 
ATOM     32  C   UNL A   1      36.963  30.892  27.661  1.00  0.00     0.014 A 
ATOM     33  C   UNL A   1      35.664  29.625  29.258  1.00  0.00     0.014 A 
ATOM     34  C   UNL A   1      38.142  30.456  28.276  1.00  0.00     0.010 A 
ATOM     35  C   UNL A   1      36.836  29.253  29.916  1.00  0.00     0.010 A 
ATOM     36  C   UNL A   1      38.089  29.657  29.428  1.00  0.00    -0.014 A 
BRANCH  36  37
ATOM     37  C   UNL A   1      39.322  29.209  30.129  1.00  0.00     0.031 A 
ATOM     38  C   UNL A   1      39.779  29.924  31.375  1.00  0.00     0.074 A 
ATOM     39  C   UNL A   1      40.078  28.224  29.604  1.00  0.00     0.049 A 
ATOM     40  N   UNL A   1      40.884  29.768  32.058  1.00  0.00    -0.248 NA
ATOM     41  C   UNL A   1      38.891  30.972  31.901  1.00  0.00     0.031 C 
ATOM     42  C   UNL A   1      39.767  27.474  28.385  1.00  0.00     0.029 A 
ATOM     43  N   UNL A   1      41.275  27.696  30.022  1.00  0.00    -0.354 N 
ATOM     44  C   UNL A   1      40.841  30.720  33.070  1.00  0.00     0.074 A 
ATOM     45  C   UNL A   1      39.619  31.474  32.887  1.00  0.00     0.031 C 
ATOM     46  C   UNL A   1      40.741  26.577  28.161  1.00  0.00     0.029 A 
ATOM     47  C   UNL A   1      41.765  26.713  29.192  1.00  0.00     0.049 A 
ATOM     48  H   UNL A   1      41.739  27.991  30.838  1.00  0.00     0.167 HD
ATOM     49  C   UNL A   1      41.729  30.942  34.069  1.00  0.00     0.031 A 
ATOM     50  C   UNL A   1      42.915  26.013  29.243  1.00  0.00     0.031 A 
ATOM     51  C   UNL A   1      42.928  30.171  34.264  1.00  0.00     0.049 A 
ATOM     52  C   UNL A   1      43.881  26.263  30.368  1.00  0.00     0.074 A 
ATOM     53  C   UNL A   1      43.855  30.270  35.287  1.00  0.00     0.029 A 
ATOM     54  N   UNL A   1      43.368  29.163  33.420  1.00  0.00    -0.354 N 
ATOM     55  N   UNL A   1      43.792  27.126  31.351  1.00  0.00    -0.248 NA
ATOM     56  C   UNL A   1      45.099  25.440  30.396  1.00  0.00     0.031 C 
ATOM     57  C   UNL A   1      44.881  29.352  35.036  1.00  0.00     0.029 A 
ATOM     58  C   UNL A   1      44.564  28.645  33.886  1.00  0.00     0.049 A 
ATOM     59  H   UNL A   1      42.898  28.860  32.610  1.00  0.00     0.167 HD
ATOM     60  C   UNL A   1      44.928  26.933  32.130  1.00  0.00     0.074 A 
ATOM     61  C   UNL A   1      45.685  25.865  31.508  1.00  0.00     0.031 C 
ATOM     62  C   UNL A   1      45.305  27.579  33.260  1.00  0.00     0.031 A 
BRANCH  49  63
ATOM     63  C   UNL A   1      41.439  32.074  35.019  1.00  0.00    -0.014 A 
ATOM     64  C   UNL A   1      40.704  31.867  36.200  1.00  0.00     0.010 A 
ATOM     65  C   UNL A   1      41.930  33.362  34.737  1.00  0.00     0.010 A 
ATOM     66  C   UNL A   1      40.417  32.937  37.052  1.00  0.00     0.020 A 
ATOM     67  C   UNL A   1      41.671  34.430  35.602  1.00  0.00     0.020 A 
ATOM     68  C   UNL A   1      40.895  34.214  36.742  1.00  0.00     0.054 A 
BRANCH  68  69
ATOM     69  S   UNL A   1      40.508  35.585  37.864  1.00  0.00     0.124 S 
ATOM     70  O   UNL A   1      39.594  34.949  38.811  1.00  0.00    -0.237 OA
ATOM     71  O   UNL A   1      41.818  35.943  38.401  1.00  0.00    -0.237 OA
ATOM     72  O   UNL A   1      39.900  36.587  36.991  1.00  0.00    -0.744 OA
ENDBRANCH  68  69
ENDBRANCH  49  63
BRANCH  50  73
ATOM     73  C   UNL A   1      43.203  24.998  28.194  1.00  0.00    -0.014 A 
ATOM     74  C   UNL A   1      43.924  25.350  27.039  1.00  0.00     0.010 A 
ATOM     75  C   UNL A   1      42.795  23.661  28.363  1.00  0.00     0.010 A 
ATOM     76  C   UNL A   1      44.228  24.387  26.073  1.00  0.00     0.020 A 
ATOM     77  C   UNL A   1      43.119  22.691  27.411  1.00  0.00     0.020 A 
ATOM     78  C   UNL A   1      43.828  23.062  26.267  1.00  0.00     0.054 A 
BRANCH  78  79
ATOM     79  S   UNL A   1      44.301  21.814  25.038  1.00  0.00     0.124 S 
ATOM     80  O   UNL A   1      43.333  20.752  25.294  1.00  0.00    -0.237 OA
ATOM     81  O   UNL A   1      44.133  22.533  23.778  1.00  0.00    -0.237 OA
ATOM     82  O   UNL A   1      45.685  21.500  25.386  1.00  0.00    -0.744 OA
ENDBRANCH  78  79
ENDBRANCH  50  73
BRANCH  62  83
ATOM     83  C   UNL A   1      46.577  27.136  33.929  1.00  0.00    -0.014 A 
ATOM     84  C   UNL A   1      46.583  26.078  34.854  1.00  0.00     0.010 A 
ATOM     85  C   UNL A   1      47.798  27.728  33.554  1.00  0.00     0.010 A 
ATOM     86  C   UNL A   1      47.787  25.628  35.403  1.00  0.00     0.020 A 
ATOM     87  C   UNL A   1      49.005  27.265  34.082  1.00  0.00     0.020 A 
ATOM     88  C   UNL A   1      48.991  26.221  35.010  1.00  0.00     0.054 A 
BRANCH  88  89
ATOM     89  S   UNL A   1      50.547  25.567  35.677  1.00  0.00     0.124 S 
ATOM     90  O   UNL A   1      50.171  25.229  37.047  1.00  0.00    -0.237 OA
ATOM     91  O   UNL A   1      50.818  24.430  34.800  1.00  0.00    -0.237 OA
ATOM     92  O   UNL A   1      51.478  26.685  35.544  1.00  0.00    -0.744 OA
ENDBRANCH  88  89
ENDBRANCH  62  83
ENDBRANCH  36  37
ENDBRANCH  28  31
ENDBRANCH  26  27
ENDBRANCH  25  26
ENDBRANCH   1  25
TORSDOF 18
ENDMDL
MODEL 3
REMARK VINA RESULT:     -10.5      1.267      2.977
REMARK SMILES Cc1cccc(Nc2ccccc2C(=O)NCCCCCCNC(=O)c2ccc(-c3c4nc(c(-c5ccc(S(=O)(=O)[O-])cc5)c5ccc([nH]5)c(-c5ccc(S(=O)(=O)[O-])cc5)c5nc(c(-c6ccc(S(=O)(=O)[O-])cc6)c6ccc3[nH]6)C=C5)C=C4)cc2)c1C
REMARK SMILES IDX 20 1 19 2 18 3 17 4 16 5 14 6 15 7 13 9 8 10 9 11 10 12
REMARK SMILES IDX 12 13 11 14 7 15 6 17 1 18 2 19 3 20 86 21 4 22 87 23 5 24
REMARK SMILES IDX 21 25 22 26 23 27 24 28 25 30 26 31 27 32 85 33 28 34 84 35
REMARK SMILES IDX 29 36 30 37 31 38 78 39 32 40 83 41 77 42 79 43 33 44 82 45
REMARK SMILES IDX 76 46 75 47 34 49 64 50 45 51 63 52 46 53 49 54 62 55 80 56
REMARK SMILES IDX 47 57 48 58 61 60 81 61 50 62 35 63 36 64 44 65 37 66 43 67
REMARK SMILES IDX 38 68 39 69 40 70 41 71 42 72 65 73 66 74 74 75 67 76 73 77
REMARK SMILES IDX 68 78 69 79 70 80 71 81 72 82 51 83 52 84 60 85 53 86 59 87
REMARK SMILES IDX 54 88 55 89 56 90 57 91 58 92
REMARK H PARENT 16 8 7 16 23 29 79 48 49 59
REMARK Flexibility Score: inf
ROOT
ATOM      1  C   UNL A   1      35.085  23.876  23.298  1.00  0.00     0.002 C 
ENDROOT
BRANCH   1   2
ATOM      2  C   UNL A   1      34.139  25.076  23.443  1.00  0.00     0.002 C 
BRANCH   2   3
ATOM      3  C   UNL A   1      33.550  25.678  22.159  1.00  0.00     0.021 C 
BRANCH   3   4
ATOM      4  C   UNL A   1      32.853  27.029  22.295  1.00  0.00     0.116 C 
BRANCH   4   5
ATOM      5  N   UNL A   1      31.415  26.959  22.361  1.00  0.00    -0.352 N 
ATOM      6  C   UNL A   1      30.557  27.301  23.380  1.00  0.00     0.253 C 
ATOM      7  O   UNL A   1      29.348  27.248  23.128  1.00  0.00    -0.269 OA
ATOM      8  H   UNL A   1      30.978  26.613  21.549  1.00  0.00     0.163 HD
BRANCH   6   9
ATOM      9  C   UNL A   1      30.977  27.596  24.787  1.00  0.00     0.063 A 
ATOM     10  C   UNL A   1      30.930  26.756  25.920  1.00  0.00     0.051 A 
ATOM     11  C   UNL A   1      31.331  27.299  27.168  1.00  0.00     0.027 A 
ATOM     12  C   UNL A   1      31.837  28.592  27.295  1.00  0.00     0.002 A 
ATOM     13  C   UNL A   1      31.514  28.900  24.938  1.00  0.00     0.016 A 
ATOM     14  C   UNL A   1      31.951  29.389  26.170  1.00  0.00     0.001 A 
BRANCH  10  15
ATOM     15  N   UNL A   1      30.657  25.374  25.958  1.00  0.00    -0.355 N 
ATOM     16  H   UNL A   1      29.697  25.177  26.050  1.00  0.00     0.167 HD
BRANCH  15  17
ATOM     17  C   UNL A   1      31.452  24.210  25.896  1.00  0.00     0.042 A 
ATOM     18  C   UNL A   1      32.021  20.930  24.004  1.00  0.00     0.044 C 
ATOM     19  C   UNL A   1      32.088  22.015  25.045  1.00  0.00    -0.046 A 
ATOM     20  C   UNL A   1      32.820  21.773  26.215  1.00  0.00     0.004 A 
ATOM     21  C   UNL A   1      31.454  23.271  24.847  1.00  0.00    -0.025 A 
ATOM     22  C   UNL A   1      32.923  22.747  27.195  1.00  0.00     0.002 A 
ATOM     23  C   UNL A   1      30.863  23.579  23.495  1.00  0.00     0.047 C 
ATOM     24  C   UNL A   1      32.237  23.946  27.039  1.00  0.00     0.026 A 
ENDBRANCH  15  17
ENDBRANCH  10  15
ENDBRANCH   6   9
ENDBRANCH   4   5
ENDBRANCH   3   4
ENDBRANCH   2   3
ENDBRANCH   1   2
BRANCH   1  25
ATOM     25  C   UNL A   1      35.539  23.193  24.589  1.00  0.00     0.021 C 
BRANCH  25  26
ATOM     26  C   UNL A   1      36.758  23.792  25.280  1.00  0.00     0.116 C 
BRANCH  26  27
ATOM     27  N   UNL A   1      37.819  22.826  25.499  1.00  0.00    -0.352 N 
ATOM     28  C   UNL A   1      39.051  22.982  26.090  1.00  0.00     0.251 C 
ATOM     29  H   UNL A   1      37.626  21.917  25.173  1.00  0.00     0.163 HD
ATOM     30  O   UNL A   1      39.863  22.062  26.041  1.00  0.00    -0.269 OA
BRANCH  28  31
ATOM     31  C   UNL A   1      39.419  24.252  26.762  1.00  0.00     0.039 A 
ATOM     32  C   UNL A   1      38.972  24.476  28.070  1.00  0.00     0.014 A 
ATOM     33  C   UNL A   1      40.167  25.235  26.111  1.00  0.00     0.014 A 
ATOM     34  C   UNL A   1      39.323  25.654  28.739  1.00  0.00     0.010 A 
ATOM     35  C   UNL A   1      40.581  26.371  26.804  1.00  0.00     0.010 A 
ATOM     36  C   UNL A   1      40.157  26.600  28.123  1.00  0.00    -0.014 A 
BRANCH  36  37
ATOM     37  C   UNL A   1      40.583  27.842  28.820  1.00  0.00     0.031 A 
ATOM     38  C   UNL A   1      41.928  27.901  29.496  1.00  0.00     0.074 A 
ATOM     39  C   UNL A   1      39.733  28.884  28.923  1.00  0.00     0.049 A 
ATOM     40  N   UNL A   1      42.430  28.841  30.255  1.00  0.00    -0.248 NA
ATOM     41  C   UNL A   1      42.809  26.736  29.320  1.00  0.00     0.031 C 
ATOM     42  C   UNL A   1      38.389  28.943  28.344  1.00  0.00     0.029 A 
ATOM     43  N   UNL A   1      39.868  30.088  29.569  1.00  0.00    -0.354 N 
ATOM     44  C   UNL A   1      43.667  28.366  30.677  1.00  0.00     0.074 A 
ATOM     45  C   UNL A   1      43.822  27.040  30.119  1.00  0.00     0.031 C 
ATOM     46  C   UNL A   1      37.829  30.125  28.651  1.00  0.00     0.029 A 
ATOM     47  C   UNL A   1      38.754  30.891  29.482  1.00  0.00     0.049 A 
ATOM     48  H   UNL A   1      40.686  30.353  30.048  1.00  0.00     0.167 HD
ATOM     49  C   UNL A   1      44.598  28.980  31.446  1.00  0.00     0.031 A 
ATOM     50  C   UNL A   1      38.495  32.098  30.021  1.00  0.00     0.031 A 
ATOM     51  C   UNL A   1      44.453  30.311  31.976  1.00  0.00     0.049 A 
ATOM     52  C   UNL A   1      39.546  32.770  30.861  1.00  0.00     0.074 A 
ATOM     53  C   UNL A   1      45.368  31.049  32.706  1.00  0.00     0.029 A 
ATOM     54  N   UNL A   1      43.322  31.101  31.833  1.00  0.00    -0.354 N 
ATOM     55  N   UNL A   1      40.735  32.331  31.197  1.00  0.00    -0.248 NA
ATOM     56  C   UNL A   1      39.226  34.104  31.388  1.00  0.00     0.031 C 
ATOM     57  C   UNL A   1      44.772  32.268  33.045  1.00  0.00     0.029 A 
ATOM     58  C   UNL A   1      43.507  32.311  32.480  1.00  0.00     0.049 A 
ATOM     59  H   UNL A   1      42.509  30.839  31.344  1.00  0.00     0.167 HD
ATOM     60  C   UNL A   1      41.315  33.343  31.952  1.00  0.00     0.074 A 
ATOM     61  C   UNL A   1      40.350  34.422  32.018  1.00  0.00     0.031 C 
ATOM     62  C   UNL A   1      42.539  33.377  32.534  1.00  0.00     0.031 A 
BRANCH  49  63
ATOM     63  C   UNL A   1      45.850  28.210  31.773  1.00  0.00    -0.014 A 
ATOM     64  C   UNL A   1      46.981  28.265  30.939  1.00  0.00     0.010 A 
ATOM     65  C   UNL A   1      45.904  27.435  32.946  1.00  0.00     0.010 A 
ATOM     66  C   UNL A   1      48.121  27.516  31.241  1.00  0.00     0.020 A 
ATOM     67  C   UNL A   1      47.054  26.708  33.269  1.00  0.00     0.020 A 
ATOM     68  C   UNL A   1      48.147  26.735  32.400  1.00  0.00     0.054 A 
BRANCH  68  69
ATOM     69  S   UNL A   1      49.638  25.772  32.769  1.00  0.00     0.124 S 
ATOM     70  O   UNL A   1      49.887  25.104  31.494  1.00  0.00    -0.237 OA
ATOM     71  O   UNL A   1      50.606  26.803  33.136  1.00  0.00    -0.237 OA
ATOM     72  O   UNL A   1      49.224  24.893  33.861  1.00  0.00    -0.744 OA
ENDBRANCH  68  69
ENDBRANCH  49  63
BRANCH  50  73
ATOM     73  C   UNL A   1      37.181  32.749  29.768  1.00  0.00    -0.014 A 
ATOM     74  C   UNL A   1      36.179  32.738  30.754  1.00  0.00     0.010 A 
ATOM     75  C   UNL A   1      36.941  33.422  28.556  1.00  0.00     0.010 A 
ATOM     76  C   UNL A   1      34.959  33.384  30.530  1.00  0.00     0.020 A 
ATOM     77  C   UNL A   1      35.732  34.090  28.339  1.00  0.00     0.020 A 
ATOM     78  C   UNL A   1      34.745  34.060  29.326  1.00  0.00     0.054 A 
BRANCH  78  79
ATOM     79  S   UNL A   1      33.185  34.957  29.089  1.00  0.00     0.124 S 
ATOM     80  O   UNL A   1      32.605  34.916  30.427  1.00  0.00    -0.237 OA
ATOM     81  O   UNL A   1      33.642  36.269  28.637  1.00  0.00    -0.237 OA
ATOM     82  O   UNL A   1      32.488  34.166  28.077  1.00  0.00    -0.744 OA
ENDBRANCH  78  79
ENDBRANCH  50  73
BRANCH  62  83
ATOM     83  C   UNL A   1      42.931  34.630  33.268  1.00  0.00    -0.014 A 
ATOM     84  C   UNL A   1      42.719  34.760  34.651  1.00  0.00     0.010 A 
ATOM     85  C   UNL A   1      43.607  35.654  32.577  1.00  0.00     0.010 A 
ATOM     86  C   UNL A   1      43.165  35.898  35.329  1.00  0.00     0.020 A 
ATOM     87  C   UNL A   1      44.074  36.781  33.255  1.00  0.00     0.020 A 
ATOM     88  C   UNL A   1      43.845  36.899  34.628  1.00  0.00     0.054 A 
BRANCH  88  89
ATOM     89  S   UNL A   1      44.482  38.330  35.544  1.00  0.00     0.124 S 
ATOM     90  O   UNL A   1      43.941  38.100  36.881  1.00  0.00    -0.237 OA
ATOM     91  O   UNL A   1      45.929  38.173  35.415  1.00  0.00    -0.237 OA
ATOM     92  O   UNL A   1      43.919  39.475  34.833  1.00  0.00    -0.744 OA
ENDBRANCH  88  89
ENDBRANCH  62  83
ENDBRANCH  36  37
ENDBRANCH  28  31
ENDBRANCH  26  27
ENDBRANCH  25  26
ENDBRANCH   1  25
TORSDOF 18
ENDMDL
