MODEL 1
REMARK VINA RESULT:     -10.6      0.000      0.000
REMARK SMILES C=CCc1cccc(-c2ccc([C@@H](C)C(=O)NCCCCCCNC(=O)c3ccc(-c4c5nc(c(-c6ccc(S(=O)(=O)[O-])cc6)c6ccc([nH]6)c(-c6ccc(S(=O)(=O)[O-])cc6)c6nc(c(-c7ccc(S(=O)(=O)[O-])cc7)c7ccc4[nH]7)C=C6)C=C5)cc3)cc2)c1
REMARK SMILES IDX 20 1 19 2 18 3 17 4 15 5 16 6 13 8 14 9 12 10 9 11 10 12
REMARK SMILES IDX 88 13 11 14 87 15 8 16 4 17 5 18 89 19 6 20 7 21 3 22 2 23
REMARK SMILES IDX 1 24 21 25 22 26 23 27 24 28 25 29 26 31 27 32 28 33 86 34
REMARK SMILES IDX 29 35 85 36 30 37 31 38 32 39 79 40 33 41 84 42 78 43 80 44
REMARK SMILES IDX 34 45 83 46 77 47 76 48 35 50 65 51 46 52 64 53 47 54 50 55
REMARK SMILES IDX 63 56 81 57 48 58 49 59 62 61 82 62 51 63 36 64 37 65 45 66
REMARK SMILES IDX 38 67 44 68 39 69 40 70 41 71 42 72 43 73 66 74 67 75 75 76
REMARK SMILES IDX 68 77 74 78 69 79 70 80 71 81 72 82 73 83 52 84 53 85 61 86
REMARK SMILES IDX 54 87 60 88 55 89 56 90 57 91 58 92 59 93
REMARK H PARENT 17 7 24 30 80 49 50 60
REMARK Flexibility Score: inf
ROOT
ATOM      1  C   UNL A   1      33.995  21.762  27.274  1.00  0.00     0.002 C 
ENDROOT
BRANCH   1   2
ATOM      2  C   UNL A   1      33.434  20.961  26.096  1.00  0.00     0.021 C 
BRANCH   2   3
ATOM      3  C   UNL A   1      32.256  21.635  25.391  1.00  0.00     0.116 C 
BRANCH   3   4
ATOM      4  N   UNL A   1      31.288  22.153  26.335  1.00  0.00    -0.356 N 
ATOM      5  C   UNL A   1      30.620  23.338  26.377  1.00  0.00     0.227 C 
ATOM      6  O   UNL A   1      29.902  23.533  27.367  1.00  0.00    -0.274 OA
ATOM      7  H   UNL A   1      31.075  21.540  27.075  1.00  0.00     0.163 HD
BRANCH   5   8
ATOM      8  C   UNL A   1      30.703  24.400  25.270  1.00  0.00     0.105 C 
ATOM      9  C   UNL A   1      30.953  23.827  23.875  1.00  0.00     0.023 C 
BRANCH   8  10
ATOM     10  C   UNL A   1      31.531  25.615  25.655  1.00  0.00    -0.036 A 
ATOM     11  C   UNL A   1      33.031  27.890  26.538  1.00  0.00    -0.018 A 
ATOM     12  C   UNL A   1      33.637  26.828  25.851  1.00  0.00     0.009 A 
ATOM     13  C   UNL A   1      31.644  27.796  26.743  1.00  0.00     0.009 A 
ATOM     14  C   UNL A   1      32.898  25.730  25.389  1.00  0.00     0.005 A 
ATOM     15  C   UNL A   1      30.913  26.674  26.332  1.00  0.00     0.005 A 
BRANCH  11  16
ATOM     16  C   UNL A   1      33.816  29.055  27.020  1.00  0.00    -0.018 A 
ATOM     17  C   UNL A   1      33.939  31.431  27.662  1.00  0.00    -0.044 A 
ATOM     18  C   UNL A   1      35.309  31.302  27.896  1.00  0.00     0.004 A 
ATOM     19  C   UNL A   1      33.207  30.301  27.251  1.00  0.00     0.012 A 
ATOM     20  C   UNL A   1      35.935  30.075  27.701  1.00  0.00     0.001 A 
ATOM     21  C   UNL A   1      35.200  28.972  27.255  1.00  0.00     0.009 A 
BRANCH  17  22
ATOM     22  C   UNL A   1      33.250  32.768  27.782  1.00  0.00     0.062 C 
BRANCH  22  23
ATOM     23  C   UNL A   1      34.117  33.767  28.502  1.00  0.00    -0.030 C 
ATOM     24  C   UNL A   1      33.770  35.037  28.751  1.00  0.00     0.004 C 
ENDBRANCH  22  23
ENDBRANCH  17  22
ENDBRANCH  11  16
ENDBRANCH   8  10
ENDBRANCH   5   8
ENDBRANCH   3   4
ENDBRANCH   2   3
ENDBRANCH   1   2
BRANCH   1  25
ATOM     25  C   UNL A   1      34.720  23.061  26.893  1.00  0.00     0.002 C 
BRANCH  25  26
ATOM     26  C   UNL A   1      35.548  23.004  25.604  1.00  0.00     0.021 C 
BRANCH  26  27
ATOM     27  C   UNL A   1      36.999  23.456  25.750  1.00  0.00     0.116 C 
BRANCH  27  28
ATOM     28  N   UNL A   1      37.887  22.341  26.033  1.00  0.00    -0.352 N 
ATOM     29  C   UNL A   1      39.203  22.338  26.419  1.00  0.00     0.251 C 
ATOM     30  H   UNL A   1      37.481  21.450  25.931  1.00  0.00     0.163 HD
ATOM     31  O   UNL A   1      39.841  21.290  26.385  1.00  0.00    -0.269 OA
BRANCH  29  32
ATOM     32  C   UNL A   1      39.860  23.587  26.870  1.00  0.00     0.039 A 
ATOM     33  C   UNL A   1      39.793  24.715  26.048  1.00  0.00     0.014 A 
ATOM     34  C   UNL A   1      40.585  23.636  28.065  1.00  0.00     0.014 A 
ATOM     35  C   UNL A   1      40.419  25.900  26.441  1.00  0.00     0.010 A 
ATOM     36  C   UNL A   1      41.156  24.837  28.485  1.00  0.00     0.010 A 
ATOM     37  C   UNL A   1      41.089  25.978  27.673  1.00  0.00    -0.014 A 
BRANCH  37  38
ATOM     38  C   UNL A   1      41.736  27.243  28.106  1.00  0.00     0.031 A 
ATOM     39  C   UNL A   1      43.211  27.458  27.889  1.00  0.00     0.074 A 
ATOM     40  C   UNL A   1      41.000  28.190  28.721  1.00  0.00     0.049 A 
ATOM     41  N   UNL A   1      43.951  28.488  28.214  1.00  0.00    -0.248 NA
ATOM     42  C   UNL A   1      43.956  26.367  27.238  1.00  0.00     0.031 C 
ATOM     43  C   UNL A   1      39.572  28.086  29.033  1.00  0.00     0.029 A 
ATOM     44  N   UNL A   1      41.351  29.429  29.196  1.00  0.00    -0.354 N 
ATOM     45  C   UNL A   1      45.243  28.170  27.810  1.00  0.00     0.074 A 
ATOM     46  C   UNL A   1      45.198  26.829  27.269  1.00  0.00     0.031 C 
ATOM     47  C   UNL A   1      39.166  29.220  29.624  1.00  0.00     0.029 A 
ATOM     48  C   UNL A   1      40.305  30.122  29.759  1.00  0.00     0.049 A 
ATOM     49  H   UNL A   1      42.267  29.787  29.140  1.00  0.00     0.167 HD
ATOM     50  C   UNL A   1      46.361  28.933  27.859  1.00  0.00     0.031 A 
ATOM     51  C   UNL A   1      40.267  31.346  30.320  1.00  0.00     0.031 A 
ATOM     52  C   UNL A   1      46.408  30.269  28.392  1.00  0.00     0.049 A 
ATOM     53  C   UNL A   1      41.521  32.178  30.350  1.00  0.00     0.074 A 
ATOM     54  C   UNL A   1      47.490  31.129  28.475  1.00  0.00     0.029 A 
ATOM     55  N   UNL A   1      45.320  30.945  28.924  1.00  0.00    -0.354 N 
ATOM     56  N   UNL A   1      42.725  31.870  29.928  1.00  0.00    -0.248 NA
ATOM     57  C   UNL A   1      41.404  33.531  30.909  1.00  0.00     0.031 C 
ATOM     58  C   UNL A   1      47.062  32.315  29.082  1.00  0.00     0.029 A 
ATOM     59  C   UNL A   1      45.704  32.211  29.334  1.00  0.00     0.049 A 
ATOM     60  H   UNL A   1      44.409  30.579  28.998  1.00  0.00     0.167 HD
ATOM     61  C   UNL A   1      43.500  33.003  30.145  1.00  0.00     0.074 A 
ATOM     62  C   UNL A   1      42.625  34.007  30.715  1.00  0.00     0.031 C 
ATOM     63  C   UNL A   1      44.819  33.198  29.897  1.00  0.00     0.031 A 
BRANCH  50  64
ATOM     64  C   UNL A   1      47.630  28.342  27.300  1.00  0.00    -0.014 A 
ATOM     65  C   UNL A   1      47.858  28.317  25.911  1.00  0.00     0.010 A 
ATOM     66  C   UNL A   1      48.623  27.850  28.164  1.00  0.00     0.010 A 
ATOM     67  C   UNL A   1      49.040  27.779  25.396  1.00  0.00     0.020 A 
ATOM     68  C   UNL A   1      49.820  27.335  27.655  1.00  0.00     0.020 A 
ATOM     69  C   UNL A   1      50.013  27.290  26.272  1.00  0.00     0.054 A 
BRANCH  69  70
ATOM     70  S   UNL A   1      51.553  26.629  25.577  1.00  0.00     0.124 S 
ATOM     71  O   UNL A   1      51.473  25.219  25.956  1.00  0.00    -0.237 OA
ATOM     72  O   UNL A   1      51.405  26.904  24.150  1.00  0.00    -0.237 OA
ATOM     73  O   UNL A   1      52.597  27.396  26.252  1.00  0.00    -0.744 OA
ENDBRANCH  69  70
ENDBRANCH  50  64
BRANCH  51  74
ATOM     74  C   UNL A   1      38.995  31.872  30.885  1.00  0.00    -0.014 A 
ATOM     75  C   UNL A   1      38.648  31.626  32.225  1.00  0.00     0.010 A 
ATOM     76  C   UNL A   1      38.114  32.609  30.074  1.00  0.00     0.010 A 
ATOM     77  C   UNL A   1      37.425  32.073  32.734  1.00  0.00     0.020 A 
ATOM     78  C   UNL A   1      36.903  33.084  30.588  1.00  0.00     0.020 A 
ATOM     79  C   UNL A   1      36.558  32.795  31.909  1.00  0.00     0.054 A 
BRANCH  79  80
ATOM     80  S   UNL A   1      34.983  33.386  32.591  1.00  0.00     0.124 S 
ATOM     81  O   UNL A   1      35.112  33.029  34.000  1.00  0.00    -0.237 OA
ATOM     82  O   UNL A   1      35.022  34.815  32.291  1.00  0.00    -0.237 OA
ATOM     83  O   UNL A   1      33.983  32.628  31.840  1.00  0.00    -0.744 OA
ENDBRANCH  79  80
ENDBRANCH  51  74
BRANCH  63  84
ATOM     84  C   UNL A   1      45.379  34.561  30.201  1.00  0.00    -0.014 A 
ATOM     85  C   UNL A   1      45.869  34.882  31.480  1.00  0.00     0.010 A 
ATOM     86  C   UNL A   1      45.421  35.534  29.185  1.00  0.00     0.010 A 
ATOM     87  C   UNL A   1      46.341  36.169  31.751  1.00  0.00     0.020 A 
ATOM     88  C   UNL A   1      45.918  36.812  29.446  1.00  0.00     0.020 A 
ATOM     89  C   UNL A   1      46.354  37.129  30.735  1.00  0.00     0.054 A 
BRANCH  89  90
ATOM     90  S   UNL A   1      46.972  38.793  31.107  1.00  0.00     0.124 S 
ATOM     91  O   UNL A   1      46.060  39.634  30.335  1.00  0.00    -0.237 OA
ATOM     92  O   UNL A   1      46.825  38.875  32.559  1.00  0.00    -0.237 OA
ATOM     93  O   UNL A   1      48.351  38.764  30.628  1.00  0.00    -0.744 OA
ENDBRANCH  89  90
ENDBRANCH  63  84
ENDBRANCH  37  38
ENDBRANCH  29  32
ENDBRANCH  27  28
ENDBRANCH  26  27
ENDBRANCH  25  26
ENDBRANCH   1  25
TORSDOF 20
ENDMDL
MODEL 2
REMARK VINA RESULT:     -10.5      1.188      8.172
REMARK SMILES C=CCc1cccc(-c2ccc([C@@H](C)C(=O)NCCCCCCNC(=O)c3ccc(-c4c5nc(c(-c6ccc(S(=O)(=O)[O-])cc6)c6ccc([nH]6)c(-c6ccc(S(=O)(=O)[O-])cc6)c6nc(c(-c7ccc(S(=O)(=O)[O-])cc7)c7ccc4[nH]7)C=C6)C=C5)cc3)cc2)c1
REMARK SMILES IDX 20 1 19 2 18 3 17 4 15 5 16 6 13 8 14 9 12 10 9 11 10 12
REMARK SMILES IDX 88 13 11 14 87 15 8 16 4 17 5 18 89 19 6 20 7 21 3 22 2 23
REMARK SMILES IDX 1 24 21 25 22 26 23 27 24 28 25 29 26 31 27 32 28 33 86 34
REMARK SMILES IDX 29 35 85 36 30 37 31 38 32 39 79 40 33 41 84 42 78 43 80 44
REMARK SMILES IDX 34 45 83 46 77 47 76 48 35 50 65 51 46 52 64 53 47 54 50 55
REMARK SMILES IDX 63 56 81 57 48 58 49 59 62 61 82 62 51 63 36 64 37 65 45 66
REMARK SMILES IDX 38 67 44 68 39 69 40 70 41 71 42 72 43 73 66 74 67 75 75 76
REMARK SMILES IDX 68 77 74 78 69 79 70 80 71 81 72 82 73 83 52 84 53 85 61 86
REMARK SMILES IDX 54 87 60 88 55 89 56 90 57 91 58 92 59 93
REMARK H PARENT 17 7 24 30 80 49 50 60
REMARK Flexibility Score: inf
ROOT
ATOM      1  C   UNL A   1      33.941  22.122  23.809  1.00  0.00     0.002 C 
ENDROOT
BRANCH   1   2
ATOM      2  C   UNL A   1      33.039  22.852  22.810  1.00  0.00     0.021 C 
BRANCH   2   3
ATOM      3  C   UNL A   1      31.544  22.636  23.050  1.00  0.00     0.116 C 
BRANCH   3   4
ATOM      4  N   UNL A   1      30.812  23.886  23.049  1.00  0.00    -0.356 N 
ATOM      5  C   UNL A   1      30.599  24.802  24.033  1.00  0.00     0.227 C 
ATOM      6  O   UNL A   1      29.854  25.751  23.753  1.00  0.00    -0.274 OA
ATOM      7  H   UNL A   1      30.399  24.114  22.186  1.00  0.00     0.163 HD
BRANCH   5   8
ATOM      8  C   UNL A   1      31.240  24.718  25.426  1.00  0.00     0.105 C 
ATOM      9  C   UNL A   1      30.324  24.129  26.498  1.00  0.00     0.023 C 
BRANCH   8  10
ATOM     10  C   UNL A   1      32.013  25.968  25.816  1.00  0.00    -0.036 A 
ATOM     11  C   UNL A   1      33.438  28.285  26.713  1.00  0.00    -0.018 A 
ATOM     12  C   UNL A   1      34.009  27.367  25.819  1.00  0.00     0.009 A 
ATOM     13  C   UNL A   1      32.118  28.027  27.120  1.00  0.00     0.009 A 
ATOM     14  C   UNL A   1      33.301  26.251  25.353  1.00  0.00     0.005 A 
ATOM     15  C   UNL A   1      31.428  26.882  26.701  1.00  0.00     0.005 A 
BRANCH  11  16
ATOM     16  C   UNL A   1      34.189  29.471  27.198  1.00  0.00    -0.018 A 
ATOM     17  C   UNL A   1      34.241  31.845  27.857  1.00  0.00    -0.044 A 
ATOM     18  C   UNL A   1      35.616  31.758  28.081  1.00  0.00     0.004 A 
ATOM     19  C   UNL A   1      33.542  30.696  27.442  1.00  0.00     0.012 A 
ATOM     20  C   UNL A   1      36.279  30.552  27.874  1.00  0.00     0.001 A 
ATOM     21  C   UNL A   1      35.576  29.430  27.425  1.00  0.00     0.009 A 
BRANCH  17  22
ATOM     22  C   UNL A   1      33.511  33.159  27.990  1.00  0.00     0.062 C 
BRANCH  22  23
ATOM     23  C   UNL A   1      34.370  34.195  28.667  1.00  0.00    -0.030 C 
ATOM     24  C   UNL A   1      34.503  35.462  28.253  1.00  0.00     0.004 C 
ENDBRANCH  22  23
ENDBRANCH  17  22
ENDBRANCH  11  16
ENDBRANCH   8  10
ENDBRANCH   5   8
ENDBRANCH   3   4
ENDBRANCH   2   3
ENDBRANCH   1   2
BRANCH   1  25
ATOM     25  C   UNL A   1      34.444  22.979  24.980  1.00  0.00     0.002 C 
BRANCH  25  26
ATOM     26  C   UNL A   1      35.876  23.509  24.847  1.00  0.00     0.021 C 
BRANCH  26  27
ATOM     27  C   UNL A   1      36.701  23.465  26.131  1.00  0.00     0.116 C 
BRANCH  27  28
ATOM     28  N   UNL A   1      37.607  22.329  26.153  1.00  0.00    -0.352 N 
ATOM     29  C   UNL A   1      38.970  22.290  26.309  1.00  0.00     0.251 C 
ATOM     30  H   UNL A   1      37.177  21.451  26.038  1.00  0.00     0.163 HD
ATOM     31  O   UNL A   1      39.576  21.250  26.069  1.00  0.00    -0.269 OA
BRANCH  29  32
ATOM     32  C   UNL A   1      39.712  23.491  26.758  1.00  0.00     0.039 A 
ATOM     33  C   UNL A   1      40.454  23.418  27.940  1.00  0.00     0.014 A 
ATOM     34  C   UNL A   1      39.636  24.698  26.055  1.00  0.00     0.014 A 
ATOM     35  C   UNL A   1      41.149  24.541  28.395  1.00  0.00     0.010 A 
ATOM     36  C   UNL A   1      40.380  25.799  26.478  1.00  0.00     0.010 A 
ATOM     37  C   UNL A   1      41.135  25.736  27.657  1.00  0.00    -0.014 A 
BRANCH  37  38
ATOM     38  C   UNL A   1      41.891  26.926  28.125  1.00  0.00     0.031 A 
ATOM     39  C   UNL A   1      41.176  28.065  28.803  1.00  0.00     0.074 A 
ATOM     40  C   UNL A   1      43.221  26.994  27.914  1.00  0.00     0.049 A 
ATOM     41  N   UNL A   1      41.666  29.189  29.263  1.00  0.00    -0.248 NA
ATOM     42  C   UNL A   1      39.719  27.934  28.971  1.00  0.00     0.031 C 
ATOM     43  C   UNL A   1      44.024  25.978  27.229  1.00  0.00     0.029 A 
ATOM     44  N   UNL A   1      44.133  27.960  28.256  1.00  0.00    -0.354 N 
ATOM     45  C   UNL A   1      40.582  29.897  29.771  1.00  0.00     0.074 A 
ATOM     46  C   UNL A   1      39.401  29.102  29.511  1.00  0.00     0.031 C 
ATOM     47  C   UNL A   1      45.310  26.364  27.221  1.00  0.00     0.029 A 
ATOM     48  C   UNL A   1      45.421  27.664  27.876  1.00  0.00     0.049 A 
ATOM     49  H   UNL A   1      43.888  28.789  28.729  1.00  0.00     0.167 HD
ATOM     50  C   UNL A   1      40.571  31.086  30.419  1.00  0.00     0.031 A 
ATOM     51  C   UNL A   1      46.563  28.359  28.037  1.00  0.00     0.031 A 
ATOM     52  C   UNL A   1      41.745  31.876  30.682  1.00  0.00     0.049 A 
ATOM     53  C   UNL A   1      46.525  29.672  28.772  1.00  0.00     0.074 A 
ATOM     54  C   UNL A   1      41.839  33.089  31.343  1.00  0.00     0.029 A 
ATOM     55  N   UNL A   1      43.033  31.525  30.307  1.00  0.00    -0.354 N 
ATOM     56  N   UNL A   1      45.492  30.304  29.277  1.00  0.00    -0.248 NA
ATOM     57  C   UNL A   1      47.811  30.351  28.979  1.00  0.00     0.031 C 
ATOM     58  C   UNL A   1      43.182  33.485  31.343  1.00  0.00     0.029 A 
ATOM     59  C   UNL A   1      43.928  32.495  30.725  1.00  0.00     0.049 A 
ATOM     60  H   UNL A   1      43.275  30.706  29.818  1.00  0.00     0.167 HD
ATOM     61  C   UNL A   1      46.009  31.441  29.887  1.00  0.00     0.074 A 
ATOM     62  C   UNL A   1      47.445  31.398  29.706  1.00  0.00     0.031 C 
ATOM     63  C   UNL A   1      45.355  32.435  30.538  1.00  0.00     0.031 A 
BRANCH  50  64
ATOM     64  C   UNL A   1      39.240  31.598  30.907  1.00  0.00    -0.014 A 
ATOM     65  C   UNL A   1      38.687  31.122  32.110  1.00  0.00     0.010 A 
ATOM     66  C   UNL A   1      38.557  32.594  30.187  1.00  0.00     0.010 A 
ATOM     67  C   UNL A   1      37.459  31.607  32.567  1.00  0.00     0.020 A 
ATOM     68  C   UNL A   1      37.340  33.102  30.654  1.00  0.00     0.020 A 
ATOM     69  C   UNL A   1      36.793  32.593  31.835  1.00  0.00     0.054 A 
BRANCH  69  70
ATOM     70  S   UNL A   1      35.216  33.230  32.468  1.00  0.00     0.124 S 
ATOM     71  O   UNL A   1      35.324  32.932  33.895  1.00  0.00    -0.237 OA
ATOM     72  O   UNL A   1      35.278  34.646  32.116  1.00  0.00    -0.237 OA
ATOM     73  O   UNL A   1      34.212  32.454  31.745  1.00  0.00    -0.744 OA
ENDBRANCH  69  70
ENDBRANCH  50  64
BRANCH  51  74
ATOM     74  C   UNL A   1      47.848  27.823  27.509  1.00  0.00    -0.014 A 
ATOM     75  C   UNL A   1      48.628  26.940  28.277  1.00  0.00     0.010 A 
ATOM     76  C   UNL A   1      48.305  28.210  26.237  1.00  0.00     0.010 A 
ATOM     77  C   UNL A   1      49.861  26.486  27.800  1.00  0.00     0.020 A 
ATOM     78  C   UNL A   1      49.524  27.735  25.744  1.00  0.00     0.020 A 
ATOM     79  C   UNL A   1      50.303  26.891  26.538  1.00  0.00     0.054 A 
BRANCH  79  80
ATOM     80  S   UNL A   1      51.897  26.277  25.925  1.00  0.00     0.124 S 
ATOM     81  O   UNL A   1      51.768  26.486  24.486  1.00  0.00    -0.237 OA
ATOM     82  O   UNL A   1      52.856  27.141  26.609  1.00  0.00    -0.237 OA
ATOM     83  O   UNL A   1      51.910  24.880  26.358  1.00  0.00    -0.744 OA
ENDBRANCH  79  80
ENDBRANCH  51  74
BRANCH  63  84
ATOM     84  C   UNL A   1      46.195  33.529  31.139  1.00  0.00    -0.014 A 
ATOM     85  C   UNL A   1      46.691  33.434  32.452  1.00  0.00     0.010 A 
ATOM     86  C   UNL A   1      46.498  34.668  30.371  1.00  0.00     0.010 A 
ATOM     87  C   UNL A   1      47.429  34.484  33.004  1.00  0.00     0.020 A 
ATOM     88  C   UNL A   1      47.260  35.707  30.911  1.00  0.00     0.020 A 
ATOM     89  C   UNL A   1      47.702  35.618  32.233  1.00  0.00     0.054 A 
BRANCH  89  90
ATOM     90  S   UNL A   1      48.664  36.968  32.968  1.00  0.00     0.124 S 
ATOM     91  O   UNL A   1      48.588  37.993  31.930  1.00  0.00    -0.237 OA
ATOM     92  O   UNL A   1      47.926  37.260  34.195  1.00  0.00    -0.237 OA
ATOM     93  O   UNL A   1      49.986  36.380  33.169  1.00  0.00    -0.744 OA
ENDBRANCH  89  90
ENDBRANCH  63  84
ENDBRANCH  37  38
ENDBRANCH  29  32
ENDBRANCH  27  28
ENDBRANCH  26  27
ENDBRANCH  25  26
ENDBRANCH   1  25
TORSDOF 20
ENDMDL
MODEL 3
REMARK VINA RESULT:     -10.1      1.674      3.106
REMARK SMILES C=CCc1cccc(-c2ccc([C@@H](C)C(=O)NCCCCCCNC(=O)c3ccc(-c4c5nc(c(-c6ccc(S(=O)(=O)[O-])cc6)c6ccc([nH]6)c(-c6ccc(S(=O)(=O)[O-])cc6)c6nc(c(-c7ccc(S(=O)(=O)[O-])cc7)c7ccc4[nH]7)C=C6)C=C5)cc3)cc2)c1
REMARK SMILES IDX 20 1 19 2 18 3 17 4 15 5 16 6 13 8 14 9 12 10 9 11 10 12
REMARK SMILES IDX 88 13 11 14 87 15 8 16 4 17 5 18 89 19 6 20 7 21 3 22 2 23
REMARK SMILES IDX 1 24 21 25 22 26 23 27 24 28 25 29 26 31 27 32 28 33 86 34
REMARK SMILES IDX 29 35 85 36 30 37 31 38 32 39 79 40 33 41 84 42 78 43 80 44
REMARK SMILES IDX 34 45 83 46 77 47 76 48 35 50 65 51 46 52 64 53 47 54 50 55
REMARK SMILES IDX 63 56 81 57 48 58 49 59 62 61 82 62 51 63 36 64 37 65 45 66
REMARK SMILES IDX 38 67 44 68 39 69 40 70 41 71 42 72 43 73 66 74 67 75 75 76
REMARK SMILES IDX 68 77 74 78 69 79 70 80 71 81 72 82 73 83 52 84 53 85 61 86
REMARK SMILES IDX 54 87 60 88 55 89 56 90 57 91 58 92 59 93
REMARK H PARENT 17 7 24 30 80 49 50 60
REMARK Flexibility Score: inf
ROOT
ATOM      1  C   UNL A   1      34.045  23.956  26.354  1.00  0.00     0.002 C 
ENDROOT
BRANCH   1   2
ATOM      2  C   UNL A   1      34.556  22.824  27.250  1.00  0.00     0.021 C 
BRANCH   2   3
ATOM      3  C   UNL A   1      33.812  21.501  27.065  1.00  0.00     0.116 C 
BRANCH   3   4
ATOM      4  N   UNL A   1      34.516  20.608  26.169  1.00  0.00    -0.356 N 
ATOM      5  C   UNL A   1      34.079  19.865  25.115  1.00  0.00     0.227 C 
ATOM      6  O   UNL A   1      34.913  19.124  24.578  1.00  0.00    -0.274 OA
ATOM      7  H   UNL A   1      35.479  20.525  26.352  1.00  0.00     0.163 HD
BRANCH   5   8
ATOM      8  C   UNL A   1      32.644  19.923  24.571  1.00  0.00     0.105 C 
ATOM      9  C   UNL A   1      32.326  18.847  23.534  1.00  0.00     0.023 C 
BRANCH   8  10
ATOM     10  C   UNL A   1      32.175  21.332  24.243  1.00  0.00    -0.036 A 
ATOM     11  C   UNL A   1      31.338  24.032  23.781  1.00  0.00    -0.018 A 
ATOM     12  C   UNL A   1      32.203  23.366  22.900  1.00  0.00     0.009 A 
ATOM     13  C   UNL A   1      30.876  23.295  24.885  1.00  0.00     0.009 A 
ATOM     14  C   UNL A   1      32.587  22.034  23.107  1.00  0.00     0.005 A 
ATOM     15  C   UNL A   1      31.303  21.983  25.125  1.00  0.00     0.005 A 
BRANCH  11  16
ATOM     16  C   UNL A   1      30.928  25.441  23.554  1.00  0.00    -0.018 A 
ATOM     17  C   UNL A   1      31.494  27.761  22.943  1.00  0.00    -0.044 A 
ATOM     18  C   UNL A   1      30.170  28.146  23.160  1.00  0.00     0.004 A 
ATOM     19  C   UNL A   1      31.850  26.410  23.119  1.00  0.00     0.012 A 
ATOM     20  C   UNL A   1      29.229  27.204  23.565  1.00  0.00     0.001 A 
ATOM     21  C   UNL A   1      29.608  25.874  23.772  1.00  0.00     0.009 A 
BRANCH  17  22
ATOM     22  C   UNL A   1      32.553  28.775  22.588  1.00  0.00     0.062 C 
BRANCH  22  23
ATOM     23  C   UNL A   1      33.569  28.913  23.690  1.00  0.00    -0.030 C 
ATOM     24  C   UNL A   1      33.270  29.111  24.981  1.00  0.00     0.004 C 
ENDBRANCH  22  23
ENDBRANCH  17  22
ENDBRANCH  11  16
ENDBRANCH   8  10
ENDBRANCH   5   8
ENDBRANCH   3   4
ENDBRANCH   2   3
ENDBRANCH   1   2
BRANCH   1  25
ATOM     25  C   UNL A   1      34.892  24.231  25.103  1.00  0.00     0.002 C 
BRANCH  25  26
ATOM     26  C   UNL A   1      36.048  23.254  24.857  1.00  0.00     0.021 C 
BRANCH  26  27
ATOM     27  C   UNL A   1      37.421  23.757  25.298  1.00  0.00     0.116 C 
BRANCH  27  28
ATOM     28  N   UNL A   1      38.252  22.680  25.809  1.00  0.00    -0.352 N 
ATOM     29  C   UNL A   1      39.487  22.726  26.404  1.00  0.00     0.251 C 
ATOM     30  H   UNL A   1      37.870  21.777  25.713  1.00  0.00     0.163 HD
ATOM     31  O   UNL A   1      40.124  21.687  26.557  1.00  0.00    -0.269 OA
BRANCH  29  32
ATOM     32  C   UNL A   1      40.059  24.015  26.856  1.00  0.00     0.039 A 
ATOM     33  C   UNL A   1      40.480  24.134  28.184  1.00  0.00     0.014 A 
ATOM     34  C   UNL A   1      40.131  25.119  26.000  1.00  0.00     0.014 A 
ATOM     35  C   UNL A   1      41.006  25.344  28.641  1.00  0.00     0.010 A 
ATOM     36  C   UNL A   1      40.714  26.306  26.441  1.00  0.00     0.010 A 
ATOM     37  C   UNL A   1      41.148  26.436  27.768  1.00  0.00    -0.014 A 
BRANCH  37  38
ATOM     38  C   UNL A   1      41.729  27.718  28.243  1.00  0.00     0.031 A 
ATOM     39  C   UNL A   1      43.218  27.940  28.202  1.00  0.00     0.074 A 
ATOM     40  C   UNL A   1      40.917  28.674  28.738  1.00  0.00     0.049 A 
ATOM     41  N   UNL A   1      43.906  28.985  28.587  1.00  0.00    -0.248 NA
ATOM     42  C   UNL A   1      44.044  26.840  27.677  1.00  0.00     0.031 C 
ATOM     43  C   UNL A   1      39.463  28.564  28.874  1.00  0.00     0.029 A 
ATOM     44  N   UNL A   1      41.200  29.927  29.218  1.00  0.00    -0.354 N 
ATOM     45  C   UNL A   1      45.240  28.669  28.354  1.00  0.00     0.074 A 
ATOM     46  C   UNL A   1      45.270  27.313  27.848  1.00  0.00     0.031 C 
ATOM     47  C   UNL A   1      38.980  29.709  29.381  1.00  0.00     0.029 A 
ATOM     48  C   UNL A   1      40.089  30.625  29.630  1.00  0.00     0.049 A 
ATOM     49  H   UNL A   1      42.113  30.293  29.265  1.00  0.00     0.167 HD
ATOM     50  C   UNL A   1      46.339  29.443  28.519  1.00  0.00     0.031 A 
ATOM     51  C   UNL A   1      39.975  31.862  30.148  1.00  0.00     0.031 A 
ATOM     52  C   UNL A   1      46.312  30.793  29.018  1.00  0.00     0.049 A 
ATOM     53  C   UNL A   1      41.210  32.706  30.310  1.00  0.00     0.074 A 
ATOM     54  C   UNL A   1      47.371  31.664  29.209  1.00  0.00     0.029 A 
ATOM     55  N   UNL A   1      45.163  31.472  29.394  1.00  0.00    -0.354 N 
ATOM     56  N   UNL A   1      42.459  32.399  30.047  1.00  0.00    -0.248 NA
ATOM     57  C   UNL A   1      41.017  34.072  30.814  1.00  0.00     0.031 C 
ATOM     58  C   UNL A   1      46.864  32.862  29.727  1.00  0.00     0.029 A 
ATOM     59  C   UNL A   1      45.486  32.752  29.813  1.00  0.00     0.049 A 
ATOM     60  H   UNL A   1      44.252  31.100  29.366  1.00  0.00     0.167 HD
ATOM     61  C   UNL A   1      43.195  33.544  30.326  1.00  0.00     0.074 A 
ATOM     62  C   UNL A   1      42.250  34.555  30.758  1.00  0.00     0.031 C 
ATOM     63  C   UNL A   1      44.533  33.745  30.237  1.00  0.00     0.031 A 
BRANCH  50  64
ATOM     64  C   UNL A   1      47.670  28.849  28.136  1.00  0.00    -0.014 A 
ATOM     65  C   UNL A   1      48.178  29.008  26.833  1.00  0.00     0.010 A 
ATOM     66  C   UNL A   1      48.444  28.168  29.091  1.00  0.00     0.010 A 
ATOM     67  C   UNL A   1      49.417  28.468  26.483  1.00  0.00     0.020 A 
ATOM     68  C   UNL A   1      49.697  27.648  28.753  1.00  0.00     0.020 A 
ATOM     69  C   UNL A   1      50.169  27.789  27.446  1.00  0.00     0.054 A 
BRANCH  69  70
ATOM     70  S   UNL A   1      51.791  27.126  26.974  1.00  0.00     0.124 S 
ATOM     71  O   UNL A   1      52.700  28.035  27.668  1.00  0.00    -0.237 OA
ATOM     72  O   UNL A   1      51.744  25.763  27.498  1.00  0.00    -0.237 OA
ATOM     73  O   UNL A   1      51.798  27.231  25.517  1.00  0.00    -0.744 OA
ENDBRANCH  69  70
ENDBRANCH  50  64
BRANCH  51  74
ATOM     74  C   UNL A   1      38.639  32.391  30.539  1.00  0.00    -0.014 A 
ATOM     75  C   UNL A   1      38.137  32.188  31.837  1.00  0.00     0.010 A 
ATOM     76  C   UNL A   1      37.855  33.089  29.604  1.00  0.00     0.010 A 
ATOM     77  C   UNL A   1      36.859  32.636  32.181  1.00  0.00     0.020 A 
ATOM     78  C   UNL A   1      36.587  33.565  29.952  1.00  0.00     0.020 A 
ATOM     79  C   UNL A   1      36.090  33.318  31.233  1.00  0.00     0.054 A 
BRANCH  79  80
ATOM     80  S   UNL A   1      34.440  33.911  31.701  1.00  0.00     0.124 S 
ATOM     81  O   UNL A   1      34.757  35.109  32.472  1.00  0.00    -0.237 OA
ATOM     82  O   UNL A   1      33.804  34.139  30.406  1.00  0.00    -0.237 OA
ATOM     83  O   UNL A   1      33.885  32.798  32.470  1.00  0.00    -0.744 OA
ENDBRANCH  79  80
ENDBRANCH  51  74
BRANCH  63  84
ATOM     84  C   UNL A   1      45.043  35.120  30.571  1.00  0.00    -0.014 A 
ATOM     85  C   UNL A   1      45.145  36.121  29.588  1.00  0.00     0.010 A 
ATOM     86  C   UNL A   1      45.422  35.416  31.893  1.00  0.00     0.010 A 
ATOM     87  C   UNL A   1      45.667  37.377  29.911  1.00  0.00     0.020 A 
ATOM     88  C   UNL A   1      45.916  36.679  32.225  1.00  0.00     0.020 A 
ATOM     89  C   UNL A   1      46.057  37.645  31.226  1.00  0.00     0.054 A 
BRANCH  89  90
ATOM     90  S   UNL A   1      46.729  39.281  31.626  1.00  0.00     0.124 S 
ATOM     91  O   UNL A   1      47.128  39.774  30.309  1.00  0.00    -0.237 OA
ATOM     92  O   UNL A   1      45.586  39.961  32.232  1.00  0.00    -0.237 OA
ATOM     93  O   UNL A   1      47.829  38.989  32.542  1.00  0.00    -0.744 OA
ENDBRANCH  89  90
ENDBRANCH  63  84
ENDBRANCH  37  38
ENDBRANCH  29  32
ENDBRANCH  27  28
ENDBRANCH  26  27
ENDBRANCH  25  26
ENDBRANCH   1  25
TORSDOF 20
ENDMDL
