MODEL 1
REMARK VINA RESULT:      -8.8      0.000      0.000
REMARK SMILES C[C@H](C(=O)NCCCCCCNC(=O)c1ccc(-c2c3nc(c(-c4ccc(S(=O)(=O)[O-])cc4)c4ccc([nH]4)c(-c4ccc(S(=O)(=O)[O-])cc4)c4nc(c(-c5ccc(S(=O)(=O)[O-])cc5)c5ccc2[nH]5)C=C4)C=C3)cc1)c1ccc(-c2ccccc2)c(F)c1
REMARK SMILES IDX 9 1 8 2 7 3 6 4 5 5 3 6 4 7 2 9 1 10 75 11 76 12 87 13 77 14
REMARK SMILES IDX 85 15 78 16 86 17 79 18 80 19 84 20 81 21 83 22 82 23 10 24
REMARK SMILES IDX 11 25 12 26 13 27 14 29 15 30 16 31 74 32 17 33 73 34 18 35
REMARK SMILES IDX 19 36 20 37 67 38 21 39 72 40 66 41 68 42 22 43 71 44 65 45
REMARK SMILES IDX 64 46 23 48 53 49 34 50 52 51 35 52 38 53 51 54 69 55 36 56
REMARK SMILES IDX 37 57 50 59 70 60 39 61 24 62 25 63 33 64 26 65 32 66 27 67
REMARK SMILES IDX 28 68 29 69 30 70 31 71 54 72 55 73 63 74 56 75 62 76 57 77
REMARK SMILES IDX 58 78 59 79 60 80 61 81 40 82 41 83 49 84 42 85 48 86 43 87
REMARK SMILES IDX 44 88 45 89 46 90 47 91
REMARK H PARENT 5 8 12 28 68 47 38 58
REMARK Flexibility Score: inf
ROOT
ATOM      1  C   UNL A   1      35.638  33.050  30.594  1.00  0.00     0.002 C 
ENDROOT
BRANCH   1   2
ATOM      2  C   UNL A   1      35.176  32.308  31.850  1.00  0.00     0.002 C 
BRANCH   2   3
ATOM      3  C   UNL A   1      34.234  33.089  32.774  1.00  0.00     0.021 C 
BRANCH   3   4
ATOM      4  C   UNL A   1      34.880  34.262  33.508  1.00  0.00     0.116 C 
BRANCH   4   5
ATOM      5  N   UNL A   1      35.510  33.854  34.749  1.00  0.00    -0.356 N 
ATOM      6  C   UNL A   1      36.784  33.451  35.013  1.00  0.00     0.227 C 
ATOM      7  O   UNL A   1      37.072  33.224  36.193  1.00  0.00    -0.274 OA
ATOM      8  H   UNL A   1      34.916  33.870  35.535  1.00  0.00     0.163 HD
BRANCH   6   9
ATOM      9  C   UNL A   1      37.830  33.273  33.911  1.00  0.00     0.105 C 
ATOM     10  C   UNL A   1      38.563  34.591  33.627  1.00  0.00     0.023 C 
BRANCH   9  11
ATOM     11  C   UNL A   1      38.766  32.076  34.049  1.00  0.00    -0.033 A 
ATOM     12  C   UNL A   1      38.440  30.869  33.411  1.00  0.00     0.005 A 
ATOM     13  C   UNL A   1      39.941  32.106  34.810  1.00  0.00     0.044 A 
ATOM     14  C   UNL A   1      39.288  29.756  33.480  1.00  0.00     0.012 A 
ATOM     15  C   UNL A   1      40.791  30.997  34.864  1.00  0.00     0.131 A 
ATOM     16  C   UNL A   1      40.496  29.804  34.192  1.00  0.00     0.017 A 
ATOM     17  F   UNL A   1      41.926  31.117  35.569  1.00  0.00    -0.206 F 
BRANCH  16  18
ATOM     18  C   UNL A   1      41.403  28.642  34.223  1.00  0.00    -0.015 A 
ATOM     19  C   UNL A   1      41.477  27.814  35.358  1.00  0.00     0.009 A 
ATOM     20  C   UNL A   1      42.219  28.321  33.125  1.00  0.00     0.009 A 
ATOM     21  C   UNL A   1      42.337  26.714  35.396  1.00  0.00     0.001 A 
ATOM     22  C   UNL A   1      43.078  27.219  33.161  1.00  0.00     0.001 A 
ATOM     23  C   UNL A   1      43.139  26.418  34.298  1.00  0.00     0.000 A 
ENDBRANCH  16  18
ENDBRANCH   9  11
ENDBRANCH   6   9
ENDBRANCH   4   5
ENDBRANCH   3   4
ENDBRANCH   2   3
ENDBRANCH   1   2
BRANCH   1  24
ATOM     24  C   UNL A   1      34.528  33.473  29.627  1.00  0.00     0.021 C 
BRANCH  24  25
ATOM     25  C   UNL A   1      34.677  32.967  28.195  1.00  0.00     0.116 C 
BRANCH  25  26
ATOM     26  N   UNL A   1      33.875  31.783  27.932  1.00  0.00    -0.352 N 
ATOM     27  C   UNL A   1      34.253  30.466  27.860  1.00  0.00     0.251 C 
ATOM     28  H   UNL A   1      32.916  31.951  27.784  1.00  0.00     0.163 HD
ATOM     29  O   UNL A   1      33.440  29.624  27.480  1.00  0.00    -0.269 OA
BRANCH  27  30
ATOM     30  C   UNL A   1      35.633  30.055  28.209  1.00  0.00     0.039 A 
ATOM     31  C   UNL A   1      36.615  30.105  27.216  1.00  0.00     0.014 A 
ATOM     32  C   UNL A   1      35.961  29.597  29.489  1.00  0.00     0.014 A 
ATOM     33  C   UNL A   1      37.932  29.751  27.521  1.00  0.00     0.010 A 
ATOM     34  C   UNL A   1      37.288  29.309  29.809  1.00  0.00     0.010 A 
ATOM     35  C   UNL A   1      38.288  29.380  28.828  1.00  0.00    -0.014 A 
BRANCH  35  36
ATOM     36  C   UNL A   1      39.702  29.074  29.173  1.00  0.00     0.031 A 
ATOM     37  C   UNL A   1      40.568  30.104  29.847  1.00  0.00     0.074 A 
ATOM     38  C   UNL A   1      40.218  27.871  28.847  1.00  0.00     0.049 A 
ATOM     39  N   UNL A   1      41.823  30.014  30.211  1.00  0.00    -0.248 NA
ATOM     40  C   UNL A   1      39.954  31.410  30.133  1.00  0.00     0.031 C 
ATOM     41  C   UNL A   1      39.499  26.802  28.147  1.00  0.00     0.029 A 
ATOM     42  N   UNL A   1      41.467  27.344  29.060  1.00  0.00    -0.354 N 
ATOM     43  C   UNL A   1      42.147  31.245  30.769  1.00  0.00     0.074 A 
ATOM     44  C   UNL A   1      40.976  32.085  30.642  1.00  0.00     0.031 C 
ATOM     45  C   UNL A   1      40.311  25.742  28.011  1.00  0.00     0.029 A 
ATOM     46  C   UNL A   1      41.616  26.062  28.583  1.00  0.00     0.049 A 
ATOM     47  H   UNL A   1      42.190  27.838  29.511  1.00  0.00     0.167 HD
ATOM     48  C   UNL A   1      43.303  31.635  31.358  1.00  0.00     0.031 A 
ATOM     49  C   UNL A   1      42.680  25.236  28.600  1.00  0.00     0.031 A 
ATOM     50  C   UNL A   1      44.470  30.800  31.485  1.00  0.00     0.049 A 
ATOM     51  C   UNL A   1      43.954  25.694  29.257  1.00  0.00     0.074 A 
ATOM     52  C   UNL A   1      45.680  31.098  32.089  1.00  0.00     0.029 A 
ATOM     53  N   UNL A   1      44.573  29.504  31.005  1.00  0.00    -0.354 N 
ATOM     54  N   UNL A   1      44.219  26.846  29.827  1.00  0.00    -0.248 NA
ATOM     55  C   UNL A   1      45.066  24.734  29.289  1.00  0.00     0.031 C 
ATOM     56  C   UNL A   1      46.527  29.996  31.938  1.00  0.00     0.029 A 
ATOM     57  C   UNL A   1      45.828  28.992  31.289  1.00  0.00     0.049 A 
ATOM     58  H   UNL A   1      43.858  29.019  30.533  1.00  0.00     0.167 HD
ATOM     59  C   UNL A   1      45.521  26.738  30.305  1.00  0.00     0.074 A 
ATOM     60  C   UNL A   1      45.979  25.403  29.978  1.00  0.00     0.031 C 
ATOM     61  C   UNL A   1      46.271  27.663  30.954  1.00  0.00     0.031 A 
BRANCH  48  62
ATOM     62  C   UNL A   1      43.357  33.029  31.926  1.00  0.00    -0.014 A 
ATOM     63  C   UNL A   1      43.179  33.252  33.303  1.00  0.00     0.010 A 
ATOM     64  C   UNL A   1      43.638  34.124  31.087  1.00  0.00     0.010 A 
ATOM     65  C   UNL A   1      43.244  34.545  33.827  1.00  0.00     0.020 A 
ATOM     66  C   UNL A   1      43.730  35.417  31.612  1.00  0.00     0.020 A 
ATOM     67  C   UNL A   1      43.517  35.621  32.978  1.00  0.00     0.054 A 
BRANCH  67  68
ATOM     68  S   UNL A   1      43.624  37.285  33.691  1.00  0.00     0.124 S 
ATOM     69  O   UNL A   1      43.877  38.103  32.507  1.00  0.00    -0.237 OA
ATOM     70  O   UNL A   1      42.308  37.457  34.303  1.00  0.00    -0.237 OA
ATOM     71  O   UNL A   1      44.737  37.189  34.631  1.00  0.00    -0.744 OA
ENDBRANCH  67  68
ENDBRANCH  48  62
BRANCH  49  72
ATOM     72  C   UNL A   1      42.586  23.886  27.981  1.00  0.00    -0.014 A 
ATOM     73  C   UNL A   1      42.902  23.692  26.625  1.00  0.00     0.010 A 
ATOM     74  C   UNL A   1      42.170  22.784  28.750  1.00  0.00     0.010 A 
ATOM     75  C   UNL A   1      42.773  22.429  26.041  1.00  0.00     0.020 A 
ATOM     76  C   UNL A   1      42.068  21.513  28.177  1.00  0.00     0.020 A 
ATOM     77  C   UNL A   1      42.354  21.347  26.821  1.00  0.00     0.054 A 
BRANCH  77  78
ATOM     78  S   UNL A   1      42.223  19.709  26.053  1.00  0.00     0.124 S 
ATOM     79  O   UNL A   1      42.634  18.830  27.143  1.00  0.00    -0.237 OA
ATOM     80  O   UNL A   1      40.811  19.643  25.684  1.00  0.00    -0.237 OA
ATOM     81  O   UNL A   1      43.150  19.786  24.927  1.00  0.00    -0.744 OA
ENDBRANCH  77  78
ENDBRANCH  49  72
BRANCH  61  82
ATOM     82  C   UNL A   1      47.656  27.251  31.379  1.00  0.00    -0.014 A 
ATOM     83  C   UNL A   1      48.775  27.514  30.570  1.00  0.00     0.010 A 
ATOM     84  C   UNL A   1      47.841  26.617  32.622  1.00  0.00     0.010 A 
ATOM     85  C   UNL A   1      50.050  27.110  30.977  1.00  0.00     0.020 A 
ATOM     86  C   UNL A   1      49.117  26.236  33.044  1.00  0.00     0.020 A 
ATOM     87  C   UNL A   1      50.212  26.470  32.209  1.00  0.00     0.054 A 
BRANCH  87  88
ATOM     88  S   UNL A   1      51.879  25.977  32.726  1.00  0.00     0.124 S 
ATOM     89  O   UNL A   1      52.696  27.065  32.195  1.00  0.00    -0.237 OA
ATOM     90  O   UNL A   1      51.765  25.931  34.182  1.00  0.00    -0.237 OA
ATOM     91  O   UNL A   1      52.073  24.680  32.081  1.00  0.00    -0.744 OA
ENDBRANCH  87  88
ENDBRANCH  61  82
ENDBRANCH  35  36
ENDBRANCH  27  30
ENDBRANCH  25  26
ENDBRANCH  24  25
ENDBRANCH   1  24
TORSDOF 18
ENDMDL
MODEL 2
REMARK VINA RESULT:      -8.7      0.951      8.246
REMARK SMILES C[C@H](C(=O)NCCCCCCNC(=O)c1ccc(-c2c3nc(c(-c4ccc(S(=O)(=O)[O-])cc4)c4ccc([nH]4)c(-c4ccc(S(=O)(=O)[O-])cc4)c4nc(c(-c5ccc(S(=O)(=O)[O-])cc5)c5ccc2[nH]5)C=C4)C=C3)cc1)c1ccc(-c2ccccc2)c(F)c1
REMARK SMILES IDX 9 1 8 2 7 3 6 4 5 5 3 6 4 7 2 9 1 10 75 11 76 12 87 13 77 14
REMARK SMILES IDX 85 15 78 16 86 17 79 18 80 19 84 20 81 21 83 22 82 23 10 24
REMARK SMILES IDX 11 25 12 26 13 27 14 29 15 30 16 31 74 32 17 33 73 34 18 35
REMARK SMILES IDX 19 36 20 37 67 38 21 39 72 40 66 41 68 42 22 43 71 44 65 45
REMARK SMILES IDX 64 46 23 48 53 49 34 50 52 51 35 52 38 53 51 54 69 55 36 56
REMARK SMILES IDX 37 57 50 59 70 60 39 61 24 62 25 63 33 64 26 65 32 66 27 67
REMARK SMILES IDX 28 68 29 69 30 70 31 71 54 72 55 73 63 74 56 75 62 76 57 77
REMARK SMILES IDX 58 78 59 79 60 80 61 81 40 82 41 83 49 84 42 85 48 86 43 87
REMARK SMILES IDX 44 88 45 89 46 90 47 91
REMARK H PARENT 5 8 12 28 68 47 38 58
REMARK Flexibility Score: inf
ROOT
ATOM      1  C   UNL A   1      35.997  32.755  30.383  1.00  0.00     0.002 C 
ENDROOT
BRANCH   1   2
ATOM      2  C   UNL A   1      35.361  32.086  31.604  1.00  0.00     0.002 C 
BRANCH   2   3
ATOM      3  C   UNL A   1      34.678  33.032  32.599  1.00  0.00     0.021 C 
BRANCH   3   4
ATOM      4  C   UNL A   1      35.631  33.881  33.437  1.00  0.00     0.116 C 
BRANCH   4   5
ATOM      5  N   UNL A   1      36.142  33.160  34.588  1.00  0.00    -0.356 N 
ATOM      6  C   UNL A   1      37.365  32.609  34.825  1.00  0.00     0.227 C 
ATOM      7  O   UNL A   1      37.551  32.105  35.937  1.00  0.00    -0.274 OA
ATOM      8  H   UNL A   1      35.495  33.049  35.322  1.00  0.00     0.163 HD
BRANCH   6   9
ATOM      9  C   UNL A   1      38.475  32.598  33.772  1.00  0.00     0.105 C 
ATOM     10  C   UNL A   1      39.264  33.913  33.788  1.00  0.00     0.023 C 
BRANCH   9  11
ATOM     11  C   UNL A   1      39.363  31.358  33.734  1.00  0.00    -0.033 A 
ATOM     12  C   UNL A   1      40.615  31.387  34.367  1.00  0.00     0.005 A 
ATOM     13  C   UNL A   1      39.004  30.178  33.069  1.00  0.00     0.044 A 
ATOM     14  C   UNL A   1      41.446  30.259  34.389  1.00  0.00     0.012 A 
ATOM     15  C   UNL A   1      39.831  29.052  33.106  1.00  0.00     0.131 A 
ATOM     16  C   UNL A   1      41.061  29.058  33.775  1.00  0.00     0.017 A 
ATOM     17  F   UNL A   1      39.397  27.941  32.492  1.00  0.00    -0.206 F 
BRANCH  16  18
ATOM     18  C   UNL A   1      41.924  27.864  33.842  1.00  0.00    -0.015 A 
ATOM     19  C   UNL A   1      42.907  27.630  32.863  1.00  0.00     0.009 A 
ATOM     20  C   UNL A   1      41.797  26.926  34.879  1.00  0.00     0.009 A 
ATOM     21  C   UNL A   1      43.726  26.499  32.916  1.00  0.00     0.001 A 
ATOM     22  C   UNL A   1      42.616  25.795  34.935  1.00  0.00     0.001 A 
ATOM     23  C   UNL A   1      43.578  25.581  33.951  1.00  0.00     0.000 A 
ENDBRANCH  16  18
ENDBRANCH   9  11
ENDBRANCH   6   9
ENDBRANCH   4   5
ENDBRANCH   3   4
ENDBRANCH   2   3
ENDBRANCH   1   2
BRANCH   1  24
ATOM     24  C   UNL A   1      35.017  33.314  29.348  1.00  0.00     0.021 C 
BRANCH  24  25
ATOM     25  C   UNL A   1      35.118  32.707  27.951  1.00  0.00     0.116 C 
BRANCH  25  26
ATOM     26  N   UNL A   1      34.312  31.506  27.803  1.00  0.00    -0.352 N 
ATOM     27  C   UNL A   1      34.692  30.188  27.820  1.00  0.00     0.251 C 
ATOM     28  H   UNL A   1      33.349  31.662  27.669  1.00  0.00     0.163 HD
ATOM     29  O   UNL A   1      33.872  29.318  27.529  1.00  0.00    -0.269 OA
BRANCH  27  30
ATOM     30  C   UNL A   1      36.082  29.805  28.161  1.00  0.00     0.039 A 
ATOM     31  C   UNL A   1      37.073  29.954  27.185  1.00  0.00     0.014 A 
ATOM     32  C   UNL A   1      36.413  29.279  29.413  1.00  0.00     0.014 A 
ATOM     33  C   UNL A   1      38.399  29.630  27.485  1.00  0.00     0.010 A 
ATOM     34  C   UNL A   1      37.746  29.019  29.731  1.00  0.00     0.010 A 
ATOM     35  C   UNL A   1      38.754  29.189  28.770  1.00  0.00    -0.014 A 
BRANCH  35  36
ATOM     36  C   UNL A   1      40.174  28.913  29.113  1.00  0.00     0.031 A 
ATOM     37  C   UNL A   1      40.792  27.575  28.803  1.00  0.00     0.074 A 
ATOM     38  C   UNL A   1      40.903  29.862  29.736  1.00  0.00     0.049 A 
ATOM     39  N   UNL A   1      42.011  27.157  29.040  1.00  0.00    -0.248 NA
ATOM     40  C   UNL A   1      39.928  26.572  28.164  1.00  0.00     0.031 C 
ATOM     41  C   UNL A   1      40.409  31.182  30.137  1.00  0.00     0.029 A 
ATOM     42  N   UNL A   1      42.214  29.862  30.142  1.00  0.00    -0.354 N 
ATOM     43  C   UNL A   1      42.059  25.847  28.577  1.00  0.00     0.074 A 
ATOM     44  C   UNL A   1      40.733  25.520  28.101  1.00  0.00     0.031 C 
ATOM     45  C   UNL A   1      41.409  31.871  30.709  1.00  0.00     0.029 A 
ATOM     46  C   UNL A   1      42.605  31.035  30.745  1.00  0.00     0.049 A 
ATOM     47  H   UNL A   1      42.818  29.095  30.015  1.00  0.00     0.167 HD
ATOM     48  C   UNL A   1      43.116  25.001  28.526  1.00  0.00     0.031 A 
ATOM     49  C   UNL A   1      43.791  31.400  31.271  1.00  0.00     0.031 A 
ATOM     50  C   UNL A   1      44.437  25.325  29.001  1.00  0.00     0.049 A 
ATOM     51  C   UNL A   1      44.948  30.441  31.207  1.00  0.00     0.074 A 
ATOM     52  C   UNL A   1      45.579  24.542  28.969  1.00  0.00     0.029 A 
ATOM     53  N   UNL A   1      44.795  26.528  29.587  1.00  0.00    -0.354 N 
ATOM     54  N   UNL A   1      44.984  29.225  30.714  1.00  0.00    -0.248 NA
ATOM     55  C   UNL A   1      46.230  30.910  31.752  1.00  0.00     0.031 C 
ATOM     56  C   UNL A   1      46.618  25.258  29.572  1.00  0.00     0.029 A 
ATOM     57  C   UNL A   1      46.137  26.507  29.931  1.00  0.00     0.049 A 
ATOM     58  H   UNL A   1      44.186  27.286  29.736  1.00  0.00     0.167 HD
ATOM     59  C   UNL A   1      46.297  28.794  30.871  1.00  0.00     0.074 A 
ATOM     60  C   UNL A   1      47.027  29.887  31.481  1.00  0.00     0.031 C 
ATOM     61  C   UNL A   1      46.849  27.600  30.541  1.00  0.00     0.031 A 
BRANCH  48  62
ATOM     62  C   UNL A   1      42.888  23.640  27.923  1.00  0.00    -0.014 A 
ATOM     63  C   UNL A   1      42.098  22.683  28.585  1.00  0.00     0.010 A 
ATOM     64  C   UNL A   1      43.425  23.326  26.660  1.00  0.00     0.010 A 
ATOM     65  C   UNL A   1      41.878  21.427  28.016  1.00  0.00     0.020 A 
ATOM     66  C   UNL A   1      43.185  22.079  26.075  1.00  0.00     0.020 A 
ATOM     67  C   UNL A   1      42.425  21.131  26.764  1.00  0.00     0.054 A 
BRANCH  67  68
ATOM     68  S   UNL A   1      42.099  19.502  26.037  1.00  0.00     0.124 S 
ATOM     69  O   UNL A   1      42.600  18.604  27.074  1.00  0.00    -0.237 OA
ATOM     70  O   UNL A   1      40.648  19.513  25.863  1.00  0.00    -0.237 OA
ATOM     71  O   UNL A   1      42.872  19.514  24.798  1.00  0.00    -0.744 OA
ENDBRANCH  67  68
ENDBRANCH  48  62
BRANCH  49  72
ATOM     72  C   UNL A   1      43.948  32.740  31.900  1.00  0.00    -0.014 A 
ATOM     73  C   UNL A   1      43.727  32.919  33.277  1.00  0.00     0.010 A 
ATOM     74  C   UNL A   1      44.313  33.849  31.117  1.00  0.00     0.010 A 
ATOM     75  C   UNL A   1      43.837  34.188  33.853  1.00  0.00     0.020 A 
ATOM     76  C   UNL A   1      44.454  35.114  31.694  1.00  0.00     0.020 A 
ATOM     77  C   UNL A   1      44.198  35.279  33.056  1.00  0.00     0.054 A 
BRANCH  77  78
ATOM     78  S   UNL A   1      44.366  36.912  33.827  1.00  0.00     0.124 S 
ATOM     79  O   UNL A   1      44.344  36.580  35.248  1.00  0.00    -0.237 OA
ATOM     80  O   UNL A   1      45.649  37.379  33.306  1.00  0.00    -0.237 OA
ATOM     81  O   UNL A   1      43.201  37.642  33.336  1.00  0.00    -0.744 OA
ENDBRANCH  77  78
ENDBRANCH  49  72
BRANCH  61  82
ATOM     82  C   UNL A   1      48.321  27.424  30.808  1.00  0.00    -0.014 A 
ATOM     83  C   UNL A   1      48.783  26.881  32.020  1.00  0.00     0.010 A 
ATOM     84  C   UNL A   1      49.254  27.782  29.817  1.00  0.00     0.010 A 
ATOM     85  C   UNL A   1      50.153  26.739  32.253  1.00  0.00     0.020 A 
ATOM     86  C   UNL A   1      50.624  27.617  30.036  1.00  0.00     0.020 A 
ATOM     87  C   UNL A   1      51.065  27.113  31.261  1.00  0.00     0.054 A 
BRANCH  87  88
ATOM     88  S   UNL A   1      52.838  26.898  31.578  1.00  0.00     0.124 S 
ATOM     89  O   UNL A   1      52.886  25.545  32.126  1.00  0.00    -0.237 OA
ATOM     90  O   UNL A   1      53.424  27.058  30.249  1.00  0.00    -0.237 OA
ATOM     91  O   UNL A   1      53.153  27.966  32.524  1.00  0.00    -0.744 OA
ENDBRANCH  87  88
ENDBRANCH  61  82
ENDBRANCH  35  36
ENDBRANCH  27  30
ENDBRANCH  25  26
ENDBRANCH  24  25
ENDBRANCH   1  24
TORSDOF 18
ENDMDL
MODEL 3
REMARK VINA RESULT:      -8.5      5.149     11.478
REMARK SMILES C[C@H](C(=O)NCCCCCCNC(=O)c1ccc(-c2c3nc(c(-c4ccc(S(=O)(=O)[O-])cc4)c4ccc([nH]4)c(-c4ccc(S(=O)(=O)[O-])cc4)c4nc(c(-c5ccc(S(=O)(=O)[O-])cc5)c5ccc2[nH]5)C=C4)C=C3)cc1)c1ccc(-c2ccccc2)c(F)c1
REMARK SMILES IDX 9 1 8 2 7 3 6 4 5 5 3 6 4 7 2 9 1 10 75 11 76 12 87 13 77 14
REMARK SMILES IDX 85 15 78 16 86 17 79 18 80 19 84 20 81 21 83 22 82 23 10 24
REMARK SMILES IDX 11 25 12 26 13 27 14 29 15 30 16 31 74 32 17 33 73 34 18 35
REMARK SMILES IDX 19 36 20 37 67 38 21 39 72 40 66 41 68 42 22 43 71 44 65 45
REMARK SMILES IDX 64 46 23 48 53 49 34 50 52 51 35 52 38 53 51 54 69 55 36 56
REMARK SMILES IDX 37 57 50 59 70 60 39 61 24 62 25 63 33 64 26 65 32 66 27 67
REMARK SMILES IDX 28 68 29 69 30 70 31 71 54 72 55 73 63 74 56 75 62 76 57 77
REMARK SMILES IDX 58 78 59 79 60 80 61 81 40 82 41 83 49 84 42 85 48 86 43 87
REMARK SMILES IDX 44 88 45 89 46 90 47 91
REMARK H PARENT 5 8 12 28 68 47 38 58
REMARK Flexibility Score: inf
ROOT
ATOM      1  C   UNL A   1      38.346  22.867  25.939  1.00  0.00     0.002 C 
ENDROOT
BRANCH   1   2
ATOM      2  C   UNL A   1      37.106  22.520  25.110  1.00  0.00     0.002 C 
BRANCH   2   3
ATOM      3  C   UNL A   1      36.099  21.581  25.783  1.00  0.00     0.021 C 
BRANCH   3   4
ATOM      4  C   UNL A   1      35.740  20.337  24.974  1.00  0.00     0.116 C 
BRANCH   4   5
ATOM      5  N   UNL A   1      34.362  19.929  25.176  1.00  0.00    -0.356 N 
ATOM      6  C   UNL A   1      33.202  20.414  24.652  1.00  0.00     0.227 C 
ATOM      7  O   UNL A   1      32.158  19.823  24.948  1.00  0.00    -0.274 OA
ATOM      8  H   UNL A   1      34.245  19.174  25.797  1.00  0.00     0.163 HD
BRANCH   6   9
ATOM      9  C   UNL A   1      33.167  21.641  23.739  1.00  0.00     0.105 C 
ATOM     10  C   UNL A   1      32.109  21.481  22.640  1.00  0.00     0.023 C 
BRANCH   9  11
ATOM     11  C   UNL A   1      33.124  23.001  24.430  1.00  0.00    -0.033 A 
ATOM     12  C   UNL A   1      33.851  24.073  23.888  1.00  0.00     0.005 A 
ATOM     13  C   UNL A   1      32.407  23.239  25.609  1.00  0.00     0.044 A 
ATOM     14  C   UNL A   1      33.811  25.348  24.468  1.00  0.00     0.012 A 
ATOM     15  C   UNL A   1      32.358  24.516  26.175  1.00  0.00     0.131 A 
ATOM     16  C   UNL A   1      33.044  25.602  25.615  1.00  0.00     0.017 A 
ATOM     17  F   UNL A   1      31.607  24.682  27.275  1.00  0.00    -0.206 F 
BRANCH  16  18
ATOM     18  C   UNL A   1      32.973  26.957  26.192  1.00  0.00    -0.015 A 
ATOM     19  C   UNL A   1      34.134  27.736  26.348  1.00  0.00     0.009 A 
ATOM     20  C   UNL A   1      31.751  27.515  26.602  1.00  0.00     0.009 A 
ATOM     21  C   UNL A   1      34.075  29.019  26.897  1.00  0.00     0.001 A 
ATOM     22  C   UNL A   1      31.690  28.799  27.151  1.00  0.00     0.001 A 
ATOM     23  C   UNL A   1      32.854  29.550  27.301  1.00  0.00     0.000 A 
ENDBRANCH  16  18
ENDBRANCH   9  11
ENDBRANCH   6   9
ENDBRANCH   4   5
ENDBRANCH   3   4
ENDBRANCH   2   3
ENDBRANCH   1   2
BRANCH   1  24
ATOM     24  C   UNL A   1      39.133  21.673  26.484  1.00  0.00     0.021 C 
BRANCH  24  25
ATOM     25  C   UNL A   1      39.501  20.603  25.458  1.00  0.00     0.116 C 
BRANCH  25  26
ATOM     26  N   UNL A   1      40.365  19.572  26.009  1.00  0.00    -0.352 N 
ATOM     27  C   UNL A   1      41.611  19.680  26.571  1.00  0.00     0.251 C 
ATOM     28  H   UNL A   1      40.000  18.658  25.973  1.00  0.00     0.163 HD
ATOM     29  O   UNL A   1      42.241  18.659  26.846  1.00  0.00    -0.269 OA
BRANCH  27  30
ATOM     30  C   UNL A   1      42.215  21.009  26.824  1.00  0.00     0.039 A 
ATOM     31  C   UNL A   1      42.622  21.776  25.728  1.00  0.00     0.014 A 
ATOM     32  C   UNL A   1      42.407  21.493  28.122  1.00  0.00     0.014 A 
ATOM     33  C   UNL A   1      43.168  23.046  25.932  1.00  0.00     0.010 A 
ATOM     34  C   UNL A   1      42.890  22.786  28.320  1.00  0.00     0.010 A 
ATOM     35  C   UNL A   1      43.278  23.577  27.229  1.00  0.00    -0.014 A 
BRANCH  35  36
ATOM     36  C   UNL A   1      43.791  24.956  27.444  1.00  0.00     0.031 A 
ATOM     37  C   UNL A   1      45.238  25.284  27.194  1.00  0.00     0.074 A 
ATOM     38  C   UNL A   1      42.953  25.911  27.897  1.00  0.00     0.049 A 
ATOM     39  N   UNL A   1      45.860  26.428  27.338  1.00  0.00    -0.248 NA
ATOM     40  C   UNL A   1      46.105  24.184  26.743  1.00  0.00     0.031 C 
ATOM     41  C   UNL A   1      41.539  25.712  28.227  1.00  0.00     0.029 A 
ATOM     42  N   UNL A   1      43.170  27.241  28.162  1.00  0.00    -0.354 N 
ATOM     43  C   UNL A   1      47.185  26.187  26.994  1.00  0.00     0.074 A 
ATOM     44  C   UNL A   1      47.291  24.776  26.691  1.00  0.00     0.031 C 
ATOM     45  C   UNL A   1      41.011  26.881  28.624  1.00  0.00     0.029 A 
ATOM     46  C   UNL A   1      42.052  27.904  28.611  1.00  0.00     0.049 A 
ATOM     47  H   UNL A   1      44.044  27.679  28.042  1.00  0.00     0.167 HD
ATOM     48  C   UNL A   1      48.215  27.062  26.909  1.00  0.00     0.031 A 
ATOM     49  C   UNL A   1      41.879  29.191  28.973  1.00  0.00     0.031 A 
ATOM     50  C   UNL A   1      48.112  28.467  27.210  1.00  0.00     0.049 A 
ATOM     51  C   UNL A   1      43.041  30.142  28.875  1.00  0.00     0.074 A 
ATOM     52  C   UNL A   1      49.096  29.438  27.130  1.00  0.00     0.029 A 
ATOM     53  N   UNL A   1      46.960  29.102  27.643  1.00  0.00    -0.354 N 
ATOM     54  N   UNL A   1      44.273  29.902  28.494  1.00  0.00    -0.248 NA
ATOM     55  C   UNL A   1      42.783  31.543  29.237  1.00  0.00     0.031 C 
ATOM     56  C   UNL A   1      48.546  30.653  27.553  1.00  0.00     0.029 A 
ATOM     57  C   UNL A   1      47.208  30.450  27.845  1.00  0.00     0.049 A 
ATOM     58  H   UNL A   1      46.092  28.659  27.786  1.00  0.00     0.167 HD
ATOM     59  C   UNL A   1      44.930  31.126  28.550  1.00  0.00     0.074 A 
ATOM     60  C   UNL A   1      43.954  32.107  28.978  1.00  0.00     0.031 C 
ATOM     61  C   UNL A   1      46.227  31.413  28.275  1.00  0.00     0.031 A 
BRANCH  48  62
ATOM     62  C   UNL A   1      49.549  26.524  26.459  1.00  0.00    -0.014 A 
ATOM     63  C   UNL A   1      49.946  26.624  25.114  1.00  0.00     0.010 A 
ATOM     64  C   UNL A   1      50.436  25.959  27.394  1.00  0.00     0.010 A 
ATOM     65  C   UNL A   1      51.189  26.136  24.703  1.00  0.00     0.020 A 
ATOM     66  C   UNL A   1      51.692  25.493  26.991  1.00  0.00     0.020 A 
ATOM     67  C   UNL A   1      52.054  25.571  25.644  1.00  0.00     0.054 A 
BRANCH  67  68
ATOM     68  S   UNL A   1      53.673  24.972  25.087  1.00  0.00     0.124 S 
ATOM     69  O   UNL A   1      53.761  25.547  23.747  1.00  0.00    -0.237 OA
ATOM     70  O   UNL A   1      54.584  25.544  26.076  1.00  0.00    -0.237 OA
ATOM     71  O   UNL A   1      53.540  23.519  25.134  1.00  0.00    -0.744 OA
ENDBRANCH  67  68
ENDBRANCH  48  62
BRANCH  49  72
ATOM     72  C   UNL A   1      40.552  29.658  29.457  1.00  0.00    -0.014 A 
ATOM     73  C   UNL A   1      40.291  29.783  30.833  1.00  0.00     0.010 A 
ATOM     74  C   UNL A   1      39.536  29.974  28.538  1.00  0.00     0.010 A 
ATOM     75  C   UNL A   1      39.029  30.184  31.281  1.00  0.00     0.020 A 
ATOM     76  C   UNL A   1      38.282  30.404  28.981  1.00  0.00     0.020 A 
ATOM     77  C   UNL A   1      38.031  30.490  30.351  1.00  0.00     0.054 A 
BRANCH  77  78
ATOM     78  S   UNL A   1      36.410  31.039  30.951  1.00  0.00     0.124 S 
ATOM     79  O   UNL A   1      36.728  32.336  31.540  1.00  0.00    -0.237 OA
ATOM     80  O   UNL A   1      35.614  31.077  29.727  1.00  0.00    -0.237 OA
ATOM     81  O   UNL A   1      36.027  29.996  31.900  1.00  0.00    -0.744 OA
ENDBRANCH  77  78
ENDBRANCH  49  72
BRANCH  61  82
ATOM     82  C   UNL A   1      46.656  32.851  28.400  1.00  0.00    -0.014 A 
ATOM     83  C   UNL A   1      46.555  33.739  27.314  1.00  0.00     0.010 A 
ATOM     84  C   UNL A   1      47.138  33.327  29.633  1.00  0.00     0.010 A 
ATOM     85  C   UNL A   1      46.971  35.067  27.448  1.00  0.00     0.020 A 
ATOM     86  C   UNL A   1      47.530  34.661  29.778  1.00  0.00     0.020 A 
ATOM     87  C   UNL A   1      47.460  35.518  28.677  1.00  0.00     0.054 A 
BRANCH  87  88
ATOM     88  S   UNL A   1      47.972  37.251  28.832  1.00  0.00     0.124 S 
ATOM     89  O   UNL A   1      48.686  37.469  27.577  1.00  0.00    -0.237 OA
ATOM     90  O   UNL A   1      46.697  37.953  28.960  1.00  0.00    -0.237 OA
ATOM     91  O   UNL A   1      48.804  37.260  30.034  1.00  0.00    -0.744 OA
ENDBRANCH  87  88
ENDBRANCH  61  82
ENDBRANCH  35  36
ENDBRANCH  27  30
ENDBRANCH  25  26
ENDBRANCH  24  25
ENDBRANCH   1  24
TORSDOF 18
ENDMDL
