MODEL 1
REMARK VINA RESULT:     -11.2      0.000      0.000
REMARK SMILES O=C(CSc1nc(O)cc(=O)[nH]1)Nc1cccc(C(=O)NCCCCCCNC(=O)c2ccc(-c3c4nc(c(-c5ccc(S(=O)(=O)[O-])cc5)c5ccc([nH]5)c(-c5ccc(S(=O)(=O)[O-])cc5)c5nc(c(-c6ccc(S(=O)(=O)[O-])cc6)c6ccc3[nH]6)C=C5)C=C4)cc2)c1
REMARK SMILES IDX 23 1 22 2 21 3 19 4 20 5 18 7 14 8 15 9 91 10 16 11 17 12
REMARK SMILES IDX 13 13 1 14 2 15 3 17 4 18 5 19 6 20 12 21 7 22 10 23 9 25
REMARK SMILES IDX 11 26 8 27 24 29 25 30 26 31 27 32 28 33 29 34 30 36 31 37
REMARK SMILES IDX 32 38 90 39 33 40 89 41 34 42 35 43 36 44 83 45 37 46 88 47
REMARK SMILES IDX 82 48 84 49 38 50 87 51 81 52 80 53 39 55 69 56 50 57 68 58
REMARK SMILES IDX 51 59 54 60 67 61 85 62 52 63 53 64 66 66 86 67 55 68 40 69
REMARK SMILES IDX 41 70 49 71 42 72 48 73 43 74 44 75 45 76 46 77 47 78 70 79
REMARK SMILES IDX 71 80 79 81 72 82 78 83 73 84 74 85 75 86 76 87 77 88 56 89
REMARK SMILES IDX 57 90 65 91 58 92 64 93 59 94 60 95 61 96 62 97 63 98
REMARK H PARENT 21 6 13 16 12 24 8 28 28 35 84 54 54 65
REMARK Flexibility Score: inf
ROOT
ATOM      1  C   UNL A   1      38.471  23.205  26.318  1.00  0.00     0.021 C 
ENDROOT
BRANCH   1   2
ATOM      2  C   UNL A   1      37.054  23.164  25.758  1.00  0.00     0.116 C 
BRANCH   2   3
ATOM      3  N   UNL A   1      36.013  23.069  26.773  1.00  0.00    -0.352 N 
ATOM      4  C   UNL A   1      34.662  22.815  26.644  1.00  0.00     0.251 C 
ATOM      5  O   UNL A   1      33.945  22.833  27.644  1.00  0.00    -0.269 OA
ATOM      6  H   UNL A   1      36.321  23.211  27.698  1.00  0.00     0.163 HD
BRANCH   4   7
ATOM      7  C   UNL A   1      34.045  22.590  25.310  1.00  0.00     0.041 A 
ATOM      8  C   UNL A   1      32.742  23.439  23.451  1.00  0.00     0.041 A 
ATOM      9  C   UNL A   1      32.516  22.124  23.027  1.00  0.00     0.026 A 
ATOM     10  C   UNL A   1      33.599  23.656  24.527  1.00  0.00     0.040 A 
ATOM     11  C   UNL A   1      33.110  21.050  23.702  1.00  0.00     0.003 A 
ATOM     12  C   UNL A   1      33.850  21.281  24.862  1.00  0.00     0.014 A 
BRANCH   8  13
ATOM     13  N   UNL A   1      31.994  24.480  22.859  1.00  0.00    -0.325 N 
ATOM     14  O   UNL A   1      33.575  25.463  21.462  1.00  0.00    -0.274 OA
ATOM     15  C   UNL A   1      32.468  25.459  21.994  1.00  0.00     0.234 C 
ATOM     16  H   UNL A   1      31.035  24.516  23.083  1.00  0.00     0.169 HD
BRANCH  15  17
ATOM     17  C   UNL A   1      31.548  26.663  21.833  1.00  0.00     0.178 C 
BRANCH  17  18
ATOM     18  S   UNL A   1      31.131  27.459  23.406  1.00  0.00    -0.078 SA
BRANCH  18  19
ATOM     19  C   UNL A   1      29.891  28.535  22.848  1.00  0.00     0.172 A 
ATOM     20  N   UNL A   1      30.115  29.507  22.032  1.00  0.00    -0.189 NA
ATOM     21  N   UNL A   1      28.679  28.209  23.355  1.00  0.00    -0.301 N 
ATOM     22  C   UNL A   1      29.023  30.251  21.684  1.00  0.00     0.218 A 
ATOM     23  C   UNL A   1      27.556  28.886  23.002  1.00  0.00     0.255 A 
ATOM     24  H   UNL A   1      28.610  27.464  23.996  1.00  0.00     0.172 HD
ATOM     25  C   UNL A   1      27.774  30.016  22.093  1.00  0.00     0.139 A 
ATOM     26  O   UNL A   1      26.443  28.576  23.404  1.00  0.00    -0.269 OA
BRANCH  22  27
ATOM     27  O   UNL A   1      29.265  31.314  20.855  1.00  0.00    -0.493 OA
ATOM     28  H   UNL A   1      28.666  32.035  20.832  1.00  0.00     0.295 HD
ENDBRANCH  22  27
ENDBRANCH  18  19
ENDBRANCH  17  18
ENDBRANCH  15  17
ENDBRANCH   8  13
ENDBRANCH   4   7
ENDBRANCH   2   3
ENDBRANCH   1   2
BRANCH   1  29
ATOM     29  C   UNL A   1      39.328  21.966  26.067  1.00  0.00     0.002 C 
BRANCH  29  30
ATOM     30  C   UNL A   1      40.390  21.655  27.125  1.00  0.00     0.002 C 
BRANCH  30  31
ATOM     31  C   UNL A   1      40.931  22.851  27.914  1.00  0.00     0.021 C 
BRANCH  31  32
ATOM     32  C   UNL A   1      42.186  23.505  27.346  1.00  0.00     0.116 C 
BRANCH  32  33
ATOM     33  N   UNL A   1      41.911  24.325  26.179  1.00  0.00    -0.352 N 
ATOM     34  C   UNL A   1      41.419  25.605  26.104  1.00  0.00     0.251 C 
ATOM     35  H   UNL A   1      42.107  23.900  25.314  1.00  0.00     0.163 HD
ATOM     36  O   UNL A   1      41.096  26.067  25.013  1.00  0.00    -0.269 OA
BRANCH  34  37
ATOM     37  C   UNL A   1      41.262  26.423  27.328  1.00  0.00     0.039 A 
ATOM     38  C   UNL A   1      42.231  27.387  27.622  1.00  0.00     0.014 A 
ATOM     39  C   UNL A   1      40.188  26.226  28.203  1.00  0.00     0.014 A 
ATOM     40  C   UNL A   1      42.101  28.177  28.768  1.00  0.00     0.010 A 
ATOM     41  C   UNL A   1      40.021  27.067  29.302  1.00  0.00     0.010 A 
ATOM     42  C   UNL A   1      40.983  28.042  29.606  1.00  0.00    -0.014 A 
BRANCH  42  43
ATOM     43  C   UNL A   1      40.820  28.895  30.812  1.00  0.00     0.031 A 
ATOM     44  C   UNL A   1      39.759  29.966  30.845  1.00  0.00     0.074 A 
ATOM     45  C   UNL A   1      41.649  28.736  31.863  1.00  0.00     0.049 A 
ATOM     46  N   UNL A   1      39.488  30.828  31.791  1.00  0.00    -0.248 NA
ATOM     47  C   UNL A   1      38.908  30.102  29.650  1.00  0.00     0.031 C 
ATOM     48  C   UNL A   1      42.742  27.762  31.941  1.00  0.00     0.029 A 
ATOM     49  N   UNL A   1      41.707  29.391  33.068  1.00  0.00    -0.354 N 
ATOM     50  C   UNL A   1      38.453  31.617  31.301  1.00  0.00     0.074 A 
ATOM     51  C   UNL A   1      38.177  31.165  29.955  1.00  0.00     0.031 C 
ATOM     52  C   UNL A   1      43.341  27.867  33.139  1.00  0.00     0.029 A 
ATOM     53  C   UNL A   1      42.705  28.939  33.899  1.00  0.00     0.049 A 
ATOM     54  H   UNL A   1      41.091  30.119  33.314  1.00  0.00     0.167 HD
ATOM     55  C   UNL A   1      37.776  32.614  31.921  1.00  0.00     0.031 A 
ATOM     56  C   UNL A   1      43.074  29.342  35.131  1.00  0.00     0.031 A 
ATOM     57  C   UNL A   1      38.039  33.048  33.268  1.00  0.00     0.049 A 
ATOM     58  C   UNL A   1      42.306  30.451  35.798  1.00  0.00     0.074 A 
ATOM     59  C   UNL A   1      37.371  34.011  34.005  1.00  0.00     0.029 A 
ATOM     60  N   UNL A   1      39.047  32.552  34.080  1.00  0.00    -0.354 N 
ATOM     61  N   UNL A   1      41.286  31.140  35.340  1.00  0.00    -0.248 NA
ATOM     62  C   UNL A   1      42.724  30.826  37.156  1.00  0.00     0.031 C 
ATOM     63  C   UNL A   1      38.011  34.137  35.242  1.00  0.00     0.029 A 
ATOM     64  C   UNL A   1      39.033  33.202  35.302  1.00  0.00     0.049 A 
ATOM     65  H   UNL A   1      39.678  31.841  33.826  1.00  0.00     0.167 HD
ATOM     66  C   UNL A   1      40.918  32.001  36.369  1.00  0.00     0.074 A 
ATOM     67  C   UNL A   1      41.815  31.736  37.476  1.00  0.00     0.031 C 
ATOM     68  C   UNL A   1      39.926  32.924  36.398  1.00  0.00     0.031 A 
BRANCH  55  69
ATOM     69  C   UNL A   1      36.685  33.312  31.151  1.00  0.00    -0.014 A 
ATOM     70  C   UNL A   1      36.947  33.934  29.916  1.00  0.00     0.010 A 
ATOM     71  C   UNL A   1      35.364  33.287  31.636  1.00  0.00     0.010 A 
ATOM     72  C   UNL A   1      35.915  34.540  29.196  1.00  0.00     0.020 A 
ATOM     73  C   UNL A   1      34.324  33.867  30.904  1.00  0.00     0.020 A 
ATOM     74  C   UNL A   1      34.609  34.501  29.693  1.00  0.00     0.054 A 
BRANCH  74  75
ATOM     75  S   UNL A   1      33.282  35.255  28.713  1.00  0.00     0.124 S 
ATOM     76  O   UNL A   1      34.029  36.148  27.831  1.00  0.00    -0.237 OA
ATOM     77  O   UNL A   1      32.670  34.098  28.063  1.00  0.00    -0.237 OA
ATOM     78  O   UNL A   1      32.447  35.920  29.710  1.00  0.00    -0.744 OA
ENDBRANCH  74  75
ENDBRANCH  55  69
BRANCH  56  79
ATOM     79  C   UNL A   1      44.223  28.692  35.820  1.00  0.00    -0.014 A 
ATOM     80  C   UNL A   1      45.536  29.167  35.637  1.00  0.00     0.010 A 
ATOM     81  C   UNL A   1      44.012  27.578  36.653  1.00  0.00     0.010 A 
ATOM     82  C   UNL A   1      46.615  28.520  36.246  1.00  0.00     0.020 A 
ATOM     83  C   UNL A   1      45.085  26.949  37.290  1.00  0.00     0.020 A 
ATOM     84  C   UNL A   1      46.383  27.414  37.068  1.00  0.00     0.054 A 
BRANCH  84  85
ATOM     85  S   UNL A   1      47.796  26.603  37.867  1.00  0.00     0.124 S 
ATOM     86  O   UNL A   1      48.613  26.219  36.720  1.00  0.00    -0.237 OA
ATOM     87  O   UNL A   1      48.339  27.670  38.704  1.00  0.00    -0.237 OA
ATOM     88  O   UNL A   1      47.184  25.496  38.599  1.00  0.00    -0.744 OA
ENDBRANCH  84  85
ENDBRANCH  56  79
BRANCH  68  89
ATOM     89  C   UNL A   1      39.715  33.679  37.684  1.00  0.00    -0.014 A 
ATOM     90  C   UNL A   1      38.892  33.177  38.708  1.00  0.00     0.010 A 
ATOM     91  C   UNL A   1      40.389  34.898  37.884  1.00  0.00     0.010 A 
ATOM     92  C   UNL A   1      38.712  33.903  39.889  1.00  0.00     0.020 A 
ATOM     93  C   UNL A   1      40.240  35.609  39.076  1.00  0.00     0.020 A 
ATOM     94  C   UNL A   1      39.387  35.116  40.064  1.00  0.00     0.054 A 
BRANCH  94  95
ATOM     95  S   UNL A   1      39.156  36.027  41.615  1.00  0.00     0.124 S 
ATOM     96  O   UNL A   1      39.238  37.414  41.169  1.00  0.00    -0.237 OA
ATOM     97  O   UNL A   1      37.835  35.583  42.053  1.00  0.00    -0.237 OA
ATOM     98  O   UNL A   1      40.267  35.574  42.451  1.00  0.00    -0.744 OA
ENDBRANCH  94  95
ENDBRANCH  68  89
ENDBRANCH  42  43
ENDBRANCH  34  37
ENDBRANCH  32  33
ENDBRANCH  31  32
ENDBRANCH  30  31
ENDBRANCH  29  30
ENDBRANCH   1  29
TORSDOF 21
ENDMDL
MODEL 2
REMARK VINA RESULT:     -10.6      5.956     10.658
REMARK SMILES O=C(CSc1nc(O)cc(=O)[nH]1)Nc1cccc(C(=O)NCCCCCCNC(=O)c2ccc(-c3c4nc(c(-c5ccc(S(=O)(=O)[O-])cc5)c5ccc([nH]5)c(-c5ccc(S(=O)(=O)[O-])cc5)c5nc(c(-c6ccc(S(=O)(=O)[O-])cc6)c6ccc3[nH]6)C=C5)C=C4)cc2)c1
REMARK SMILES IDX 23 1 22 2 21 3 19 4 20 5 18 7 14 8 15 9 91 10 16 11 17 12
REMARK SMILES IDX 13 13 1 14 2 15 3 17 4 18 5 19 6 20 12 21 7 22 10 23 9 25
REMARK SMILES IDX 11 26 8 27 24 29 25 30 26 31 27 32 28 33 29 34 30 36 31 37
REMARK SMILES IDX 32 38 90 39 33 40 89 41 34 42 35 43 36 44 83 45 37 46 88 47
REMARK SMILES IDX 82 48 84 49 38 50 87 51 81 52 80 53 39 55 69 56 50 57 68 58
REMARK SMILES IDX 51 59 54 60 67 61 85 62 52 63 53 64 66 66 86 67 55 68 40 69
REMARK SMILES IDX 41 70 49 71 42 72 48 73 43 74 44 75 45 76 46 77 47 78 70 79
REMARK SMILES IDX 71 80 79 81 72 82 78 83 73 84 74 85 75 86 76 87 77 88 56 89
REMARK SMILES IDX 57 90 65 91 58 92 64 93 59 94 60 95 61 96 62 97 63 98
REMARK H PARENT 21 6 13 16 12 24 8 28 28 35 84 54 54 65
REMARK Flexibility Score: inf
ROOT
ATOM      1  C   UNL A   1      34.423  21.130  26.507  1.00  0.00     0.021 C 
ENDROOT
BRANCH   1   2
ATOM      2  C   UNL A   1      33.751  22.062  27.508  1.00  0.00     0.116 C 
BRANCH   2   3
ATOM      3  N   UNL A   1      32.306  22.169  27.349  1.00  0.00    -0.352 N 
ATOM      4  C   UNL A   1      31.552  23.074  26.628  1.00  0.00     0.251 C 
ATOM      5  O   UNL A   1      30.325  23.013  26.676  1.00  0.00    -0.269 OA
ATOM      6  H   UNL A   1      31.784  21.490  27.835  1.00  0.00     0.163 HD
BRANCH   4   7
ATOM      7  C   UNL A   1      32.197  24.165  25.850  1.00  0.00     0.041 A 
ATOM      8  C   UNL A   1      32.863  26.490  25.687  1.00  0.00     0.041 A 
ATOM      9  C   UNL A   1      33.000  26.339  24.302  1.00  0.00     0.026 A 
ATOM     10  C   UNL A   1      32.570  25.366  26.455  1.00  0.00     0.040 A 
ATOM     11  C   UNL A   1      32.803  25.089  23.703  1.00  0.00     0.003 A 
ATOM     12  C   UNL A   1      32.371  24.008  24.472  1.00  0.00     0.014 A 
BRANCH   8  13
ATOM     13  N   UNL A   1      32.897  27.791  26.234  1.00  0.00    -0.325 N 
ATOM     14  O   UNL A   1      31.813  29.025  24.585  1.00  0.00    -0.274 OA
ATOM     15  C   UNL A   1      32.464  28.963  25.625  1.00  0.00     0.234 C 
ATOM     16  H   UNL A   1      33.267  27.877  27.143  1.00  0.00     0.169 HD
BRANCH  15  17
ATOM     17  C   UNL A   1      32.979  30.242  26.272  1.00  0.00     0.178 C 
BRANCH  17  18
ATOM     18  S   UNL A   1      34.364  29.962  27.405  1.00  0.00    -0.078 SA
BRANCH  18  19
ATOM     19  C   UNL A   1      34.724  31.609  27.811  1.00  0.00     0.172 A 
ATOM     20  N   UNL A   1      35.924  32.059  27.936  1.00  0.00    -0.189 NA
ATOM     21  N   UNL A   1      33.597  32.347  27.952  1.00  0.00    -0.301 N 
ATOM     22  C   UNL A   1      36.030  33.385  28.247  1.00  0.00     0.218 A 
ATOM     23  C   UNL A   1      33.650  33.680  28.212  1.00  0.00     0.255 A 
ATOM     24  H   UNL A   1      32.721  31.908  27.865  1.00  0.00     0.172 HD
ATOM     25  C   UNL A   1      35.001  34.224  28.386  1.00  0.00     0.139 A 
ATOM     26  O   UNL A   1      32.648  34.377  28.289  1.00  0.00    -0.269 OA
BRANCH  22  27
ATOM     27  O   UNL A   1      37.303  33.857  28.428  1.00  0.00    -0.493 OA
ATOM     28  H   UNL A   1      37.449  34.621  28.950  1.00  0.00     0.295 HD
ENDBRANCH  22  27
ENDBRANCH  18  19
ENDBRANCH  17  18
ENDBRANCH  15  17
ENDBRANCH   8  13
ENDBRANCH   4   7
ENDBRANCH   2   3
ENDBRANCH   1   2
BRANCH   1  29
ATOM     29  C   UNL A   1      35.678  21.670  25.824  1.00  0.00     0.002 C 
BRANCH  29  30
ATOM     30  C   UNL A   1      36.541  20.641  25.089  1.00  0.00     0.002 C 
BRANCH  30  31
ATOM     31  C   UNL A   1      38.005  21.027  24.857  1.00  0.00     0.021 C 
BRANCH  31  32
ATOM     32  C   UNL A   1      38.897  21.013  26.093  1.00  0.00     0.116 C 
BRANCH  32  33
ATOM     33  N   UNL A   1      39.969  20.038  25.999  1.00  0.00    -0.352 N 
ATOM     34  C   UNL A   1      41.329  20.221  26.059  1.00  0.00     0.251 C 
ATOM     35  H   UNL A   1      39.677  19.107  25.874  1.00  0.00     0.163 HD
ATOM     36  O   UNL A   1      42.079  19.286  25.788  1.00  0.00    -0.269 OA
BRANCH  34  37
ATOM     37  C   UNL A   1      41.895  21.537  26.431  1.00  0.00     0.039 A 
ATOM     38  C   UNL A   1      42.248  21.764  27.765  1.00  0.00     0.014 A 
ATOM     39  C   UNL A   1      42.047  22.557  25.487  1.00  0.00     0.014 A 
ATOM     40  C   UNL A   1      42.791  22.996  28.140  1.00  0.00     0.010 A 
ATOM     41  C   UNL A   1      42.660  23.756  25.848  1.00  0.00     0.010 A 
ATOM     42  C   UNL A   1      43.025  23.995  27.182  1.00  0.00    -0.014 A 
BRANCH  42  43
ATOM     43  C   UNL A   1      43.628  25.300  27.563  1.00  0.00     0.031 A 
ATOM     44  C   UNL A   1      45.087  25.569  27.293  1.00  0.00     0.074 A 
ATOM     45  C   UNL A   1      42.876  26.228  28.189  1.00  0.00     0.049 A 
ATOM     46  N   UNL A   1      45.796  26.629  27.584  1.00  0.00    -0.248 NA
ATOM     47  C   UNL A   1      45.853  24.498  26.635  1.00  0.00     0.031 C 
ATOM     48  C   UNL A   1      41.462  26.076  28.542  1.00  0.00     0.029 A 
ATOM     49  N   UNL A   1      43.194  27.484  28.641  1.00  0.00    -0.354 N 
ATOM     50  C   UNL A   1      47.091  26.347  27.161  1.00  0.00     0.074 A 
ATOM     51  C   UNL A   1      47.081  24.998  26.640  1.00  0.00     0.031 C 
ATOM     52  C   UNL A   1      41.031  27.204  29.131  1.00  0.00     0.029 A 
ATOM     53  C   UNL A   1      42.143  28.144  29.233  1.00  0.00     0.049 A 
ATOM     54  H   UNL A   1      44.093  27.877  28.551  1.00  0.00     0.167 HD
ATOM     55  C   UNL A   1      48.186  27.145  27.184  1.00  0.00     0.031 A 
ATOM     56  C   UNL A   1      42.078  29.365  29.801  1.00  0.00     0.031 A 
ATOM     57  C   UNL A   1      48.188  28.494  27.685  1.00  0.00     0.049 A 
ATOM     58  C   UNL A   1      43.308  30.232  29.812  1.00  0.00     0.074 A 
ATOM     59  C   UNL A   1      49.232  29.403  27.698  1.00  0.00     0.029 A 
ATOM     60  N   UNL A   1      47.098  29.129  28.259  1.00  0.00    -0.354 N 
ATOM     61  N   UNL A   1      44.508  29.969  29.347  1.00  0.00    -0.248 NA
ATOM     62  C   UNL A   1      43.173  31.568  30.408  1.00  0.00     0.031 C 
ATOM     63  C   UNL A   1      48.789  30.568  28.333  1.00  0.00     0.029 A 
ATOM     64  C   UNL A   1      47.449  30.410  28.650  1.00  0.00     0.049 A 
ATOM     65  H   UNL A   1      46.205  28.730  28.372  1.00  0.00     0.167 HD
ATOM     66  C   UNL A   1      45.257  31.122  29.559  1.00  0.00     0.074 A 
ATOM     67  C   UNL A   1      44.373  32.086  30.181  1.00  0.00     0.031 C 
ATOM     68  C   UNL A   1      46.558  31.363  29.262  1.00  0.00     0.031 A 
BRANCH  55  69
ATOM     69  C   UNL A   1      49.480  26.583  26.656  1.00  0.00    -0.014 A 
ATOM     70  C   UNL A   1      49.860  26.764  25.313  1.00  0.00     0.010 A 
ATOM     71  C   UNL A   1      50.362  25.924  27.532  1.00  0.00     0.010 A 
ATOM     72  C   UNL A   1      51.082  26.272  24.850  1.00  0.00     0.020 A 
ATOM     73  C   UNL A   1      51.599  25.456  27.079  1.00  0.00     0.020 A 
ATOM     74  C   UNL A   1      51.947  25.623  25.737  1.00  0.00     0.054 A 
BRANCH  74  75
ATOM     75  S   UNL A   1      53.549  25.037  25.119  1.00  0.00     0.124 S 
ATOM     76  O   UNL A   1      53.439  23.595  25.319  1.00  0.00    -0.237 OA
ATOM     77  O   UNL A   1      53.534  25.482  23.728  1.00  0.00    -0.237 OA
ATOM     78  O   UNL A   1      54.520  25.713  25.976  1.00  0.00    -0.744 OA
ENDBRANCH  74  75
ENDBRANCH  55  69
BRANCH  56  79
ATOM     79  C   UNL A   1      40.803  29.846  30.402  1.00  0.00    -0.014 A 
ATOM     80  C   UNL A   1      39.800  30.420  29.599  1.00  0.00     0.010 A 
ATOM     81  C   UNL A   1      40.591  29.746  31.789  1.00  0.00     0.010 A 
ATOM     82  C   UNL A   1      38.627  30.917  30.177  1.00  0.00     0.020 A 
ATOM     83  C   UNL A   1      39.406  30.211  32.366  1.00  0.00     0.020 A 
ATOM     84  C   UNL A   1      38.438  30.810  31.557  1.00  0.00     0.054 A 
BRANCH  84  85
ATOM     85  S   UNL A   1      36.899  31.439  32.283  1.00  0.00     0.124 S 
ATOM     86  O   UNL A   1      35.925  30.450  31.833  1.00  0.00    -0.237 OA
ATOM     87  O   UNL A   1      37.199  31.429  33.713  1.00  0.00    -0.237 OA
ATOM     88  O   UNL A   1      36.762  32.768  31.692  1.00  0.00    -0.744 OA
ENDBRANCH  84  85
ENDBRANCH  56  79
BRANCH  68  89
ATOM     89  C   UNL A   1      47.094  32.741  29.551  1.00  0.00    -0.014 A 
ATOM     90  C   UNL A   1      47.711  33.050  30.776  1.00  0.00     0.010 A 
ATOM     91  C   UNL A   1      47.012  33.733  28.556  1.00  0.00     0.010 A 
ATOM     92  C   UNL A   1      48.194  34.340  31.017  1.00  0.00     0.020 A 
ATOM     93  C   UNL A   1      47.525  35.012  28.780  1.00  0.00     0.020 A 
ATOM     94  C   UNL A   1      48.096  35.312  30.017  1.00  0.00     0.054 A 
BRANCH  94  95
ATOM     95  S   UNL A   1      48.754  36.971  30.344  1.00  0.00     0.124 S 
ATOM     96  O   UNL A   1      48.794  37.000  31.803  1.00  0.00    -0.237 OA
ATOM     97  O   UNL A   1      50.055  36.935  29.680  1.00  0.00    -0.237 OA
ATOM     98  O   UNL A   1      47.771  37.861  29.729  1.00  0.00    -0.744 OA
ENDBRANCH  94  95
ENDBRANCH  68  89
ENDBRANCH  42  43
ENDBRANCH  34  37
ENDBRANCH  32  33
ENDBRANCH  31  32
ENDBRANCH  30  31
ENDBRANCH  29  30
ENDBRANCH   1  29
TORSDOF 21
ENDMDL
MODEL 3
REMARK VINA RESULT:     -10.3      5.852     10.333
REMARK SMILES O=C(CSc1nc(O)cc(=O)[nH]1)Nc1cccc(C(=O)NCCCCCCNC(=O)c2ccc(-c3c4nc(c(-c5ccc(S(=O)(=O)[O-])cc5)c5ccc([nH]5)c(-c5ccc(S(=O)(=O)[O-])cc5)c5nc(c(-c6ccc(S(=O)(=O)[O-])cc6)c6ccc3[nH]6)C=C5)C=C4)cc2)c1
REMARK SMILES IDX 23 1 22 2 21 3 19 4 20 5 18 7 14 8 15 9 91 10 16 11 17 12
REMARK SMILES IDX 13 13 1 14 2 15 3 17 4 18 5 19 6 20 12 21 7 22 10 23 9 25
REMARK SMILES IDX 11 26 8 27 24 29 25 30 26 31 27 32 28 33 29 34 30 36 31 37
REMARK SMILES IDX 32 38 90 39 33 40 89 41 34 42 35 43 36 44 83 45 37 46 88 47
REMARK SMILES IDX 82 48 84 49 38 50 87 51 81 52 80 53 39 55 69 56 50 57 68 58
REMARK SMILES IDX 51 59 54 60 67 61 85 62 52 63 53 64 66 66 86 67 55 68 40 69
REMARK SMILES IDX 41 70 49 71 42 72 48 73 43 74 44 75 45 76 46 77 47 78 70 79
REMARK SMILES IDX 71 80 79 81 72 82 78 83 73 84 74 85 75 86 76 87 77 88 56 89
REMARK SMILES IDX 57 90 65 91 58 92 64 93 59 94 60 95 61 96 62 97 63 98
REMARK H PARENT 21 6 13 16 12 24 8 28 28 35 84 54 54 65
REMARK Flexibility Score: inf
ROOT
ATOM      1  C   UNL A   1      34.631  21.314  26.744  1.00  0.00     0.021 C 
ENDROOT
BRANCH   1   2
ATOM      2  C   UNL A   1      34.042  22.360  27.682  1.00  0.00     0.116 C 
BRANCH   2   3
ATOM      3  N   UNL A   1      32.585  22.407  27.687  1.00  0.00    -0.352 N 
ATOM      4  C   UNL A   1      31.720  23.310  27.103  1.00  0.00     0.251 C 
ATOM      5  O   UNL A   1      30.509  23.189  27.281  1.00  0.00    -0.269 OA
ATOM      6  H   UNL A   1      32.149  21.680  28.188  1.00  0.00     0.163 HD
BRANCH   4   7
ATOM      7  C   UNL A   1      32.228  24.470  26.322  1.00  0.00     0.041 A 
ATOM      8  C   UNL A   1      31.790  26.314  24.813  1.00  0.00     0.041 A 
ATOM      9  C   UNL A   1      33.156  26.379  24.516  1.00  0.00     0.026 A 
ATOM     10  C   UNL A   1      31.361  25.430  25.800  1.00  0.00     0.040 A 
ATOM     11  C   UNL A   1      34.063  25.537  25.172  1.00  0.00     0.003 A 
ATOM     12  C   UNL A   1      33.596  24.561  26.053  1.00  0.00     0.014 A 
BRANCH   8  13
ATOM     13  N   UNL A   1      30.887  27.049  24.014  1.00  0.00    -0.325 N 
ATOM     14  O   UNL A   1      31.947  27.006  21.942  1.00  0.00    -0.274 OA
ATOM     15  C   UNL A   1      31.061  27.420  22.685  1.00  0.00     0.234 C 
ATOM     16  H   UNL A   1      30.046  27.329  24.443  1.00  0.00     0.169 HD
BRANCH  15  17
ATOM     17  C   UNL A   1      30.129  28.525  22.207  1.00  0.00     0.178 C 
BRANCH  17  18
ATOM     18  S   UNL A   1      29.158  29.269  23.545  1.00  0.00    -0.078 SA
BRANCH  18  19
ATOM     19  C   UNL A   1      28.744  30.769  22.780  1.00  0.00     0.172 A 
ATOM     20  N   UNL A   1      28.927  31.917  23.335  1.00  0.00    -0.189 NA
ATOM     21  N   UNL A   1      28.235  30.575  21.540  1.00  0.00    -0.301 N 
ATOM     22  C   UNL A   1      28.556  33.000  22.588  1.00  0.00     0.218 A 
ATOM     23  C   UNL A   1      27.898  31.621  20.740  1.00  0.00     0.255 A 
ATOM     24  H   UNL A   1      28.106  29.657  21.211  1.00  0.00     0.172 HD
ATOM     25  C   UNL A   1      28.069  32.945  21.346  1.00  0.00     0.139 A 
ATOM     26  O   UNL A   1      27.488  31.472  19.598  1.00  0.00    -0.269 OA
BRANCH  22  27
ATOM     27  O   UNL A   1      28.704  34.221  23.192  1.00  0.00    -0.493 OA
ATOM     28  H   UNL A   1      27.952  34.755  23.358  1.00  0.00     0.295 HD
ENDBRANCH  22  27
ENDBRANCH  18  19
ENDBRANCH  17  18
ENDBRANCH  15  17
ENDBRANCH   8  13
ENDBRANCH   4   7
ENDBRANCH   2   3
ENDBRANCH   1   2
BRANCH   1  29
ATOM     29  C   UNL A   1      35.843  21.753  25.923  1.00  0.00     0.002 C 
BRANCH  29  30
ATOM     30  C   UNL A   1      36.626  20.637  25.227  1.00  0.00     0.002 C 
BRANCH  30  31
ATOM     31  C   UNL A   1      38.082  20.951  24.873  1.00  0.00     0.021 C 
BRANCH  31  32
ATOM     32  C   UNL A   1      39.049  21.025  26.051  1.00  0.00     0.116 C 
BRANCH  32  33
ATOM     33  N   UNL A   1      40.108  20.035  25.968  1.00  0.00    -0.352 N 
ATOM     34  C   UNL A   1      41.469  20.199  26.050  1.00  0.00     0.251 C 
ATOM     35  H   UNL A   1      39.805  19.109  25.832  1.00  0.00     0.163 HD
ATOM     36  O   UNL A   1      42.210  19.256  25.786  1.00  0.00    -0.269 OA
BRANCH  34  37
ATOM     37  C   UNL A   1      42.047  21.505  26.440  1.00  0.00     0.039 A 
ATOM     38  C   UNL A   1      42.431  21.701  27.770  1.00  0.00     0.014 A 
ATOM     39  C   UNL A   1      42.180  22.547  25.516  1.00  0.00     0.014 A 
ATOM     40  C   UNL A   1      42.986  22.922  28.161  1.00  0.00     0.010 A 
ATOM     41  C   UNL A   1      42.805  23.736  25.891  1.00  0.00     0.010 A 
ATOM     42  C   UNL A   1      43.201  23.943  27.221  1.00  0.00    -0.014 A 
BRANCH  42  43
ATOM     43  C   UNL A   1      43.815  25.237  27.619  1.00  0.00     0.031 A 
ATOM     44  C   UNL A   1      45.280  25.489  27.367  1.00  0.00     0.074 A 
ATOM     45  C   UNL A   1      43.068  26.170  28.243  1.00  0.00     0.049 A 
ATOM     46  N   UNL A   1      45.999  26.538  27.673  1.00  0.00    -0.248 NA
ATOM     47  C   UNL A   1      46.041  24.414  26.708  1.00  0.00     0.031 C 
ATOM     48  C   UNL A   1      41.648  26.033  28.581  1.00  0.00     0.029 A 
ATOM     49  N   UNL A   1      43.397  27.419  28.708  1.00  0.00    -0.354 N 
ATOM     50  C   UNL A   1      47.295  26.244  27.262  1.00  0.00     0.074 A 
ATOM     51  C   UNL A   1      47.274  24.899  26.730  1.00  0.00     0.031 C 
ATOM     52  C   UNL A   1      41.225  27.162  29.173  1.00  0.00     0.029 A 
ATOM     53  C   UNL A   1      42.348  28.087  29.294  1.00  0.00     0.049 A 
ATOM     54  H   UNL A   1      44.302  27.800  28.631  1.00  0.00     0.167 HD
ATOM     55  C   UNL A   1      48.399  27.028  27.302  1.00  0.00     0.031 A 
ATOM     56  C   UNL A   1      42.292  29.304  29.870  1.00  0.00     0.031 A 
ATOM     57  C   UNL A   1      48.413  28.373  27.813  1.00  0.00     0.049 A 
ATOM     58  C   UNL A   1      43.533  30.156  29.902  1.00  0.00     0.074 A 
ATOM     59  C   UNL A   1      49.468  29.269  27.845  1.00  0.00     0.029 A 
ATOM     60  N   UNL A   1      47.325  29.018  28.381  1.00  0.00    -0.354 N 
ATOM     61  N   UNL A   1      44.733  29.882  29.447  1.00  0.00    -0.248 NA
ATOM     62  C   UNL A   1      43.408  31.489  30.506  1.00  0.00     0.031 C 
ATOM     63  C   UNL A   1      49.032  30.434  28.484  1.00  0.00     0.029 A 
ATOM     64  C   UNL A   1      47.687  30.291  28.786  1.00  0.00     0.049 A 
ATOM     65  H   UNL A   1      46.426  28.628  28.481  1.00  0.00     0.167 HD
ATOM     66  C   UNL A   1      45.495  31.023  29.676  1.00  0.00     0.074 A 
ATOM     67  C   UNL A   1      44.616  31.994  30.296  1.00  0.00     0.031 C 
ATOM     68  C   UNL A   1      46.801  31.250  29.395  1.00  0.00     0.031 A 
BRANCH  55  69
ATOM     69  C   UNL A   1      49.692  26.454  26.784  1.00  0.00    -0.014 A 
ATOM     70  C   UNL A   1      50.015  26.502  25.415  1.00  0.00     0.010 A 
ATOM     71  C   UNL A   1      50.629  25.920  27.688  1.00  0.00     0.010 A 
ATOM     72  C   UNL A   1      51.236  26.002  24.957  1.00  0.00     0.020 A 
ATOM     73  C   UNL A   1      51.865  25.445  27.237  1.00  0.00     0.020 A 
ATOM     74  C   UNL A   1      52.156  25.478  25.872  1.00  0.00     0.054 A 
BRANCH  74  75
ATOM     75  S   UNL A   1      53.753  24.881  25.254  1.00  0.00     0.124 S 
ATOM     76  O   UNL A   1      54.053  25.853  24.206  1.00  0.00    -0.237 OA
ATOM     77  O   UNL A   1      54.601  24.955  26.441  1.00  0.00    -0.237 OA
ATOM     78  O   UNL A   1      53.460  23.529  24.784  1.00  0.00    -0.744 OA
ENDBRANCH  74  75
ENDBRANCH  55  69
BRANCH  56  79
ATOM     79  C   UNL A   1      41.016  29.797  30.461  1.00  0.00    -0.014 A 
ATOM     80  C   UNL A   1      40.751  29.640  31.835  1.00  0.00     0.010 A 
ATOM     81  C   UNL A   1      40.049  30.413  29.647  1.00  0.00     0.010 A 
ATOM     82  C   UNL A   1      39.530  30.058  32.373  1.00  0.00     0.020 A 
ATOM     83  C   UNL A   1      38.841  30.863  30.187  1.00  0.00     0.020 A 
ATOM     84  C   UNL A   1      38.582  30.665  31.545  1.00  0.00     0.054 A 
BRANCH  84  85
ATOM     85  S   UNL A   1      37.014  31.222  32.268  1.00  0.00     0.124 S 
ATOM     86  O   UNL A   1      37.322  31.224  33.695  1.00  0.00    -0.237 OA
ATOM     87  O   UNL A   1      36.833  32.536  31.655  1.00  0.00    -0.237 OA
ATOM     88  O   UNL A   1      36.059  30.204  31.835  1.00  0.00    -0.744 OA
ENDBRANCH  84  85
ENDBRANCH  56  79
BRANCH  68  89
ATOM     89  C   UNL A   1      47.351  32.619  29.700  1.00  0.00    -0.014 A 
ATOM     90  C   UNL A   1      47.962  32.911  30.933  1.00  0.00     0.010 A 
ATOM     91  C   UNL A   1      47.290  33.620  28.713  1.00  0.00     0.010 A 
ATOM     92  C   UNL A   1      48.458  34.192  31.188  1.00  0.00     0.020 A 
ATOM     93  C   UNL A   1      47.817  34.891  28.951  1.00  0.00     0.020 A 
ATOM     94  C   UNL A   1      48.380  35.174  30.195  1.00  0.00     0.054 A 
BRANCH  94  95
ATOM     95  S   UNL A   1      49.055  36.822  30.543  1.00  0.00     0.124 S 
ATOM     96  O   UNL A   1      48.054  37.376  31.449  1.00  0.00    -0.237 OA
ATOM     97  O   UNL A   1      50.350  36.516  31.147  1.00  0.00    -0.237 OA
ATOM     98  O   UNL A   1      49.123  37.453  29.226  1.00  0.00    -0.744 OA
ENDBRANCH  94  95
ENDBRANCH  68  89
ENDBRANCH  42  43
ENDBRANCH  34  37
ENDBRANCH  32  33
ENDBRANCH  31  32
ENDBRANCH  30  31
ENDBRANCH  29  30
ENDBRANCH   1  29
TORSDOF 21
ENDMDL
