MODEL 1
REMARK VINA RESULT:     -10.8      0.000      0.000
REMARK SMILES O=C(CC1(NC(=O)c2ccncc2Cl)CCCCC1)NCCCCCCNC(=O)c1ccc(-c2c3nc(c(-c4ccc(S(=O)(=O)[O-])cc4)c4ccc([nH]4)c(-c4ccc(S(=O)(=O)[O-])cc4)c4nc(c(-c5ccc(S(=O)(=O)[O-])cc5)c5ccc2[nH]5)C=C4)C=C3)cc1
REMARK SMILES IDX 23 1 22 2 21 3 20 4 1 5 2 6 3 8 4 9 15 10 19 11 16 12 18 13
REMARK SMILES IDX 17 14 5 15 6 16 7 18 8 19 9 20 13 21 10 22 12 23 14 24 11 25
REMARK SMILES IDX 24 26 25 27 26 28 27 29 28 30 29 32 30 33 31 34 89 35 32 36
REMARK SMILES IDX 88 37 33 38 34 39 35 40 82 41 36 42 87 43 81 44 83 45 37 46
REMARK SMILES IDX 86 47 80 48 79 49 38 51 68 52 49 53 67 54 50 55 53 56 66 57
REMARK SMILES IDX 84 58 51 59 52 60 65 62 85 63 54 64 39 65 40 66 48 67 41 68
REMARK SMILES IDX 47 69 42 70 43 71 44 72 45 73 46 74 69 75 70 76 78 77 71 78
REMARK SMILES IDX 77 79 72 80 73 81 74 82 75 83 76 84 55 85 56 86 64 87 57 88
REMARK SMILES IDX 63 89 58 90 59 91 60 92 61 93 62 94
REMARK H PARENT 20 7 5 17 27 31 83 50 53 61
REMARK Flexibility Score: inf
ROOT
ATOM      1  C   UNL A   1      33.953  21.673  27.197  1.00  0.00     0.002 C 
ENDROOT
BRANCH   1   2
ATOM      2  C   UNL A   1      33.141  22.922  27.579  1.00  0.00     0.021 C 
BRANCH   2   3
ATOM      3  C   UNL A   1      31.940  23.182  26.675  1.00  0.00     0.116 C 
BRANCH   3   4
ATOM      4  N   UNL A   1      31.494  24.549  26.822  1.00  0.00    -0.356 N 
ATOM      5  O   UNL A   1      32.114  25.264  24.749  1.00  0.00    -0.275 OA
ATOM      6  C   UNL A   1      31.601  25.494  25.837  1.00  0.00     0.222 C 
ATOM      7  H   UNL A   1      31.092  24.817  27.680  1.00  0.00     0.163 HD
BRANCH   6   8
ATOM      8  C   UNL A   1      31.149  26.885  26.257  1.00  0.00     0.128 C 
BRANCH   8   9
ATOM      9  C   UNL A   1      32.071  28.115  25.968  1.00  0.00     0.049 C 
ATOM     10  C   UNL A   1      31.564  29.449  26.589  1.00  0.00     0.029 C 
ATOM     11  C   UNL A   1      33.447  27.745  26.620  1.00  0.00     0.029 C 
ATOM     12  C   UNL A   1      32.609  30.568  26.652  1.00  0.00     0.002 C 
ATOM     13  C   UNL A   1      34.458  28.886  26.715  1.00  0.00     0.002 C 
ATOM     14  C   UNL A   1      33.853  30.103  27.396  1.00  0.00     0.000 C 
BRANCH   9  15
ATOM     15  N   UNL A   1      32.359  28.391  24.522  1.00  0.00    -0.346 N 
ATOM     16  C   UNL A   1      31.709  28.869  23.420  1.00  0.00     0.253 C 
ATOM     17  H   UNL A   1      33.290  28.160  24.303  1.00  0.00     0.164 HD
ATOM     18  O   UNL A   1      32.333  29.012  22.370  1.00  0.00    -0.269 OA
BRANCH  16  19
ATOM     19  C   UNL A   1      30.270  29.109  23.390  1.00  0.00     0.061 A 
ATOM     20  C   UNL A   1      29.846  30.425  23.609  1.00  0.00     0.035 A 
ATOM     21  C   UNL A   1      29.348  28.083  23.244  1.00  0.00     0.072 A 
ATOM     22  C   UNL A   1      28.488  30.677  23.592  1.00  0.00     0.112 A 
ATOM     23  C   UNL A   1      28.011  28.449  23.215  1.00  0.00     0.132 A 
ATOM     24  Cl  UNL A   1      29.798  26.429  23.095  1.00  0.00    -0.082 Cl
ATOM     25  N   UNL A   1      27.559  29.721  23.386  1.00  0.00    -0.263 NA
ENDBRANCH  16  19
ENDBRANCH   9  15
ENDBRANCH   8   9
ENDBRANCH   6   8
ENDBRANCH   3   4
ENDBRANCH   2   3
ENDBRANCH   1   2
BRANCH   1  26
ATOM     26  C   UNL A   1      35.148  21.932  26.273  1.00  0.00     0.002 C 
BRANCH  26  27
ATOM     27  C   UNL A   1      35.374  23.400  25.912  1.00  0.00     0.021 C 
BRANCH  27  28
ATOM     28  C   UNL A   1      36.724  23.690  25.266  1.00  0.00     0.116 C 
BRANCH  28  29
ATOM     29  N   UNL A   1      37.724  22.694  25.611  1.00  0.00    -0.352 N 
ATOM     30  C   UNL A   1      38.930  22.864  26.243  1.00  0.00     0.251 C 
ATOM     31  H   UNL A   1      37.506  21.769  25.355  1.00  0.00     0.163 HD
ATOM     32  O   UNL A   1      39.730  21.936  26.296  1.00  0.00    -0.269 OA
BRANCH  30  33
ATOM     33  C   UNL A   1      39.267  24.177  26.833  1.00  0.00     0.039 A 
ATOM     34  C   UNL A   1      38.876  24.443  28.147  1.00  0.00     0.014 A 
ATOM     35  C   UNL A   1      39.968  25.138  26.099  1.00  0.00     0.014 A 
ATOM     36  C   UNL A   1      39.235  25.653  28.740  1.00  0.00     0.010 A 
ATOM     37  C   UNL A   1      40.391  26.311  26.717  1.00  0.00     0.010 A 
ATOM     38  C   UNL A   1      40.023  26.585  28.042  1.00  0.00    -0.014 A 
BRANCH  38  39
ATOM     39  C   UNL A   1      40.477  27.835  28.701  1.00  0.00     0.031 A 
ATOM     40  C   UNL A   1      41.886  27.966  29.211  1.00  0.00     0.074 A 
ATOM     41  C   UNL A   1      39.601  28.844  28.870  1.00  0.00     0.049 A 
ATOM     42  N   UNL A   1      42.467  28.999  29.766  1.00  0.00    -0.248 NA
ATOM     43  C   UNL A   1      42.750  26.779  29.104  1.00  0.00     0.031 C 
ATOM     44  C   UNL A   1      38.192  28.818  28.467  1.00  0.00     0.029 A 
ATOM     45  N   UNL A   1      39.766  30.093  29.411  1.00  0.00    -0.354 N 
ATOM     46  C   UNL A   1      43.755  28.583  30.089  1.00  0.00     0.074 A 
ATOM     47  C   UNL A   1      43.852  27.190  29.714  1.00  0.00     0.031 C 
ATOM     48  C   UNL A   1      37.638  30.013  28.725  1.00  0.00     0.029 A 
ATOM     49  C   UNL A   1      38.637  30.877  29.346  1.00  0.00     0.049 A 
ATOM     50  H   UNL A   1      40.612  30.401  29.810  1.00  0.00     0.167 HD
ATOM     51  C   UNL A   1      44.768  29.301  30.632  1.00  0.00     0.031 A 
ATOM     52  C   UNL A   1      38.432  32.150  29.731  1.00  0.00     0.031 A 
ATOM     53  C   UNL A   1      44.664  30.689  31.001  1.00  0.00     0.049 A 
ATOM     54  C   UNL A   1      39.572  32.926  30.328  1.00  0.00     0.074 A 
ATOM     55  C   UNL A   1      45.652  31.526  31.490  1.00  0.00     0.029 A 
ATOM     56  N   UNL A   1      43.500  31.440  30.937  1.00  0.00    -0.354 N 
ATOM     57  N   UNL A   1      40.808  32.543  30.541  1.00  0.00    -0.248 NA
ATOM     58  C   UNL A   1      39.289  34.311  30.725  1.00  0.00     0.031 C 
ATOM     59  C   UNL A   1      45.070  32.765  31.780  1.00  0.00     0.029 A 
ATOM     60  C   UNL A   1      43.736  32.721  31.411  1.00  0.00     0.049 A 
ATOM     61  H   UNL A   1      42.634  31.113  30.603  1.00  0.00     0.167 HD
ATOM     62  C   UNL A   1      41.459  33.649  31.076  1.00  0.00     0.074 A 
ATOM     63  C   UNL A   1      40.483  34.720  31.131  1.00  0.00     0.031 C 
ATOM     64  C   UNL A   1      42.748  33.769  31.484  1.00  0.00     0.031 A 
BRANCH  51  65
ATOM     65  C   UNL A   1      46.072  28.584  30.877  1.00  0.00    -0.014 A 
ATOM     66  C   UNL A   1      47.055  28.485  29.875  1.00  0.00     0.010 A 
ATOM     67  C   UNL A   1      46.327  28.018  32.140  1.00  0.00     0.010 A 
ATOM     68  C   UNL A   1      48.242  27.786  30.112  1.00  0.00     0.020 A 
ATOM     69  C   UNL A   1      47.527  27.345  32.392  1.00  0.00     0.020 A 
ATOM     70  C   UNL A   1      48.468  27.215  31.368  1.00  0.00     0.054 A 
BRANCH  70  71
ATOM     71  S   UNL A   1      50.019  26.317  31.650  1.00  0.00     0.124 S 
ATOM     72  O   UNL A   1      49.585  25.240  32.536  1.00  0.00    -0.237 OA
ATOM     73  O   UNL A   1      50.400  25.906  30.301  1.00  0.00    -0.237 OA
ATOM     74  O   UNL A   1      50.892  27.315  32.264  1.00  0.00    -0.744 OA
ENDBRANCH  70  71
ENDBRANCH  51  65
BRANCH  52  75
ATOM     75  C   UNL A   1      37.101  32.783  29.517  1.00  0.00    -0.014 A 
ATOM     76  C   UNL A   1      36.247  33.024  30.609  1.00  0.00     0.010 A 
ATOM     77  C   UNL A   1      36.691  33.171  28.229  1.00  0.00     0.010 A 
ATOM     78  C   UNL A   1      35.003  33.629  30.414  1.00  0.00     0.020 A 
ATOM     79  C   UNL A   1      35.460  33.804  28.034  1.00  0.00     0.020 A 
ATOM     80  C   UNL A   1      34.619  34.020  29.128  1.00  0.00     0.054 A 
BRANCH  80  81
ATOM     81  S   UNL A   1      33.028  34.865  28.911  1.00  0.00     0.124 S 
ATOM     82  O   UNL A   1      32.368  34.021  27.919  1.00  0.00    -0.237 OA
ATOM     83  O   UNL A   1      32.463  34.823  30.257  1.00  0.00    -0.237 OA
ATOM     84  O   UNL A   1      33.410  36.198  28.446  1.00  0.00    -0.744 OA
ENDBRANCH  80  81
ENDBRANCH  52  75
BRANCH  64  85
ATOM     85  C   UNL A   1      43.175  35.115  32.011  1.00  0.00    -0.014 A 
ATOM     86  C   UNL A   1      43.026  35.448  33.370  1.00  0.00     0.010 A 
ATOM     87  C   UNL A   1      43.740  36.058  31.133  1.00  0.00     0.010 A 
ATOM     88  C   UNL A   1      43.382  36.718  33.830  1.00  0.00     0.020 A 
ATOM     89  C   UNL A   1      44.129  37.318  31.596  1.00  0.00     0.020 A 
ATOM     90  C   UNL A   1      43.924  37.648  32.937  1.00  0.00     0.054 A 
BRANCH  90  91
ATOM     91  S   UNL A   1      44.381  39.290  33.558  1.00  0.00     0.124 S 
ATOM     92  O   UNL A   1      43.079  39.858  33.897  1.00  0.00    -0.237 OA
ATOM     93  O   UNL A   1      45.245  38.977  34.692  1.00  0.00    -0.237 OA
ATOM     94  O   UNL A   1      45.056  39.914  32.421  1.00  0.00    -0.744 OA
ENDBRANCH  90  91
ENDBRANCH  64  85
ENDBRANCH  38  39
ENDBRANCH  30  33
ENDBRANCH  28  29
ENDBRANCH  27  28
ENDBRANCH  26  27
ENDBRANCH   1  26
TORSDOF 19
ENDMDL
MODEL 2
REMARK VINA RESULT:     -10.2      3.898      5.559
REMARK SMILES O=C(CC1(NC(=O)c2ccncc2Cl)CCCCC1)NCCCCCCNC(=O)c1ccc(-c2c3nc(c(-c4ccc(S(=O)(=O)[O-])cc4)c4ccc([nH]4)c(-c4ccc(S(=O)(=O)[O-])cc4)c4nc(c(-c5ccc(S(=O)(=O)[O-])cc5)c5ccc2[nH]5)C=C4)C=C3)cc1
REMARK SMILES IDX 23 1 22 2 21 3 20 4 1 5 2 6 3 8 4 9 15 10 19 11 16 12 18 13
REMARK SMILES IDX 17 14 5 15 6 16 7 18 8 19 9 20 13 21 10 22 12 23 14 24 11 25
REMARK SMILES IDX 24 26 25 27 26 28 27 29 28 30 29 32 30 33 31 34 89 35 32 36
REMARK SMILES IDX 88 37 33 38 34 39 35 40 82 41 36 42 87 43 81 44 83 45 37 46
REMARK SMILES IDX 86 47 80 48 79 49 38 51 68 52 49 53 67 54 50 55 53 56 66 57
REMARK SMILES IDX 84 58 51 59 52 60 65 62 85 63 54 64 39 65 40 66 48 67 41 68
REMARK SMILES IDX 47 69 42 70 43 71 44 72 45 73 46 74 69 75 70 76 78 77 71 78
REMARK SMILES IDX 77 79 72 80 73 81 74 82 75 83 76 84 55 85 56 86 64 87 57 88
REMARK SMILES IDX 63 89 58 90 59 91 60 92 61 93 62 94
REMARK H PARENT 20 7 5 17 27 31 83 50 53 61
REMARK Flexibility Score: inf
ROOT
ATOM      1  C   UNL A   1      41.121  21.727  27.292  1.00  0.00     0.002 C 
ENDROOT
BRANCH   1   2
ATOM      2  C   UNL A   1      39.759  21.821  26.584  1.00  0.00     0.021 C 
BRANCH   2   3
ATOM      3  C   UNL A   1      39.172  23.229  26.549  1.00  0.00     0.116 C 
BRANCH   3   4
ATOM      4  N   UNL A   1      37.731  23.169  26.648  1.00  0.00    -0.356 N 
ATOM      5  O   UNL A   1      37.295  23.352  24.420  1.00  0.00    -0.275 OA
ATOM      6  C   UNL A   1      36.891  23.220  25.568  1.00  0.00     0.222 C 
ATOM      7  H   UNL A   1      37.331  23.087  27.544  1.00  0.00     0.163 HD
BRANCH   6   8
ATOM      8  C   UNL A   1      35.414  23.233  25.929  1.00  0.00     0.128 C 
BRANCH   8   9
ATOM      9  C   UNL A   1      34.400  22.419  25.059  1.00  0.00     0.049 C 
ATOM     10  C   UNL A   1      34.777  20.920  24.880  1.00  0.00     0.029 C 
ATOM     11  C   UNL A   1      33.044  22.509  25.838  1.00  0.00     0.029 C 
ATOM     12  C   UNL A   1      33.641  20.026  24.372  1.00  0.00     0.002 C 
ATOM     13  C   UNL A   1      31.938  21.577  25.345  1.00  0.00     0.002 C 
ATOM     14  C   UNL A   1      32.421  20.138  25.276  1.00  0.00     0.000 C 
BRANCH   9  15
ATOM     15  N   UNL A   1      34.128  22.964  23.689  1.00  0.00    -0.346 N 
ATOM     16  C   UNL A   1      33.652  24.110  23.116  1.00  0.00     0.253 C 
ATOM     17  H   UNL A   1      34.359  22.302  22.999  1.00  0.00     0.164 HD
ATOM     18  O   UNL A   1      33.634  24.206  21.890  1.00  0.00    -0.269 OA
BRANCH  16  19
ATOM     19  C   UNL A   1      33.051  25.191  23.889  1.00  0.00     0.061 A 
ATOM     20  C   UNL A   1      33.928  26.056  24.553  1.00  0.00     0.035 A 
ATOM     21  C   UNL A   1      31.678  25.319  24.043  1.00  0.00     0.072 A 
ATOM     22  C   UNL A   1      33.381  27.084  25.296  1.00  0.00     0.112 A 
ATOM     23  C   UNL A   1      31.235  26.401  24.788  1.00  0.00     0.132 A 
ATOM     24  Cl  UNL A   1      30.548  24.218  23.356  1.00  0.00    -0.082 Cl
ATOM     25  N   UNL A   1      32.053  27.286  25.419  1.00  0.00    -0.263 NA
ENDBRANCH  16  19
ENDBRANCH   9  15
ENDBRANCH   8   9
ENDBRANCH   6   8
ENDBRANCH   3   4
ENDBRANCH   2   3
ENDBRANCH   1   2
BRANCH   1  26
ATOM     26  C   UNL A   1      42.330  22.101  26.429  1.00  0.00     0.002 C 
BRANCH  26  27
ATOM     27  C   UNL A   1      43.521  22.666  27.204  1.00  0.00     0.021 C 
BRANCH  27  28
ATOM     28  C   UNL A   1      43.796  24.143  26.949  1.00  0.00     0.116 C 
BRANCH  28  29
ATOM     29  N   UNL A   1      42.952  24.687  25.899  1.00  0.00    -0.352 N 
ATOM     30  C   UNL A   1      41.977  25.649  25.985  1.00  0.00     0.251 C 
ATOM     31  H   UNL A   1      43.100  24.313  25.000  1.00  0.00     0.163 HD
ATOM     32  O   UNL A   1      41.239  25.862  25.029  1.00  0.00    -0.269 OA
BRANCH  30  33
ATOM     33  C   UNL A   1      41.807  26.405  27.245  1.00  0.00     0.039 A 
ATOM     34  C   UNL A   1      42.565  27.560  27.442  1.00  0.00     0.014 A 
ATOM     35  C   UNL A   1      40.901  25.980  28.221  1.00  0.00     0.014 A 
ATOM     36  C   UNL A   1      42.376  28.317  28.598  1.00  0.00     0.010 A 
ATOM     37  C   UNL A   1      40.659  26.778  29.336  1.00  0.00     0.010 A 
ATOM     38  C   UNL A   1      41.399  27.951  29.540  1.00  0.00    -0.014 A 
BRANCH  38  39
ATOM     39  C   UNL A   1      41.138  28.802  30.728  1.00  0.00     0.031 A 
ATOM     40  C   UNL A   1      41.992  28.682  31.961  1.00  0.00     0.074 A 
ATOM     41  C   UNL A   1      40.103  29.664  30.705  1.00  0.00     0.049 A 
ATOM     42  N   UNL A   1      41.939  29.376  33.069  1.00  0.00    -0.248 NA
ATOM     43  C   UNL A   1      43.024  27.633  31.960  1.00  0.00     0.031 C 
ATOM     44  C   UNL A   1      39.169  29.835  29.588  1.00  0.00     0.029 A 
ATOM     45  N   UNL A   1      39.668  30.569  31.640  1.00  0.00    -0.354 N 
ATOM     46  C   UNL A   1      42.917  28.840  33.900  1.00  0.00     0.074 A 
ATOM     47  C   UNL A   1      43.511  27.730  33.189  1.00  0.00     0.031 C 
ATOM     48  C   UNL A   1      38.308  30.822  29.882  1.00  0.00     0.029 A 
ATOM     49  C   UNL A   1      38.601  31.328  31.219  1.00  0.00     0.049 A 
ATOM     50  H   UNL A   1      40.080  30.665  32.529  1.00  0.00     0.167 HD
ATOM     51  C   UNL A   1      43.296  29.245  35.137  1.00  0.00     0.031 A 
ATOM     52  C   UNL A   1      37.941  32.327  31.834  1.00  0.00     0.031 A 
ATOM     53  C   UNL A   1      42.701  30.352  35.839  1.00  0.00     0.049 A 
ATOM     54  C   UNL A   1      38.382  32.760  33.203  1.00  0.00     0.074 A 
ATOM     55  C   UNL A   1      43.061  30.890  37.063  1.00  0.00     0.029 A 
ATOM     56  N   UNL A   1      41.612  31.084  35.387  1.00  0.00    -0.354 N 
ATOM     57  N   UNL A   1      39.368  32.301  33.937  1.00  0.00    -0.248 NA
ATOM     58  C   UNL A   1      37.627  33.856  33.823  1.00  0.00     0.031 C 
ATOM     59  C   UNL A   1      42.150  31.904  37.380  1.00  0.00     0.029 A 
ATOM     60  C   UNL A   1      41.263  32.044  36.324  1.00  0.00     0.049 A 
ATOM     61  H   UNL A   1      41.154  30.942  34.528  1.00  0.00     0.167 HD
ATOM     62  C   UNL A   1      39.367  33.069  35.096  1.00  0.00     0.074 A 
ATOM     63  C   UNL A   1      38.296  34.035  34.953  1.00  0.00     0.031 C 
ATOM     64  C   UNL A   1      40.179  32.983  36.180  1.00  0.00     0.031 A 
BRANCH  51  65
ATOM     65  C   UNL A   1      44.395  28.467  35.815  1.00  0.00    -0.014 A 
ATOM     66  C   UNL A   1      45.749  28.816  35.651  1.00  0.00     0.010 A 
ATOM     67  C   UNL A   1      44.068  27.381  36.648  1.00  0.00     0.010 A 
ATOM     68  C   UNL A   1      46.755  28.061  36.261  1.00  0.00     0.020 A 
ATOM     69  C   UNL A   1      45.069  26.643  37.285  1.00  0.00     0.020 A 
ATOM     70  C   UNL A   1      46.408  26.974  37.070  1.00  0.00     0.054 A 
BRANCH  70  71
ATOM     71  S   UNL A   1      47.734  26.013  37.852  1.00  0.00     0.124 S 
ATOM     72  O   UNL A   1      48.113  26.877  38.967  1.00  0.00    -0.237 OA
ATOM     73  O   UNL A   1      47.056  24.773  38.220  1.00  0.00    -0.237 OA
ATOM     74  O   UNL A   1      48.737  25.883  36.797  1.00  0.00    -0.744 OA
ENDBRANCH  70  71
ENDBRANCH  51  65
BRANCH  52  75
ATOM     75  C   UNL A   1      36.821  33.016  31.135  1.00  0.00    -0.014 A 
ATOM     76  C   UNL A   1      37.086  33.927  30.097  1.00  0.00     0.010 A 
ATOM     77  C   UNL A   1      35.486  32.747  31.485  1.00  0.00     0.010 A 
ATOM     78  C   UNL A   1      36.038  34.566  29.430  1.00  0.00     0.020 A 
ATOM     79  C   UNL A   1      34.433  33.362  30.801  1.00  0.00     0.020 A 
ATOM     80  C   UNL A   1      34.717  34.275  29.783  1.00  0.00     0.054 A 
BRANCH  80  81
ATOM     81  S   UNL A   1      33.372  35.066  28.858  1.00  0.00     0.124 S 
ATOM     82  O   UNL A   1      32.836  33.950  28.085  1.00  0.00    -0.237 OA
ATOM     83  O   UNL A   1      32.509  35.570  29.924  1.00  0.00    -0.237 OA
ATOM     84  O   UNL A   1      34.054  36.098  28.080  1.00  0.00    -0.744 OA
ENDBRANCH  80  81
ENDBRANCH  52  75
BRANCH  64  85
ATOM     85  C   UNL A   1      39.944  33.976  37.288  1.00  0.00    -0.014 A 
ATOM     86  C   UNL A   1      39.043  33.704  38.334  1.00  0.00     0.010 A 
ATOM     87  C   UNL A   1      40.642  35.198  37.287  1.00  0.00     0.010 A 
ATOM     88  C   UNL A   1      38.803  34.657  39.326  1.00  0.00     0.020 A 
ATOM     89  C   UNL A   1      40.429  36.140  38.296  1.00  0.00     0.020 A 
ATOM     90  C   UNL A   1      39.492  35.874  39.296  1.00  0.00     0.054 A 
BRANCH  90  91
ATOM     91  S   UNL A   1      39.164  37.095  40.596  1.00  0.00     0.124 S 
ATOM     92  O   UNL A   1      40.496  37.644  40.838  1.00  0.00    -0.237 OA
ATOM     93  O   UNL A   1      38.218  38.003  39.955  1.00  0.00    -0.237 OA
ATOM     94  O   UNL A   1      38.611  36.297  41.689  1.00  0.00    -0.744 OA
ENDBRANCH  90  91
ENDBRANCH  64  85
ENDBRANCH  38  39
ENDBRANCH  30  33
ENDBRANCH  28  29
ENDBRANCH  27  28
ENDBRANCH  26  27
ENDBRANCH   1  26
TORSDOF 19
ENDMDL
MODEL 3
REMARK VINA RESULT:     -10.2      3.824     10.017
REMARK SMILES O=C(CC1(NC(=O)c2ccncc2Cl)CCCCC1)NCCCCCCNC(=O)c1ccc(-c2c3nc(c(-c4ccc(S(=O)(=O)[O-])cc4)c4ccc([nH]4)c(-c4ccc(S(=O)(=O)[O-])cc4)c4nc(c(-c5ccc(S(=O)(=O)[O-])cc5)c5ccc2[nH]5)C=C4)C=C3)cc1
REMARK SMILES IDX 23 1 22 2 21 3 20 4 1 5 2 6 3 8 4 9 15 10 19 11 16 12 18 13
REMARK SMILES IDX 17 14 5 15 6 16 7 18 8 19 9 20 13 21 10 22 12 23 14 24 11 25
REMARK SMILES IDX 24 26 25 27 26 28 27 29 28 30 29 32 30 33 31 34 89 35 32 36
REMARK SMILES IDX 88 37 33 38 34 39 35 40 82 41 36 42 87 43 81 44 83 45 37 46
REMARK SMILES IDX 86 47 80 48 79 49 38 51 68 52 49 53 67 54 50 55 53 56 66 57
REMARK SMILES IDX 84 58 51 59 52 60 65 62 85 63 54 64 39 65 40 66 48 67 41 68
REMARK SMILES IDX 47 69 42 70 43 71 44 72 45 73 46 74 69 75 70 76 78 77 71 78
REMARK SMILES IDX 77 79 72 80 73 81 74 82 75 83 76 84 55 85 56 86 64 87 57 88
REMARK SMILES IDX 63 89 58 90 59 91 60 92 61 93 62 94
REMARK H PARENT 20 7 5 17 27 31 83 50 53 61
REMARK Flexibility Score: inf
ROOT
ATOM      1  C   UNL A   1      35.158  32.669  28.000  1.00  0.00     0.002 C 
ENDROOT
BRANCH   1   2
ATOM      2  C   UNL A   1      34.780  31.189  27.823  1.00  0.00     0.021 C 
BRANCH   2   3
ATOM      3  C   UNL A   1      33.490  30.967  27.039  1.00  0.00     0.116 C 
BRANCH   3   4
ATOM      4  N   UNL A   1      33.637  29.835  26.151  1.00  0.00    -0.356 N 
ATOM      5  O   UNL A   1      32.871  28.250  27.596  1.00  0.00    -0.275 OA
ATOM      6  C   UNL A   1      33.301  28.552  26.491  1.00  0.00     0.222 C 
ATOM      7  H   UNL A   1      34.001  29.997  25.250  1.00  0.00     0.163 HD
BRANCH   6   8
ATOM      8  C   UNL A   1      33.633  27.519  25.425  1.00  0.00     0.128 C 
BRANCH   8   9
ATOM      9  C   UNL A   1      32.593  27.215  24.296  1.00  0.00     0.049 C 
ATOM     10  C   UNL A   1      31.205  26.747  24.820  1.00  0.00     0.029 C 
ATOM     11  C   UNL A   1      32.415  28.576  23.540  1.00  0.00     0.029 C 
ATOM     12  C   UNL A   1      30.073  26.808  23.789  1.00  0.00     0.002 C 
ATOM     13  C   UNL A   1      31.253  28.632  22.550  1.00  0.00     0.002 C 
ATOM     14  C   UNL A   1      29.949  28.210  23.206  1.00  0.00     0.000 C 
BRANCH   9  15
ATOM     15  N   UNL A   1      33.024  26.219  23.260  1.00  0.00    -0.346 N 
ATOM     16  C   UNL A   1      33.480  24.933  23.201  1.00  0.00     0.253 C 
ATOM     17  H   UNL A   1      32.961  26.607  22.358  1.00  0.00     0.164 HD
ATOM     18  O   UNL A   1      33.678  24.416  22.103  1.00  0.00    -0.269 OA
BRANCH  16  19
ATOM     19  C   UNL A   1      33.858  24.171  24.386  1.00  0.00     0.061 A 
ATOM     20  C   UNL A   1      35.220  24.142  24.709  1.00  0.00     0.035 A 
ATOM     21  C   UNL A   1      32.941  23.432  25.119  1.00  0.00     0.072 A 
ATOM     22  C   UNL A   1      35.603  23.422  25.824  1.00  0.00     0.112 A 
ATOM     23  C   UNL A   1      33.428  22.767  26.234  1.00  0.00     0.132 A 
ATOM     24  Cl  UNL A   1      31.274  23.325  24.704  1.00  0.00    -0.082 Cl
ATOM     25  N   UNL A   1      34.737  22.744  26.603  1.00  0.00    -0.263 NA
ENDBRANCH  16  19
ENDBRANCH   9  15
ENDBRANCH   8   9
ENDBRANCH   6   8
ENDBRANCH   3   4
ENDBRANCH   2   3
ENDBRANCH   1   2
BRANCH   1  26
ATOM     26  C   UNL A   1      34.832  33.265  29.373  1.00  0.00     0.002 C 
BRANCH  26  27
ATOM     27  C   UNL A   1      35.961  34.080  30.003  1.00  0.00     0.021 C 
BRANCH  27  28
ATOM     28  C   UNL A   1      36.837  33.299  30.976  1.00  0.00     0.116 C 
BRANCH  28  29
ATOM     29  N   UNL A   1      36.207  32.064  31.412  1.00  0.00    -0.352 N 
ATOM     30  C   UNL A   1      36.620  30.769  31.218  1.00  0.00     0.251 C 
ATOM     31  H   UNL A   1      35.368  32.171  31.916  1.00  0.00     0.163 HD
ATOM     32  O   UNL A   1      35.872  29.839  31.504  1.00  0.00    -0.269 OA
BRANCH  30  33
ATOM     33  C   UNL A   1      37.955  30.506  30.642  1.00  0.00     0.039 A 
ATOM     34  C   UNL A   1      39.033  30.306  31.506  1.00  0.00     0.014 A 
ATOM     35  C   UNL A   1      38.143  30.453  29.257  1.00  0.00     0.014 A 
ATOM     36  C   UNL A   1      40.288  30.000  30.982  1.00  0.00     0.010 A 
ATOM     37  C   UNL A   1      39.377  30.071  28.739  1.00  0.00     0.010 A 
ATOM     38  C   UNL A   1      40.465  29.848  29.595  1.00  0.00    -0.014 A 
BRANCH  38  39
ATOM     39  C   UNL A   1      41.781  29.439  29.041  1.00  0.00     0.031 A 
ATOM     40  C   UNL A   1      42.920  30.419  28.968  1.00  0.00     0.074 A 
ATOM     41  C   UNL A   1      41.935  28.186  28.571  1.00  0.00     0.049 A 
ATOM     42  N   UNL A   1      44.148  30.222  28.561  1.00  0.00    -0.248 NA
ATOM     43  C   UNL A   1      42.641  31.802  29.384  1.00  0.00     0.031 C 
ATOM     44  C   UNL A   1      40.889  27.160  28.538  1.00  0.00     0.029 A 
ATOM     45  N   UNL A   1      43.033  27.556  28.043  1.00  0.00    -0.354 N 
ATOM     46  C   UNL A   1      44.782  31.456  28.657  1.00  0.00     0.074 A 
ATOM     47  C   UNL A   1      43.789  32.404  29.111  1.00  0.00     0.031 C 
ATOM     48  C   UNL A   1      41.410  26.015  28.069  1.00  0.00     0.029 A 
ATOM     49  C   UNL A   1      42.813  26.234  27.732  1.00  0.00     0.049 A 
ATOM     50  H   UNL A   1      43.897  28.006  27.900  1.00  0.00     0.167 HD
ATOM     51  C   UNL A   1      46.077  31.768  28.405  1.00  0.00     0.031 A 
ATOM     52  C   UNL A   1      43.650  25.300  27.243  1.00  0.00     0.031 A 
ATOM     53  C   UNL A   1      47.061  30.818  27.955  1.00  0.00     0.049 A 
ATOM     54  C   UNL A   1      45.081  25.669  26.975  1.00  0.00     0.074 A 
ATOM     55  C   UNL A   1      48.415  31.015  27.743  1.00  0.00     0.029 A 
ATOM     56  N   UNL A   1      46.796  29.494  27.635  1.00  0.00    -0.354 N 
ATOM     57  N   UNL A   1      45.686  26.818  27.158  1.00  0.00    -0.248 NA
ATOM     58  C   UNL A   1      45.948  24.608  26.445  1.00  0.00     0.031 C 
ATOM     59  C   UNL A   1      48.955  29.828  27.233  1.00  0.00     0.029 A 
ATOM     60  C   UNL A   1      47.952  28.873  27.190  1.00  0.00     0.049 A 
ATOM     61  H   UNL A   1      45.916  29.060  27.711  1.00  0.00     0.167 HD
ATOM     62  C   UNL A   1      47.010  26.613  26.788  1.00  0.00     0.074 A 
ATOM     63  C   UNL A   1      47.120  25.222  26.393  1.00  0.00     0.031 C 
ATOM     64  C   UNL A   1      48.042  27.494  26.777  1.00  0.00     0.031 A 
BRANCH  51  65
ATOM     65  C   UNL A   1      46.494  33.204  28.594  1.00  0.00    -0.014 A 
ATOM     66  C   UNL A   1      46.406  34.138  27.544  1.00  0.00     0.010 A 
ATOM     67  C   UNL A   1      46.963  33.634  29.849  1.00  0.00     0.010 A 
ATOM     68  C   UNL A   1      46.830  35.457  27.730  1.00  0.00     0.020 A 
ATOM     69  C   UNL A   1      47.358  34.960  30.049  1.00  0.00     0.020 A 
ATOM     70  C   UNL A   1      47.310  35.858  28.980  1.00  0.00     0.054 A 
BRANCH  70  71
ATOM     71  S   UNL A   1      47.851  37.577  29.194  1.00  0.00     0.124 S 
ATOM     72  O   UNL A   1      47.007  38.021  30.300  1.00  0.00    -0.237 OA
ATOM     73  O   UNL A   1      49.270  37.429  29.507  1.00  0.00    -0.237 OA
ATOM     74  O   UNL A   1      47.561  38.195  27.903  1.00  0.00    -0.744 OA
ENDBRANCH  70  71
ENDBRANCH  51  65
BRANCH  52  75
ATOM     75  C   UNL A   1      43.161  23.911  27.020  1.00  0.00    -0.014 A 
ATOM     76  C   UNL A   1      42.879  23.459  25.718  1.00  0.00     0.010 A 
ATOM     77  C   UNL A   1      42.997  23.027  28.102  1.00  0.00     0.010 A 
ATOM     78  C   UNL A   1      42.432  22.152  25.504  1.00  0.00     0.020 A 
ATOM     79  C   UNL A   1      42.578  21.711  27.888  1.00  0.00     0.020 A 
ATOM     80  C   UNL A   1      42.290  21.285  26.591  1.00  0.00     0.054 A 
BRANCH  80  81
ATOM     81  S   UNL A   1      41.772  19.574  26.279  1.00  0.00     0.124 S 
ATOM     82  O   UNL A   1      42.059  18.932  27.559  1.00  0.00    -0.237 OA
ATOM     83  O   UNL A   1      40.357  19.727  25.949  1.00  0.00    -0.237 OA
ATOM     84  O   UNL A   1      42.621  19.158  25.164  1.00  0.00    -0.744 OA
ENDBRANCH  80  81
ENDBRANCH  52  75
BRANCH  64  85
ATOM     85  C   UNL A   1      49.384  26.969  26.336  1.00  0.00    -0.014 A 
ATOM     86  C   UNL A   1      49.793  27.046  24.992  1.00  0.00     0.010 A 
ATOM     87  C   UNL A   1      50.251  26.395  27.283  1.00  0.00     0.010 A 
ATOM     88  C   UNL A   1      51.020  26.509  24.595  1.00  0.00     0.020 A 
ATOM     89  C   UNL A   1      51.494  25.887  26.896  1.00  0.00     0.020 A 
ATOM     90  C   UNL A   1      51.859  25.925  25.549  1.00  0.00     0.054 A 
BRANCH  90  91
ATOM     91  S   UNL A   1      53.448  25.237  25.009  1.00  0.00     0.124 S 
ATOM     92  O   UNL A   1      53.494  25.644  23.608  1.00  0.00    -0.237 OA
ATOM     93  O   UNL A   1      54.404  25.903  25.889  1.00  0.00    -0.237 OA
ATOM     94  O   UNL A   1      53.297  23.801  25.236  1.00  0.00    -0.744 OA
ENDBRANCH  90  91
ENDBRANCH  64  85
ENDBRANCH  38  39
ENDBRANCH  30  33
ENDBRANCH  28  29
ENDBRANCH  27  28
ENDBRANCH  26  27
ENDBRANCH   1  26
TORSDOF 19
ENDMDL
