MODEL 1
REMARK VINA RESULT:      -9.3      0.000      0.000
REMARK SMILES CCN(CC(C)(C)O)C(=O)N1CCC(OCC(=O)NCCCCCCNC(=O)c2ccc(-c3c4nc(c(-c5ccc(S(=O)(=O)[O-])cc5)c5ccc([nH]5)c(-c5ccc(S(=O)(=O)[O-])cc5)c5nc(c(-c6ccc(S(=O)(=O)[O-])cc6)c6ccc3[nH]6)C=C5)C=C4)cc2)CC1
REMARK SMILES IDX 21 1 20 2 19 3 17 4 18 5 16 7 15 8 14 9 9 10 10 11 11 12
REMARK SMILES IDX 12 13 90 14 13 15 89 16 3 17 2 18 1 19 4 20 5 21 6 22 7 23
REMARK SMILES IDX 8 24 22 26 23 27 24 28 25 29 26 30 27 31 28 33 29 34 30 35
REMARK SMILES IDX 88 36 31 37 87 38 32 39 33 40 34 41 81 42 35 43 86 44 80 45
REMARK SMILES IDX 82 46 36 47 85 48 79 49 78 50 37 52 67 53 48 54 66 55 49 56
REMARK SMILES IDX 52 57 65 58 83 59 50 60 51 61 64 63 84 64 53 65 38 66 39 67
REMARK SMILES IDX 47 68 40 69 46 70 41 71 42 72 43 73 44 74 45 75 68 76 69 77
REMARK SMILES IDX 77 78 70 79 76 80 71 81 72 82 73 83 74 84 75 85 54 86 55 87
REMARK SMILES IDX 63 88 56 89 62 90 57 91 58 92 59 93 60 94 61 95
REMARK H PARENT 19 6 8 25 26 32 82 51 52 62
REMARK Flexibility Score: inf
ROOT
ATOM      1  C   UNL A   1      33.537  23.614  26.996  1.00  0.00     0.021 C 
ENDROOT
BRANCH   1   2
ATOM      2  C   UNL A   1      33.268  22.241  26.368  1.00  0.00     0.116 C 
BRANCH   2   3
ATOM      3  N   UNL A   1      34.457  21.615  25.825  1.00  0.00    -0.354 N 
ATOM      4  C   UNL A   1      35.092  21.846  24.638  1.00  0.00     0.246 C 
ATOM      5  O   UNL A   1      36.178  21.295  24.442  1.00  0.00    -0.272 OA
ATOM      6  H   UNL A   1      34.866  20.924  26.393  1.00  0.00     0.163 HD
BRANCH   4   7
ATOM      7  C   UNL A   1      34.470  22.781  23.586  1.00  0.00     0.260 C 
BRANCH   7   8
ATOM      8  O   UNL A   1      33.236  22.448  22.979  1.00  0.00    -0.368 OA
BRANCH   8   9
ATOM      9  C   UNL A   1      32.347  23.504  22.617  1.00  0.00     0.122 C 
ATOM     10  C   UNL A   1      30.820  27.214  23.381  1.00  0.00     0.320 C 
ATOM     11  O   UNL A   1      30.373  27.143  24.529  1.00  0.00    -0.248 OA
ATOM     12  N   UNL A   1      30.983  26.054  22.646  1.00  0.00    -0.324 N 
ATOM     13  C   UNL A   1      30.251  24.841  23.024  1.00  0.00     0.124 C 
ATOM     14  C   UNL A   1      32.110  25.828  21.773  1.00  0.00     0.124 C 
ATOM     15  C   UNL A   1      31.173  23.744  23.575  1.00  0.00     0.054 C 
ATOM     16  C   UNL A   1      33.067  24.816  22.355  1.00  0.00     0.054 C 
BRANCH  10  17
ATOM     17  N   UNL A   1      31.123  28.448  22.793  1.00  0.00    -0.322 N 
BRANCH  17  18
ATOM     18  C   UNL A   1      32.251  29.168  23.404  1.00  0.00     0.118 C 
ATOM     19  C   UNL A   1      33.603  28.823  22.776  1.00  0.00     0.027 C 
ENDBRANCH  17  18
BRANCH  17  20
ATOM     20  C   UNL A   1      30.228  29.269  21.933  1.00  0.00     0.155 C 
BRANCH  20  21
ATOM     21  C   UNL A   1      28.869  29.791  22.544  1.00  0.00     0.077 C 
ATOM     22  C   UNL A   1      28.977  30.879  23.621  1.00  0.00     0.043 C 
ATOM     23  C   UNL A   1      28.017  30.354  21.394  1.00  0.00     0.043 C 
BRANCH  21  24
ATOM     24  O   UNL A   1      28.125  28.693  23.091  1.00  0.00    -0.389 OA
ATOM     25  H   UNL A   1      27.257  29.008  23.386  1.00  0.00     0.211 HD
ENDBRANCH  21  24
ENDBRANCH  20  21
ENDBRANCH  17  20
ENDBRANCH  10  17
ENDBRANCH   8   9
ENDBRANCH   7   8
ENDBRANCH   4   7
ENDBRANCH   2   3
ENDBRANCH   1   2
BRANCH   1  26
ATOM     26  C   UNL A   1      32.631  24.757  26.522  1.00  0.00     0.002 C 
BRANCH  26  27
ATOM     27  C   UNL A   1      33.347  25.939  25.863  1.00  0.00     0.002 C 
BRANCH  27  28
ATOM     28  C   UNL A   1      33.115  27.302  26.522  1.00  0.00     0.021 C 
BRANCH  28  29
ATOM     29  C   UNL A   1      34.231  28.323  26.329  1.00  0.00     0.116 C 
BRANCH  29  30
ATOM     30  N   UNL A   1      33.947  29.590  26.980  1.00  0.00    -0.352 N 
ATOM     31  C   UNL A   1      34.695  30.297  27.890  1.00  0.00     0.251 C 
ATOM     32  H   UNL A   1      33.089  30.004  26.733  1.00  0.00     0.163 HD
ATOM     33  O   UNL A   1      34.200  31.272  28.450  1.00  0.00    -0.269 OA
BRANCH  31  34
ATOM     34  C   UNL A   1      36.080  29.882  28.221  1.00  0.00     0.039 A 
ATOM     35  C   UNL A   1      37.068  30.015  27.242  1.00  0.00     0.014 A 
ATOM     36  C   UNL A   1      36.408  29.342  29.468  1.00  0.00     0.014 A 
ATOM     37  C   UNL A   1      38.389  29.661  27.531  1.00  0.00     0.010 A 
ATOM     38  C   UNL A   1      37.739  29.052  29.778  1.00  0.00     0.010 A 
ATOM     39  C   UNL A   1      38.744  29.207  28.813  1.00  0.00    -0.014 A 
BRANCH  39  40
ATOM     40  C   UNL A   1      40.166  28.924  29.148  1.00  0.00     0.031 A 
ATOM     41  C   UNL A   1      40.799  27.606  28.788  1.00  0.00     0.074 A 
ATOM     42  C   UNL A   1      40.886  29.854  29.808  1.00  0.00     0.049 A 
ATOM     43  N   UNL A   1      42.033  27.209  28.973  1.00  0.00    -0.248 NA
ATOM     44  C   UNL A   1      39.933  26.596  28.161  1.00  0.00     0.031 C 
ATOM     45  C   UNL A   1      40.377  31.151  30.263  1.00  0.00     0.029 A 
ATOM     46  N   UNL A   1      42.200  29.858  30.205  1.00  0.00    -0.354 N 
ATOM     47  C   UNL A   1      42.091  25.906  28.491  1.00  0.00     0.074 A 
ATOM     48  C   UNL A   1      40.755  25.561  28.054  1.00  0.00     0.031 C 
ATOM     49  C   UNL A   1      41.375  31.838  30.840  1.00  0.00     0.029 A 
ATOM     50  C   UNL A   1      42.585  31.022  30.827  1.00  0.00     0.049 A 
ATOM     51  H   UNL A   1      42.809  29.098  30.059  1.00  0.00     0.167 HD
ATOM     52  C   UNL A   1      43.161  25.079  28.401  1.00  0.00     0.031 A 
ATOM     53  C   UNL A   1      43.778  31.398  31.328  1.00  0.00     0.031 A 
ATOM     54  C   UNL A   1      44.490  25.423  28.834  1.00  0.00     0.049 A 
ATOM     55  C   UNL A   1      44.951  30.464  31.213  1.00  0.00     0.074 A 
ATOM     56  C   UNL A   1      45.650  24.674  28.731  1.00  0.00     0.029 A 
ATOM     57  N   UNL A   1      44.839  26.611  29.459  1.00  0.00    -0.354 N 
ATOM     58  N   UNL A   1      45.002  29.267  30.680  1.00  0.00    -0.248 NA
ATOM     59  C   UNL A   1      46.231  30.941  31.752  1.00  0.00     0.031 C 
ATOM     60  C   UNL A   1      46.688  25.386  29.342  1.00  0.00     0.029 A 
ATOM     61  C   UNL A   1      46.189  26.604  29.772  1.00  0.00     0.049 A 
ATOM     62  H   UNL A   1      44.218  27.349  29.653  1.00  0.00     0.167 HD
ATOM     63  C   UNL A   1      46.324  28.855  30.801  1.00  0.00     0.074 A 
ATOM     64  C   UNL A   1      47.042  29.940  31.438  1.00  0.00     0.031 C 
ATOM     65  C   UNL A   1      46.891  27.683  30.420  1.00  0.00     0.031 A 
BRANCH  52  66
ATOM     66  C   UNL A   1      42.934  23.709  27.813  1.00  0.00    -0.014 A 
ATOM     67  C   UNL A   1      43.207  23.445  26.458  1.00  0.00     0.010 A 
ATOM     68  C   UNL A   1      42.485  22.658  28.634  1.00  0.00     0.010 A 
ATOM     69  C   UNL A   1      42.992  22.171  25.926  1.00  0.00     0.020 A 
ATOM     70  C   UNL A   1      42.296  21.375  28.113  1.00  0.00     0.020 A 
ATOM     71  C   UNL A   1      42.534  21.144  26.757  1.00  0.00     0.054 A 
BRANCH  71  72
ATOM     72  S   UNL A   1      42.280  19.495  26.042  1.00  0.00     0.124 S 
ATOM     73  O   UNL A   1      42.720  18.625  27.130  1.00  0.00    -0.237 OA
ATOM     74  O   UNL A   1      40.846  19.482  25.770  1.00  0.00    -0.237 OA
ATOM     75  O   UNL A   1      43.137  19.494  24.859  1.00  0.00    -0.744 OA
ENDBRANCH  71  72
ENDBRANCH  52  66
BRANCH  53  76
ATOM     76  C   UNL A   1      43.926  32.737  31.963  1.00  0.00    -0.014 A 
ATOM     77  C   UNL A   1      44.279  33.859  31.193  1.00  0.00     0.010 A 
ATOM     78  C   UNL A   1      43.693  32.899  33.341  1.00  0.00     0.010 A 
ATOM     79  C   UNL A   1      44.413  35.115  31.792  1.00  0.00     0.020 A 
ATOM     80  C   UNL A   1      43.798  34.157  33.938  1.00  0.00     0.020 A 
ATOM     81  C   UNL A   1      44.168  35.257  33.160  1.00  0.00     0.054 A 
BRANCH  81  82
ATOM     82  S   UNL A   1      44.290  36.907  33.907  1.00  0.00     0.124 S 
ATOM     83  O   UNL A   1      45.448  36.759  34.781  1.00  0.00    -0.237 OA
ATOM     84  O   UNL A   1      44.480  37.767  32.741  1.00  0.00    -0.237 OA
ATOM     85  O   UNL A   1      43.007  37.069  34.587  1.00  0.00    -0.744 OA
ENDBRANCH  81  82
ENDBRANCH  53  76
BRANCH  65  86
ATOM     86  C   UNL A   1      48.368  27.522  30.665  1.00  0.00    -0.014 A 
ATOM     87  C   UNL A   1      48.852  26.961  31.861  1.00  0.00     0.010 A 
ATOM     88  C   UNL A   1      49.285  27.913  29.672  1.00  0.00     0.010 A 
ATOM     89  C   UNL A   1      50.227  26.835  32.077  1.00  0.00     0.020 A 
ATOM     90  C   UNL A   1      50.660  27.761  29.873  1.00  0.00     0.020 A 
ATOM     91  C   UNL A   1      51.123  27.241  31.083  1.00  0.00     0.054 A 
BRANCH  91  92
ATOM     92  S   UNL A   1      52.901  27.049  31.379  1.00  0.00     0.124 S 
ATOM     93  O   UNL A   1      53.017  27.430  32.784  1.00  0.00    -0.237 OA
ATOM     94  O   UNL A   1      53.125  25.635  31.091  1.00  0.00    -0.237 OA
ATOM     95  O   UNL A   1      53.512  27.977  30.429  1.00  0.00    -0.744 OA
ENDBRANCH  91  92
ENDBRANCH  65  86
ENDBRANCH  39  40
ENDBRANCH  31  34
ENDBRANCH  29  30
ENDBRANCH  28  29
ENDBRANCH  27  28
ENDBRANCH  26  27
ENDBRANCH   1  26
TORSDOF 23
ENDMDL
MODEL 2
REMARK VINA RESULT:      -9.2      4.475      9.180
REMARK SMILES CCN(CC(C)(C)O)C(=O)N1CCC(OCC(=O)NCCCCCCNC(=O)c2ccc(-c3c4nc(c(-c5ccc(S(=O)(=O)[O-])cc5)c5ccc([nH]5)c(-c5ccc(S(=O)(=O)[O-])cc5)c5nc(c(-c6ccc(S(=O)(=O)[O-])cc6)c6ccc3[nH]6)C=C5)C=C4)cc2)CC1
REMARK SMILES IDX 21 1 20 2 19 3 17 4 18 5 16 7 15 8 14 9 9 10 10 11 11 12
REMARK SMILES IDX 12 13 90 14 13 15 89 16 3 17 2 18 1 19 4 20 5 21 6 22 7 23
REMARK SMILES IDX 8 24 22 26 23 27 24 28 25 29 26 30 27 31 28 33 29 34 30 35
REMARK SMILES IDX 88 36 31 37 87 38 32 39 33 40 34 41 81 42 35 43 86 44 80 45
REMARK SMILES IDX 82 46 36 47 85 48 79 49 78 50 37 52 67 53 48 54 66 55 49 56
REMARK SMILES IDX 52 57 65 58 83 59 50 60 51 61 64 63 84 64 53 65 38 66 39 67
REMARK SMILES IDX 47 68 40 69 46 70 41 71 42 72 43 73 44 74 45 75 68 76 69 77
REMARK SMILES IDX 77 78 70 79 76 80 71 81 72 82 73 83 74 84 75 85 54 86 55 87
REMARK SMILES IDX 63 88 56 89 62 90 57 91 58 92 59 93 60 94 61 95
REMARK H PARENT 19 6 8 25 26 32 82 51 52 62
REMARK Flexibility Score: inf
ROOT
ATOM      1  C   UNL A   1      37.537  21.703  25.641  1.00  0.00     0.021 C 
ENDROOT
BRANCH   1   2
ATOM      2  C   UNL A   1      36.561  21.064  24.646  1.00  0.00     0.116 C 
BRANCH   2   3
ATOM      3  N   UNL A   1      35.420  20.437  25.284  1.00  0.00    -0.354 N 
ATOM      4  C   UNL A   1      34.121  20.855  25.341  1.00  0.00     0.246 C 
ATOM      5  O   UNL A   1      33.282  20.087  25.817  1.00  0.00    -0.272 OA
ATOM      6  H   UNL A   1      35.608  19.587  25.743  1.00  0.00     0.163 HD
BRANCH   4   7
ATOM      7  C   UNL A   1      33.721  22.242  24.807  1.00  0.00     0.260 C 
BRANCH   7   8
ATOM      8  O   UNL A   1      33.523  22.440  23.420  1.00  0.00    -0.368 OA
BRANCH   8   9
ATOM      9  C   UNL A   1      32.583  23.428  22.999  1.00  0.00     0.122 C 
ATOM     10  C   UNL A   1      30.671  26.968  23.703  1.00  0.00     0.320 C 
ATOM     11  O   UNL A   1      30.126  26.821  24.800  1.00  0.00    -0.248 OA
ATOM     12  N   UNL A   1      31.004  25.851  22.959  1.00  0.00    -0.324 N 
ATOM     13  C   UNL A   1      30.348  24.568  23.235  1.00  0.00     0.124 C 
ATOM     14  C   UNL A   1      32.223  25.749  22.193  1.00  0.00     0.124 C 
ATOM     15  C   UNL A   1      31.307  23.535  23.845  1.00  0.00     0.054 C 
ATOM     16  C   UNL A   1      33.206  24.804  22.840  1.00  0.00     0.054 C 
BRANCH  10  17
ATOM     17  N   UNL A   1      30.919  28.242  23.177  1.00  0.00    -0.322 N 
BRANCH  17  18
ATOM     18  C   UNL A   1      31.799  29.092  23.994  1.00  0.00     0.118 C 
ATOM     19  C   UNL A   1      33.270  29.017  23.581  1.00  0.00     0.027 C 
ENDBRANCH  17  18
BRANCH  17  20
ATOM     20  C   UNL A   1      30.111  28.954  22.150  1.00  0.00     0.155 C 
BRANCH  20  21
ATOM     21  C   UNL A   1      28.622  29.344  22.501  1.00  0.00     0.077 C 
ATOM     22  C   UNL A   1      27.778  28.265  23.195  1.00  0.00     0.043 C 
ATOM     23  C   UNL A   1      28.657  30.574  23.424  1.00  0.00     0.043 C 
BRANCH  21  24
ATOM     24  O   UNL A   1      27.931  29.756  21.314  1.00  0.00    -0.389 OA
ATOM     25  H   UNL A   1      27.575  28.977  20.861  1.00  0.00     0.211 HD
ENDBRANCH  21  24
ENDBRANCH  20  21
ENDBRANCH  17  20
ENDBRANCH  10  17
ENDBRANCH   8   9
ENDBRANCH   7   8
ENDBRANCH   4   7
ENDBRANCH   2   3
ENDBRANCH   1   2
BRANCH   1  26
ATOM     26  C   UNL A   1      37.564  23.237  25.663  1.00  0.00     0.002 C 
BRANCH  26  27
ATOM     27  C   UNL A   1      38.659  23.867  26.527  1.00  0.00     0.002 C 
BRANCH  27  28
ATOM     28  C   UNL A   1      39.827  22.944  26.889  1.00  0.00     0.021 C 
BRANCH  28  29
ATOM     29  C   UNL A   1      41.152  23.644  27.177  1.00  0.00     0.116 C 
BRANCH  29  30
ATOM     30  N   UNL A   1      41.623  24.430  26.050  1.00  0.00    -0.352 N 
ATOM     31  C   UNL A   1      41.692  25.794  25.898  1.00  0.00     0.251 C 
ATOM     32  H   UNL A   1      41.941  23.907  25.279  1.00  0.00     0.163 HD
ATOM     33  O   UNL A   1      41.970  26.265  24.798  1.00  0.00    -0.269 OA
BRANCH  31  34
ATOM     34  C   UNL A   1      41.412  26.700  27.038  1.00  0.00     0.039 A 
ATOM     35  C   UNL A   1      40.393  26.355  27.930  1.00  0.00     0.014 A 
ATOM     36  C   UNL A   1      42.119  27.892  27.221  1.00  0.00     0.014 A 
ATOM     37  C   UNL A   1      40.124  27.173  29.031  1.00  0.00     0.010 A 
ATOM     38  C   UNL A   1      41.896  28.672  28.358  1.00  0.00     0.010 A 
ATOM     39  C   UNL A   1      40.895  28.322  29.276  1.00  0.00    -0.014 A 
BRANCH  39  40
ATOM     40  C   UNL A   1      40.671  29.136  30.500  1.00  0.00     0.031 A 
ATOM     41  C   UNL A   1      41.525  28.943  31.726  1.00  0.00     0.074 A 
ATOM     42  C   UNL A   1      39.670  30.040  30.518  1.00  0.00     0.049 A 
ATOM     43  N   UNL A   1      41.489  29.590  32.863  1.00  0.00    -0.248 NA
ATOM     44  C   UNL A   1      42.533  27.872  31.678  1.00  0.00     0.031 C 
ATOM     45  C   UNL A   1      38.735  30.287  29.417  1.00  0.00     0.029 A 
ATOM     46  N   UNL A   1      39.275  30.923  31.492  1.00  0.00    -0.354 N 
ATOM     47  C   UNL A   1      42.463  29.006  33.666  1.00  0.00     0.074 A 
ATOM     48  C   UNL A   1      43.035  27.916  32.904  1.00  0.00     0.031 C 
ATOM     49  C   UNL A   1      37.903  31.282  29.762  1.00  0.00     0.029 A 
ATOM     50  C   UNL A   1      38.220  31.722  31.117  1.00  0.00     0.049 A 
ATOM     51  H   UNL A   1      39.705  30.979  32.376  1.00  0.00     0.167 HD
ATOM     52  C   UNL A   1      42.858  29.354  34.915  1.00  0.00     0.031 A 
ATOM     53  C   UNL A   1      37.579  32.703  31.783  1.00  0.00     0.031 A 
ATOM     54  C   UNL A   1      42.289  30.439  35.672  1.00  0.00     0.049 A 
ATOM     55  C   UNL A   1      38.039  33.074  33.165  1.00  0.00     0.074 A 
ATOM     56  C   UNL A   1      42.663  30.906  36.920  1.00  0.00     0.029 A 
ATOM     57  N   UNL A   1      41.223  31.223  35.257  1.00  0.00    -0.354 N 
ATOM     58  N   UNL A   1      39.016  32.560  33.874  1.00  0.00    -0.248 NA
ATOM     59  C   UNL A   1      37.321  34.169  33.830  1.00  0.00     0.031 C 
ATOM     60  C   UNL A   1      41.788  31.936  37.283  1.00  0.00     0.029 A 
ATOM     61  C   UNL A   1      40.908  32.151  36.236  1.00  0.00     0.049 A 
ATOM     62  H   UNL A   1      40.759  31.132  34.394  1.00  0.00     0.167 HD
ATOM     63  C   UNL A   1      39.042  33.284  35.062  1.00  0.00     0.074 A 
ATOM     64  C   UNL A   1      37.998  34.284  34.963  1.00  0.00     0.031 C 
ATOM     65  C   UNL A   1      39.857  33.133  36.135  1.00  0.00     0.031 A 
BRANCH  52  66
ATOM     66  C   UNL A   1      43.963  28.545  35.547  1.00  0.00    -0.014 A 
ATOM     67  C   UNL A   1      45.312  28.906  35.385  1.00  0.00     0.010 A 
ATOM     68  C   UNL A   1      43.646  27.434  36.350  1.00  0.00     0.010 A 
ATOM     69  C   UNL A   1      46.326  28.148  35.977  1.00  0.00     0.020 A 
ATOM     70  C   UNL A   1      44.655  26.689  36.967  1.00  0.00     0.020 A 
ATOM     71  C   UNL A   1      45.990  27.040  36.762  1.00  0.00     0.054 A 
BRANCH  71  72
ATOM     72  S   UNL A   1      47.327  26.083  37.531  1.00  0.00     0.124 S 
ATOM     73  O   UNL A   1      46.610  25.347  38.569  1.00  0.00    -0.237 OA
ATOM     74  O   UNL A   1      47.823  25.276  36.419  1.00  0.00    -0.237 OA
ATOM     75  O   UNL A   1      48.251  27.105  38.017  1.00  0.00    -0.744 OA
ENDBRANCH  71  72
ENDBRANCH  52  66
BRANCH  53  76
ATOM     76  C   UNL A   1      36.447  33.420  31.135  1.00  0.00    -0.014 A 
ATOM     77  C   UNL A   1      35.425  33.992  31.913  1.00  0.00     0.010 A 
ATOM     78  C   UNL A   1      36.397  33.552  29.736  1.00  0.00     0.010 A 
ATOM     79  C   UNL A   1      34.365  34.669  31.301  1.00  0.00     0.020 A 
ATOM     80  C   UNL A   1      35.355  34.252  29.123  1.00  0.00     0.020 A 
ATOM     81  C   UNL A   1      34.339  34.797  29.910  1.00  0.00     0.054 A 
BRANCH  81  82
ATOM     82  S   UNL A   1      32.985  35.730  29.140  1.00  0.00     0.124 S 
ATOM     83  O   UNL A   1      32.131  36.025  30.285  1.00  0.00    -0.237 OA
ATOM     84  O   UNL A   1      33.682  36.874  28.557  1.00  0.00    -0.237 OA
ATOM     85  O   UNL A   1      32.431  34.789  28.170  1.00  0.00    -0.744 OA
ENDBRANCH  81  82
ENDBRANCH  53  76
BRANCH  65  86
ATOM     86  C   UNL A   1      39.663  34.086  37.285  1.00  0.00    -0.014 A 
ATOM     87  C   UNL A   1      40.076  35.428  37.197  1.00  0.00     0.010 A 
ATOM     88  C   UNL A   1      39.033  33.639  38.460  1.00  0.00     0.010 A 
ATOM     89  C   UNL A   1      39.903  36.293  38.281  1.00  0.00     0.020 A 
ATOM     90  C   UNL A   1      38.831  34.509  39.535  1.00  0.00     0.020 A 
ATOM     91  C   UNL A   1      39.285  35.826  39.446  1.00  0.00     0.054 A 
BRANCH  91  92
ATOM     92  S   UNL A   1      39.054  36.973  40.831  1.00  0.00     0.124 S 
ATOM     93  O   UNL A   1      38.443  38.125  40.173  1.00  0.00    -0.237 OA
ATOM     94  O   UNL A   1      38.177  36.223  41.727  1.00  0.00    -0.237 OA
ATOM     95  O   UNL A   1      40.410  37.188  41.332  1.00  0.00    -0.744 OA
ENDBRANCH  91  92
ENDBRANCH  65  86
ENDBRANCH  39  40
ENDBRANCH  31  34
ENDBRANCH  29  30
ENDBRANCH  28  29
ENDBRANCH  27  28
ENDBRANCH  26  27
ENDBRANCH   1  26
TORSDOF 23
ENDMDL
MODEL 3
REMARK VINA RESULT:      -9.1      4.667      9.885
REMARK SMILES CCN(CC(C)(C)O)C(=O)N1CCC(OCC(=O)NCCCCCCNC(=O)c2ccc(-c3c4nc(c(-c5ccc(S(=O)(=O)[O-])cc5)c5ccc([nH]5)c(-c5ccc(S(=O)(=O)[O-])cc5)c5nc(c(-c6ccc(S(=O)(=O)[O-])cc6)c6ccc3[nH]6)C=C5)C=C4)cc2)CC1
REMARK SMILES IDX 21 1 20 2 19 3 17 4 18 5 16 7 15 8 14 9 9 10 10 11 11 12
REMARK SMILES IDX 12 13 90 14 13 15 89 16 3 17 2 18 1 19 4 20 5 21 6 22 7 23
REMARK SMILES IDX 8 24 22 26 23 27 24 28 25 29 26 30 27 31 28 33 29 34 30 35
REMARK SMILES IDX 88 36 31 37 87 38 32 39 33 40 34 41 81 42 35 43 86 44 80 45
REMARK SMILES IDX 82 46 36 47 85 48 79 49 78 50 37 52 67 53 48 54 66 55 49 56
REMARK SMILES IDX 52 57 65 58 83 59 50 60 51 61 64 63 84 64 53 65 38 66 39 67
REMARK SMILES IDX 47 68 40 69 46 70 41 71 42 72 43 73 44 74 45 75 68 76 69 77
REMARK SMILES IDX 77 78 70 79 76 80 71 81 72 82 73 83 74 84 75 85 54 86 55 87
REMARK SMILES IDX 63 88 56 89 62 90 57 91 58 92 59 93 60 94 61 95
REMARK H PARENT 19 6 8 25 26 32 82 51 52 62
REMARK Flexibility Score: inf
ROOT
ATOM      1  C   UNL A   1      35.948  30.368  27.923  1.00  0.00     0.021 C 
ENDROOT
BRANCH   1   2
ATOM      2  C   UNL A   1      34.926  29.445  27.248  1.00  0.00     0.116 C 
BRANCH   2   3
ATOM      3  N   UNL A   1      33.875  30.163  26.554  1.00  0.00    -0.354 N 
ATOM      4  C   UNL A   1      32.610  29.754  26.238  1.00  0.00     0.246 C 
ATOM      5  O   UNL A   1      31.830  30.586  25.769  1.00  0.00    -0.272 OA
ATOM      6  H   UNL A   1      34.104  31.076  26.270  1.00  0.00     0.163 HD
BRANCH   4   7
ATOM      7  C   UNL A   1      32.175  28.298  26.478  1.00  0.00     0.260 C 
BRANCH   7   8
ATOM      8  O   UNL A   1      31.231  27.687  25.618  1.00  0.00    -0.368 OA
BRANCH   8   9
ATOM      9  C   UNL A   1      31.470  26.349  25.182  1.00  0.00     0.122 C 
ATOM     10  C   UNL A   1      34.035  23.579  23.625  1.00  0.00     0.320 C 
ATOM     11  O   UNL A   1      34.417  24.065  22.556  1.00  0.00    -0.248 OA
ATOM     12  N   UNL A   1      32.843  24.012  24.176  1.00  0.00    -0.324 N 
ATOM     13  C   UNL A   1      31.849  24.682  23.332  1.00  0.00     0.124 C 
ATOM     14  C   UNL A   1      32.657  24.207  25.594  1.00  0.00     0.124 C 
ATOM     15  C   UNL A   1      31.692  26.170  23.675  1.00  0.00     0.054 C 
ATOM     16  C   UNL A   1      32.595  25.674  25.947  1.00  0.00     0.054 C 
BRANCH  10  17
ATOM     17  N   UNL A   1      34.762  22.568  24.266  1.00  0.00    -0.322 N 
BRANCH  17  18
ATOM     18  C   UNL A   1      36.156  22.912  24.586  1.00  0.00     0.118 C 
ATOM     19  C   UNL A   1      36.308  23.652  25.917  1.00  0.00     0.027 C 
ENDBRANCH  17  18
BRANCH  17  20
ATOM     20  C   UNL A   1      34.437  21.117  24.291  1.00  0.00     0.155 C 
BRANCH  20  21
ATOM     21  C   UNL A   1      33.556  20.564  25.478  1.00  0.00     0.077 C 
ATOM     22  C   UNL A   1      33.756  21.230  26.847  1.00  0.00     0.043 C 
ATOM     23  C   UNL A   1      32.077  20.729  25.090  1.00  0.00     0.043 C 
BRANCH  21  24
ATOM     24  O   UNL A   1      33.772  19.154  25.633  1.00  0.00    -0.389 OA
ATOM     25  H   UNL A   1      33.355  18.681  24.896  1.00  0.00     0.211 HD
ENDBRANCH  21  24
ENDBRANCH  20  21
ENDBRANCH  17  20
ENDBRANCH  10  17
ENDBRANCH   8   9
ENDBRANCH   7   8
ENDBRANCH   4   7
ENDBRANCH   2   3
ENDBRANCH   1   2
BRANCH   1  26
ATOM     26  C   UNL A   1      35.382  31.365  28.941  1.00  0.00     0.002 C 
BRANCH  26  27
ATOM     27  C   UNL A   1      35.329  32.824  28.480  1.00  0.00     0.002 C 
BRANCH  27  28
ATOM     28  C   UNL A   1      33.944  33.477  28.515  1.00  0.00     0.021 C 
BRANCH  28  29
ATOM     29  C   UNL A   1      33.919  34.940  28.947  1.00  0.00     0.116 C 
BRANCH  29  30
ATOM     30  N   UNL A   1      33.014  35.179  30.057  1.00  0.00    -0.352 N 
ATOM     31  C   UNL A   1      33.159  34.873  31.390  1.00  0.00     0.251 C 
ATOM     32  H   UNL A   1      32.170  35.625  29.820  1.00  0.00     0.163 HD
ATOM     33  O   UNL A   1      32.202  35.011  32.147  1.00  0.00    -0.269 OA
BRANCH  31  34
ATOM     34  C   UNL A   1      34.446  34.359  31.915  1.00  0.00     0.039 A 
ATOM     35  C   UNL A   1      34.546  33.000  32.224  1.00  0.00     0.014 A 
ATOM     36  C   UNL A   1      35.541  35.201  32.131  1.00  0.00     0.014 A 
ATOM     37  C   UNL A   1      35.755  32.478  32.692  1.00  0.00     0.010 A 
ATOM     38  C   UNL A   1      36.767  34.666  32.534  1.00  0.00     0.010 A 
ATOM     39  C   UNL A   1      36.888  33.299  32.821  1.00  0.00    -0.014 A 
BRANCH  39  40
ATOM     40  C   UNL A   1      38.198  32.722  33.226  1.00  0.00     0.031 A 
ATOM     41  C   UNL A   1      38.758  32.963  34.603  1.00  0.00     0.074 A 
ATOM     42  C   UNL A   1      38.903  31.997  32.334  1.00  0.00     0.049 A 
ATOM     43  N   UNL A   1      39.865  32.507  35.131  1.00  0.00    -0.248 NA
ATOM     44  C   UNL A   1      37.989  33.846  35.494  1.00  0.00     0.031 C 
ATOM     45  C   UNL A   1      38.499  31.734  30.950  1.00  0.00     0.029 A 
ATOM     46  N   UNL A   1      40.103  31.341  32.458  1.00  0.00    -0.354 N 
ATOM     47  C   UNL A   1      39.930  33.048  36.410  1.00  0.00     0.074 A 
ATOM     48  C   UNL A   1      38.776  33.909  36.559  1.00  0.00     0.031 C 
ATOM     49  C   UNL A   1      39.413  30.942  30.368  1.00  0.00     0.029 A 
ATOM     50  C   UNL A   1      40.483  30.667  31.321  1.00  0.00     0.049 A 
ATOM     51  H   UNL A   1      40.640  31.353  33.282  1.00  0.00     0.167 HD
ATOM     52  C   UNL A   1      40.853  32.834  37.380  1.00  0.00     0.031 A 
ATOM     53  C   UNL A   1      41.568  29.907  31.070  1.00  0.00     0.031 A 
ATOM     54  C   UNL A   1      41.999  31.975  37.232  1.00  0.00     0.049 A 
ATOM     55  C   UNL A   1      42.575  29.681  32.163  1.00  0.00     0.074 A 
ATOM     56  C   UNL A   1      42.957  31.649  38.177  1.00  0.00     0.029 A 
ATOM     57  N   UNL A   1      42.349  31.312  36.066  1.00  0.00    -0.354 N 
ATOM     58  N   UNL A   1      42.573  30.139  33.393  1.00  0.00    -0.248 NA
ATOM     59  C   UNL A   1      43.721  28.822  31.839  1.00  0.00     0.031 C 
ATOM     60  C   UNL A   1      43.915  30.832  37.566  1.00  0.00     0.029 A 
ATOM     61  C   UNL A   1      43.523  30.600  36.258  1.00  0.00     0.049 A 
ATOM     62  H   UNL A   1      41.839  31.343  35.225  1.00  0.00     0.167 HD
ATOM     63  C   UNL A   1      43.708  29.606  33.996  1.00  0.00     0.074 A 
ATOM     64  C   UNL A   1      44.357  28.775  33.002  1.00  0.00     0.031 C 
ATOM     65  C   UNL A   1      44.169  29.789  35.258  1.00  0.00     0.031 A 
BRANCH  52  66
ATOM     66  C   UNL A   1      40.660  33.549  38.694  1.00  0.00    -0.014 A 
ATOM     67  C   UNL A   1      39.888  32.982  39.724  1.00  0.00     0.010 A 
ATOM     68  C   UNL A   1      41.297  34.783  38.920  1.00  0.00     0.010 A 
ATOM     69  C   UNL A   1      39.719  33.655  40.936  1.00  0.00     0.020 A 
ATOM     70  C   UNL A   1      41.154  35.447  40.142  1.00  0.00     0.020 A 
ATOM     71  C   UNL A   1      40.350  34.886  41.137  1.00  0.00     0.054 A 
BRANCH  71  72
ATOM     72  S   UNL A   1      40.126  35.730  42.727  1.00  0.00     0.124 S 
ATOM     73  O   UNL A   1      39.154  34.866  43.391  1.00  0.00    -0.237 OA
ATOM     74  O   UNL A   1      41.472  35.711  43.293  1.00  0.00    -0.237 OA
ATOM     75  O   UNL A   1      39.630  37.052  42.352  1.00  0.00    -0.744 OA
ENDBRANCH  71  72
ENDBRANCH  52  66
BRANCH  53  76
ATOM     76  C   UNL A   1      41.741  29.284  29.729  1.00  0.00    -0.014 A 
ATOM     77  C   UNL A   1      42.495  29.930  28.733  1.00  0.00     0.010 A 
ATOM     78  C   UNL A   1      41.169  28.030  29.449  1.00  0.00     0.010 A 
ATOM     79  C   UNL A   1      42.659  29.339  27.476  1.00  0.00     0.020 A 
ATOM     80  C   UNL A   1      41.354  27.424  28.204  1.00  0.00     0.020 A 
ATOM     81  C   UNL A   1      42.090  28.089  27.221  1.00  0.00     0.054 A 
BRANCH  81  82
ATOM     82  S   UNL A   1      42.365  27.314  25.603  1.00  0.00     0.124 S 
ATOM     83  O   UNL A   1      42.301  28.461  24.703  1.00  0.00    -0.237 OA
ATOM     84  O   UNL A   1      43.684  26.707  25.763  1.00  0.00    -0.237 OA
ATOM     85  O   UNL A   1      41.261  26.364  25.488  1.00  0.00    -0.744 OA
ENDBRANCH  81  82
ENDBRANCH  53  76
BRANCH  65  86
ATOM     86  C   UNL A   1      45.430  29.060  35.641  1.00  0.00    -0.014 A 
ATOM     87  C   UNL A   1      45.387  27.760  36.178  1.00  0.00     0.010 A 
ATOM     88  C   UNL A   1      46.678  29.675  35.435  1.00  0.00     0.010 A 
ATOM     89  C   UNL A   1      46.566  27.107  36.543  1.00  0.00     0.020 A 
ATOM     90  C   UNL A   1      47.862  29.012  35.772  1.00  0.00     0.020 A 
ATOM     91  C   UNL A   1      47.797  27.740  36.342  1.00  0.00     0.054 A 
BRANCH  91  92
ATOM     92  S   UNL A   1      49.316  26.863  36.806  1.00  0.00     0.124 S 
ATOM     93  O   UNL A   1      48.856  25.479  36.881  1.00  0.00    -0.237 OA
ATOM     94  O   UNL A   1      50.215  27.167  35.696  1.00  0.00    -0.237 OA
ATOM     95  O   UNL A   1      49.687  27.467  38.084  1.00  0.00    -0.744 OA
ENDBRANCH  91  92
ENDBRANCH  65  86
ENDBRANCH  39  40
ENDBRANCH  31  34
ENDBRANCH  29  30
ENDBRANCH  28  29
ENDBRANCH  27  28
ENDBRANCH  26  27
ENDBRANCH   1  26
TORSDOF 23
ENDMDL
