MODEL 1
REMARK VINA RESULT:     -10.4      0.000      0.000
REMARK SMILES Cc1cccc(C(=O)[C@H](C)[C@@H](C)C(=O)NCCCCCCNC(=O)c2ccc(-c3c4nc(c(-c5ccc(S(=O)(=O)[O-])cc5)c5ccc([nH]5)c(-c5ccc(S(=O)(=O)[O-])cc5)c5nc(c(-c6ccc(S(=O)(=O)[O-])cc6)c6ccc3[nH]6)C=C5)C=C4)cc2)c1C
REMARK SMILES IDX 18 1 17 2 16 3 15 4 13 5 14 6 11 8 12 9 9 10 10 11 7 12 8 13
REMARK SMILES IDX 6 14 1 15 2 16 3 17 85 18 4 19 86 20 5 21 19 22 20 23 21 24
REMARK SMILES IDX 22 25 23 26 24 28 25 29 26 30 84 31 27 32 83 33 28 34 29 35
REMARK SMILES IDX 30 36 77 37 31 38 82 39 76 40 78 41 32 42 81 43 75 44 74 45
REMARK SMILES IDX 33 47 63 48 44 49 62 50 45 51 48 52 61 53 79 54 46 55 47 56
REMARK SMILES IDX 60 58 80 59 49 60 34 61 35 62 43 63 36 64 42 65 37 66 38 67
REMARK SMILES IDX 39 68 40 69 41 70 64 71 65 72 73 73 66 74 72 75 67 76 68 77
REMARK SMILES IDX 69 78 70 79 71 80 50 81 51 82 59 83 52 84 58 85 53 86 54 87
REMARK SMILES IDX 55 88 56 89 57 90
REMARK H PARENT 15 7 22 27 78 46 48 57
REMARK Flexibility Score: inf
ROOT
ATOM      1  C   UNL A   1      31.051  27.929  25.255  1.00  0.00     0.002 C 
ENDROOT
BRANCH   1   2
ATOM      2  C   UNL A   1      30.763  28.512  23.867  1.00  0.00     0.021 C 
BRANCH   2   3
ATOM      3  C   UNL A   1      30.590  27.473  22.756  1.00  0.00     0.116 C 
BRANCH   3   4
ATOM      4  N   UNL A   1      31.803  27.232  21.987  1.00  0.00    -0.356 N 
ATOM      5  C   UNL A   1      32.826  26.347  22.121  1.00  0.00     0.223 C 
ATOM      6  O   UNL A   1      33.709  26.381  21.260  1.00  0.00    -0.275 OA
ATOM      7  H   UNL A   1      31.901  27.831  21.213  1.00  0.00     0.163 HD
BRANCH   5   8
ATOM      8  C   UNL A   1      32.920  25.360  23.276  1.00  0.00     0.086 C 
ATOM      9  C   UNL A   1      33.995  25.815  24.270  1.00  0.00     0.019 C 
BRANCH   8  10
ATOM     10  C   UNL A   1      32.992  23.892  22.786  1.00  0.00     0.070 C 
ATOM     11  C   UNL A   1      34.394  23.293  22.963  1.00  0.00     0.017 C 
BRANCH  10  12
ATOM     12  C   UNL A   1      31.985  23.022  23.594  1.00  0.00     0.166 C 
ATOM     13  O   UNL A   1      30.908  23.515  23.933  1.00  0.00    -0.294 OA
BRANCH  12  14
ATOM     14  C   UNL A   1      32.314  21.581  23.973  1.00  0.00     0.021 A 
ATOM     15  C   UNL A   1      32.507  17.956  22.658  1.00  0.00     0.044 C 
ATOM     16  C   UNL A   1      32.539  19.171  23.549  1.00  0.00    -0.047 A 
ATOM     17  C   UNL A   1      32.915  18.967  24.883  1.00  0.00     0.004 A 
ATOM     18  C   UNL A   1      32.221  20.482  23.081  1.00  0.00    -0.037 A 
ATOM     19  C   UNL A   1      33.023  20.039  25.744  1.00  0.00     0.001 A 
ATOM     20  C   UNL A   1      31.807  20.689  21.646  1.00  0.00     0.045 C 
ATOM     21  C   UNL A   1      32.744  21.317  25.274  1.00  0.00     0.012 A 
ENDBRANCH  12  14
ENDBRANCH  10  12
ENDBRANCH   8  10
ENDBRANCH   5   8
ENDBRANCH   3   4
ENDBRANCH   2   3
ENDBRANCH   1   2
BRANCH   1  22
ATOM     22  C   UNL A   1      31.957  28.818  26.106  1.00  0.00     0.002 C 
BRANCH  22  23
ATOM     23  C   UNL A   1      33.189  28.099  26.660  1.00  0.00     0.021 C 
BRANCH  23  24
ATOM     24  C   UNL A   1      34.450  28.956  26.696  1.00  0.00     0.116 C 
BRANCH  24  25
ATOM     25  N   UNL A   1      34.128  30.369  26.796  1.00  0.00    -0.352 N 
ATOM     26  C   UNL A   1      34.639  31.281  27.687  1.00  0.00     0.251 C 
ATOM     27  H   UNL A   1      33.467  30.712  26.152  1.00  0.00     0.163 HD
ATOM     28  O   UNL A   1      34.110  32.372  27.845  1.00  0.00    -0.269 OA
BRANCH  26  29
ATOM     29  C   UNL A   1      35.837  30.899  28.462  1.00  0.00     0.039 A 
ATOM     30  C   UNL A   1      35.749  29.859  29.388  1.00  0.00     0.014 A 
ATOM     31  C   UNL A   1      37.056  31.540  28.220  1.00  0.00     0.014 A 
ATOM     32  C   UNL A   1      36.902  29.435  30.049  1.00  0.00     0.010 A 
ATOM     33  C   UNL A   1      38.215  31.066  28.824  1.00  0.00     0.010 A 
ATOM     34  C   UNL A   1      38.148  30.017  29.754  1.00  0.00    -0.014 A 
BRANCH  34  35
ATOM     35  C   UNL A   1      39.389  29.546  30.419  1.00  0.00     0.031 A 
ATOM     36  C   UNL A   1      39.864  30.212  31.682  1.00  0.00     0.074 A 
ATOM     37  C   UNL A   1      40.113  28.556  29.860  1.00  0.00     0.049 A 
ATOM     38  N   UNL A   1      40.936  29.964  32.390  1.00  0.00    -0.248 NA
ATOM     39  C   UNL A   1      39.041  31.315  32.203  1.00  0.00     0.031 C 
ATOM     40  C   UNL A   1      39.778  27.861  28.615  1.00  0.00     0.029 A 
ATOM     41  N   UNL A   1      41.282  27.964  30.267  1.00  0.00    -0.354 N 
ATOM     42  C   UNL A   1      40.921  30.885  33.432  1.00  0.00     0.074 A 
ATOM     43  C   UNL A   1      39.769  31.735  33.227  1.00  0.00     0.031 C 
ATOM     44  C   UNL A   1      40.704  26.918  28.377  1.00  0.00     0.029 A 
ATOM     45  C   UNL A   1      41.719  26.970  29.425  1.00  0.00     0.049 A 
ATOM     46  H   UNL A   1      41.762  28.227  31.086  1.00  0.00     0.167 HD
ATOM     47  C   UNL A   1      41.775  30.998  34.477  1.00  0.00     0.031 A 
ATOM     48  C   UNL A   1      42.816  26.190  29.484  1.00  0.00     0.031 A 
ATOM     49  C   UNL A   1      42.921  30.151  34.673  1.00  0.00     0.049 A 
ATOM     50  C   UNL A   1      43.765  26.348  30.641  1.00  0.00     0.074 A 
ATOM     51  C   UNL A   1      43.823  30.153  35.723  1.00  0.00     0.029 A 
ATOM     52  N   UNL A   1      43.329  29.156  33.797  1.00  0.00    -0.354 N 
ATOM     53  N   UNL A   1      43.696  27.179  31.653  1.00  0.00    -0.248 NA
ATOM     54  C   UNL A   1      44.929  25.453  30.670  1.00  0.00     0.031 C 
ATOM     55  C   UNL A   1      44.811  29.202  35.450  1.00  0.00     0.029 A 
ATOM     56  C   UNL A   1      44.486  28.556  34.267  1.00  0.00     0.049 A 
ATOM     57  H   UNL A   1      42.866  28.911  32.964  1.00  0.00     0.167 HD
ATOM     58  C   UNL A   1      44.795  26.890  32.455  1.00  0.00     0.074 A 
ATOM     59  C   UNL A   1      45.501  25.796  31.817  1.00  0.00     0.031 C 
ATOM     60  C   UNL A   1      45.183  27.474  33.617  1.00  0.00     0.031 A 
BRANCH  47  61
ATOM     61  C   UNL A   1      41.502  32.091  35.479  1.00  0.00    -0.014 A 
ATOM     62  C   UNL A   1      42.205  33.311  35.438  1.00  0.00     0.010 A 
ATOM     63  C   UNL A   1      40.517  31.907  36.466  1.00  0.00     0.010 A 
ATOM     64  C   UNL A   1      41.966  34.300  36.395  1.00  0.00     0.020 A 
ATOM     65  C   UNL A   1      40.250  32.908  37.404  1.00  0.00     0.020 A 
ATOM     66  C   UNL A   1      40.993  34.090  37.376  1.00  0.00     0.054 A 
BRANCH  66  67
ATOM     67  S   UNL A   1      40.702  35.393  38.603  1.00  0.00     0.124 S 
ATOM     68  O   UNL A   1      39.350  35.830  38.262  1.00  0.00    -0.237 OA
ATOM     69  O   UNL A   1      40.829  34.674  39.868  1.00  0.00    -0.237 OA
ATOM     70  O   UNL A   1      41.757  36.367  38.333  1.00  0.00    -0.744 OA
ENDBRANCH  66  67
ENDBRANCH  47  61
BRANCH  48  71
ATOM     71  C   UNL A   1      43.064  25.183  28.415  1.00  0.00    -0.014 A 
ATOM     72  C   UNL A   1      43.870  25.494  27.307  1.00  0.00     0.010 A 
ATOM     73  C   UNL A   1      42.514  23.891  28.519  1.00  0.00     0.010 A 
ATOM     74  C   UNL A   1      44.117  24.535  26.319  1.00  0.00     0.020 A 
ATOM     75  C   UNL A   1      42.783  22.921  27.549  1.00  0.00     0.020 A 
ATOM     76  C   UNL A   1      43.577  23.253  26.451  1.00  0.00     0.054 A 
BRANCH  76  77
ATOM     77  S   UNL A   1      43.968  22.006  25.191  1.00  0.00     0.124 S 
ATOM     78  O   UNL A   1      45.369  21.714  25.476  1.00  0.00    -0.237 OA
ATOM     79  O   UNL A   1      43.020  20.938  25.504  1.00  0.00    -0.237 OA
ATOM     80  O   UNL A   1      43.716  22.702  23.932  1.00  0.00    -0.744 OA
ENDBRANCH  76  77
ENDBRANCH  48  71
BRANCH  60  81
ATOM     81  C   UNL A   1      46.411  26.924  34.295  1.00  0.00    -0.014 A 
ATOM     82  C   UNL A   1      47.683  27.475  34.067  1.00  0.00     0.010 A 
ATOM     83  C   UNL A   1      46.276  25.874  35.223  1.00  0.00     0.010 A 
ATOM     84  C   UNL A   1      48.803  26.965  34.730  1.00  0.00     0.020 A 
ATOM     85  C   UNL A   1      47.387  25.382  35.911  1.00  0.00     0.020 A 
ATOM     86  C   UNL A   1      48.647  25.922  35.650  1.00  0.00     0.054 A 
BRANCH  86  87
ATOM     87  S   UNL A   1      50.110  25.310  36.530  1.00  0.00     0.124 S 
ATOM     88  O   UNL A   1      50.723  24.439  35.530  1.00  0.00    -0.237 OA
ATOM     89  O   UNL A   1      50.842  26.539  36.826  1.00  0.00    -0.237 OA
ATOM     90  O   UNL A   1      49.553  24.626  37.694  1.00  0.00    -0.744 OA
ENDBRANCH  86  87
ENDBRANCH  60  81
ENDBRANCH  34  35
ENDBRANCH  26  29
ENDBRANCH  24  25
ENDBRANCH  23  24
ENDBRANCH  22  23
ENDBRANCH   1  22
TORSDOF 19
ENDMDL
MODEL 2
REMARK VINA RESULT:     -10.2      5.331     10.715
REMARK SMILES Cc1cccc(C(=O)[C@H](C)[C@@H](C)C(=O)NCCCCCCNC(=O)c2ccc(-c3c4nc(c(-c5ccc(S(=O)(=O)[O-])cc5)c5ccc([nH]5)c(-c5ccc(S(=O)(=O)[O-])cc5)c5nc(c(-c6ccc(S(=O)(=O)[O-])cc6)c6ccc3[nH]6)C=C5)C=C4)cc2)c1C
REMARK SMILES IDX 18 1 17 2 16 3 15 4 13 5 14 6 11 8 12 9 9 10 10 11 7 12 8 13
REMARK SMILES IDX 6 14 1 15 2 16 3 17 85 18 4 19 86 20 5 21 19 22 20 23 21 24
REMARK SMILES IDX 22 25 23 26 24 28 25 29 26 30 84 31 27 32 83 33 28 34 29 35
REMARK SMILES IDX 30 36 77 37 31 38 82 39 76 40 78 41 32 42 81 43 75 44 74 45
REMARK SMILES IDX 33 47 63 48 44 49 62 50 45 51 48 52 61 53 79 54 46 55 47 56
REMARK SMILES IDX 60 58 80 59 49 60 34 61 35 62 43 63 36 64 42 65 37 66 38 67
REMARK SMILES IDX 39 68 40 69 41 70 64 71 65 72 73 73 66 74 72 75 67 76 68 77
REMARK SMILES IDX 69 78 70 79 71 80 50 81 51 82 59 83 52 84 58 85 53 86 54 87
REMARK SMILES IDX 55 88 56 89 57 90
REMARK H PARENT 15 7 22 27 78 46 48 57
REMARK Flexibility Score: inf
ROOT
ATOM      1  C   UNL A   1      37.782  22.142  25.268  1.00  0.00     0.002 C 
ENDROOT
BRANCH   1   2
ATOM      2  C   UNL A   1      36.572  23.078  25.168  1.00  0.00     0.021 C 
BRANCH   2   3
ATOM      3  C   UNL A   1      35.822  23.018  23.834  1.00  0.00     0.116 C 
BRANCH   3   4
ATOM      4  N   UNL A   1      34.620  22.196  23.875  1.00  0.00    -0.356 N 
ATOM      5  C   UNL A   1      33.298  22.491  23.981  1.00  0.00     0.223 C 
ATOM      6  O   UNL A   1      32.510  21.542  23.954  1.00  0.00    -0.275 OA
ATOM      7  H   UNL A   1      34.802  21.231  23.813  1.00  0.00     0.163 HD
BRANCH   5   8
ATOM      8  C   UNL A   1      32.779  23.913  24.147  1.00  0.00     0.086 C 
ATOM      9  C   UNL A   1      32.060  24.056  25.495  1.00  0.00     0.019 C 
BRANCH   8  10
ATOM     10  C   UNL A   1      32.021  24.409  22.891  1.00  0.00     0.070 C 
ATOM     11  C   UNL A   1      30.510  24.530  23.138  1.00  0.00     0.017 C 
BRANCH  10  12
ATOM     12  C   UNL A   1      32.559  25.808  22.474  1.00  0.00     0.166 C 
ATOM     13  O   UNL A   1      33.509  25.873  21.693  1.00  0.00    -0.294 OA
BRANCH  12  14
ATOM     14  C   UNL A   1      31.936  27.089  23.020  1.00  0.00     0.021 A 
ATOM     15  C   UNL A   1      32.237  29.815  25.738  1.00  0.00     0.044 C 
ATOM     16  C   UNL A   1      31.756  28.980  24.580  1.00  0.00    -0.047 A 
ATOM     17  C   UNL A   1      30.603  29.422  23.916  1.00  0.00     0.004 A 
ATOM     18  C   UNL A   1      32.429  27.798  24.146  1.00  0.00    -0.037 A 
ATOM     19  C   UNL A   1      30.136  28.743  22.811  1.00  0.00     0.001 A 
ATOM     20  C   UNL A   1      33.661  27.324  24.874  1.00  0.00     0.045 C 
ATOM     21  C   UNL A   1      30.815  27.612  22.373  1.00  0.00     0.012 A 
ENDBRANCH  12  14
ENDBRANCH  10  12
ENDBRANCH   8  10
ENDBRANCH   5   8
ENDBRANCH   3   4
ENDBRANCH   2   3
ENDBRANCH   1   2
BRANCH   1  22
ATOM     22  C   UNL A   1      37.445  20.687  24.945  1.00  0.00     0.002 C 
BRANCH  22  23
ATOM     23  C   UNL A   1      38.631  19.729  25.087  1.00  0.00     0.021 C 
BRANCH  23  24
ATOM     24  C   UNL A   1      39.652  20.149  26.140  1.00  0.00     0.116 C 
BRANCH  24  25
ATOM     25  N   UNL A   1      40.804  19.265  26.143  1.00  0.00    -0.352 N 
ATOM     26  C   UNL A   1      42.130  19.622  26.122  1.00  0.00     0.251 C 
ATOM     27  H   UNL A   1      40.613  18.299  26.161  1.00  0.00     0.163 HD
ATOM     28  O   UNL A   1      43.000  18.801  25.868  1.00  0.00    -0.269 OA
BRANCH  26  29
ATOM     29  C   UNL A   1      42.475  21.032  26.398  1.00  0.00     0.039 A 
ATOM     30  C   UNL A   1      42.668  21.441  27.718  1.00  0.00     0.014 A 
ATOM     31  C   UNL A   1      42.659  21.925  25.337  1.00  0.00     0.014 A 
ATOM     32  C   UNL A   1      43.087  22.747  27.972  1.00  0.00     0.010 A 
ATOM     33  C   UNL A   1      43.147  23.202  25.590  1.00  0.00     0.010 A 
ATOM     34  C   UNL A   1      43.354  23.630  26.911  1.00  0.00    -0.014 A 
BRANCH  34  35
ATOM     35  C   UNL A   1      43.841  25.009  27.166  1.00  0.00     0.031 A 
ATOM     36  C   UNL A   1      45.297  25.338  26.979  1.00  0.00     0.074 A 
ATOM     37  C   UNL A   1      42.984  25.949  27.610  1.00  0.00     0.049 A 
ATOM     38  N   UNL A   1      45.917  26.473  27.180  1.00  0.00    -0.248 NA
ATOM     39  C   UNL A   1      46.176  24.245  26.536  1.00  0.00     0.031 C 
ATOM     40  C   UNL A   1      41.558  25.741  27.869  1.00  0.00     0.029 A 
ATOM     41  N   UNL A   1      43.190  27.269  27.925  1.00  0.00    -0.354 N 
ATOM     42  C   UNL A   1      47.256  26.227  26.896  1.00  0.00     0.074 A 
ATOM     43  C   UNL A   1      47.367  24.823  26.572  1.00  0.00     0.031 C 
ATOM     44  C   UNL A   1      41.012  26.899  28.273  1.00  0.00     0.029 A 
ATOM     45  C   UNL A   1      42.053  27.919  28.345  1.00  0.00     0.049 A 
ATOM     46  H   UNL A   1      44.068  27.709  27.856  1.00  0.00     0.167 HD
ATOM     47  C   UNL A   1      48.294  27.096  26.885  1.00  0.00     0.031 A 
ATOM     48  C   UNL A   1      41.870  29.191  28.751  1.00  0.00     0.031 A 
ATOM     49  C   UNL A   1      48.178  28.492  27.213  1.00  0.00     0.049 A 
ATOM     50  C   UNL A   1      43.042  30.135  28.753  1.00  0.00     0.074 A 
ATOM     51  C   UNL A   1      49.159  29.468  27.186  1.00  0.00     0.029 A 
ATOM     52  N   UNL A   1      47.010  29.112  27.634  1.00  0.00    -0.354 N 
ATOM     53  N   UNL A   1      44.288  29.900  28.415  1.00  0.00    -0.248 NA
ATOM     54  C   UNL A   1      42.780  31.517  29.176  1.00  0.00     0.031 C 
ATOM     55  C   UNL A   1      48.599  30.662  27.652  1.00  0.00     0.029 A 
ATOM     56  C   UNL A   1      47.252  30.450  27.899  1.00  0.00     0.049 A 
ATOM     57  H   UNL A   1      46.137  28.667  27.730  1.00  0.00     0.167 HD
ATOM     58  C   UNL A   1      44.954  31.112  28.560  1.00  0.00     0.074 A 
ATOM     59  C   UNL A   1      43.968  32.080  28.999  1.00  0.00     0.031 C 
ATOM     60  C   UNL A   1      46.262  31.400  28.344  1.00  0.00     0.031 A 
BRANCH  47  61
ATOM     61  C   UNL A   1      49.651  26.550  26.518  1.00  0.00    -0.014 A 
ATOM     62  C   UNL A   1      50.081  26.503  25.178  1.00  0.00     0.010 A 
ATOM     63  C   UNL A   1      50.518  26.095  27.527  1.00  0.00     0.010 A 
ATOM     64  C   UNL A   1      51.327  25.961  24.851  1.00  0.00     0.020 A 
ATOM     65  C   UNL A   1      51.780  25.584  27.208  1.00  0.00     0.020 A 
ATOM     66  C   UNL A   1      52.167  25.501  25.869  1.00  0.00     0.054 A 
BRANCH  66  67
ATOM     67  S   UNL A   1      53.779  24.806  25.415  1.00  0.00     0.124 S 
ATOM     68  O   UNL A   1      53.417  23.451  25.003  1.00  0.00    -0.237 OA
ATOM     69  O   UNL A   1      54.218  25.692  24.340  1.00  0.00    -0.237 OA
ATOM     70  O   UNL A   1      54.556  24.894  26.649  1.00  0.00    -0.744 OA
ENDBRANCH  66  67
ENDBRANCH  47  61
BRANCH  48  71
ATOM     71  C   UNL A   1      40.516  29.642  29.175  1.00  0.00    -0.014 A 
ATOM     72  C   UNL A   1      39.495  29.838  28.229  1.00  0.00     0.010 A 
ATOM     73  C   UNL A   1      40.233  29.850  30.538  1.00  0.00     0.010 A 
ATOM     74  C   UNL A   1      38.219  30.240  28.637  1.00  0.00     0.020 A 
ATOM     75  C   UNL A   1      38.952  30.222  30.953  1.00  0.00     0.020 A 
ATOM     76  C   UNL A   1      37.954  30.422  29.997  1.00  0.00     0.054 A 
BRANCH  76  77
ATOM     77  S   UNL A   1      36.274  30.876  30.508  1.00  0.00     0.124 S 
ATOM     78  O   UNL A   1      35.902  29.756  31.366  1.00  0.00    -0.237 OA
ATOM     79  O   UNL A   1      36.487  32.153  31.187  1.00  0.00    -0.237 OA
ATOM     80  O   UNL A   1      35.545  30.967  29.244  1.00  0.00    -0.744 OA
ENDBRANCH  76  77
ENDBRANCH  48  71
BRANCH  60  81
ATOM     81  C   UNL A   1      46.704  32.826  28.550  1.00  0.00    -0.014 A 
ATOM     82  C   UNL A   1      46.627  33.773  27.514  1.00  0.00     0.010 A 
ATOM     83  C   UNL A   1      47.147  33.236  29.821  1.00  0.00     0.010 A 
ATOM     84  C   UNL A   1      47.017  35.096  27.737  1.00  0.00     0.020 A 
ATOM     85  C   UNL A   1      47.507  34.565  30.057  1.00  0.00     0.020 A 
ATOM     86  C   UNL A   1      47.452  35.484  29.009  1.00  0.00     0.054 A 
BRANCH  86  87
ATOM     87  S   UNL A   1      47.908  37.218  29.283  1.00  0.00     0.124 S 
ATOM     88  O   UNL A   1      46.633  37.902  29.084  1.00  0.00    -0.237 OA
ATOM     89  O   UNL A   1      48.407  37.204  30.656  1.00  0.00    -0.237 OA
ATOM     90  O   UNL A   1      48.919  37.476  28.260  1.00  0.00    -0.744 OA
ENDBRANCH  86  87
ENDBRANCH  60  81
ENDBRANCH  34  35
ENDBRANCH  26  29
ENDBRANCH  24  25
ENDBRANCH  23  24
ENDBRANCH  22  23
ENDBRANCH   1  22
TORSDOF 19
ENDMDL
MODEL 3
REMARK VINA RESULT:     -10.2      5.645     10.848
REMARK SMILES Cc1cccc(C(=O)[C@H](C)[C@@H](C)C(=O)NCCCCCCNC(=O)c2ccc(-c3c4nc(c(-c5ccc(S(=O)(=O)[O-])cc5)c5ccc([nH]5)c(-c5ccc(S(=O)(=O)[O-])cc5)c5nc(c(-c6ccc(S(=O)(=O)[O-])cc6)c6ccc3[nH]6)C=C5)C=C4)cc2)c1C
REMARK SMILES IDX 18 1 17 2 16 3 15 4 13 5 14 6 11 8 12 9 9 10 10 11 7 12 8 13
REMARK SMILES IDX 6 14 1 15 2 16 3 17 85 18 4 19 86 20 5 21 19 22 20 23 21 24
REMARK SMILES IDX 22 25 23 26 24 28 25 29 26 30 84 31 27 32 83 33 28 34 29 35
REMARK SMILES IDX 30 36 77 37 31 38 82 39 76 40 78 41 32 42 81 43 75 44 74 45
REMARK SMILES IDX 33 47 63 48 44 49 62 50 45 51 48 52 61 53 79 54 46 55 47 56
REMARK SMILES IDX 60 58 80 59 49 60 34 61 35 62 43 63 36 64 42 65 37 66 38 67
REMARK SMILES IDX 39 68 40 69 41 70 64 71 65 72 73 73 66 74 72 75 67 76 68 77
REMARK SMILES IDX 69 78 70 79 71 80 50 81 51 82 59 83 52 84 58 85 53 86 54 87
REMARK SMILES IDX 55 88 56 89 57 90
REMARK H PARENT 15 7 22 27 78 46 48 57
REMARK Flexibility Score: inf
ROOT
ATOM      1  C   UNL A   1      39.066  23.905  26.127  1.00  0.00     0.002 C 
ENDROOT
BRANCH   1   2
ATOM      2  C   UNL A   1      37.586  24.078  26.485  1.00  0.00     0.021 C 
BRANCH   2   3
ATOM      3  C   UNL A   1      36.629  23.154  25.726  1.00  0.00     0.116 C 
BRANCH   3   4
ATOM      4  N   UNL A   1      35.702  22.435  26.589  1.00  0.00    -0.356 N 
ATOM      5  C   UNL A   1      34.347  22.341  26.622  1.00  0.00     0.223 C 
ATOM      6  O   UNL A   1      33.859  21.604  27.482  1.00  0.00    -0.275 OA
ATOM      7  H   UNL A   1      36.149  21.909  27.291  1.00  0.00     0.163 HD
BRANCH   5   8
ATOM      8  C   UNL A   1      33.442  23.111  25.670  1.00  0.00     0.086 C 
ATOM      9  C   UNL A   1      33.596  22.568  24.244  1.00  0.00     0.019 C 
BRANCH   8  10
ATOM     10  C   UNL A   1      33.566  24.643  25.855  1.00  0.00     0.070 C 
ATOM     11  C   UNL A   1      34.092  25.337  24.590  1.00  0.00     0.017 C 
BRANCH  10  12
ATOM     12  C   UNL A   1      32.172  25.244  26.195  1.00  0.00     0.166 C 
ATOM     13  O   UNL A   1      31.423  24.624  26.953  1.00  0.00    -0.294 OA
BRANCH  12  14
ATOM     14  C   UNL A   1      31.719  26.575  25.603  1.00  0.00     0.021 A 
ATOM     15  C   UNL A   1      29.687  28.216  22.759  1.00  0.00     0.044 C 
ATOM     16  C   UNL A   1      30.566  27.997  23.963  1.00  0.00    -0.047 A 
ATOM     17  C   UNL A   1      31.028  29.142  24.626  1.00  0.00     0.004 A 
ATOM     18  C   UNL A   1      30.919  26.698  24.438  1.00  0.00    -0.037 A 
ATOM     19  C   UNL A   1      31.790  29.022  25.769  1.00  0.00     0.001 A 
ATOM     20  C   UNL A   1      30.427  25.472  23.711  1.00  0.00     0.045 C 
ATOM     21  C   UNL A   1      32.102  27.753  26.245  1.00  0.00     0.012 A 
ENDBRANCH  12  14
ENDBRANCH  10  12
ENDBRANCH   8  10
ENDBRANCH   5   8
ENDBRANCH   3   4
ENDBRANCH   2   3
ENDBRANCH   1   2
BRANCH   1  22
ATOM     22  C   UNL A   1      39.778  22.867  26.992  1.00  0.00     0.002 C 
BRANCH  22  23
ATOM     23  C   UNL A   1      39.765  21.454  26.404  1.00  0.00     0.021 C 
BRANCH  23  24
ATOM     24  C   UNL A   1      40.426  20.402  27.289  1.00  0.00     0.116 C 
BRANCH  24  25
ATOM     25  N   UNL A   1      41.302  19.536  26.520  1.00  0.00    -0.352 N 
ATOM     26  C   UNL A   1      42.422  19.898  25.811  1.00  0.00     0.251 C 
ATOM     27  H   UNL A   1      41.065  18.580  26.503  1.00  0.00     0.163 HD
ATOM     28  O   UNL A   1      42.928  19.136  25.000  1.00  0.00    -0.269 OA
BRANCH  26  29
ATOM     29  C   UNL A   1      42.988  21.242  26.047  1.00  0.00     0.039 A 
ATOM     30  C   UNL A   1      43.061  22.147  24.988  1.00  0.00     0.014 A 
ATOM     31  C   UNL A   1      43.390  21.613  27.334  1.00  0.00     0.014 A 
ATOM     32  C   UNL A   1      43.506  23.447  25.231  1.00  0.00     0.010 A 
ATOM     33  C   UNL A   1      43.762  22.929  27.587  1.00  0.00     0.010 A 
ATOM     34  C   UNL A   1      43.835  23.856  26.535  1.00  0.00    -0.014 A 
BRANCH  34  35
ATOM     35  C   UNL A   1      44.270  25.247  26.815  1.00  0.00     0.031 A 
ATOM     36  C   UNL A   1      45.710  25.639  26.620  1.00  0.00     0.074 A 
ATOM     37  C   UNL A   1      43.381  26.143  27.290  1.00  0.00     0.049 A 
ATOM     38  N   UNL A   1      46.285  26.794  26.840  1.00  0.00    -0.248 NA
ATOM     39  C   UNL A   1      46.626  24.591  26.143  1.00  0.00     0.031 C 
ATOM     40  C   UNL A   1      41.967  25.872  27.559  1.00  0.00     0.029 A 
ATOM     41  N   UNL A   1      43.538  27.462  27.631  1.00  0.00    -0.354 N 
ATOM     42  C   UNL A   1      47.629  26.608  26.536  1.00  0.00     0.074 A 
ATOM     43  C   UNL A   1      47.793  25.216  26.180  1.00  0.00     0.031 C 
ATOM     44  C   UNL A   1      41.380  26.998  27.995  1.00  0.00     0.029 A 
ATOM     45  C   UNL A   1      42.381  28.057  28.078  1.00  0.00     0.049 A 
ATOM     46  H   UNL A   1      44.396  27.939  27.563  1.00  0.00     0.167 HD
ATOM     47  C   UNL A   1      48.632  27.518  26.532  1.00  0.00     0.031 A 
ATOM     48  C   UNL A   1      42.152  29.311  28.514  1.00  0.00     0.031 A 
ATOM     49  C   UNL A   1      48.464  28.901  26.892  1.00  0.00     0.049 A 
ATOM     50  C   UNL A   1      43.285  30.301  28.524  1.00  0.00     0.074 A 
ATOM     51  C   UNL A   1      49.405  29.915  26.877  1.00  0.00     0.029 A 
ATOM     52  N   UNL A   1      47.277  29.463  27.339  1.00  0.00    -0.354 N 
ATOM     53  N   UNL A   1      44.535  30.124  28.167  1.00  0.00    -0.248 NA
ATOM     54  C   UNL A   1      42.973  31.662  28.980  1.00  0.00     0.031 C 
ATOM     55  C   UNL A   1      48.804  31.075  27.375  1.00  0.00     0.029 A 
ATOM     56  C   UNL A   1      47.469  30.804  27.631  1.00  0.00     0.049 A 
ATOM     57  H   UNL A   1      46.424  28.981  27.435  1.00  0.00     0.167 HD
ATOM     58  C   UNL A   1      45.154  31.359  28.332  1.00  0.00     0.074 A 
ATOM     59  C   UNL A   1      44.136  32.276  28.803  1.00  0.00     0.031 C 
ATOM     60  C   UNL A   1      46.447  31.703  28.109  1.00  0.00     0.031 A 
BRANCH  47  61
ATOM     61  C   UNL A   1      50.005  27.035  26.139  1.00  0.00    -0.014 A 
ATOM     62  C   UNL A   1      50.432  27.061  24.797  1.00  0.00     0.010 A 
ATOM     63  C   UNL A   1      50.891  26.566  27.125  1.00  0.00     0.010 A 
ATOM     64  C   UNL A   1      51.694  26.577  24.444  1.00  0.00     0.020 A 
ATOM     65  C   UNL A   1      52.168  26.113  26.780  1.00  0.00     0.020 A 
ATOM     66  C   UNL A   1      52.553  26.101  25.438  1.00  0.00     0.054 A 
BRANCH  66  67
ATOM     67  S   UNL A   1      54.186  25.482  24.950  1.00  0.00     0.124 S 
ATOM     68  O   UNL A   1      54.967  25.705  26.166  1.00  0.00    -0.237 OA
ATOM     69  O   UNL A   1      53.914  24.084  24.627  1.00  0.00    -0.237 OA
ATOM     70  O   UNL A   1      54.552  26.323  23.814  1.00  0.00    -0.744 OA
ENDBRANCH  66  67
ENDBRANCH  47  61
BRANCH  48  71
ATOM     71  C   UNL A   1      40.786  29.698  28.962  1.00  0.00    -0.014 A 
ATOM     72  C   UNL A   1      39.715  29.736  28.053  1.00  0.00     0.010 A 
ATOM     73  C   UNL A   1      40.545  30.004  30.315  1.00  0.00     0.010 A 
ATOM     74  C   UNL A   1      38.430  30.078  28.486  1.00  0.00     0.020 A 
ATOM     75  C   UNL A   1      39.256  30.317  30.758  1.00  0.00     0.020 A 
ATOM     76  C   UNL A   1      38.208  30.359  29.837  1.00  0.00     0.054 A 
BRANCH  76  77
ATOM     77  S   UNL A   1      36.520  30.733  30.387  1.00  0.00     0.124 S 
ATOM     78  O   UNL A   1      36.662  32.088  30.908  1.00  0.00    -0.237 OA
ATOM     79  O   UNL A   1      35.752  30.605  29.150  1.00  0.00    -0.237 OA
ATOM     80  O   UNL A   1      36.251  29.703  31.388  1.00  0.00    -0.744 OA
ENDBRANCH  76  77
ENDBRANCH  48  71
BRANCH  60  81
ATOM     81  C   UNL A   1      46.833  33.141  28.341  1.00  0.00    -0.014 A 
ATOM     82  C   UNL A   1      47.400  33.561  29.556  1.00  0.00     0.010 A 
ATOM     83  C   UNL A   1      46.678  34.075  27.299  1.00  0.00     0.010 A 
ATOM     84  C   UNL A   1      47.776  34.895  29.737  1.00  0.00     0.020 A 
ATOM     85  C   UNL A   1      47.082  35.402  27.464  1.00  0.00     0.020 A 
ATOM     86  C   UNL A   1      47.616  35.806  28.688  1.00  0.00     0.054 A 
BRANCH  86  87
ATOM     87  S   UNL A   1      48.154  37.521  28.934  1.00  0.00     0.124 S 
ATOM     88  O   UNL A   1      48.695  37.861  27.621  1.00  0.00    -0.237 OA
ATOM     89  O   UNL A   1      46.911  38.197  29.296  1.00  0.00    -0.237 OA
ATOM     90  O   UNL A   1      49.141  37.424  30.007  1.00  0.00    -0.744 OA
ENDBRANCH  86  87
ENDBRANCH  60  81
ENDBRANCH  34  35
ENDBRANCH  26  29
ENDBRANCH  24  25
ENDBRANCH  23  24
ENDBRANCH  22  23
ENDBRANCH   1  22
TORSDOF 19
ENDMDL
