MODEL 1
REMARK VINA RESULT:      -8.4      0.000      0.000
REMARK SMILES CO[C@H]1C[C@H](C(=O)NCCCCCCNC(=O)c2ccc(-c3c4nc(c(-c5ccc(S(=O)(=O)[O-])cc5)c5ccc([nH]5)c(-c5ccc(S(=O)(=O)[O-])cc5)c5nc(c(-c6ccc(S(=O)(=O)[O-])cc6)c6ccc3[nH]6)C=C5)C=C4)cc2)N(C(=O)CCSCC(N)=O)C1
REMARK SMILES IDX 10 1 9 2 8 3 6 4 7 5 5 7 3 8 4 9 88 10 78 11 2 12 1 13 79 14
REMARK SMILES IDX 80 15 81 16 82 17 83 18 84 19 85 20 86 21 87 22 11 25 12 26
REMARK SMILES IDX 13 27 14 28 15 29 16 30 17 32 18 33 19 34 77 35 20 36 76 37
REMARK SMILES IDX 21 38 22 39 23 40 70 41 24 42 75 43 69 44 71 45 25 46 74 47
REMARK SMILES IDX 68 48 67 49 26 51 56 52 37 53 55 54 38 55 41 56 54 57 72 58
REMARK SMILES IDX 39 59 40 60 53 62 73 63 42 64 27 65 28 66 36 67 29 68 35 69
REMARK SMILES IDX 30 70 31 71 32 72 33 73 34 74 57 75 58 76 66 77 59 78 65 79
REMARK SMILES IDX 60 80 61 81 62 82 63 83 64 84 43 85 44 86 52 87 45 88 51 89
REMARK SMILES IDX 46 90 47 91 48 92 49 93 50 94
REMARK H PARENT 8 6 86 23 86 24 15 31 71 50 41 61
REMARK Flexibility Score: inf
ROOT
ATOM      1  C   UNL A   1      45.681  24.560  29.208  1.00  0.00     0.021 C 
ENDROOT
BRANCH   1   2
ATOM      2  C   UNL A   1      46.693  25.424  29.971  1.00  0.00     0.116 C 
BRANCH   2   3
ATOM      3  N   UNL A   1      47.116  26.583  29.204  1.00  0.00    -0.354 N 
ATOM      4  C   UNL A   1      46.789  27.094  27.989  1.00  0.00     0.242 C 
ATOM      5  O   UNL A   1      47.393  28.127  27.664  1.00  0.00    -0.273 OA
ATOM      6  H   UNL A   1      47.796  27.121  29.671  1.00  0.00     0.163 HD
BRANCH   4   7
ATOM      7  C   UNL A   1      45.899  26.403  26.922  1.00  0.00     0.177 C 
ATOM      8  C   UNL A   1      44.702  27.956  25.527  1.00  0.00     0.139 C 
ATOM      9  C   UNL A   1      44.552  27.109  26.786  1.00  0.00     0.069 C 
ATOM     10  C   UNL A   1      45.585  27.083  24.633  1.00  0.00     0.152 C 
ATOM     11  N   UNL A   1      46.375  26.263  25.547  1.00  0.00    -0.328 N 
BRANCH   8  12
ATOM     12  O   UNL A   1      43.444  28.244  24.932  1.00  0.00    -0.380 OA
ATOM     13  C   UNL A   1      42.467  27.260  25.260  1.00  0.00     0.195 C 
ENDBRANCH   8  12
BRANCH  11  14
ATOM     14  C   UNL A   1      47.231  25.302  25.046  1.00  0.00     0.224 C 
ATOM     15  O   UNL A   1      48.336  25.609  24.593  1.00  0.00    -0.275 OA
BRANCH  14  16
ATOM     16  C   UNL A   1      46.800  23.845  25.061  1.00  0.00     0.111 C 
BRANCH  16  17
ATOM     17  C   UNL A   1      45.319  23.630  24.767  1.00  0.00     0.080 C 
BRANCH  17  18
ATOM     18  S   UNL A   1      44.904  21.983  24.091  1.00  0.00    -0.152 SA
BRANCH  18  19
ATOM     19  C   UNL A   1      45.516  20.970  25.457  1.00  0.00     0.169 C 
BRANCH  19  20
ATOM     20  C   UNL A   1      46.292  19.738  25.044  1.00  0.00     0.227 C 
ATOM     21  N   UNL A   1      46.560  19.709  23.698  1.00  0.00    -0.369 N 
ATOM     22  O   UNL A   1      46.729  18.867  25.784  1.00  0.00    -0.274 OA
ATOM     23  H   UNL A   1      46.204  20.415  23.110  1.00  0.00     0.159 HD
ATOM     24  H   UNL A   1      47.108  18.984  23.320  1.00  0.00     0.159 HD
ENDBRANCH  19  20
ENDBRANCH  18  19
ENDBRANCH  17  18
ENDBRANCH  16  17
ENDBRANCH  14  16
ENDBRANCH  11  14
ENDBRANCH   4   7
ENDBRANCH   2   3
ENDBRANCH   1   2
BRANCH   1  25
ATOM     25  C   UNL A   1      44.324  24.433  29.910  1.00  0.00     0.002 C 
BRANCH  25  26
ATOM     26  C   UNL A   1      43.594  23.103  29.678  1.00  0.00     0.002 C 
BRANCH  26  27
ATOM     27  C   UNL A   1      42.358  23.168  28.773  1.00  0.00     0.021 C 
BRANCH  27  28
ATOM     28  C   UNL A   1      42.534  23.962  27.480  1.00  0.00     0.116 C 
BRANCH  28  29
ATOM     29  N   UNL A   1      41.332  23.963  26.662  1.00  0.00    -0.352 N 
ATOM     30  C   UNL A   1      40.171  24.683  26.817  1.00  0.00     0.251 C 
ATOM     31  H   UNL A   1      41.352  23.362  25.884  1.00  0.00     0.163 HD
ATOM     32  O   UNL A   1      39.192  24.422  26.125  1.00  0.00    -0.269 OA
BRANCH  30  33
ATOM     33  C   UNL A   1      40.097  25.758  27.829  1.00  0.00     0.039 A 
ATOM     34  C   UNL A   1      39.188  25.634  28.883  1.00  0.00     0.014 A 
ATOM     35  C   UNL A   1      40.910  26.891  27.733  1.00  0.00     0.014 A 
ATOM     36  C   UNL A   1      39.134  26.618  29.873  1.00  0.00     0.010 A 
ATOM     37  C   UNL A   1      40.901  27.840  28.753  1.00  0.00     0.010 A 
ATOM     38  C   UNL A   1      40.012  27.714  29.831  1.00  0.00    -0.014 A 
BRANCH  38  39
ATOM     39  C   UNL A   1      40.009  28.743  30.904  1.00  0.00     0.031 A 
ATOM     40  C   UNL A   1      40.912  28.590  32.099  1.00  0.00     0.074 A 
ATOM     41  C   UNL A   1      39.155  29.784  30.828  1.00  0.00     0.049 A 
ATOM     42  N   UNL A   1      40.996  29.338  33.169  1.00  0.00    -0.248 NA
ATOM     43  C   UNL A   1      41.823  27.433  32.101  1.00  0.00     0.031 C 
ATOM     44  C   UNL A   1      38.205  30.023  29.739  1.00  0.00     0.029 A 
ATOM     45  N   UNL A   1      38.942  30.830  31.690  1.00  0.00    -0.354 N 
ATOM     46  C   UNL A   1      41.963  28.744  33.970  1.00  0.00     0.074 A 
ATOM     47  C   UNL A   1      42.395  27.541  33.291  1.00  0.00     0.031 C 
ATOM     48  C   UNL A   1      37.521  31.152  29.991  1.00  0.00     0.029 A 
ATOM     49  C   UNL A   1      37.957  31.696  31.274  1.00  0.00     0.049 A 
ATOM     50  H   UNL A   1      39.446  30.951  32.526  1.00  0.00     0.167 HD
ATOM     51  C   UNL A   1      42.467  29.172  35.153  1.00  0.00     0.031 A 
ATOM     52  C   UNL A   1      37.452  32.797  31.864  1.00  0.00     0.031 A 
ATOM     53  C   UNL A   1      42.039  30.371  35.825  1.00  0.00     0.049 A 
ATOM     54  C   UNL A   1      38.015  33.242  33.187  1.00  0.00     0.074 A 
ATOM     55  C   UNL A   1      42.504  30.903  37.016  1.00  0.00     0.029 A 
ATOM     56  N   UNL A   1      41.055  31.230  35.359  1.00  0.00    -0.354 N 
ATOM     57  N   UNL A   1      38.960  32.687  33.908  1.00  0.00    -0.248 NA
ATOM     58  C   UNL A   1      37.453  34.468  33.770  1.00  0.00     0.031 C 
ATOM     59  C   UNL A   1      41.771  32.062  37.291  1.00  0.00     0.029 A 
ATOM     60  C   UNL A   1      40.891  32.282  36.244  1.00  0.00     0.049 A 
ATOM     61  H   UNL A   1      40.548  31.109  34.524  1.00  0.00     0.167 HD
ATOM     62  C   UNL A   1      39.125  33.513  35.015  1.00  0.00     0.074 A 
ATOM     63  C   UNL A   1      38.195  34.612  34.858  1.00  0.00     0.031 C 
ATOM     64  C   UNL A   1      39.968  33.373  36.067  1.00  0.00     0.031 A 
BRANCH  51  65
ATOM     65  C   UNL A   1      43.552  28.344  35.789  1.00  0.00    -0.014 A 
ATOM     66  C   UNL A   1      43.231  27.297  36.672  1.00  0.00     0.010 A 
ATOM     67  C   UNL A   1      44.900  28.575  35.463  1.00  0.00     0.010 A 
ATOM     68  C   UNL A   1      44.239  26.519  37.244  1.00  0.00     0.020 A 
ATOM     69  C   UNL A   1      45.910  27.780  36.012  1.00  0.00     0.020 A 
ATOM     70  C   UNL A   1      45.574  26.765  36.911  1.00  0.00     0.054 A 
BRANCH  70  71
ATOM     71  S   UNL A   1      46.858  25.713  37.641  1.00  0.00     0.124 S 
ATOM     72  O   UNL A   1      46.559  25.819  39.066  1.00  0.00    -0.237 OA
ATOM     73  O   UNL A   1      46.586  24.411  37.037  1.00  0.00    -0.237 OA
ATOM     74  O   UNL A   1      48.106  26.344  37.219  1.00  0.00    -0.744 OA
ENDBRANCH  70  71
ENDBRANCH  51  65
BRANCH  52  75
ATOM     75  C   UNL A   1      36.346  33.556  31.215  1.00  0.00    -0.014 A 
ATOM     76  C   UNL A   1      36.434  33.942  29.865  1.00  0.00     0.010 A 
ATOM     77  C   UNL A   1      35.206  33.916  31.956  1.00  0.00     0.010 A 
ATOM     78  C   UNL A   1      35.418  34.704  29.280  1.00  0.00     0.020 A 
ATOM     79  C   UNL A   1      34.175  34.652  31.365  1.00  0.00     0.020 A 
ATOM     80  C   UNL A   1      34.297  35.058  30.035  1.00  0.00     0.054 A 
BRANCH  80  81
ATOM     81  S   UNL A   1      32.981  36.033  29.253  1.00  0.00     0.124 S 
ATOM     82  O   UNL A   1      32.334  35.038  28.405  1.00  0.00    -0.237 OA
ATOM     83  O   UNL A   1      32.202  36.491  30.400  1.00  0.00    -0.237 OA
ATOM     84  O   UNL A   1      33.710  37.082  28.546  1.00  0.00    -0.744 OA
ENDBRANCH  80  81
ENDBRANCH  52  75
BRANCH  64  85
ATOM     85  C   UNL A   1      39.955  34.456  37.112  1.00  0.00    -0.014 A 
ATOM     86  C   UNL A   1      40.738  35.615  36.973  1.00  0.00     0.010 A 
ATOM     87  C   UNL A   1      39.104  34.331  38.227  1.00  0.00     0.010 A 
ATOM     88  C   UNL A   1      40.693  36.618  37.945  1.00  0.00     0.020 A 
ATOM     89  C   UNL A   1      39.037  35.344  39.187  1.00  0.00     0.020 A 
ATOM     90  C   UNL A   1      39.843  36.476  39.046  1.00  0.00     0.054 A 
BRANCH  90  91
ATOM     91  S   UNL A   1      39.771  37.810  40.271  1.00  0.00     0.124 S 
ATOM     92  O   UNL A   1      38.397  38.280  40.129  1.00  0.00    -0.237 OA
ATOM     93  O   UNL A   1      40.072  37.115  41.521  1.00  0.00    -0.237 OA
ATOM     94  O   UNL A   1      40.800  38.747  39.824  1.00  0.00    -0.744 OA
ENDBRANCH  90  91
ENDBRANCH  64  85
ENDBRANCH  38  39
ENDBRANCH  30  33
ENDBRANCH  28  29
ENDBRANCH  27  28
ENDBRANCH  26  27
ENDBRANCH  25  26
ENDBRANCH   1  25
TORSDOF 23
ENDMDL
MODEL 2
REMARK VINA RESULT:      -8.4      6.891     11.717
REMARK SMILES CO[C@H]1C[C@H](C(=O)NCCCCCCNC(=O)c2ccc(-c3c4nc(c(-c5ccc(S(=O)(=O)[O-])cc5)c5ccc([nH]5)c(-c5ccc(S(=O)(=O)[O-])cc5)c5nc(c(-c6ccc(S(=O)(=O)[O-])cc6)c6ccc3[nH]6)C=C5)C=C4)cc2)N(C(=O)CCSCC(N)=O)C1
REMARK SMILES IDX 10 1 9 2 8 3 6 4 7 5 5 7 3 8 4 9 88 10 78 11 2 12 1 13 79 14
REMARK SMILES IDX 80 15 81 16 82 17 83 18 84 19 85 20 86 21 87 22 11 25 12 26
REMARK SMILES IDX 13 27 14 28 15 29 16 30 17 32 18 33 19 34 77 35 20 36 76 37
REMARK SMILES IDX 21 38 22 39 23 40 70 41 24 42 75 43 69 44 71 45 25 46 74 47
REMARK SMILES IDX 68 48 67 49 26 51 56 52 37 53 55 54 38 55 41 56 54 57 72 58
REMARK SMILES IDX 39 59 40 60 53 62 73 63 42 64 27 65 28 66 36 67 29 68 35 69
REMARK SMILES IDX 30 70 31 71 32 72 33 73 34 74 57 75 58 76 66 77 59 78 65 79
REMARK SMILES IDX 60 80 61 81 62 82 63 83 64 84 43 85 44 86 52 87 45 88 51 89
REMARK SMILES IDX 46 90 47 91 48 92 49 93 50 94
REMARK H PARENT 8 6 86 23 86 24 15 31 71 50 41 61
REMARK Flexibility Score: inf
ROOT
ATOM      1  C   UNL A   1      33.540  31.543  27.649  1.00  0.00     0.021 C 
ENDROOT
BRANCH   1   2
ATOM      2  C   UNL A   1      32.697  30.431  27.012  1.00  0.00     0.116 C 
BRANCH   2   3
ATOM      3  N   UNL A   1      33.357  29.830  25.866  1.00  0.00    -0.354 N 
ATOM      4  C   UNL A   1      32.941  29.091  24.804  1.00  0.00     0.242 C 
ATOM      5  O   UNL A   1      33.832  28.741  24.016  1.00  0.00    -0.273 OA
ATOM      6  H   UNL A   1      34.328  29.995  25.856  1.00  0.00     0.163 HD
BRANCH   4   7
ATOM      7  C   UNL A   1      31.520  28.498  24.611  1.00  0.00     0.177 C 
ATOM      8  C   UNL A   1      30.657  28.794  22.384  1.00  0.00     0.139 C 
ATOM      9  C   UNL A   1      30.645  29.425  23.772  1.00  0.00     0.069 C 
ATOM     10  C   UNL A   1      30.698  27.295  22.693  1.00  0.00     0.152 C 
ATOM     11  N   UNL A   1      31.351  27.184  23.995  1.00  0.00    -0.328 N 
BRANCH   8  12
ATOM     12  O   UNL A   1      29.513  29.161  21.627  1.00  0.00    -0.380 OA
ATOM     13  C   UNL A   1      29.141  30.517  21.855  1.00  0.00     0.195 C 
ENDBRANCH   8  12
BRANCH  11  14
ATOM     14  C   UNL A   1      31.477  25.948  24.597  1.00  0.00     0.224 C 
ATOM     15  O   UNL A   1      30.653  25.557  25.427  1.00  0.00    -0.275 OA
BRANCH  14  16
ATOM     16  C   UNL A   1      32.651  25.058  24.224  1.00  0.00     0.111 C 
BRANCH  16  17
ATOM     17  C   UNL A   1      32.720  23.756  25.016  1.00  0.00     0.080 C 
BRANCH  17  18
ATOM     18  S   UNL A   1      33.741  22.447  24.248  1.00  0.00    -0.152 SA
BRANCH  18  19
ATOM     19  C   UNL A   1      33.821  21.311  25.651  1.00  0.00     0.169 C 
BRANCH  19  20
ATOM     20  C   UNL A   1      33.403  19.889  25.349  1.00  0.00     0.227 C 
ATOM     21  N   UNL A   1      32.903  19.239  26.451  1.00  0.00    -0.369 N 
ATOM     22  O   UNL A   1      33.410  19.341  24.255  1.00  0.00    -0.274 OA
ATOM     23  H   UNL A   1      32.902  19.689  27.328  1.00  0.00     0.159 HD
ATOM     24  H   UNL A   1      32.546  18.326  26.365  1.00  0.00     0.159 HD
ENDBRANCH  19  20
ENDBRANCH  18  19
ENDBRANCH  17  18
ENDBRANCH  16  17
ENDBRANCH  14  16
ENDBRANCH  11  14
ENDBRANCH   4   7
ENDBRANCH   2   3
ENDBRANCH   1   2
BRANCH   1  25
ATOM     25  C   UNL A   1      35.044  31.244  27.670  1.00  0.00     0.002 C 
BRANCH  25  26
ATOM     26  C   UNL A   1      35.947  32.466  27.885  1.00  0.00     0.002 C 
BRANCH  26  27
ATOM     27  C   UNL A   1      37.079  32.290  28.904  1.00  0.00     0.021 C 
BRANCH  27  28
ATOM     28  C   UNL A   1      37.137  33.346  30.006  1.00  0.00     0.116 C 
BRANCH  28  29
ATOM     29  N   UNL A   1      35.815  33.784  30.425  1.00  0.00    -0.352 N 
ATOM     30  C   UNL A   1      35.262  33.810  31.683  1.00  0.00     0.251 C 
ATOM     31  H   UNL A   1      35.231  34.109  29.703  1.00  0.00     0.163 HD
ATOM     32  O   UNL A   1      34.066  34.049  31.821  1.00  0.00    -0.269 OA
BRANCH  30  33
ATOM     33  C   UNL A   1      36.104  33.533  32.867  1.00  0.00     0.039 A 
ATOM     34  C   UNL A   1      36.294  32.208  33.267  1.00  0.00     0.014 A 
ATOM     35  C   UNL A   1      36.692  34.576  33.589  1.00  0.00     0.014 A 
ATOM     36  C   UNL A   1      37.121  31.924  34.356  1.00  0.00     0.010 A 
ATOM     37  C   UNL A   1      37.566  34.289  34.635  1.00  0.00     0.010 A 
ATOM     38  C   UNL A   1      37.788  32.961  35.030  1.00  0.00    -0.014 A 
BRANCH  38  39
ATOM     39  C   UNL A   1      38.715  32.676  36.155  1.00  0.00     0.031 A 
ATOM     40  C   UNL A   1      38.202  32.657  37.570  1.00  0.00     0.074 A 
ATOM     41  C   UNL A   1      40.028  32.488  35.908  1.00  0.00     0.049 A 
ATOM     42  N   UNL A   1      38.867  32.505  38.686  1.00  0.00    -0.248 NA
ATOM     43  C   UNL A   1      36.754  32.858  37.756  1.00  0.00     0.031 C 
ATOM     44  C   UNL A   1      40.654  32.518  34.584  1.00  0.00     0.029 A 
ATOM     45  N   UNL A   1      41.073  32.244  36.763  1.00  0.00    -0.354 N 
ATOM     46  C   UNL A   1      37.924  32.594  39.703  1.00  0.00     0.074 A 
ATOM     47  C   UNL A   1      36.650  32.872  39.076  1.00  0.00     0.031 C 
ATOM     48  C   UNL A   1      41.971  32.287  34.714  1.00  0.00     0.029 A 
ATOM     49  C   UNL A   1      42.289  32.129  36.131  1.00  0.00     0.049 A 
ATOM     50  H   UNL A   1      40.964  32.159  37.738  1.00  0.00     0.167 HD
ATOM     51  C   UNL A   1      38.096  32.432  41.038  1.00  0.00     0.031 A 
ATOM     52  C   UNL A   1      43.523  31.931  36.633  1.00  0.00     0.031 A 
ATOM     53  C   UNL A   1      39.363  32.150  41.659  1.00  0.00     0.049 A 
ATOM     54  C   UNL A   1      43.690  31.774  38.121  1.00  0.00     0.074 A 
ATOM     55  C   UNL A   1      39.637  31.947  43.001  1.00  0.00     0.029 A 
ATOM     56  N   UNL A   1      40.565  32.020  40.980  1.00  0.00    -0.354 N 
ATOM     57  N   UNL A   1      42.778  31.821  39.062  1.00  0.00    -0.248 NA
ATOM     58  C   UNL A   1      45.053  31.525  38.614  1.00  0.00     0.031 C 
ATOM     59  C   UNL A   1      41.013  31.735  43.138  1.00  0.00     0.029 A 
ATOM     60  C   UNL A   1      41.585  31.750  41.876  1.00  0.00     0.049 A 
ATOM     61  H   UNL A   1      40.676  32.108  40.006  1.00  0.00     0.167 HD
ATOM     62  C   UNL A   1      43.452  31.578  40.254  1.00  0.00     0.074 A 
ATOM     63  C   UNL A   1      44.843  31.368  39.913  1.00  0.00     0.031 C 
ATOM     64  C   UNL A   1      42.963  31.534  41.518  1.00  0.00     0.031 A 
BRANCH  51  65
ATOM     65  C   UNL A   1      36.877  32.541  41.916  1.00  0.00    -0.014 A 
ATOM     66  C   UNL A   1      36.597  33.733  42.610  1.00  0.00     0.010 A 
ATOM     67  C   UNL A   1      35.973  31.468  42.007  1.00  0.00     0.010 A 
ATOM     68  C   UNL A   1      35.456  33.837  43.407  1.00  0.00     0.020 A 
ATOM     69  C   UNL A   1      34.815  31.578  42.782  1.00  0.00     0.020 A 
ATOM     70  C   UNL A   1      34.571  32.758  43.488  1.00  0.00     0.054 A 
BRANCH  70  71
ATOM     71  S   UNL A   1      33.077  32.937  44.501  1.00  0.00     0.124 S 
ATOM     72  O   UNL A   1      33.383  34.135  45.279  1.00  0.00    -0.237 OA
ATOM     73  O   UNL A   1      32.027  33.090  43.498  1.00  0.00    -0.237 OA
ATOM     74  O   UNL A   1      33.026  31.695  45.268  1.00  0.00    -0.744 OA
ENDBRANCH  70  71
ENDBRANCH  51  65
BRANCH  52  75
ATOM     75  C   UNL A   1      44.704  31.876  35.726  1.00  0.00    -0.014 A 
ATOM     76  C   UNL A   1      45.423  33.042  35.409  1.00  0.00     0.010 A 
ATOM     77  C   UNL A   1      45.101  30.652  35.157  1.00  0.00     0.010 A 
ATOM     78  C   UNL A   1      46.494  32.992  34.512  1.00  0.00     0.020 A 
ATOM     79  C   UNL A   1      46.191  30.593  34.283  1.00  0.00     0.020 A 
ATOM     80  C   UNL A   1      46.868  31.768  33.951  1.00  0.00     0.054 A 
BRANCH  80  81
ATOM     81  S   UNL A   1      48.272  31.719  32.802  1.00  0.00     0.124 S 
ATOM     82  O   UNL A   1      47.619  31.376  31.544  1.00  0.00    -0.237 OA
ATOM     83  O   UNL A   1      48.802  33.076  32.893  1.00  0.00    -0.237 OA
ATOM     84  O   UNL A   1      49.135  30.683  33.364  1.00  0.00    -0.744 OA
ENDBRANCH  80  81
ENDBRANCH  52  75
BRANCH  64  85
ATOM     85  C   UNL A   1      43.931  31.209  42.623  1.00  0.00    -0.014 A 
ATOM     86  C   UNL A   1      44.616  32.222  43.317  1.00  0.00     0.010 A 
ATOM     87  C   UNL A   1      44.116  29.867  43.007  1.00  0.00     0.010 A 
ATOM     88  C   UNL A   1      45.493  31.897  44.354  1.00  0.00     0.020 A 
ATOM     89  C   UNL A   1      44.972  29.541  44.062  1.00  0.00     0.020 A 
ATOM     90  C   UNL A   1      45.667  30.559  44.720  1.00  0.00     0.054 A 
BRANCH  90  91
ATOM     91  S   UNL A   1      46.777  30.167  46.099  1.00  0.00     0.124 S 
ATOM     92  O   UNL A   1      45.867  30.193  47.239  1.00  0.00    -0.237 OA
ATOM     93  O   UNL A   1      47.290  28.849  45.733  1.00  0.00    -0.237 OA
ATOM     94  O   UNL A   1      47.765  31.244  46.065  1.00  0.00    -0.744 OA
ENDBRANCH  90  91
ENDBRANCH  64  85
ENDBRANCH  38  39
ENDBRANCH  30  33
ENDBRANCH  28  29
ENDBRANCH  27  28
ENDBRANCH  26  27
ENDBRANCH  25  26
ENDBRANCH   1  25
TORSDOF 23
ENDMDL
MODEL 3
REMARK VINA RESULT:      -8.2      1.669      3.037
REMARK SMILES CO[C@H]1C[C@H](C(=O)NCCCCCCNC(=O)c2ccc(-c3c4nc(c(-c5ccc(S(=O)(=O)[O-])cc5)c5ccc([nH]5)c(-c5ccc(S(=O)(=O)[O-])cc5)c5nc(c(-c6ccc(S(=O)(=O)[O-])cc6)c6ccc3[nH]6)C=C5)C=C4)cc2)N(C(=O)CCSCC(N)=O)C1
REMARK SMILES IDX 10 1 9 2 8 3 6 4 7 5 5 7 3 8 4 9 88 10 78 11 2 12 1 13 79 14
REMARK SMILES IDX 80 15 81 16 82 17 83 18 84 19 85 20 86 21 87 22 11 25 12 26
REMARK SMILES IDX 13 27 14 28 15 29 16 30 17 32 18 33 19 34 77 35 20 36 76 37
REMARK SMILES IDX 21 38 22 39 23 40 70 41 24 42 75 43 69 44 71 45 25 46 74 47
REMARK SMILES IDX 68 48 67 49 26 51 56 52 37 53 55 54 38 55 41 56 54 57 72 58
REMARK SMILES IDX 39 59 40 60 53 62 73 63 42 64 27 65 28 66 36 67 29 68 35 69
REMARK SMILES IDX 30 70 31 71 32 72 33 73 34 74 57 75 58 76 66 77 59 78 65 79
REMARK SMILES IDX 60 80 61 81 62 82 63 83 64 84 43 85 44 86 52 87 45 88 51 89
REMARK SMILES IDX 46 90 47 91 48 92 49 93 50 94
REMARK H PARENT 8 6 86 23 86 24 15 31 71 50 41 61
REMARK Flexibility Score: inf
ROOT
ATOM      1  C   UNL A   1      45.151  25.318  29.604  1.00  0.00     0.021 C 
ENDROOT
BRANCH   1   2
ATOM      2  C   UNL A   1      45.822  26.340  30.531  1.00  0.00     0.116 C 
BRANCH   2   3
ATOM      3  N   UNL A   1      47.191  25.976  30.851  1.00  0.00    -0.354 N 
ATOM      4  C   UNL A   1      48.395  26.173  30.255  1.00  0.00     0.242 C 
ATOM      5  O   UNL A   1      49.370  25.686  30.847  1.00  0.00    -0.273 OA
ATOM      6  H   UNL A   1      47.263  25.469  31.692  1.00  0.00     0.163 HD
BRANCH   4   7
ATOM      7  C   UNL A   1      48.622  26.765  28.839  1.00  0.00     0.177 C 
ATOM      8  C   UNL A   1      50.946  27.058  28.288  1.00  0.00     0.139 C 
ATOM      9  C   UNL A   1      49.740  27.804  28.848  1.00  0.00     0.069 C 
ATOM     10  C   UNL A   1      50.316  26.123  27.252  1.00  0.00     0.152 C 
ATOM     11  N   UNL A   1      48.954  25.885  27.720  1.00  0.00    -0.328 N 
BRANCH   8  12
ATOM     12  O   UNL A   1      51.895  27.944  27.712  1.00  0.00    -0.380 OA
ATOM     13  C   UNL A   1      51.308  29.197  27.370  1.00  0.00     0.195 C 
ENDBRANCH   8  12
BRANCH  11  14
ATOM     14  C   UNL A   1      48.086  25.129  26.957  1.00  0.00     0.224 C 
ATOM     15  O   UNL A   1      47.575  24.100  27.406  1.00  0.00    -0.275 OA
BRANCH  14  16
ATOM     16  C   UNL A   1      47.755  25.580  25.544  1.00  0.00     0.111 C 
BRANCH  16  17
ATOM     17  C   UNL A   1      46.741  26.717  25.475  1.00  0.00     0.080 C 
BRANCH  17  18
ATOM     18  S   UNL A   1      45.013  26.221  25.806  1.00  0.00    -0.152 SA
BRANCH  18  19
ATOM     19  C   UNL A   1      44.474  27.702  26.691  1.00  0.00     0.169 C 
BRANCH  19  20
ATOM     20  C   UNL A   1      43.482  28.569  25.947  1.00  0.00     0.227 C 
ATOM     21  N   UNL A   1      43.049  27.992  24.778  1.00  0.00    -0.369 N 
ATOM     22  O   UNL A   1      43.017  29.636  26.322  1.00  0.00    -0.274 OA
ATOM     23  H   UNL A   1      43.430  27.132  24.484  1.00  0.00     0.159 HD
ATOM     24  H   UNL A   1      42.359  28.436  24.235  1.00  0.00     0.159 HD
ENDBRANCH  19  20
ENDBRANCH  18  19
ENDBRANCH  17  18
ENDBRANCH  16  17
ENDBRANCH  14  16
ENDBRANCH  11  14
ENDBRANCH   4   7
ENDBRANCH   2   3
ENDBRANCH   1   2
BRANCH   1  25
ATOM     25  C   UNL A   1      44.255  24.313  30.339  1.00  0.00     0.002 C 
BRANCH  25  26
ATOM     26  C   UNL A   1      43.725  23.161  29.474  1.00  0.00     0.002 C 
BRANCH  26  27
ATOM     27  C   UNL A   1      42.459  23.462  28.663  1.00  0.00     0.021 C 
BRANCH  27  28
ATOM     28  C   UNL A   1      42.687  23.767  27.184  1.00  0.00     0.116 C 
BRANCH  28  29
ATOM     29  N   UNL A   1      41.453  23.736  26.415  1.00  0.00    -0.352 N 
ATOM     30  C   UNL A   1      40.285  24.435  26.608  1.00  0.00     0.251 C 
ATOM     31  H   UNL A   1      41.454  23.126  25.643  1.00  0.00     0.163 HD
ATOM     32  O   UNL A   1      39.284  24.147  25.959  1.00  0.00    -0.269 OA
BRANCH  30  33
ATOM     33  C   UNL A   1      40.231  25.520  27.611  1.00  0.00     0.039 A 
ATOM     34  C   UNL A   1      39.292  25.442  28.643  1.00  0.00     0.014 A 
ATOM     35  C   UNL A   1      41.092  26.618  27.528  1.00  0.00     0.014 A 
ATOM     36  C   UNL A   1      39.255  26.435  29.624  1.00  0.00     0.010 A 
ATOM     37  C   UNL A   1      41.098  27.574  28.540  1.00  0.00     0.010 A 
ATOM     38  C   UNL A   1      40.178  27.494  29.597  1.00  0.00    -0.014 A 
BRANCH  38  39
ATOM     39  C   UNL A   1      40.191  28.530  30.662  1.00  0.00     0.031 A 
ATOM     40  C   UNL A   1      41.122  28.394  31.836  1.00  0.00     0.074 A 
ATOM     41  C   UNL A   1      39.328  29.564  30.598  1.00  0.00     0.049 A 
ATOM     42  N   UNL A   1      41.225  29.150  32.899  1.00  0.00    -0.248 NA
ATOM     43  C   UNL A   1      42.043  27.244  31.826  1.00  0.00     0.031 C 
ATOM     44  C   UNL A   1      38.350  29.788  29.529  1.00  0.00     0.029 A 
ATOM     45  N   UNL A   1      39.125  30.615  31.457  1.00  0.00    -0.354 N 
ATOM     46  C   UNL A   1      42.215  28.570  33.682  1.00  0.00     0.074 A 
ATOM     47  C   UNL A   1      42.641  27.366  33.002  1.00  0.00     0.031 C 
ATOM     48  C   UNL A   1      37.664  30.914  29.789  1.00  0.00     0.029 A 
ATOM     49  C   UNL A   1      38.124  31.470  31.058  1.00  0.00     0.049 A 
ATOM     50  H   UNL A   1      39.648  30.746  32.281  1.00  0.00     0.167 HD
ATOM     51  C   UNL A   1      42.742  29.011  34.850  1.00  0.00     0.031 A 
ATOM     52  C   UNL A   1      37.624  32.571  31.651  1.00  0.00     0.031 A 
ATOM     53  C   UNL A   1      42.320  30.211  35.523  1.00  0.00     0.049 A 
ATOM     54  C   UNL A   1      38.214  33.030  32.958  1.00  0.00     0.074 A 
ATOM     55  C   UNL A   1      42.808  30.755  36.699  1.00  0.00     0.029 A 
ATOM     56  N   UNL A   1      41.320  31.059  35.074  1.00  0.00    -0.354 N 
ATOM     57  N   UNL A   1      39.180  32.488  33.661  1.00  0.00    -0.248 NA
ATOM     58  C   UNL A   1      37.655  34.257  33.545  1.00  0.00     0.031 C 
ATOM     59  C   UNL A   1      42.073  31.911  36.982  1.00  0.00     0.029 A 
ATOM     60  C   UNL A   1      41.167  32.116  35.954  1.00  0.00     0.049 A 
ATOM     61  H   UNL A   1      40.794  30.928  34.252  1.00  0.00     0.167 HD
ATOM     62  C   UNL A   1      39.363  33.324  34.758  1.00  0.00     0.074 A 
ATOM     63  C   UNL A   1      38.421  34.415  34.615  1.00  0.00     0.031 C 
ATOM     64  C   UNL A   1      40.231  33.198  35.791  1.00  0.00     0.031 A 
BRANCH  51  65
ATOM     65  C   UNL A   1      43.849  28.196  35.467  1.00  0.00    -0.014 A 
ATOM     66  C   UNL A   1      45.196  28.485  35.184  1.00  0.00     0.010 A 
ATOM     67  C   UNL A   1      43.546  27.169  36.378  1.00  0.00     0.010 A 
ATOM     68  C   UNL A   1      46.219  27.741  35.774  1.00  0.00     0.020 A 
ATOM     69  C   UNL A   1      44.569  26.439  36.992  1.00  0.00     0.020 A 
ATOM     70  C   UNL A   1      45.899  26.721  36.675  1.00  0.00     0.054 A 
BRANCH  70  71
ATOM     71  S   UNL A   1      47.252  25.797  37.453  1.00  0.00     0.124 S 
ATOM     72  O   UNL A   1      46.636  24.490  37.672  1.00  0.00    -0.237 OA
ATOM     73  O   UNL A   1      48.295  25.836  36.432  1.00  0.00    -0.237 OA
ATOM     74  O   UNL A   1      47.541  26.558  38.665  1.00  0.00    -0.744 OA
ENDBRANCH  70  71
ENDBRANCH  51  65
BRANCH  52  75
ATOM     75  C   UNL A   1      36.498  33.317  31.022  1.00  0.00    -0.014 A 
ATOM     76  C   UNL A   1      36.598  33.794  29.703  1.00  0.00     0.010 A 
ATOM     77  C   UNL A   1      35.323  33.571  31.754  1.00  0.00     0.010 A 
ATOM     78  C   UNL A   1      35.560  34.543  29.140  1.00  0.00     0.020 A 
ATOM     79  C   UNL A   1      34.271  34.294  31.183  1.00  0.00     0.020 A 
ATOM     80  C   UNL A   1      34.405  34.792  29.886  1.00  0.00     0.054 A 
BRANCH  80  81
ATOM     81  S   UNL A   1      33.061  35.750  29.133  1.00  0.00     0.124 S 
ATOM     82  O   UNL A   1      33.797  36.775  28.399  1.00  0.00    -0.237 OA
ATOM     83  O   UNL A   1      32.380  34.751  28.314  1.00  0.00    -0.237 OA
ATOM     84  O   UNL A   1      32.297  36.228  30.283  1.00  0.00    -0.744 OA
ENDBRANCH  80  81
ENDBRANCH  52  75
BRANCH  64  85
ATOM     85  C   UNL A   1      40.234  34.288  36.829  1.00  0.00    -0.014 A 
ATOM     86  C   UNL A   1      41.122  35.375  36.745  1.00  0.00     0.010 A 
ATOM     87  C   UNL A   1      39.294  34.249  37.875  1.00  0.00     0.010 A 
ATOM     88  C   UNL A   1      41.092  36.387  37.707  1.00  0.00     0.020 A 
ATOM     89  C   UNL A   1      39.242  35.273  38.824  1.00  0.00     0.020 A 
ATOM     90  C   UNL A   1      40.152  36.330  38.741  1.00  0.00     0.054 A 
BRANCH  90  91
ATOM     91  S   UNL A   1      40.104  37.678  39.953  1.00  0.00     0.124 S 
ATOM     92  O   UNL A   1      40.309  36.965  41.209  1.00  0.00    -0.237 OA
ATOM     93  O   UNL A   1      41.211  38.532  39.527  1.00  0.00    -0.237 OA
ATOM     94  O   UNL A   1      38.774  38.258  39.773  1.00  0.00    -0.744 OA
ENDBRANCH  90  91
ENDBRANCH  64  85
ENDBRANCH  38  39
ENDBRANCH  30  33
ENDBRANCH  28  29
ENDBRANCH  27  28
ENDBRANCH  26  27
ENDBRANCH  25  26
ENDBRANCH   1  25
TORSDOF 23
ENDMDL
