MODEL 1
REMARK VINA RESULT:     -12.1      0.000      0.000
REMARK SMILES CC1=C[C@H](C)[C@H](CN2C[C@]34C=C[C@@H](O3)[C@H](C(=O)NCCCCCCNC(=O)c3ccc(-c5c6nc(c(-c7ccc(S(=O)(=O)[O-])cc7)c7ccc([nH]7)c(-c7ccc(S(=O)(=O)[O-])cc7)c7nc(c(-c8ccc(S(=O)(=O)[O-])cc8)c8ccc5[nH]8)C=C7)C=C6)cc3)[C@@H]4C2=O)[C@H](C)C1
REMARK SMILES IDX 22 1 21 2 20 3 19 4 18 5 16 6 17 7 15 9 8 10 9 11 89 12
REMARK SMILES IDX 10 13 88 14 90 15 11 16 14 17 12 18 13 19 7 20 6 21 1 22
REMARK SMILES IDX 2 23 3 24 93 25 4 26 91 27 5 28 92 29 23 30 24 31 25 32
REMARK SMILES IDX 26 33 27 35 28 36 29 37 87 38 30 39 86 40 31 41 32 42 33 43
REMARK SMILES IDX 80 44 34 45 85 46 79 47 81 48 35 49 84 50 78 51 77 52 36 54
REMARK SMILES IDX 66 55 47 56 65 57 48 58 51 59 64 60 82 61 49 62 50 63 63 65
REMARK SMILES IDX 83 66 52 67 37 68 38 69 46 70 39 71 45 72 40 73 41 74 42 75
REMARK SMILES IDX 43 76 44 77 67 78 68 79 76 80 69 81 75 82 70 83 71 84 72 85
REMARK SMILES IDX 73 86 74 87 53 88 54 89 62 90 55 91 61 92 56 93 57 94 58 95
REMARK SMILES IDX 59 96 60 97
REMARK H PARENT 18 8 25 34 81 53 51 64
REMARK Flexibility Score: inf
ROOT
ATOM      1  C   UNL A   1      41.199  22.162  27.939  1.00  0.00     0.002 C 
ENDROOT
BRANCH   1   2
ATOM      2  C   UNL A   1      40.216  21.830  26.811  1.00  0.00     0.002 C 
BRANCH   2   3
ATOM      3  C   UNL A   1      39.152  22.898  26.494  1.00  0.00     0.021 C 
BRANCH   3   4
ATOM      4  C   UNL A   1      37.891  22.394  25.791  1.00  0.00     0.116 C 
BRANCH   4   5
ATOM      5  N   UNL A   1      36.860  23.403  25.818  1.00  0.00    -0.356 N 
ATOM      6  C   UNL A   1      35.668  23.506  25.198  1.00  0.00     0.227 C 
ATOM      7  O   UNL A   1      34.987  24.476  25.551  1.00  0.00    -0.275 OA
ATOM      8  H   UNL A   1      37.069  24.167  26.404  1.00  0.00     0.163 HD
BRANCH   6   9
ATOM      9  C   UNL A   1      35.121  22.458  24.240  1.00  0.00     0.127 C 
ATOM     10  N   UNL A   1      32.443  24.365  23.604  1.00  0.00    -0.339 N 
ATOM     11  C   UNL A   1      32.427  23.432  24.668  1.00  0.00     0.160 C 
ATOM     12  C   UNL A   1      33.296  23.863  22.669  1.00  0.00     0.230 C 
ATOM     13  C   UNL A   1      32.684  21.951  24.107  1.00  0.00     0.117 C 
ATOM     14  C   UNL A   1      33.907  22.604  23.263  1.00  0.00     0.132 C 
ATOM     15  O   UNL A   1      33.449  24.257  21.518  1.00  0.00    -0.274 OA
ATOM     16  C   UNL A   1      32.474  21.574  25.606  1.00  0.00     0.009 C 
ATOM     17  O   UNL A   1      33.610  20.791  24.141  1.00  0.00    -0.360 OA
ATOM     18  C   UNL A   1      33.660  21.384  26.193  1.00  0.00     0.004 C 
ATOM     19  C   UNL A   1      34.626  21.246  25.071  1.00  0.00     0.155 C 
BRANCH  10  20
ATOM     20  C   UNL A   1      31.433  25.433  23.550  1.00  0.00     0.124 C 
BRANCH  20  21
ATOM     21  C   UNL A   1      31.898  26.838  24.063  1.00  0.00     0.018 C 
ATOM     22  C   UNL A   1      32.093  30.586  26.416  1.00  0.00     0.039 C 
ATOM     23  C   UNL A   1      32.061  29.418  25.476  1.00  0.00    -0.077 C 
ATOM     24  C   UNL A   1      31.199  29.308  24.447  1.00  0.00    -0.025 C 
ATOM     25  C   UNL A   1      32.956  28.269  25.845  1.00  0.00     0.034 C 
ATOM     26  C   UNL A   1      31.017  28.054  23.594  1.00  0.00     0.014 C 
ATOM     27  C   UNL A   1      32.230  26.946  25.584  1.00  0.00    -0.005 C 
ATOM     28  C   UNL A   1      29.516  27.748  23.489  1.00  0.00     0.012 C 
ATOM     29  C   UNL A   1      31.029  26.845  26.551  1.00  0.00     0.008 C 
ENDBRANCH  20  21
ENDBRANCH  10  20
ENDBRANCH   6   9
ENDBRANCH   4   5
ENDBRANCH   3   4
ENDBRANCH   2   3
ENDBRANCH   1   2
BRANCH   1  30
ATOM     30  C   UNL A   1      42.677  22.167  27.545  1.00  0.00     0.021 C 
BRANCH  30  31
ATOM     31  C   UNL A   1      43.285  23.548  27.329  1.00  0.00     0.116 C 
BRANCH  31  32
ATOM     32  N   UNL A   1      42.758  24.212  26.149  1.00  0.00    -0.352 N 
ATOM     33  C   UNL A   1      42.001  25.357  26.072  1.00  0.00     0.251 C 
ATOM     34  H   UNL A   1      42.972  23.785  25.289  1.00  0.00     0.163 HD
ATOM     35  O   UNL A   1      41.496  25.683  25.002  1.00  0.00    -0.269 OA
BRANCH  33  36
ATOM     36  C   UNL A   1      41.774  26.181  27.282  1.00  0.00     0.039 A 
ATOM     37  C   UNL A   1      42.617  27.268  27.523  1.00  0.00     0.014 A 
ATOM     38  C   UNL A   1      40.744  25.884  28.182  1.00  0.00     0.014 A 
ATOM     39  C   UNL A   1      42.400  28.079  28.640  1.00  0.00     0.010 A 
ATOM     40  C   UNL A   1      40.483  26.739  29.251  1.00  0.00     0.010 A 
ATOM     41  C   UNL A   1      41.315  27.840  29.501  1.00  0.00    -0.014 A 
BRANCH  41  42
ATOM     42  C   UNL A   1      41.054  28.734  30.661  1.00  0.00     0.031 A 
ATOM     43  C   UNL A   1      41.876  28.615  31.920  1.00  0.00     0.074 A 
ATOM     44  C   UNL A   1      40.054  29.636  30.593  1.00  0.00     0.049 A 
ATOM     45  N   UNL A   1      41.802  29.321  33.020  1.00  0.00    -0.248 NA
ATOM     46  C   UNL A   1      42.896  27.554  31.961  1.00  0.00     0.031 C 
ATOM     47  C   UNL A   1      39.146  29.810  29.456  1.00  0.00     0.029 A 
ATOM     48  N   UNL A   1      39.632  30.579  31.497  1.00  0.00    -0.354 N 
ATOM     49  C   UNL A   1      42.748  28.780  33.885  1.00  0.00     0.074 A 
ATOM     50  C   UNL A   1      43.354  27.660  33.202  1.00  0.00     0.031 C 
ATOM     51  C   UNL A   1      38.296  30.817  29.719  1.00  0.00     0.029 A 
ATOM     52  C   UNL A   1      38.573  31.338  31.054  1.00  0.00     0.049 A 
ATOM     53  H   UNL A   1      40.049  30.702  32.381  1.00  0.00     0.167 HD
ATOM     54  C   UNL A   1      43.092  29.190  35.129  1.00  0.00     0.031 A 
ATOM     55  C   UNL A   1      37.896  32.338  31.652  1.00  0.00     0.031 A 
ATOM     56  C   UNL A   1      42.502  30.321  35.799  1.00  0.00     0.049 A 
ATOM     57  C   UNL A   1      38.323  32.791  33.023  1.00  0.00     0.074 A 
ATOM     58  C   UNL A   1      42.842  30.862  37.027  1.00  0.00     0.029 A 
ATOM     59  N   UNL A   1      41.454  31.080  35.304  1.00  0.00    -0.354 N 
ATOM     60  N   UNL A   1      39.285  32.325  33.784  1.00  0.00    -0.248 NA
ATOM     61  C   UNL A   1      37.587  33.921  33.606  1.00  0.00     0.031 C 
ATOM     62  C   UNL A   1      41.958  31.908  37.304  1.00  0.00     0.029 A 
ATOM     63  C   UNL A   1      41.116  32.066  36.216  1.00  0.00     0.049 A 
ATOM     64  H   UNL A   1      41.015  30.938  34.435  1.00  0.00     0.167 HD
ATOM     65  C   UNL A   1      39.290  33.127  34.920  1.00  0.00     0.074 A 
ATOM     66  C   UNL A   1      38.253  34.121  34.734  1.00  0.00     0.031 C 
ATOM     67  C   UNL A   1      40.080  33.049  36.020  1.00  0.00     0.031 A 
BRANCH  54  68
ATOM     68  C   UNL A   1      44.155  28.415  35.865  1.00  0.00    -0.014 A 
ATOM     69  C   UNL A   1      45.506  28.804  35.822  1.00  0.00     0.010 A 
ATOM     70  C   UNL A   1      43.781  27.337  36.690  1.00  0.00     0.010 A 
ATOM     71  C   UNL A   1      46.463  28.122  36.578  1.00  0.00     0.020 A 
ATOM     72  C   UNL A   1      44.730  26.671  37.469  1.00  0.00     0.020 A 
ATOM     73  C   UNL A   1      46.069  27.064  37.403  1.00  0.00     0.054 A 
BRANCH  73  74
ATOM     74  S   UNL A   1      47.323  26.247  38.428  1.00  0.00     0.124 S 
ATOM     75  O   UNL A   1      48.551  26.895  37.976  1.00  0.00    -0.237 OA
ATOM     76  O   UNL A   1      46.895  26.583  39.783  1.00  0.00    -0.237 OA
ATOM     77  O   UNL A   1      47.198  24.836  38.070  1.00  0.00    -0.744 OA
ENDBRANCH  73  74
ENDBRANCH  54  68
BRANCH  55  78
ATOM     78  C   UNL A   1      36.741  32.983  30.964  1.00  0.00    -0.014 A 
ATOM     79  C   UNL A   1      36.932  33.796  29.833  1.00  0.00     0.010 A 
ATOM     80  C   UNL A   1      35.437  32.805  31.463  1.00  0.00     0.010 A 
ATOM     81  C   UNL A   1      35.849  34.456  29.243  1.00  0.00     0.020 A 
ATOM     82  C   UNL A   1      34.347  33.433  30.854  1.00  0.00     0.020 A 
ATOM     83  C   UNL A   1      34.563  34.272  29.759  1.00  0.00     0.054 A 
BRANCH  83  84
ATOM     84  S   UNL A   1      33.169  35.126  28.972  1.00  0.00     0.124 S 
ATOM     85  O   UNL A   1      33.821  36.294  28.386  1.00  0.00    -0.237 OA
ATOM     86  O   UNL A   1      32.683  34.128  28.023  1.00  0.00    -0.237 OA
ATOM     87  O   UNL A   1      32.267  35.406  30.087  1.00  0.00    -0.744 OA
ENDBRANCH  83  84
ENDBRANCH  55  78
BRANCH  67  88
ATOM     88  C   UNL A   1      39.888  34.099  37.084  1.00  0.00    -0.014 A 
ATOM     89  C   UNL A   1      39.056  33.877  38.196  1.00  0.00     0.010 A 
ATOM     90  C   UNL A   1      40.565  35.327  36.970  1.00  0.00     0.010 A 
ATOM     91  C   UNL A   1      38.856  34.888  39.140  1.00  0.00     0.020 A 
ATOM     92  C   UNL A   1      40.395  36.327  37.931  1.00  0.00     0.020 A 
ATOM     93  C   UNL A   1      39.520  36.110  38.997  1.00  0.00     0.054 A 
BRANCH  93  94
ATOM     94  S   UNL A   1      39.238  37.409  40.229  1.00  0.00     0.124 S 
ATOM     95  O   UNL A   1      38.681  36.650  41.346  1.00  0.00    -0.237 OA
ATOM     96  O   UNL A   1      40.579  37.949  40.441  1.00  0.00    -0.237 OA
ATOM     97  O   UNL A   1      38.304  38.317  39.567  1.00  0.00    -0.744 OA
ENDBRANCH  93  94
ENDBRANCH  67  88
ENDBRANCH  41  42
ENDBRANCH  33  36
ENDBRANCH  31  32
ENDBRANCH  30  31
ENDBRANCH   1  30
TORSDOF 18
ENDMDL
MODEL 2
REMARK VINA RESULT:     -11.9      5.963     11.912
REMARK SMILES CC1=C[C@H](C)[C@H](CN2C[C@]34C=C[C@@H](O3)[C@H](C(=O)NCCCCCCNC(=O)c3ccc(-c5c6nc(c(-c7ccc(S(=O)(=O)[O-])cc7)c7ccc([nH]7)c(-c7ccc(S(=O)(=O)[O-])cc7)c7nc(c(-c8ccc(S(=O)(=O)[O-])cc8)c8ccc5[nH]8)C=C7)C=C6)cc3)[C@@H]4C2=O)[C@H](C)C1
REMARK SMILES IDX 22 1 21 2 20 3 19 4 18 5 16 6 17 7 15 9 8 10 9 11 89 12
REMARK SMILES IDX 10 13 88 14 90 15 11 16 14 17 12 18 13 19 7 20 6 21 1 22
REMARK SMILES IDX 2 23 3 24 93 25 4 26 91 27 5 28 92 29 23 30 24 31 25 32
REMARK SMILES IDX 26 33 27 35 28 36 29 37 87 38 30 39 86 40 31 41 32 42 33 43
REMARK SMILES IDX 80 44 34 45 85 46 79 47 81 48 35 49 84 50 78 51 77 52 36 54
REMARK SMILES IDX 66 55 47 56 65 57 48 58 51 59 64 60 82 61 49 62 50 63 63 65
REMARK SMILES IDX 83 66 52 67 37 68 38 69 46 70 39 71 45 72 40 73 41 74 42 75
REMARK SMILES IDX 43 76 44 77 67 78 68 79 76 80 69 81 75 82 70 83 71 84 72 85
REMARK SMILES IDX 73 86 74 87 53 88 54 89 62 90 55 91 61 92 56 93 57 94 58 95
REMARK SMILES IDX 59 96 60 97
REMARK H PARENT 18 8 25 34 81 53 51 64
REMARK Flexibility Score: inf
ROOT
ATOM      1  C   UNL A   1      36.213  33.362  28.292  1.00  0.00     0.002 C 
ENDROOT
BRANCH   1   2
ATOM      2  C   UNL A   1      35.316  32.165  27.957  1.00  0.00     0.002 C 
BRANCH   2   3
ATOM      3  C   UNL A   1      33.799  32.431  27.934  1.00  0.00     0.021 C 
BRANCH   3   4
ATOM      4  C   UNL A   1      32.924  31.263  27.477  1.00  0.00     0.116 C 
BRANCH   4   5
ATOM      5  N   UNL A   1      33.702  30.051  27.398  1.00  0.00    -0.356 N 
ATOM      6  C   UNL A   1      33.473  28.857  26.815  1.00  0.00     0.227 C 
ATOM      7  O   UNL A   1      34.429  28.074  26.857  1.00  0.00    -0.275 OA
ATOM      8  H   UNL A   1      34.570  30.106  27.859  1.00  0.00     0.163 HD
BRANCH   6   9
ATOM      9  C   UNL A   1      32.204  28.523  26.045  1.00  0.00     0.127 C 
ATOM     10  N   UNL A   1      33.223  25.358  25.643  1.00  0.00    -0.339 N 
ATOM     11  C   UNL A   1      33.563  26.351  24.693  1.00  0.00     0.160 C 
ATOM     12  C   UNL A   1      32.037  25.743  26.190  1.00  0.00     0.230 C 
ATOM     13  C   UNL A   1      32.233  26.998  24.073  1.00  0.00     0.117 C 
ATOM     14  C   UNL A   1      31.705  27.106  25.604  1.00  0.00     0.132 C 
ATOM     15  O   UNL A   1      31.300  25.076  26.908  1.00  0.00    -0.274 OA
ATOM     16  C   UNL A   1      33.271  27.792  23.220  1.00  0.00     0.009 C 
ATOM     17  O   UNL A   1      31.449  28.253  23.940  1.00  0.00    -0.360 OA
ATOM     18  C   UNL A   1      33.434  29.016  23.733  1.00  0.00     0.004 C 
ATOM     19  C   UNL A   1      32.281  29.203  24.654  1.00  0.00     0.155 C 
BRANCH  10  20
ATOM     20  C   UNL A   1      33.953  24.082  25.664  1.00  0.00     0.124 C 
BRANCH  20  21
ATOM     21  C   UNL A   1      33.170  22.840  25.119  1.00  0.00     0.018 C 
ATOM     22  C   UNL A   1      32.313  18.909  23.263  1.00  0.00     0.039 C 
ATOM     23  C   UNL A   1      32.461  20.301  23.803  1.00  0.00    -0.077 C 
ATOM     24  C   UNL A   1      32.662  21.385  23.030  1.00  0.00    -0.025 C 
ATOM     25  C   UNL A   1      32.538  20.409  25.299  1.00  0.00     0.034 C 
ATOM     26  C   UNL A   1      33.004  22.778  23.556  1.00  0.00     0.014 C 
ATOM     27  C   UNL A   1      33.593  21.449  25.688  1.00  0.00    -0.005 C 
ATOM     28  C   UNL A   1      34.206  23.318  22.767  1.00  0.00     0.012 C 
ATOM     29  C   UNL A   1      34.980  20.929  25.251  1.00  0.00     0.008 C 
ENDBRANCH  20  21
ENDBRANCH  10  20
ENDBRANCH   6   9
ENDBRANCH   4   5
ENDBRANCH   3   4
ENDBRANCH   2   3
ENDBRANCH   1   2
BRANCH   1  30
ATOM     30  C   UNL A   1      36.035  33.948  29.694  1.00  0.00     0.021 C 
BRANCH  30  31
ATOM     31  C   UNL A   1      36.972  33.384  30.756  1.00  0.00     0.116 C 
BRANCH  31  32
ATOM     32  N   UNL A   1      36.409  32.235  31.445  1.00  0.00    -0.352 N 
ATOM     33  C   UNL A   1      36.860  30.937  31.461  1.00  0.00     0.251 C 
ATOM     34  H   UNL A   1      35.597  32.411  31.971  1.00  0.00     0.163 HD
ATOM     35  O   UNL A   1      36.164  30.056  31.959  1.00  0.00    -0.269 OA
BRANCH  33  36
ATOM     36  C   UNL A   1      38.169  30.596  30.857  1.00  0.00     0.039 A 
ATOM     37  C   UNL A   1      39.264  30.390  31.699  1.00  0.00     0.014 A 
ATOM     38  C   UNL A   1      38.324  30.487  29.471  1.00  0.00     0.014 A 
ATOM     39  C   UNL A   1      40.501  30.034  31.153  1.00  0.00     0.010 A 
ATOM     40  C   UNL A   1      39.538  30.058  28.936  1.00  0.00     0.010 A 
ATOM     41  C   UNL A   1      40.644  29.838  29.769  1.00  0.00    -0.014 A 
BRANCH  41  42
ATOM     42  C   UNL A   1      41.948  29.409  29.194  1.00  0.00     0.031 A 
ATOM     43  C   UNL A   1      43.081  30.393  29.048  1.00  0.00     0.074 A 
ATOM     44  C   UNL A   1      42.102  28.137  28.774  1.00  0.00     0.049 A 
ATOM     45  N   UNL A   1      44.290  30.192  28.587  1.00  0.00    -0.248 NA
ATOM     46  C   UNL A   1      42.820  31.786  29.448  1.00  0.00     0.031 C 
ATOM     47  C   UNL A   1      41.064  27.102  28.803  1.00  0.00     0.029 A 
ATOM     48  N   UNL A   1      43.191  27.493  28.241  1.00  0.00    -0.354 N 
ATOM     49  C   UNL A   1      44.923  31.430  28.624  1.00  0.00     0.074 A 
ATOM     50  C   UNL A   1      43.954  32.386  29.111  1.00  0.00     0.031 C 
ATOM     51  C   UNL A   1      41.575  25.950  28.339  1.00  0.00     0.029 A 
ATOM     52  C   UNL A   1      42.964  26.168  27.946  1.00  0.00     0.049 A 
ATOM     53  H   UNL A   1      44.056  27.937  28.085  1.00  0.00     0.167 HD
ATOM     54  C   UNL A   1      46.201  31.740  28.298  1.00  0.00     0.031 A 
ATOM     55  C   UNL A   1      43.776  25.233  27.417  1.00  0.00     0.031 A 
ATOM     56  C   UNL A   1      47.171  30.781  27.835  1.00  0.00     0.049 A 
ATOM     57  C   UNL A   1      45.200  25.600  27.093  1.00  0.00     0.074 A 
ATOM     58  C   UNL A   1      48.512  30.985  27.558  1.00  0.00     0.029 A 
ATOM     59  N   UNL A   1      46.908  29.445  27.579  1.00  0.00    -0.354 N 
ATOM     60  N   UNL A   1      45.804  26.757  27.228  1.00  0.00    -0.248 NA
ATOM     61  C   UNL A   1      46.058  24.529  26.570  1.00  0.00     0.031 C 
ATOM     62  C   UNL A   1      49.045  29.787  27.072  1.00  0.00     0.029 A 
ATOM     63  C   UNL A   1      48.055  28.820  27.118  1.00  0.00     0.049 A 
ATOM     64  H   UNL A   1      46.036  29.006  27.704  1.00  0.00     0.167 HD
ATOM     65  C   UNL A   1      47.122  26.542  26.836  1.00  0.00     0.074 A 
ATOM     66  C   UNL A   1      47.230  25.142  26.485  1.00  0.00     0.031 C 
ATOM     67  C   UNL A   1      48.150  27.424  26.771  1.00  0.00     0.031 A 
BRANCH  54  68
ATOM     68  C   UNL A   1      46.639  33.177  28.422  1.00  0.00    -0.014 A 
ATOM     69  C   UNL A   1      47.377  33.623  29.534  1.00  0.00     0.010 A 
ATOM     70  C   UNL A   1      46.390  34.071  27.364  1.00  0.00     0.010 A 
ATOM     71  C   UNL A   1      47.845  34.939  29.590  1.00  0.00     0.020 A 
ATOM     72  C   UNL A   1      46.880  35.379  27.403  1.00  0.00     0.020 A 
ATOM     73  C   UNL A   1      47.600  35.807  28.521  1.00  0.00     0.054 A 
BRANCH  73  74
ATOM     74  S   UNL A   1      48.284  37.486  28.591  1.00  0.00     0.124 S 
ATOM     75  O   UNL A   1      47.318  38.239  27.795  1.00  0.00    -0.237 OA
ATOM     76  O   UNL A   1      48.278  37.772  30.023  1.00  0.00    -0.237 OA
ATOM     77  O   UNL A   1      49.609  37.347  27.991  1.00  0.00    -0.744 OA
ENDBRANCH  73  74
ENDBRANCH  54  68
BRANCH  55  78
ATOM     78  C   UNL A   1      43.268  23.856  27.153  1.00  0.00    -0.014 A 
ATOM     79  C   UNL A   1      43.115  22.927  28.198  1.00  0.00     0.010 A 
ATOM     80  C   UNL A   1      42.962  23.458  25.838  1.00  0.00     0.010 A 
ATOM     81  C   UNL A   1      42.710  21.616  27.928  1.00  0.00     0.020 A 
ATOM     82  C   UNL A   1      42.522  22.159  25.569  1.00  0.00     0.020 A 
ATOM     83  C   UNL A   1      42.419  21.240  26.614  1.00  0.00     0.054 A 
BRANCH  83  84
ATOM     84  S   UNL A   1      41.883  19.538  26.285  1.00  0.00     0.124 S 
ATOM     85  O   UNL A   1      42.616  19.220  25.063  1.00  0.00    -0.237 OA
ATOM     86  O   UNL A   1      42.318  18.832  27.487  1.00  0.00    -0.237 OA
ATOM     87  O   UNL A   1      40.435  19.659  26.133  1.00  0.00    -0.744 OA
ENDBRANCH  83  84
ENDBRANCH  55  78
BRANCH  67  88
ATOM     88  C   UNL A   1      49.495  26.887  26.353  1.00  0.00    -0.014 A 
ATOM     89  C   UNL A   1      49.954  27.001  25.028  1.00  0.00     0.010 A 
ATOM     90  C   UNL A   1      50.318  26.267  27.311  1.00  0.00     0.010 A 
ATOM     91  C   UNL A   1      51.183  26.447  24.658  1.00  0.00     0.020 A 
ATOM     92  C   UNL A   1      51.562  25.745  26.952  1.00  0.00     0.020 A 
ATOM     93  C   UNL A   1      51.975  25.815  25.621  1.00  0.00     0.054 A 
BRANCH  93  94
ATOM     94  S   UNL A   1      53.561  25.097  25.115  1.00  0.00     0.124 S 
ATOM     95  O   UNL A   1      54.481  25.679  26.088  1.00  0.00    -0.237 OA
ATOM     96  O   UNL A   1      53.324  23.662  25.252  1.00  0.00    -0.237 OA
ATOM     97  O   UNL A   1      53.730  25.566  23.741  1.00  0.00    -0.744 OA
ENDBRANCH  93  94
ENDBRANCH  67  88
ENDBRANCH  41  42
ENDBRANCH  33  36
ENDBRANCH  31  32
ENDBRANCH  30  31
ENDBRANCH   1  30
TORSDOF 18
ENDMDL
MODEL 3
REMARK VINA RESULT:     -11.7      0.939      1.728
REMARK SMILES CC1=C[C@H](C)[C@H](CN2C[C@]34C=C[C@@H](O3)[C@H](C(=O)NCCCCCCNC(=O)c3ccc(-c5c6nc(c(-c7ccc(S(=O)(=O)[O-])cc7)c7ccc([nH]7)c(-c7ccc(S(=O)(=O)[O-])cc7)c7nc(c(-c8ccc(S(=O)(=O)[O-])cc8)c8ccc5[nH]8)C=C7)C=C6)cc3)[C@@H]4C2=O)[C@H](C)C1
REMARK SMILES IDX 22 1 21 2 20 3 19 4 18 5 16 6 17 7 15 9 8 10 9 11 89 12
REMARK SMILES IDX 10 13 88 14 90 15 11 16 14 17 12 18 13 19 7 20 6 21 1 22
REMARK SMILES IDX 2 23 3 24 93 25 4 26 91 27 5 28 92 29 23 30 24 31 25 32
REMARK SMILES IDX 26 33 27 35 28 36 29 37 87 38 30 39 86 40 31 41 32 42 33 43
REMARK SMILES IDX 80 44 34 45 85 46 79 47 81 48 35 49 84 50 78 51 77 52 36 54
REMARK SMILES IDX 66 55 47 56 65 57 48 58 51 59 64 60 82 61 49 62 50 63 63 65
REMARK SMILES IDX 83 66 52 67 37 68 38 69 46 70 39 71 45 72 40 73 41 74 42 75
REMARK SMILES IDX 43 76 44 77 67 78 68 79 76 80 69 81 75 82 70 83 71 84 72 85
REMARK SMILES IDX 73 86 74 87 53 88 54 89 62 90 55 91 61 92 56 93 57 94 58 95
REMARK SMILES IDX 59 96 60 97
REMARK H PARENT 18 8 25 34 81 53 51 64
REMARK Flexibility Score: inf
ROOT
ATOM      1  C   UNL A   1      38.713  24.035  26.468  1.00  0.00     0.002 C 
ENDROOT
BRANCH   1   2
ATOM      2  C   UNL A   1      37.380  23.641  25.821  1.00  0.00     0.002 C 
BRANCH   2   3
ATOM      3  C   UNL A   1      37.403  22.401  24.907  1.00  0.00     0.021 C 
BRANCH   3   4
ATOM      4  C   UNL A   1      36.828  21.118  25.510  1.00  0.00     0.116 C 
BRANCH   4   5
ATOM      5  N   UNL A   1      35.741  21.425  26.407  1.00  0.00    -0.356 N 
ATOM      6  C   UNL A   1      34.404  21.472  26.239  1.00  0.00     0.227 C 
ATOM      7  O   UNL A   1      33.762  21.666  27.277  1.00  0.00    -0.275 OA
ATOM      8  H   UNL A   1      36.032  21.643  27.323  1.00  0.00     0.163 HD
BRANCH   6   9
ATOM      9  C   UNL A   1      33.709  21.178  24.917  1.00  0.00     0.127 C 
ATOM     10  N   UNL A   1      33.830  24.419  24.079  1.00  0.00    -0.339 N 
ATOM     11  C   UNL A   1      32.726  23.901  24.799  1.00  0.00     0.160 C 
ATOM     12  C   UNL A   1      34.314  23.390  23.330  1.00  0.00     0.230 C 
ATOM     13  C   UNL A   1      32.016  22.735  23.955  1.00  0.00     0.117 C 
ATOM     14  C   UNL A   1      33.512  22.155  23.710  1.00  0.00     0.132 C 
ATOM     15  O   UNL A   1      35.137  23.457  22.424  1.00  0.00    -0.274 OA
ATOM     16  C   UNL A   1      31.037  22.743  25.169  1.00  0.00     0.009 C 
ATOM     17  O   UNL A   1      31.683  21.288  23.939  1.00  0.00    -0.360 OA
ATOM     18  C   UNL A   1      31.339  21.738  25.999  1.00  0.00     0.004 C 
ATOM     19  C   UNL A   1      32.224  20.842  25.208  1.00  0.00     0.155 C 
BRANCH  10  20
ATOM     20  C   UNL A   1      34.056  25.871  24.029  1.00  0.00     0.124 C 
BRANCH  20  21
ATOM     21  C   UNL A   1      32.769  26.763  24.041  1.00  0.00     0.018 C 
ATOM     22  C   UNL A   1      30.139  30.327  24.012  1.00  0.00     0.039 C 
ATOM     23  C   UNL A   1      30.919  29.053  24.145  1.00  0.00    -0.077 C 
ATOM     24  C   UNL A   1      31.485  28.639  25.294  1.00  0.00    -0.025 C 
ATOM     25  C   UNL A   1      31.181  28.320  22.860  1.00  0.00     0.034 C 
ATOM     26  C   UNL A   1      32.438  27.451  25.417  1.00  0.00     0.014 C 
ATOM     27  C   UNL A   1      32.613  27.773  22.863  1.00  0.00    -0.005 C 
ATOM     28  C   UNL A   1      33.671  27.894  26.219  1.00  0.00     0.012 C 
ATOM     29  C   UNL A   1      33.595  28.965  22.853  1.00  0.00     0.008 C 
ENDBRANCH  20  21
ENDBRANCH  10  20
ENDBRANCH   6   9
ENDBRANCH   4   5
ENDBRANCH   3   4
ENDBRANCH   2   3
ENDBRANCH   1   2
BRANCH   1  30
ATOM     30  C   UNL A   1      39.762  22.924  26.546  1.00  0.00     0.021 C 
BRANCH  30  31
ATOM     31  C   UNL A   1      41.154  23.377  26.970  1.00  0.00     0.116 C 
BRANCH  31  32
ATOM     32  N   UNL A   1      41.828  24.150  25.940  1.00  0.00    -0.352 N 
ATOM     33  C   UNL A   1      42.115  25.494  25.923  1.00  0.00     0.251 C 
ATOM     34  H   UNL A   1      42.118  23.642  25.149  1.00  0.00     0.163 HD
ATOM     35  O   UNL A   1      42.539  26.014  24.894  1.00  0.00    -0.269 OA
BRANCH  33  36
ATOM     36  C   UNL A   1      41.891  26.319  27.133  1.00  0.00     0.039 A 
ATOM     37  C   UNL A   1      42.604  27.511  27.276  1.00  0.00     0.014 A 
ATOM     38  C   UNL A   1      40.991  25.920  28.127  1.00  0.00     0.014 A 
ATOM     39  C   UNL A   1      42.383  28.321  28.393  1.00  0.00     0.010 A 
ATOM     40  C   UNL A   1      40.717  26.767  29.201  1.00  0.00     0.010 A 
ATOM     41  C   UNL A   1      41.418  27.971  29.354  1.00  0.00    -0.014 A 
BRANCH  41  42
ATOM     42  C   UNL A   1      41.147  28.860  30.516  1.00  0.00     0.031 A 
ATOM     43  C   UNL A   1      41.981  28.758  31.769  1.00  0.00     0.074 A 
ATOM     44  C   UNL A   1      40.128  29.741  30.455  1.00  0.00     0.049 A 
ATOM     45  N   UNL A   1      41.900  29.462  32.869  1.00  0.00    -0.248 NA
ATOM     46  C   UNL A   1      43.023  27.719  31.802  1.00  0.00     0.031 C 
ATOM     47  C   UNL A   1      39.208  29.896  29.325  1.00  0.00     0.029 A 
ATOM     48  N   UNL A   1      39.692  30.675  31.362  1.00  0.00    -0.354 N 
ATOM     49  C   UNL A   1      42.863  28.941  33.727  1.00  0.00     0.074 A 
ATOM     50  C   UNL A   1      43.488  27.834  33.039  1.00  0.00     0.031 C 
ATOM     51  C   UNL A   1      38.339  30.884  29.594  1.00  0.00     0.029 A 
ATOM     52  C   UNL A   1      38.614  31.410  30.928  1.00  0.00     0.049 A 
ATOM     53  H   UNL A   1      40.113  30.806  32.243  1.00  0.00     0.167 HD
ATOM     54  C   UNL A   1      43.207  29.357  34.969  1.00  0.00     0.031 A 
ATOM     55  C   UNL A   1      37.921  32.396  31.531  1.00  0.00     0.031 A 
ATOM     56  C   UNL A   1      42.599  30.476  35.643  1.00  0.00     0.049 A 
ATOM     57  C   UNL A   1      38.348  32.857  32.899  1.00  0.00     0.074 A 
ATOM     58  C   UNL A   1      42.937  31.023  36.869  1.00  0.00     0.029 A 
ATOM     59  N   UNL A   1      41.532  31.213  35.156  1.00  0.00    -0.354 N 
ATOM     60  N   UNL A   1      39.326  32.412  33.652  1.00  0.00    -0.248 NA
ATOM     61  C   UNL A   1      37.593  33.972  33.488  1.00  0.00     0.031 C 
ATOM     62  C   UNL A   1      42.032  32.051  37.153  1.00  0.00     0.029 A 
ATOM     63  C   UNL A   1      41.179  32.192  36.071  1.00  0.00     0.049 A 
ATOM     64  H   UNL A   1      41.089  31.062  34.290  1.00  0.00     0.167 HD
ATOM     65  C   UNL A   1      39.322  33.214  34.789  1.00  0.00     0.074 A 
ATOM     66  C   UNL A   1      38.263  34.185  34.611  1.00  0.00     0.031 C 
ATOM     67  C   UNL A   1      40.121  33.152  35.883  1.00  0.00     0.031 A 
BRANCH  54  68
ATOM     68  C   UNL A   1      44.292  28.605  35.697  1.00  0.00    -0.014 A 
ATOM     69  C   UNL A   1      45.640  28.996  35.607  1.00  0.00     0.010 A 
ATOM     70  C   UNL A   1      43.943  27.550  36.561  1.00  0.00     0.010 A 
ATOM     71  C   UNL A   1      46.620  28.336  36.355  1.00  0.00     0.020 A 
ATOM     72  C   UNL A   1      44.915  26.907  37.332  1.00  0.00     0.020 A 
ATOM     73  C   UNL A   1      46.250  27.300  37.219  1.00  0.00     0.054 A 
BRANCH  73  74
ATOM     74  S   UNL A   1      47.534  26.514  38.231  1.00  0.00     0.124 S 
ATOM     75  O   UNL A   1      48.306  25.786  37.228  1.00  0.00    -0.237 OA
ATOM     76  O   UNL A   1      48.208  27.659  38.835  1.00  0.00    -0.237 OA
ATOM     77  O   UNL A   1      46.779  25.677  39.161  1.00  0.00    -0.744 OA
ENDBRANCH  73  74
ENDBRANCH  54  68
BRANCH  55  78
ATOM     78  C   UNL A   1      36.748  33.016  30.851  1.00  0.00    -0.014 A 
ATOM     79  C   UNL A   1      36.908  33.785  29.686  1.00  0.00     0.010 A 
ATOM     80  C   UNL A   1      35.458  32.861  31.393  1.00  0.00     0.010 A 
ATOM     81  C   UNL A   1      35.809  34.425  29.101  1.00  0.00     0.020 A 
ATOM     82  C   UNL A   1      34.352  33.467  30.791  1.00  0.00     0.020 A 
ATOM     83  C   UNL A   1      34.538  34.263  29.660  1.00  0.00     0.054 A 
BRANCH  83  84
ATOM     84  S   UNL A   1      33.124  35.090  28.881  1.00  0.00     0.124 S 
ATOM     85  O   UNL A   1      32.233  35.302  30.017  1.00  0.00    -0.237 OA
ATOM     86  O   UNL A   1      33.732  36.293  28.318  1.00  0.00    -0.237 OA
ATOM     87  O   UNL A   1      32.661  34.116  27.894  1.00  0.00    -0.744 OA
ENDBRANCH  83  84
ENDBRANCH  55  78
BRANCH  67  88
ATOM     88  C   UNL A   1      39.915  34.197  36.949  1.00  0.00    -0.014 A 
ATOM     89  C   UNL A   1      40.505  35.471  36.855  1.00  0.00     0.010 A 
ATOM     90  C   UNL A   1      39.105  33.899  38.060  1.00  0.00     0.010 A 
ATOM     91  C   UNL A   1      40.340  36.402  37.885  1.00  0.00     0.020 A 
ATOM     92  C   UNL A   1      38.909  34.840  39.073  1.00  0.00     0.020 A 
ATOM     93  C   UNL A   1      39.549  36.077  38.991  1.00  0.00     0.054 A 
BRANCH  93  94
ATOM     94  S   UNL A   1      39.356  37.298  40.317  1.00  0.00     0.124 S 
ATOM     95  O   UNL A   1      38.600  38.353  39.649  1.00  0.00    -0.237 OA
ATOM     96  O   UNL A   1      38.628  36.551  41.339  1.00  0.00    -0.237 OA
ATOM     97  O   UNL A   1      40.732  37.646  40.669  1.00  0.00    -0.744 OA
ENDBRANCH  93  94
ENDBRANCH  67  88
ENDBRANCH  41  42
ENDBRANCH  33  36
ENDBRANCH  31  32
ENDBRANCH  30  31
ENDBRANCH   1  30
TORSDOF 18
ENDMDL
