MODEL 1
REMARK VINA RESULT:     -12.1      0.000      0.000
REMARK SMILES C[C@H]1Oc2ccccc2C=C1/C=C/C(=O)N[C@H](C(=O)NCCCCCCNC(=O)c1ccc(-c2c3nc(c(-c4ccc(S(=O)(=O)[O-])cc4)c4ccc([nH]4)c(-c4ccc(S(=O)(=O)[O-])cc4)c4nc(c(-c5ccc(S(=O)(=O)[O-])cc5)c5ccc2[nH]5)C=C4)C=C3)cc1)c1ccccc1
REMARK SMILES IDX 23 1 22 2 21 3 20 4 18 5 19 6 17 8 16 9 14 10 15 11 13 13
REMARK SMILES IDX 12 14 11 15 1 16 2 17 3 18 4 19 10 20 5 21 9 22 6 23 8 24
REMARK SMILES IDX 7 25 90 26 91 27 95 28 92 29 94 30 93 31 24 32 25 33 26 34
REMARK SMILES IDX 27 35 28 36 29 38 30 39 31 40 89 41 32 42 88 43 33 44 34 45
REMARK SMILES IDX 35 46 82 47 36 48 87 49 81 50 83 51 37 52 86 53 80 54 79 55
REMARK SMILES IDX 38 57 68 58 49 59 67 60 50 61 53 62 66 63 84 64 51 65 52 66
REMARK SMILES IDX 65 68 85 69 54 70 39 71 40 72 48 73 41 74 47 75 42 76 43 77
REMARK SMILES IDX 44 78 45 79 46 80 69 81 70 82 78 83 71 84 77 85 72 86 73 87
REMARK SMILES IDX 74 88 75 89 76 90 55 91 56 92 64 93 57 94 63 95 58 96 59 97
REMARK SMILES IDX 60 98 61 99 62 100
REMARK H PARENT 20 7 16 12 27 37 83 56 53 67
REMARK Flexibility Score: inf
ROOT
ATOM      1  C   UNL A   1      34.467  24.314  23.164  1.00  0.00     0.002 C 
ENDROOT
BRANCH   1   2
ATOM      2  C   UNL A   1      33.079  24.451  22.520  1.00  0.00     0.021 C 
BRANCH   2   3
ATOM      3  C   UNL A   1      32.907  25.678  21.624  1.00  0.00     0.116 C 
BRANCH   3   4
ATOM      4  N   UNL A   1      33.231  26.908  22.323  1.00  0.00    -0.354 N 
ATOM      5  C   UNL A   1      32.484  27.652  23.195  1.00  0.00     0.247 C 
ATOM      6  O   UNL A   1      33.046  28.589  23.770  1.00  0.00    -0.272 OA
ATOM      7  H   UNL A   1      34.131  27.265  22.141  1.00  0.00     0.163 HD
BRANCH   5   8
ATOM      8  C   UNL A   1      31.039  27.222  23.538  1.00  0.00     0.202 C 
BRANCH   8   9
ATOM      9  N   UNL A   1      30.951  27.140  24.999  1.00  0.00    -0.337 N 
ATOM     10  C   UNL A   1      31.170  26.153  25.900  1.00  0.00     0.244 C 
ATOM     11  O   UNL A   1      31.092  26.442  27.095  1.00  0.00    -0.270 OA
ATOM     12  H   UNL A   1      30.672  27.987  25.415  1.00  0.00     0.164 HD
BRANCH  10  13
ATOM     13  C   UNL A   1      31.496  24.741  25.554  1.00  0.00     0.071 C 
ATOM     14  C   UNL A   1      32.341  23.910  26.175  1.00  0.00     0.013 C 
BRANCH  14  15
ATOM     15  C   UNL A   1      32.747  22.560  25.813  1.00  0.00    -0.007 C 
ATOM     16  C   UNL A   1      33.857  21.803  27.959  1.00  0.00     0.058 C 
ATOM     17  C   UNL A   1      34.046  22.089  26.468  1.00  0.00     0.200 C 
ATOM     18  O   UNL A   1      34.687  20.942  25.886  1.00  0.00    -0.485 OA
ATOM     19  C   UNL A   1      33.952  20.161  25.046  1.00  0.00     0.127 A 
ATOM     20  C   UNL A   1      32.126  21.818  24.887  1.00  0.00     0.019 C 
ATOM     21  C   UNL A   1      34.537  18.948  24.681  1.00  0.00     0.047 A 
ATOM     22  C   UNL A   1      32.705  20.527  24.536  1.00  0.00     0.017 A 
ATOM     23  C   UNL A   1      33.873  18.085  23.812  1.00  0.00     0.004 A 
ATOM     24  C   UNL A   1      32.045  19.661  23.658  1.00  0.00     0.012 A 
ATOM     25  C   UNL A   1      32.627  18.442  23.301  1.00  0.00     0.001 A 
ENDBRANCH  14  15
ENDBRANCH  10  13
ENDBRANCH   8   9
BRANCH   8  26
ATOM     26  C   UNL A   1      30.008  28.158  22.909  1.00  0.00    -0.016 A 
ATOM     27  C   UNL A   1      30.374  29.277  22.141  1.00  0.00     0.006 A 
ATOM     28  C   UNL A   1      28.650  27.983  23.232  1.00  0.00     0.006 A 
ATOM     29  C   UNL A   1      29.423  30.234  21.782  1.00  0.00     0.000 A 
ATOM     30  C   UNL A   1      27.700  28.937  22.862  1.00  0.00     0.000 A 
ATOM     31  C   UNL A   1      28.091  30.071  22.154  1.00  0.00     0.000 A 
ENDBRANCH   8  26
ENDBRANCH   5   8
ENDBRANCH   3   4
ENDBRANCH   2   3
ENDBRANCH   1   2
BRANCH   1  32
ATOM     32  C   UNL A   1      35.165  22.965  22.966  1.00  0.00     0.002 C 
BRANCH  32  33
ATOM     33  C   UNL A   1      36.651  22.929  23.328  1.00  0.00     0.021 C 
BRANCH  33  34
ATOM     34  C   UNL A   1      36.956  22.930  24.823  1.00  0.00     0.116 C 
BRANCH  34  35
ATOM     35  N   UNL A   1      37.763  21.792  25.236  1.00  0.00    -0.352 N 
ATOM     36  C   UNL A   1      38.923  21.767  25.976  1.00  0.00     0.251 C 
ATOM     37  H   UNL A   1      37.431  20.912  24.944  1.00  0.00     0.163 HD
ATOM     38  O   UNL A   1      39.541  20.714  26.108  1.00  0.00    -0.269 OA
BRANCH  36  39
ATOM     39  C   UNL A   1      39.442  23.015  26.581  1.00  0.00     0.039 A 
ATOM     40  C   UNL A   1      39.023  24.265  26.119  1.00  0.00     0.014 A 
ATOM     41  C   UNL A   1      40.376  22.931  27.618  1.00  0.00     0.014 A 
ATOM     42  C   UNL A   1      39.653  25.418  26.577  1.00  0.00     0.010 A 
ATOM     43  C   UNL A   1      40.951  24.097  28.133  1.00  0.00     0.010 A 
ATOM     44  C   UNL A   1      40.629  25.348  27.585  1.00  0.00    -0.014 A 
BRANCH  44  45
ATOM     45  C   UNL A   1      41.296  26.592  28.051  1.00  0.00     0.031 A 
ATOM     46  C   UNL A   1      42.783  26.778  27.886  1.00  0.00     0.074 A 
ATOM     47  C   UNL A   1      40.550  27.585  28.576  1.00  0.00     0.049 A 
ATOM     48  N   UNL A   1      43.521  27.807  28.217  1.00  0.00    -0.248 NA
ATOM     49  C   UNL A   1      43.538  25.673  27.273  1.00  0.00     0.031 C 
ATOM     50  C   UNL A   1      39.098  27.533  28.761  1.00  0.00     0.029 A 
ATOM     51  N   UNL A   1      40.897  28.836  29.020  1.00  0.00    -0.354 N 
ATOM     52  C   UNL A   1      44.823  27.472  27.864  1.00  0.00     0.074 A 
ATOM     53  C   UNL A   1      44.782  26.132  27.320  1.00  0.00     0.031 C 
ATOM     54  C   UNL A   1      38.673  28.718  29.224  1.00  0.00     0.029 A 
ATOM     55  C   UNL A   1      39.825  29.590  29.435  1.00  0.00     0.049 A 
ATOM     56  H   UNL A   1      41.826  29.162  29.041  1.00  0.00     0.167 HD
ATOM     57  C   UNL A   1      45.947  28.220  27.970  1.00  0.00     0.031 A 
ATOM     58  C   UNL A   1      39.765  30.839  29.939  1.00  0.00     0.031 A 
ATOM     59  C   UNL A   1      45.981  29.559  28.500  1.00  0.00     0.049 A 
ATOM     60  C   UNL A   1      41.034  31.626  30.100  1.00  0.00     0.074 A 
ATOM     61  C   UNL A   1      47.075  30.396  28.635  1.00  0.00     0.029 A 
ATOM     62  N   UNL A   1      44.882  30.256  28.976  1.00  0.00    -0.354 N 
ATOM     63  N   UNL A   1      42.254  31.288  29.764  1.00  0.00    -0.248 NA
ATOM     64  C   UNL A   1      40.920  32.958  30.711  1.00  0.00     0.031 C 
ATOM     65  C   UNL A   1      46.648  31.577  29.246  1.00  0.00     0.029 A 
ATOM     66  C   UNL A   1      45.277  31.504  29.431  1.00  0.00     0.049 A 
ATOM     67  H   UNL A   1      43.958  29.915  28.990  1.00  0.00     0.167 HD
ATOM     68  C   UNL A   1      43.056  32.367  30.115  1.00  0.00     0.074 A 
ATOM     69  C   UNL A   1      42.180  33.378  30.671  1.00  0.00     0.031 C 
ATOM     70  C   UNL A   1      44.399  32.501  29.990  1.00  0.00     0.031 A 
BRANCH  57  71
ATOM     71  C   UNL A   1      47.251  27.625  27.505  1.00  0.00    -0.014 A 
ATOM     72  C   UNL A   1      48.105  27.001  28.434  1.00  0.00     0.010 A 
ATOM     73  C   UNL A   1      47.690  27.793  26.179  1.00  0.00     0.010 A 
ATOM     74  C   UNL A   1      49.384  26.584  28.056  1.00  0.00     0.020 A 
ATOM     75  C   UNL A   1      48.959  27.354  25.791  1.00  0.00     0.020 A 
ATOM     76  C   UNL A   1      49.807  26.774  26.738  1.00  0.00     0.054 A 
BRANCH  76  77
ATOM     77  S   UNL A   1      51.480  26.250  26.270  1.00  0.00     0.124 S 
ATOM     78  O   UNL A   1      52.317  27.150  27.056  1.00  0.00    -0.237 OA
ATOM     79  O   UNL A   1      51.502  24.847  26.678  1.00  0.00    -0.237 OA
ATOM     80  O   UNL A   1      51.512  26.467  24.824  1.00  0.00    -0.744 OA
ENDBRANCH  76  77
ENDBRANCH  57  71
BRANCH  58  81
ATOM     81  C   UNL A   1      38.439  31.406  30.307  1.00  0.00    -0.014 A 
ATOM     82  C   UNL A   1      37.740  32.223  29.398  1.00  0.00     0.010 A 
ATOM     83  C   UNL A   1      37.917  31.217  31.598  1.00  0.00     0.010 A 
ATOM     84  C   UNL A   1      36.581  32.894  29.793  1.00  0.00     0.020 A 
ATOM     85  C   UNL A   1      36.740  31.863  31.988  1.00  0.00     0.020 A 
ATOM     86  C   UNL A   1      36.099  32.724  31.094  1.00  0.00     0.054 A 
BRANCH  86  87
ATOM     87  S   UNL A   1      34.631  33.656  31.609  1.00  0.00     0.124 S 
ATOM     88  O   UNL A   1      35.230  34.825  32.249  1.00  0.00    -0.237 OA
ATOM     89  O   UNL A   1      33.950  33.912  30.342  1.00  0.00    -0.237 OA
ATOM     90  O   UNL A   1      33.941  32.736  32.508  1.00  0.00    -0.744 OA
ENDBRANCH  86  87
ENDBRANCH  58  81
BRANCH  70  91
ATOM     91  C   UNL A   1      45.033  33.782  30.466  1.00  0.00    -0.014 A 
ATOM     92  C   UNL A   1      45.234  34.839  29.560  1.00  0.00     0.010 A 
ATOM     93  C   UNL A   1      45.551  33.886  31.768  1.00  0.00     0.010 A 
ATOM     94  C   UNL A   1      45.975  35.962  29.935  1.00  0.00     0.020 A 
ATOM     95  C   UNL A   1      46.271  35.020  32.155  1.00  0.00     0.020 A 
ATOM     96  C   UNL A   1      46.501  36.038  31.227  1.00  0.00     0.054 A 
BRANCH  96  97
ATOM     97  S   UNL A   1      47.496  37.484  31.684  1.00  0.00     0.124 S 
ATOM     98  O   UNL A   1      48.159  37.811  30.426  1.00  0.00    -0.237 OA
ATOM     99  O   UNL A   1      46.487  38.442  32.132  1.00  0.00    -0.237 OA
ATOM    100  O   UNL A   1      48.371  36.978  32.739  1.00  0.00    -0.744 OA
ENDBRANCH  96  97
ENDBRANCH  70  91
ENDBRANCH  44  45
ENDBRANCH  36  39
ENDBRANCH  34  35
ENDBRANCH  33  34
ENDBRANCH  32  33
ENDBRANCH   1  32
TORSDOF 20
ENDMDL
MODEL 2
REMARK VINA RESULT:     -11.7      0.491      7.803
REMARK SMILES C[C@H]1Oc2ccccc2C=C1/C=C/C(=O)N[C@H](C(=O)NCCCCCCNC(=O)c1ccc(-c2c3nc(c(-c4ccc(S(=O)(=O)[O-])cc4)c4ccc([nH]4)c(-c4ccc(S(=O)(=O)[O-])cc4)c4nc(c(-c5ccc(S(=O)(=O)[O-])cc5)c5ccc2[nH]5)C=C4)C=C3)cc1)c1ccccc1
REMARK SMILES IDX 23 1 22 2 21 3 20 4 18 5 19 6 17 8 16 9 14 10 15 11 13 13
REMARK SMILES IDX 12 14 11 15 1 16 2 17 3 18 4 19 10 20 5 21 9 22 6 23 8 24
REMARK SMILES IDX 7 25 90 26 91 27 95 28 92 29 94 30 93 31 24 32 25 33 26 34
REMARK SMILES IDX 27 35 28 36 29 38 30 39 31 40 89 41 32 42 88 43 33 44 34 45
REMARK SMILES IDX 35 46 82 47 36 48 87 49 81 50 83 51 37 52 86 53 80 54 79 55
REMARK SMILES IDX 38 57 68 58 49 59 67 60 50 61 53 62 66 63 84 64 51 65 52 66
REMARK SMILES IDX 65 68 85 69 54 70 39 71 40 72 48 73 41 74 47 75 42 76 43 77
REMARK SMILES IDX 44 78 45 79 46 80 69 81 70 82 78 83 71 84 77 85 72 86 73 87
REMARK SMILES IDX 74 88 75 89 76 90 55 91 56 92 64 93 57 94 63 95 58 96 59 97
REMARK SMILES IDX 60 98 61 99 62 100
REMARK H PARENT 20 7 16 12 27 37 83 56 53 67
REMARK Flexibility Score: inf
ROOT
ATOM      1  C   UNL A   1      34.416  24.228  23.205  1.00  0.00     0.002 C 
ENDROOT
BRANCH   1   2
ATOM      2  C   UNL A   1      33.163  24.304  22.319  1.00  0.00     0.021 C 
BRANCH   2   3
ATOM      3  C   UNL A   1      32.926  25.664  21.661  1.00  0.00     0.116 C 
BRANCH   3   4
ATOM      4  N   UNL A   1      33.176  26.760  22.580  1.00  0.00    -0.354 N 
ATOM      5  C   UNL A   1      32.333  27.392  23.453  1.00  0.00     0.247 C 
ATOM      6  O   UNL A   1      32.832  28.208  24.235  1.00  0.00    -0.272 OA
ATOM      7  H   UNL A   1      34.099  27.104  22.574  1.00  0.00     0.163 HD
BRANCH   5   8
ATOM      8  C   UNL A   1      30.848  26.972  23.535  1.00  0.00     0.202 C 
BRANCH   8   9
ATOM      9  N   UNL A   1      30.554  26.706  24.947  1.00  0.00    -0.337 N 
ATOM     10  C   UNL A   1      30.847  25.688  25.791  1.00  0.00     0.244 C 
ATOM     11  O   UNL A   1      30.521  25.814  26.973  1.00  0.00    -0.270 OA
ATOM     12  H   UNL A   1      30.032  27.422  25.373  1.00  0.00     0.164 HD
BRANCH  10  13
ATOM     13  C   UNL A   1      31.530  24.423  25.398  1.00  0.00     0.071 C 
ATOM     14  C   UNL A   1      31.566  23.261  26.058  1.00  0.00     0.013 C 
BRANCH  14  15
ATOM     15  C   UNL A   1      32.294  22.040  25.747  1.00  0.00    -0.007 C 
ATOM     16  C   UNL A   1      33.670  21.753  27.852  1.00  0.00     0.058 C 
ATOM     17  C   UNL A   1      33.702  21.969  26.338  1.00  0.00     0.200 C 
ATOM     18  O   UNL A   1      34.592  20.989  25.780  1.00  0.00    -0.485 OA
ATOM     19  C   UNL A   1      34.046  19.985  25.037  1.00  0.00     0.127 A 
ATOM     20  C   UNL A   1      31.843  21.097  24.909  1.00  0.00     0.019 C 
ATOM     21  C   UNL A   1      34.911  18.942  24.703  1.00  0.00     0.047 A 
ATOM     22  C   UNL A   1      32.723  19.978  24.593  1.00  0.00     0.017 A 
ATOM     23  C   UNL A   1      34.454  17.877  23.931  1.00  0.00     0.004 A 
ATOM     24  C   UNL A   1      32.271  18.909  23.811  1.00  0.00     0.012 A 
ATOM     25  C   UNL A   1      33.134  17.860  23.485  1.00  0.00     0.001 A 
ENDBRANCH  14  15
ENDBRANCH  10  13
ENDBRANCH   8   9
BRANCH   8  26
ATOM     26  C   UNL A   1      29.931  28.018  22.901  1.00  0.00    -0.016 A 
ATOM     27  C   UNL A   1      30.425  29.101  22.155  1.00  0.00     0.006 A 
ATOM     28  C   UNL A   1      28.556  27.981  23.199  1.00  0.00     0.006 A 
ATOM     29  C   UNL A   1      29.586  30.156  21.793  1.00  0.00     0.000 A 
ATOM     30  C   UNL A   1      27.719  29.034  22.826  1.00  0.00     0.000 A 
ATOM     31  C   UNL A   1      28.238  30.129  22.140  1.00  0.00     0.000 A 
ENDBRANCH   8  26
ENDBRANCH   5   8
ENDBRANCH   3   4
ENDBRANCH   2   3
ENDBRANCH   1   2
BRANCH   1  32
ATOM     32  C   UNL A   1      35.213  22.923  23.124  1.00  0.00     0.002 C 
BRANCH  32  33
ATOM     33  C   UNL A   1      36.680  23.015  23.547  1.00  0.00     0.021 C 
BRANCH  33  34
ATOM     34  C   UNL A   1      36.923  23.004  25.053  1.00  0.00     0.116 C 
BRANCH  34  35
ATOM     35  N   UNL A   1      37.755  21.889  25.483  1.00  0.00    -0.352 N 
ATOM     36  C   UNL A   1      38.959  21.904  26.147  1.00  0.00     0.251 C 
ATOM     37  H   UNL A   1      37.404  20.994  25.267  1.00  0.00     0.163 HD
ATOM     38  O   UNL A   1      39.585  20.858  26.304  1.00  0.00    -0.269 OA
BRANCH  36  39
ATOM     39  C   UNL A   1      39.518  23.184  26.640  1.00  0.00     0.039 A 
ATOM     40  C   UNL A   1      39.220  24.390  26.001  1.00  0.00     0.014 A 
ATOM     41  C   UNL A   1      40.365  23.173  27.752  1.00  0.00     0.014 A 
ATOM     42  C   UNL A   1      39.893  25.551  26.368  1.00  0.00     0.010 A 
ATOM     43  C   UNL A   1      40.980  24.359  28.170  1.00  0.00     0.010 A 
ATOM     44  C   UNL A   1      40.786  25.549  27.453  1.00  0.00    -0.014 A 
BRANCH  44  45
ATOM     45  C   UNL A   1      41.501  26.799  27.820  1.00  0.00     0.031 A 
ATOM     46  C   UNL A   1      40.772  27.936  28.488  1.00  0.00     0.074 A 
ATOM     47  C   UNL A   1      42.828  26.890  27.599  1.00  0.00     0.049 A 
ATOM     48  N   UNL A   1      41.246  29.087  28.895  1.00  0.00    -0.248 NA
ATOM     49  C   UNL A   1      39.330  27.763  28.735  1.00  0.00     0.031 C 
ATOM     50  C   UNL A   1      43.648  25.845  26.985  1.00  0.00     0.029 A 
ATOM     51  N   UNL A   1      43.724  27.887  27.892  1.00  0.00    -0.354 N 
ATOM     52  C   UNL A   1      40.165  29.776  29.432  1.00  0.00     0.074 A 
ATOM     53  C   UNL A   1      39.003  28.930  29.276  1.00  0.00     0.031 C 
ATOM     54  C   UNL A   1      44.933  26.231  26.999  1.00  0.00     0.029 A 
ATOM     55  C   UNL A   1      45.022  27.576  27.559  1.00  0.00     0.049 A 
ATOM     56  H   UNL A   1      43.463  28.744  28.300  1.00  0.00     0.167 HD
ATOM     57  C   UNL A   1      40.148  30.997  30.016  1.00  0.00     0.031 A 
ATOM     58  C   UNL A   1      46.160  28.289  27.678  1.00  0.00     0.031 A 
ATOM     59  C   UNL A   1      41.310  31.832  30.182  1.00  0.00     0.049 A 
ATOM     60  C   UNL A   1      46.104  29.665  28.278  1.00  0.00     0.074 A 
ATOM     61  C   UNL A   1      41.387  33.081  30.773  1.00  0.00     0.029 A 
ATOM     62  N   UNL A   1      42.591  31.507  29.764  1.00  0.00    -0.354 N 
ATOM     63  N   UNL A   1      45.071  30.299  28.775  1.00  0.00    -0.248 NA
ATOM     64  C   UNL A   1      47.362  30.423  28.327  1.00  0.00     0.031 C 
ATOM     65  C   UNL A   1      42.703  33.537  30.662  1.00  0.00     0.029 A 
ATOM     66  C   UNL A   1      43.460  32.545  30.060  1.00  0.00     0.049 A 
ATOM     67  H   UNL A   1      42.845  30.665  29.322  1.00  0.00     0.167 HD
ATOM     68  C   UNL A   1      45.553  31.529  29.205  1.00  0.00     0.074 A 
ATOM     69  C   UNL A   1      46.975  31.543  28.928  1.00  0.00     0.031 C 
ATOM     70  C   UNL A   1      44.873  32.554  29.774  1.00  0.00     0.031 A 
BRANCH  57  71
ATOM     71  C   UNL A   1      38.834  31.528  30.533  1.00  0.00    -0.014 A 
ATOM     72  C   UNL A   1      38.015  32.304  29.691  1.00  0.00     0.010 A 
ATOM     73  C   UNL A   1      38.470  31.366  31.882  1.00  0.00     0.010 A 
ATOM     74  C   UNL A   1      36.874  32.935  30.195  1.00  0.00     0.020 A 
ATOM     75  C   UNL A   1      37.315  31.973  32.382  1.00  0.00     0.020 A 
ATOM     76  C   UNL A   1      36.538  32.774  31.541  1.00  0.00     0.054 A 
BRANCH  76  77
ATOM     77  S   UNL A   1      35.067  33.620  32.185  1.00  0.00     0.124 S 
ATOM     78  O   UNL A   1      34.092  32.537  32.253  1.00  0.00    -0.237 OA
ATOM     79  O   UNL A   1      35.532  34.136  33.471  1.00  0.00    -0.237 OA
ATOM     80  O   UNL A   1      34.796  34.645  31.177  1.00  0.00    -0.744 OA
ENDBRANCH  76  77
ENDBRANCH  57  71
BRANCH  58  81
ATOM     81  C   UNL A   1      47.442  27.683  27.224  1.00  0.00    -0.014 A 
ATOM     82  C   UNL A   1      48.127  26.772  28.050  1.00  0.00     0.010 A 
ATOM     83  C   UNL A   1      48.032  28.088  26.016  1.00  0.00     0.010 A 
ATOM     84  C   UNL A   1      49.407  26.330  27.710  1.00  0.00     0.020 A 
ATOM     85  C   UNL A   1      49.301  27.624  25.656  1.00  0.00     0.020 A 
ATOM     86  C   UNL A   1      49.994  26.775  26.522  1.00  0.00     0.054 A 
BRANCH  86  87
ATOM     87  S   UNL A   1      51.683  26.242  26.131  1.00  0.00     0.124 S 
ATOM     88  O   UNL A   1      52.480  27.194  26.901  1.00  0.00    -0.237 OA
ATOM     89  O   UNL A   1      51.707  24.864  26.615  1.00  0.00    -0.237 OA
ATOM     90  O   UNL A   1      51.760  26.391  24.680  1.00  0.00    -0.744 OA
ENDBRANCH  86  87
ENDBRANCH  58  81
BRANCH  70  91
ATOM     91  C   UNL A   1      45.638  33.799  30.139  1.00  0.00    -0.014 A 
ATOM     92  C   UNL A   1      46.186  33.928  31.429  1.00  0.00     0.010 A 
ATOM     93  C   UNL A   1      45.695  34.891  29.257  1.00  0.00     0.010 A 
ATOM     94  C   UNL A   1      46.743  35.139  31.843  1.00  0.00     0.020 A 
ATOM     95  C   UNL A   1      46.275  36.097  29.660  1.00  0.00     0.020 A 
ATOM     96  C   UNL A   1      46.772  36.221  30.960  1.00  0.00     0.054 A 
BRANCH  96  97
ATOM     97  S   UNL A   1      47.462  37.799  31.529  1.00  0.00     0.124 S 
ATOM     98  O   UNL A   1      48.632  37.949  30.671  1.00  0.00    -0.237 OA
ATOM     99  O   UNL A   1      46.371  38.738  31.275  1.00  0.00    -0.237 OA
ATOM    100  O   UNL A   1      47.747  37.558  32.941  1.00  0.00    -0.744 OA
ENDBRANCH  96  97
ENDBRANCH  70  91
ENDBRANCH  44  45
ENDBRANCH  36  39
ENDBRANCH  34  35
ENDBRANCH  33  34
ENDBRANCH  32  33
ENDBRANCH   1  32
TORSDOF 20
ENDMDL
MODEL 3
REMARK VINA RESULT:     -11.6      2.599      9.434
REMARK SMILES C[C@H]1Oc2ccccc2C=C1/C=C/C(=O)N[C@H](C(=O)NCCCCCCNC(=O)c1ccc(-c2c3nc(c(-c4ccc(S(=O)(=O)[O-])cc4)c4ccc([nH]4)c(-c4ccc(S(=O)(=O)[O-])cc4)c4nc(c(-c5ccc(S(=O)(=O)[O-])cc5)c5ccc2[nH]5)C=C4)C=C3)cc1)c1ccccc1
REMARK SMILES IDX 23 1 22 2 21 3 20 4 18 5 19 6 17 8 16 9 14 10 15 11 13 13
REMARK SMILES IDX 12 14 11 15 1 16 2 17 3 18 4 19 10 20 5 21 9 22 6 23 8 24
REMARK SMILES IDX 7 25 90 26 91 27 95 28 92 29 94 30 93 31 24 32 25 33 26 34
REMARK SMILES IDX 27 35 28 36 29 38 30 39 31 40 89 41 32 42 88 43 33 44 34 45
REMARK SMILES IDX 35 46 82 47 36 48 87 49 81 50 83 51 37 52 86 53 80 54 79 55
REMARK SMILES IDX 38 57 68 58 49 59 67 60 50 61 53 62 66 63 84 64 51 65 52 66
REMARK SMILES IDX 65 68 85 69 54 70 39 71 40 72 48 73 41 74 47 75 42 76 43 77
REMARK SMILES IDX 44 78 45 79 46 80 69 81 70 82 78 83 71 84 77 85 72 86 73 87
REMARK SMILES IDX 74 88 75 89 76 90 55 91 56 92 64 93 57 94 63 95 58 96 59 97
REMARK SMILES IDX 60 98 61 99 62 100
REMARK H PARENT 20 7 16 12 27 37 83 56 53 67
REMARK Flexibility Score: inf
ROOT
ATOM      1  C   UNL A   1      37.401  21.384  24.939  1.00  0.00     0.002 C 
ENDROOT
BRANCH   1   2
ATOM      2  C   UNL A   1      36.170  21.628  25.825  1.00  0.00     0.021 C 
BRANCH   2   3
ATOM      3  C   UNL A   1      35.277  22.784  25.376  1.00  0.00     0.116 C 
BRANCH   3   4
ATOM      4  N   UNL A   1      34.437  22.413  24.251  1.00  0.00    -0.354 N 
ATOM      5  C   UNL A   1      33.421  21.499  24.170  1.00  0.00     0.247 C 
ATOM      6  O   UNL A   1      32.761  21.474  23.127  1.00  0.00    -0.272 OA
ATOM      7  H   UNL A   1      34.627  22.895  23.414  1.00  0.00     0.163 HD
BRANCH   5   8
ATOM      8  C   UNL A   1      33.045  20.649  25.405  1.00  0.00     0.202 C 
BRANCH   8   9
ATOM      9  N   UNL A   1      31.661  20.986  25.753  1.00  0.00    -0.337 N 
ATOM     10  C   UNL A   1      31.030  22.136  26.090  1.00  0.00     0.244 C 
ATOM     11  O   UNL A   1      29.808  22.095  26.239  1.00  0.00    -0.270 OA
ATOM     12  H   UNL A   1      31.060  20.206  25.737  1.00  0.00     0.164 HD
BRANCH  10  13
ATOM     13  C   UNL A   1      31.705  23.448  26.297  1.00  0.00     0.071 C 
ATOM     14  C   UNL A   1      31.317  24.655  25.870  1.00  0.00     0.013 C 
BRANCH  14  15
ATOM     15  C   UNL A   1      31.995  25.939  25.979  1.00  0.00    -0.007 C 
ATOM     16  C   UNL A   1      33.635  25.779  24.058  1.00  0.00     0.058 C 
ATOM     17  C   UNL A   1      33.468  25.918  25.572  1.00  0.00     0.200 C 
ATOM     18  O   UNL A   1      34.275  27.029  25.996  1.00  0.00    -0.485 OA
ATOM     19  C   UNL A   1      33.634  28.158  26.410  1.00  0.00     0.127 A 
ATOM     20  C   UNL A   1      31.436  27.033  26.512  1.00  0.00     0.019 C 
ATOM     21  C   UNL A   1      34.444  29.278  26.600  1.00  0.00     0.047 A 
ATOM     22  C   UNL A   1      32.264  28.223  26.668  1.00  0.00     0.017 A 
ATOM     23  C   UNL A   1      33.887  30.477  27.039  1.00  0.00     0.004 A 
ATOM     24  C   UNL A   1      31.710  29.428  27.116  1.00  0.00     0.012 A 
ATOM     25  C   UNL A   1      32.520  30.552  27.297  1.00  0.00     0.001 A 
ENDBRANCH  14  15
ENDBRANCH  10  13
ENDBRANCH   8   9
BRANCH   8  26
ATOM     26  C   UNL A   1      33.273  19.159  25.154  1.00  0.00    -0.016 A 
ATOM     27  C   UNL A   1      32.527  18.161  25.805  1.00  0.00     0.006 A 
ATOM     28  C   UNL A   1      34.365  18.767  24.359  1.00  0.00     0.006 A 
ATOM     29  C   UNL A   1      32.915  16.822  25.732  1.00  0.00     0.000 A 
ATOM     30  C   UNL A   1      34.744  17.425  24.280  1.00  0.00     0.000 A 
ATOM     31  C   UNL A   1      34.029  16.457  24.981  1.00  0.00     0.000 A 
ENDBRANCH   8  26
ENDBRANCH   5   8
ENDBRANCH   3   4
ENDBRANCH   2   3
ENDBRANCH   1   2
BRANCH   1  32
ATOM     32  C   UNL A   1      37.669  19.924  24.557  1.00  0.00     0.002 C 
BRANCH  32  33
ATOM     33  C   UNL A   1      38.632  19.167  25.472  1.00  0.00     0.021 C 
BRANCH  33  34
ATOM     34  C   UNL A   1      39.842  19.966  25.948  1.00  0.00     0.116 C 
BRANCH  34  35
ATOM     35  N   UNL A   1      41.046  19.157  26.060  1.00  0.00    -0.352 N 
ATOM     36  C   UNL A   1      42.348  19.552  26.259  1.00  0.00     0.251 C 
ATOM     37  H   UNL A   1      40.907  18.184  25.983  1.00  0.00     0.163 HD
ATOM     38  O   UNL A   1      43.255  18.727  26.188  1.00  0.00    -0.269 OA
BRANCH  36  39
ATOM     39  C   UNL A   1      42.658  20.976  26.522  1.00  0.00     0.039 A 
ATOM     40  C   UNL A   1      42.827  21.879  25.470  1.00  0.00     0.014 A 
ATOM     41  C   UNL A   1      42.796  21.409  27.844  1.00  0.00     0.014 A 
ATOM     42  C   UNL A   1      43.292  23.165  25.732  1.00  0.00     0.010 A 
ATOM     43  C   UNL A   1      43.186  22.727  28.108  1.00  0.00     0.010 A 
ATOM     44  C   UNL A   1      43.483  23.602  27.053  1.00  0.00    -0.014 A 
BRANCH  44  45
ATOM     45  C   UNL A   1      43.989  24.977  27.307  1.00  0.00     0.031 A 
ATOM     46  C   UNL A   1      43.081  26.042  27.863  1.00  0.00     0.074 A 
ATOM     47  C   UNL A   1      45.291  25.252  27.087  1.00  0.00     0.049 A 
ATOM     48  N   UNL A   1      43.364  27.285  28.163  1.00  0.00    -0.248 NA
ATOM     49  C   UNL A   1      41.679  25.671  28.116  1.00  0.00     0.031 C 
ATOM     50  C   UNL A   1      46.275  24.295  26.576  1.00  0.00     0.029 A 
ATOM     51  N   UNL A   1      46.017  26.398  27.291  1.00  0.00    -0.354 N 
ATOM     52  C   UNL A   1      42.180  27.845  28.629  1.00  0.00     0.074 A 
ATOM     53  C   UNL A   1      41.165  26.818  28.544  1.00  0.00     0.031 C 
ATOM     54  C   UNL A   1      47.485  24.875  26.562  1.00  0.00     0.029 A 
ATOM     55  C   UNL A   1      47.354  26.263  26.996  1.00  0.00     0.049 A 
ATOM     56  H   UNL A   1      45.619  27.238  27.616  1.00  0.00     0.167 HD
ATOM     57  C   UNL A   1      41.963  29.096  29.097  1.00  0.00     0.031 A 
ATOM     58  C   UNL A   1      48.366  27.151  27.055  1.00  0.00     0.031 A 
ATOM     59  C   UNL A   1      42.980  30.113  29.191  1.00  0.00     0.049 A 
ATOM     60  C   UNL A   1      48.088  28.550  27.524  1.00  0.00     0.074 A 
ATOM     61  C   UNL A   1      42.852  31.407  29.664  1.00  0.00     0.029 A 
ATOM     62  N   UNL A   1      44.304  29.954  28.813  1.00  0.00    -0.354 N 
ATOM     63  N   UNL A   1      46.959  29.059  27.955  1.00  0.00    -0.248 NA
ATOM     64  C   UNL A   1      49.213  29.496  27.511  1.00  0.00     0.031 C 
ATOM     65  C   UNL A   1      44.084  32.049  29.519  1.00  0.00     0.029 A 
ATOM     66  C   UNL A   1      44.997  31.136  29.017  1.00  0.00     0.049 A 
ATOM     67  H   UNL A   1      44.693  29.124  28.452  1.00  0.00     0.167 HD
ATOM     68  C   UNL A   1      47.238  30.383  28.271  1.00  0.00     0.074 A 
ATOM     69  C   UNL A   1      48.646  30.592  28.003  1.00  0.00     0.031 C 
ATOM     70  C   UNL A   1      46.397  31.338  28.739  1.00  0.00     0.031 A 
BRANCH  57  71
ATOM     71  C   UNL A   1      40.574  29.461  29.554  1.00  0.00    -0.014 A 
ATOM     72  C   UNL A   1      39.657  30.007  28.636  1.00  0.00     0.010 A 
ATOM     73  C   UNL A   1      40.217  29.384  30.912  1.00  0.00     0.010 A 
ATOM     74  C   UNL A   1      38.422  30.496  29.070  1.00  0.00     0.020 A 
ATOM     75  C   UNL A   1      38.972  29.848  31.346  1.00  0.00     0.020 A 
ATOM     76  C   UNL A   1      38.092  30.423  30.425  1.00  0.00     0.054 A 
BRANCH  76  77
ATOM     77  S   UNL A   1      36.495  31.087  30.976  1.00  0.00     0.124 S 
ATOM     78  O   UNL A   1      35.742  31.155  29.728  1.00  0.00    -0.237 OA
ATOM     79  O   UNL A   1      36.044  30.080  31.934  1.00  0.00    -0.237 OA
ATOM     80  O   UNL A   1      36.848  32.377  31.565  1.00  0.00    -0.744 OA
ENDBRANCH  76  77
ENDBRANCH  57  71
BRANCH  58  81
ATOM     81  C   UNL A   1      49.734  26.713  26.667  1.00  0.00    -0.014 A 
ATOM     82  C   UNL A   1      50.129  26.731  25.315  1.00  0.00     0.010 A 
ATOM     83  C   UNL A   1      50.612  26.183  27.628  1.00  0.00     0.010 A 
ATOM     84  C   UNL A   1      51.345  26.166  24.923  1.00  0.00     0.020 A 
ATOM     85  C   UNL A   1      51.843  25.645  27.243  1.00  0.00     0.020 A 
ATOM     86  C   UNL A   1      52.186  25.609  25.889  1.00  0.00     0.054 A 
BRANCH  86  87
ATOM     87  S   UNL A   1      53.729  24.821  25.353  1.00  0.00     0.124 S 
ATOM     88  O   UNL A   1      54.554  24.937  26.553  1.00  0.00    -0.237 OA
ATOM     89  O   UNL A   1      53.299  23.468  25.013  1.00  0.00    -0.237 OA
ATOM     90  O   UNL A   1      54.154  25.639  24.220  1.00  0.00    -0.744 OA
ENDBRANCH  86  87
ENDBRANCH  58  81
BRANCH  70  91
ATOM     91  C   UNL A   1      46.953  32.714  28.992  1.00  0.00    -0.014 A 
ATOM     92  C   UNL A   1      46.967  33.662  27.952  1.00  0.00     0.010 A 
ATOM     93  C   UNL A   1      47.583  33.021  30.209  1.00  0.00     0.010 A 
ATOM     94  C   UNL A   1      47.635  34.878  28.112  1.00  0.00     0.020 A 
ATOM     95  C   UNL A   1      48.231  34.248  30.382  1.00  0.00     0.020 A 
ATOM     96  C   UNL A   1      48.275  35.157  29.323  1.00  0.00     0.054 A 
BRANCH  96  97
ATOM     97  S   UNL A   1      49.172  36.724  29.499  1.00  0.00     0.124 S 
ATOM     98  O   UNL A   1      49.274  37.177  28.116  1.00  0.00    -0.237 OA
ATOM     99  O   UNL A   1      48.285  37.509  30.355  1.00  0.00    -0.237 OA
ATOM    100  O   UNL A   1      50.433  36.328  30.123  1.00  0.00    -0.744 OA
ENDBRANCH  96  97
ENDBRANCH  70  91
ENDBRANCH  44  45
ENDBRANCH  36  39
ENDBRANCH  34  35
ENDBRANCH  33  34
ENDBRANCH  32  33
ENDBRANCH   1  32
TORSDOF 20
ENDMDL
