MODEL 1
REMARK VINA RESULT:     -10.6      0.000      0.000
REMARK SMILES CC[C@@H](NC(=O)c1ccc(CNC(=O)[C@H]2CCCO2)cc1)C(=O)NCCCCCCNC(=O)c1ccc(-c2c3nc(c(-c4ccc(S(=O)(=O)[O-])cc4)c4ccc([nH]4)c(-c4ccc(S(=O)(=O)[O-])cc4)c4nc(c(-c5ccc(S(=O)(=O)[O-])cc5)c5ccc2[nH]5)C=C4)C=C3)cc1
REMARK SMILES IDX 26 1 25 2 24 3 22 4 23 5 3 7 2 8 1 9 4 10 5 11 6 13 7 14
REMARK SMILES IDX 8 15 21 16 9 17 20 18 10 19 11 20 12 21 13 22 14 24 15 25
REMARK SMILES IDX 16 26 19 27 17 28 18 29 27 30 28 31 29 32 30 33 31 34 32 35
REMARK SMILES IDX 33 37 34 38 35 39 93 40 36 41 92 42 37 43 38 44 39 45 86 46
REMARK SMILES IDX 40 47 91 48 85 49 87 50 41 51 90 52 84 53 83 54 42 56 72 57
REMARK SMILES IDX 53 58 71 59 54 60 57 61 70 62 88 63 55 64 56 65 69 67 89 68
REMARK SMILES IDX 58 69 43 70 44 71 52 72 45 73 51 74 46 75 47 76 48 77 49 78
REMARK SMILES IDX 50 79 73 80 74 81 82 82 75 83 81 84 76 85 77 86 78 87 79 88
REMARK SMILES IDX 80 89 59 90 60 91 68 92 61 93 67 94 62 95 63 96 64 97 65 98
REMARK SMILES IDX 66 99
REMARK H PARENT 24 6 4 12 12 23 31 36 87 55 57 66
REMARK Flexibility Score: inf
ROOT
ATOM      1  C   UNL A   1      36.509  23.183  23.949  1.00  0.00     0.021 C 
ENDROOT
BRANCH   1   2
ATOM      2  C   UNL A   1      35.244  23.600  24.680  1.00  0.00     0.116 C 
BRANCH   2   3
ATOM      3  N   UNL A   1      35.316  23.175  26.066  1.00  0.00    -0.354 N 
ATOM      4  C   UNL A   1      34.351  22.625  26.851  1.00  0.00     0.242 C 
ATOM      5  O   UNL A   1      34.580  22.504  28.058  1.00  0.00    -0.273 OA
ATOM      6  H   UNL A   1      36.190  23.304  26.501  1.00  0.00     0.163 HD
BRANCH   4   7
ATOM      7  C   UNL A   1      32.968  22.289  26.271  1.00  0.00     0.171 C 
BRANCH   7   8
ATOM      8  C   UNL A   1      33.053  20.792  25.872  1.00  0.00     0.032 C 
ATOM      9  C   UNL A   1      33.033  20.482  24.387  1.00  0.00     0.006 C 
ENDBRANCH   7   8
BRANCH   7  10
ATOM     10  N   UNL A   1      31.823  22.605  27.147  1.00  0.00    -0.340 N 
ATOM     11  C   UNL A   1      30.567  23.099  26.849  1.00  0.00     0.251 C 
ATOM     12  H   UNL A   1      31.981  22.436  28.104  1.00  0.00     0.164 HD
ATOM     13  O   UNL A   1      29.651  22.926  27.650  1.00  0.00    -0.269 OA
BRANCH  11  14
ATOM     14  C   UNL A   1      30.344  24.004  25.696  1.00  0.00     0.039 A 
ATOM     15  C   UNL A   1      29.729  25.236  25.957  1.00  0.00     0.014 A 
ATOM     16  C   UNL A   1      30.805  23.728  24.412  1.00  0.00     0.014 A 
ATOM     17  C   UNL A   1      29.733  26.248  24.990  1.00  0.00     0.006 A 
ATOM     18  C   UNL A   1      30.819  24.749  23.449  1.00  0.00     0.006 A 
ATOM     19  C   UNL A   1      30.329  26.036  23.739  1.00  0.00    -0.029 A 
BRANCH  19  20
ATOM     20  C   UNL A   1      30.577  27.173  22.767  1.00  0.00     0.151 C 
BRANCH  20  21
ATOM     21  N   UNL A   1      31.822  27.040  22.043  1.00  0.00    -0.350 N 
ATOM     22  C   UNL A   1      33.134  27.187  22.346  1.00  0.00     0.249 C 
ATOM     23  H   UNL A   1      31.682  26.777  21.105  1.00  0.00     0.163 HD
ATOM     24  O   UNL A   1      33.909  26.924  21.415  1.00  0.00    -0.272 OA
BRANCH  22  25
ATOM     25  C   UNL A   1      33.725  27.594  23.715  1.00  0.00     0.207 C 
ATOM     26  C   UNL A   1      33.281  28.859  24.424  1.00  0.00     0.044 C 
ATOM     27  O   UNL A   1      33.590  26.523  24.669  1.00  0.00    -0.368 OA
ATOM     28  C   UNL A   1      32.511  28.353  25.620  1.00  0.00     0.032 C 
ATOM     29  C   UNL A   1      33.267  27.090  25.942  1.00  0.00     0.161 C 
ENDBRANCH  22  25
ENDBRANCH  20  21
ENDBRANCH  19  20
ENDBRANCH  11  14
ENDBRANCH   7  10
ENDBRANCH   4   7
ENDBRANCH   2   3
ENDBRANCH   1   2
BRANCH   1  30
ATOM     30  C   UNL A   1      36.927  21.746  24.275  1.00  0.00     0.002 C 
BRANCH  30  31
ATOM     31  C   UNL A   1      38.109  21.652  25.246  1.00  0.00     0.002 C 
BRANCH  31  32
ATOM     32  C   UNL A   1      38.750  20.277  25.352  1.00  0.00     0.021 C 
BRANCH  32  33
ATOM     33  C   UNL A   1      39.800  20.197  26.449  1.00  0.00     0.116 C 
BRANCH  33  34
ATOM     34  N   UNL A   1      40.873  19.269  26.115  1.00  0.00    -0.352 N 
ATOM     35  C   UNL A   1      42.195  19.543  25.885  1.00  0.00     0.251 C 
ATOM     36  H   UNL A   1      40.614  18.323  26.045  1.00  0.00     0.163 HD
ATOM     37  O   UNL A   1      42.937  18.678  25.429  1.00  0.00    -0.269 OA
BRANCH  35  38
ATOM     38  C   UNL A   1      42.698  20.894  26.187  1.00  0.00     0.039 A 
ATOM     39  C   UNL A   1      43.074  21.733  25.138  1.00  0.00     0.014 A 
ATOM     40  C   UNL A   1      42.765  21.333  27.512  1.00  0.00     0.014 A 
ATOM     41  C   UNL A   1      43.490  23.032  25.425  1.00  0.00     0.010 A 
ATOM     42  C   UNL A   1      43.070  22.656  27.784  1.00  0.00     0.010 A 
ATOM     43  C   UNL A   1      43.475  23.508  26.748  1.00  0.00    -0.014 A 
BRANCH  43  44
ATOM     44  C   UNL A   1      43.944  24.873  27.079  1.00  0.00     0.031 A 
ATOM     45  C   UNL A   1      45.394  25.227  26.878  1.00  0.00     0.074 A 
ATOM     46  C   UNL A   1      43.083  25.771  27.595  1.00  0.00     0.049 A 
ATOM     47  N   UNL A   1      46.008  26.356  27.120  1.00  0.00    -0.248 NA
ATOM     48  C   UNL A   1      46.280  24.164  26.371  1.00  0.00     0.031 C 
ATOM     49  C   UNL A   1      41.666  25.525  27.877  1.00  0.00     0.029 A 
ATOM     50  N   UNL A   1      43.273  27.076  27.967  1.00  0.00    -0.354 N 
ATOM     51  C   UNL A   1      47.346  26.129  26.818  1.00  0.00     0.074 A 
ATOM     52  C   UNL A   1      47.469  24.741  26.441  1.00  0.00     0.031 C 
ATOM     53  C   UNL A   1      41.106  26.658  28.331  1.00  0.00     0.029 A 
ATOM     54  C   UNL A   1      42.130  27.695  28.412  1.00  0.00     0.049 A 
ATOM     55  H   UNL A   1      44.147  27.527  27.920  1.00  0.00     0.167 HD
ATOM     56  C   UNL A   1      48.376  27.006  26.826  1.00  0.00     0.031 A 
ATOM     57  C   UNL A   1      41.930  28.959  28.832  1.00  0.00     0.031 A 
ATOM     58  C   UNL A   1      48.239  28.392  27.179  1.00  0.00     0.049 A 
ATOM     59  C   UNL A   1      43.090  29.917  28.826  1.00  0.00     0.074 A 
ATOM     60  C   UNL A   1      49.202  29.385  27.157  1.00  0.00     0.029 A 
ATOM     61  N   UNL A   1      47.063  28.983  27.618  1.00  0.00    -0.354 N 
ATOM     62  N   UNL A   1      44.334  29.706  28.466  1.00  0.00    -0.248 NA
ATOM     63  C   UNL A   1      42.813  31.292  29.263  1.00  0.00     0.031 C 
ATOM     64  C   UNL A   1      48.623  30.562  27.641  1.00  0.00     0.029 A 
ATOM     65  C   UNL A   1      47.282  30.321  27.895  1.00  0.00     0.049 A 
ATOM     66  H   UNL A   1      46.201  28.518  27.717  1.00  0.00     0.167 HD
ATOM     67  C   UNL A   1      44.979  30.932  28.595  1.00  0.00     0.074 A 
ATOM     68  C   UNL A   1      43.984  31.878  29.056  1.00  0.00     0.031 C 
ATOM     69  C   UNL A   1      46.276  31.247  28.350  1.00  0.00     0.031 A 
BRANCH  56  70
ATOM     70  C   UNL A   1      49.740  26.485  26.452  1.00  0.00    -0.014 A 
ATOM     71  C   UNL A   1      50.293  26.723  25.179  1.00  0.00     0.010 A 
ATOM     72  C   UNL A   1      50.493  25.767  27.397  1.00  0.00     0.010 A 
ATOM     73  C   UNL A   1      51.551  26.213  24.845  1.00  0.00     0.020 A 
ATOM     74  C   UNL A   1      51.766  25.284  27.080  1.00  0.00     0.020 A 
ATOM     75  C   UNL A   1      52.278  25.495  25.798  1.00  0.00     0.054 A 
BRANCH  75  76
ATOM     76  S   UNL A   1      53.916  24.863  25.345  1.00  0.00     0.124 S 
ATOM     77  O   UNL A   1      54.576  24.776  26.646  1.00  0.00    -0.237 OA
ATOM     78  O   UNL A   1      53.601  23.583  24.715  1.00  0.00    -0.237 OA
ATOM     79  O   UNL A   1      54.447  25.884  24.446  1.00  0.00    -0.744 OA
ENDBRANCH  75  76
ENDBRANCH  56  70
BRANCH  57  80
ATOM     80  C   UNL A   1      40.572  29.400  29.252  1.00  0.00    -0.014 A 
ATOM     81  C   UNL A   1      40.197  29.363  30.607  1.00  0.00     0.010 A 
ATOM     82  C   UNL A   1      39.645  29.867  28.300  1.00  0.00     0.010 A 
ATOM     83  C   UNL A   1      38.914  29.758  31.000  1.00  0.00     0.020 A 
ATOM     84  C   UNL A   1      38.374  30.293  28.694  1.00  0.00     0.020 A 
ATOM     85  C   UNL A   1      38.011  30.222  30.039  1.00  0.00     0.054 A 
BRANCH  85  86
ATOM     86  S   UNL A   1      36.366  30.766  30.579  1.00  0.00     0.124 S 
ATOM     87  O   UNL A   1      35.528  30.358  29.456  1.00  0.00    -0.237 OA
ATOM     88  O   UNL A   1      36.177  30.014  31.817  1.00  0.00    -0.237 OA
ATOM     89  O   UNL A   1      36.524  32.208  30.752  1.00  0.00    -0.744 OA
ENDBRANCH  85  86
ENDBRANCH  57  80
BRANCH  69  90
ATOM     90  C   UNL A   1      46.681  32.688  28.519  1.00  0.00    -0.014 A 
ATOM     91  C   UNL A   1      46.569  33.614  27.467  1.00  0.00     0.010 A 
ATOM     92  C   UNL A   1      47.145  33.128  29.772  1.00  0.00     0.010 A 
ATOM     93  C   UNL A   1      46.958  34.943  27.654  1.00  0.00     0.020 A 
ATOM     94  C   UNL A   1      47.501  34.463  29.974  1.00  0.00     0.020 A 
ATOM     95  C   UNL A   1      47.423  35.358  28.906  1.00  0.00     0.054 A 
BRANCH  95  96
ATOM     96  S   UNL A   1      47.898  37.094  29.129  1.00  0.00     0.124 S 
ATOM     97  O   UNL A   1      49.351  37.000  29.230  1.00  0.00    -0.237 OA
ATOM     98  O   UNL A   1      47.391  37.722  27.912  1.00  0.00    -0.237 OA
ATOM     99  O   UNL A   1      47.212  37.486  30.359  1.00  0.00    -0.744 OA
ENDBRANCH  95  96
ENDBRANCH  69  90
ENDBRANCH  43  44
ENDBRANCH  35  38
ENDBRANCH  33  34
ENDBRANCH  32  33
ENDBRANCH  31  32
ENDBRANCH  30  31
ENDBRANCH   1  30
TORSDOF 22
ENDMDL
MODEL 2
REMARK VINA RESULT:     -10.5      0.551      7.927
REMARK SMILES CC[C@@H](NC(=O)c1ccc(CNC(=O)[C@H]2CCCO2)cc1)C(=O)NCCCCCCNC(=O)c1ccc(-c2c3nc(c(-c4ccc(S(=O)(=O)[O-])cc4)c4ccc([nH]4)c(-c4ccc(S(=O)(=O)[O-])cc4)c4nc(c(-c5ccc(S(=O)(=O)[O-])cc5)c5ccc2[nH]5)C=C4)C=C3)cc1
REMARK SMILES IDX 26 1 25 2 24 3 22 4 23 5 3 7 2 8 1 9 4 10 5 11 6 13 7 14
REMARK SMILES IDX 8 15 21 16 9 17 20 18 10 19 11 20 12 21 13 22 14 24 15 25
REMARK SMILES IDX 16 26 19 27 17 28 18 29 27 30 28 31 29 32 30 33 31 34 32 35
REMARK SMILES IDX 33 37 34 38 35 39 93 40 36 41 92 42 37 43 38 44 39 45 86 46
REMARK SMILES IDX 40 47 91 48 85 49 87 50 41 51 90 52 84 53 83 54 42 56 72 57
REMARK SMILES IDX 53 58 71 59 54 60 57 61 70 62 88 63 55 64 56 65 69 67 89 68
REMARK SMILES IDX 58 69 43 70 44 71 52 72 45 73 51 74 46 75 47 76 48 77 49 78
REMARK SMILES IDX 50 79 73 80 74 81 82 82 75 83 81 84 76 85 77 86 78 87 79 88
REMARK SMILES IDX 80 89 59 90 60 91 68 92 61 93 67 94 62 95 63 96 64 97 65 98
REMARK SMILES IDX 66 99
REMARK H PARENT 24 6 4 12 12 23 31 36 87 55 57 66
REMARK Flexibility Score: inf
ROOT
ATOM      1  C   UNL A   1      36.388  23.334  23.878  1.00  0.00     0.021 C 
ENDROOT
BRANCH   1   2
ATOM      2  C   UNL A   1      35.196  23.843  24.672  1.00  0.00     0.116 C 
BRANCH   2   3
ATOM      3  N   UNL A   1      35.290  23.385  26.046  1.00  0.00    -0.354 N 
ATOM      4  C   UNL A   1      34.350  22.780  26.819  1.00  0.00     0.242 C 
ATOM      5  O   UNL A   1      34.588  22.636  28.022  1.00  0.00    -0.273 OA
ATOM      6  H   UNL A   1      36.160  23.534  26.480  1.00  0.00     0.163 HD
BRANCH   4   7
ATOM      7  C   UNL A   1      32.977  22.409  26.235  1.00  0.00     0.171 C 
BRANCH   7   8
ATOM      8  C   UNL A   1      33.099  20.913  25.841  1.00  0.00     0.032 C 
ATOM      9  C   UNL A   1      33.104  20.600  24.357  1.00  0.00     0.006 C 
ENDBRANCH   7   8
BRANCH   7  10
ATOM     10  N   UNL A   1      31.821  22.700  27.107  1.00  0.00    -0.340 N 
ATOM     11  C   UNL A   1      30.558  23.171  26.805  1.00  0.00     0.251 C 
ATOM     12  H   UNL A   1      31.977  22.530  28.064  1.00  0.00     0.164 HD
ATOM     13  O   UNL A   1      29.641  22.977  27.601  1.00  0.00    -0.269 OA
BRANCH  11  14
ATOM     14  C   UNL A   1      30.324  24.076  25.654  1.00  0.00     0.039 A 
ATOM     15  C   UNL A   1      29.777  25.337  25.931  1.00  0.00     0.014 A 
ATOM     16  C   UNL A   1      30.713  23.770  24.354  1.00  0.00     0.014 A 
ATOM     17  C   UNL A   1      29.782  26.340  24.955  1.00  0.00     0.006 A 
ATOM     18  C   UNL A   1      30.730  24.782  23.381  1.00  0.00     0.006 A 
ATOM     19  C   UNL A   1      30.311  26.092  23.681  1.00  0.00    -0.029 A 
BRANCH  19  20
ATOM     20  C   UNL A   1      30.566  27.210  22.687  1.00  0.00     0.151 C 
BRANCH  20  21
ATOM     21  N   UNL A   1      31.835  27.084  22.005  1.00  0.00    -0.350 N 
ATOM     22  C   UNL A   1      33.131  27.307  22.331  1.00  0.00     0.249 C 
ATOM     23  H   UNL A   1      31.732  26.757  21.082  1.00  0.00     0.163 HD
ATOM     24  O   UNL A   1      33.942  27.019  21.438  1.00  0.00    -0.272 OA
BRANCH  22  25
ATOM     25  C   UNL A   1      33.666  27.825  23.685  1.00  0.00     0.207 C 
ATOM     26  C   UNL A   1      33.213  29.154  24.259  1.00  0.00     0.044 C 
ATOM     27  O   UNL A   1      33.469  26.845  24.722  1.00  0.00    -0.368 OA
ATOM     28  C   UNL A   1      32.380  28.765  25.457  1.00  0.00     0.032 C 
ATOM     29  C   UNL A   1      33.099  27.526  25.924  1.00  0.00     0.161 C 
ENDBRANCH  22  25
ENDBRANCH  20  21
ENDBRANCH  19  20
ENDBRANCH  11  14
ENDBRANCH   7  10
ENDBRANCH   4   7
ENDBRANCH   2   3
ENDBRANCH   1   2
BRANCH   1  30
ATOM     30  C   UNL A   1      36.775  21.902  24.257  1.00  0.00     0.002 C 
BRANCH  30  31
ATOM     31  C   UNL A   1      37.983  21.816  25.195  1.00  0.00     0.002 C 
BRANCH  31  32
ATOM     32  C   UNL A   1      38.630  20.442  25.292  1.00  0.00     0.021 C 
BRANCH  32  33
ATOM     33  C   UNL A   1      39.637  20.341  26.426  1.00  0.00     0.116 C 
BRANCH  33  34
ATOM     34  N   UNL A   1      40.708  19.401  26.127  1.00  0.00    -0.352 N 
ATOM     35  C   UNL A   1      42.037  19.661  25.918  1.00  0.00     0.251 C 
ATOM     36  H   UNL A   1      40.443  18.455  26.066  1.00  0.00     0.163 HD
ATOM     37  O   UNL A   1      42.780  18.783  25.489  1.00  0.00    -0.269 OA
BRANCH  35  38
ATOM     38  C   UNL A   1      42.545  21.012  26.209  1.00  0.00     0.039 A 
ATOM     39  C   UNL A   1      42.805  21.374  27.530  1.00  0.00     0.014 A 
ATOM     40  C   UNL A   1      42.790  21.905  25.161  1.00  0.00     0.014 A 
ATOM     41  C   UNL A   1      43.345  22.632  27.794  1.00  0.00     0.010 A 
ATOM     42  C   UNL A   1      43.429  23.106  25.418  1.00  0.00     0.010 A 
ATOM     43  C   UNL A   1      43.676  23.499  26.739  1.00  0.00    -0.014 A 
BRANCH  43  44
ATOM     44  C   UNL A   1      44.220  24.852  26.998  1.00  0.00     0.031 A 
ATOM     45  C   UNL A   1      43.298  25.941  27.483  1.00  0.00     0.074 A 
ATOM     46  C   UNL A   1      45.520  25.110  26.759  1.00  0.00     0.049 A 
ATOM     47  N   UNL A   1      43.569  27.191  27.753  1.00  0.00    -0.248 NA
ATOM     48  C   UNL A   1      41.877  25.589  27.655  1.00  0.00     0.031 C 
ATOM     49  C   UNL A   1      46.496  24.146  26.244  1.00  0.00     0.029 A 
ATOM     50  N   UNL A   1      46.246  26.260  26.926  1.00  0.00    -0.354 N 
ATOM     51  C   UNL A   1      42.355  27.773  28.101  1.00  0.00     0.074 A 
ATOM     52  C   UNL A   1      41.337  26.762  27.944  1.00  0.00     0.031 C 
ATOM     53  C   UNL A   1      47.703  24.733  26.184  1.00  0.00     0.029 A 
ATOM     54  C   UNL A   1      47.577  26.122  26.615  1.00  0.00     0.049 A 
ATOM     55  H   UNL A   1      45.850  27.106  27.239  1.00  0.00     0.167 HD
ATOM     56  C   UNL A   1      42.114  29.030  28.540  1.00  0.00     0.031 A 
ATOM     57  C   UNL A   1      48.585  27.014  26.678  1.00  0.00     0.031 A 
ATOM     58  C   UNL A   1      43.138  30.022  28.717  1.00  0.00     0.049 A 
ATOM     59  C   UNL A   1      48.292  28.404  27.176  1.00  0.00     0.074 A 
ATOM     60  C   UNL A   1      43.016  31.305  29.220  1.00  0.00     0.029 A 
ATOM     61  N   UNL A   1      44.476  29.841  28.398  1.00  0.00    -0.354 N 
ATOM     62  N   UNL A   1      47.150  28.917  27.572  1.00  0.00    -0.248 NA
ATOM     63  C   UNL A   1      49.429  29.330  27.255  1.00  0.00     0.031 C 
ATOM     64  C   UNL A   1      44.269  31.921  29.147  1.00  0.00     0.029 A 
ATOM     65  C   UNL A   1      45.186  30.998  28.668  1.00  0.00     0.049 A 
ATOM     66  H   UNL A   1      44.863  29.012  28.033  1.00  0.00     0.167 HD
ATOM     67  C   UNL A   1      47.440  30.213  27.986  1.00  0.00     0.074 A 
ATOM     68  C   UNL A   1      48.865  30.399  27.800  1.00  0.00     0.031 C 
ATOM     69  C   UNL A   1      46.606  31.161  28.479  1.00  0.00     0.031 A 
BRANCH  56  70
ATOM     70  C   UNL A   1      40.686  29.400  28.848  1.00  0.00    -0.014 A 
ATOM     71  C   UNL A   1      40.287  29.773  30.146  1.00  0.00     0.010 A 
ATOM     72  C   UNL A   1      39.730  29.400  27.817  1.00  0.00     0.010 A 
ATOM     73  C   UNL A   1      38.953  30.092  30.414  1.00  0.00     0.020 A 
ATOM     74  C   UNL A   1      38.402  29.751  28.072  1.00  0.00     0.020 A 
ATOM     75  C   UNL A   1      38.018  30.078  29.375  1.00  0.00     0.054 A 
BRANCH  75  76
ATOM     76  S   UNL A   1      36.299  30.517  29.747  1.00  0.00     0.124 S 
ATOM     77  O   UNL A   1      36.406  31.948  30.021  1.00  0.00    -0.237 OA
ATOM     78  O   UNL A   1      35.606  30.165  28.510  1.00  0.00    -0.237 OA
ATOM     79  O   UNL A   1      35.969  29.686  30.902  1.00  0.00    -0.744 OA
ENDBRANCH  75  76
ENDBRANCH  56  70
BRANCH  57  80
ATOM     80  C   UNL A   1      49.966  26.610  26.300  1.00  0.00    -0.014 A 
ATOM     81  C   UNL A   1      50.837  26.061  27.258  1.00  0.00     0.010 A 
ATOM     82  C   UNL A   1      50.418  26.764  24.975  1.00  0.00     0.010 A 
ATOM     83  C   UNL A   1      52.141  25.699  26.907  1.00  0.00     0.020 A 
ATOM     84  C   UNL A   1      51.710  26.373  24.614  1.00  0.00     0.020 A 
ATOM     85  C   UNL A   1      52.569  25.857  25.586  1.00  0.00     0.054 A 
BRANCH  85  86
ATOM     86  S   UNL A   1      54.253  25.344  25.147  1.00  0.00     0.124 S 
ATOM     87  O   UNL A   1      54.510  26.138  23.949  1.00  0.00    -0.237 OA
ATOM     88  O   UNL A   1      55.016  25.721  26.334  1.00  0.00    -0.237 OA
ATOM     89  O   UNL A   1      54.125  23.905  24.928  1.00  0.00    -0.744 OA
ENDBRANCH  85  86
ENDBRANCH  57  80
BRANCH  69  90
ATOM     90  C   UNL A   1      47.219  32.468  28.908  1.00  0.00    -0.014 A 
ATOM     91  C   UNL A   1      47.743  32.647  30.201  1.00  0.00     0.010 A 
ATOM     92  C   UNL A   1      47.308  33.522  27.981  1.00  0.00     0.010 A 
ATOM     93  C   UNL A   1      48.302  33.874  30.570  1.00  0.00     0.020 A 
ATOM     94  C   UNL A   1      47.898  34.737  28.335  1.00  0.00     0.020 A 
ATOM     95  C   UNL A   1      48.374  34.910  29.635  1.00  0.00     0.054 A 
BRANCH  95  96
ATOM     96  S   UNL A   1      49.127  36.484  30.133  1.00  0.00     0.124 S 
ATOM     97  O   UNL A   1      49.471  37.077  28.844  1.00  0.00    -0.237 OA
ATOM     98  O   UNL A   1      48.042  37.141  30.858  1.00  0.00    -0.237 OA
ATOM     99  O   UNL A   1      50.264  36.079  30.956  1.00  0.00    -0.744 OA
ENDBRANCH  95  96
ENDBRANCH  69  90
ENDBRANCH  43  44
ENDBRANCH  35  38
ENDBRANCH  33  34
ENDBRANCH  32  33
ENDBRANCH  31  32
ENDBRANCH  30  31
ENDBRANCH   1  30
TORSDOF 22
ENDMDL
MODEL 3
REMARK VINA RESULT:     -10.5      1.740      8.169
REMARK SMILES CC[C@@H](NC(=O)c1ccc(CNC(=O)[C@H]2CCCO2)cc1)C(=O)NCCCCCCNC(=O)c1ccc(-c2c3nc(c(-c4ccc(S(=O)(=O)[O-])cc4)c4ccc([nH]4)c(-c4ccc(S(=O)(=O)[O-])cc4)c4nc(c(-c5ccc(S(=O)(=O)[O-])cc5)c5ccc2[nH]5)C=C4)C=C3)cc1
REMARK SMILES IDX 26 1 25 2 24 3 22 4 23 5 3 7 2 8 1 9 4 10 5 11 6 13 7 14
REMARK SMILES IDX 8 15 21 16 9 17 20 18 10 19 11 20 12 21 13 22 14 24 15 25
REMARK SMILES IDX 16 26 19 27 17 28 18 29 27 30 28 31 29 32 30 33 31 34 32 35
REMARK SMILES IDX 33 37 34 38 35 39 93 40 36 41 92 42 37 43 38 44 39 45 86 46
REMARK SMILES IDX 40 47 91 48 85 49 87 50 41 51 90 52 84 53 83 54 42 56 72 57
REMARK SMILES IDX 53 58 71 59 54 60 57 61 70 62 88 63 55 64 56 65 69 67 89 68
REMARK SMILES IDX 58 69 43 70 44 71 52 72 45 73 51 74 46 75 47 76 48 77 49 78
REMARK SMILES IDX 50 79 73 80 74 81 82 82 75 83 81 84 76 85 77 86 78 87 79 88
REMARK SMILES IDX 80 89 59 90 60 91 68 92 61 93 67 94 62 95 63 96 64 97 65 98
REMARK SMILES IDX 66 99
REMARK H PARENT 24 6 4 12 12 23 31 36 87 55 57 66
REMARK Flexibility Score: inf
ROOT
ATOM      1  C   UNL A   1      36.789  23.387  24.652  1.00  0.00     0.021 C 
ENDROOT
BRANCH   1   2
ATOM      2  C   UNL A   1      35.399  23.533  25.250  1.00  0.00     0.116 C 
BRANCH   2   3
ATOM      3  N   UNL A   1      35.279  22.689  26.424  1.00  0.00    -0.354 N 
ATOM      4  C   UNL A   1      34.180  22.072  26.933  1.00  0.00     0.242 C 
ATOM      5  O   UNL A   1      34.270  21.544  28.046  1.00  0.00    -0.273 OA
ATOM      6  H   UNL A   1      36.114  22.541  26.924  1.00  0.00     0.163 HD
BRANCH   4   7
ATOM      7  C   UNL A   1      32.830  22.147  26.201  1.00  0.00     0.171 C 
BRANCH   7   8
ATOM      8  C   UNL A   1      32.609  20.726  25.619  1.00  0.00     0.032 C 
ATOM      9  C   UNL A   1      33.410  20.367  24.382  1.00  0.00     0.006 C 
ENDBRANCH   7   8
BRANCH   7  10
ATOM     10  N   UNL A   1      31.699  22.637  27.013  1.00  0.00    -0.340 N 
ATOM     11  C   UNL A   1      30.654  23.482  26.690  1.00  0.00     0.251 C 
ATOM     12  H   UNL A   1      31.687  22.308  27.940  1.00  0.00     0.164 HD
ATOM     13  O   UNL A   1      29.630  23.455  27.369  1.00  0.00    -0.269 OA
BRANCH  11  14
ATOM     14  C   UNL A   1      30.812  24.558  25.681  1.00  0.00     0.039 A 
ATOM     15  C   UNL A   1      30.645  24.205  24.335  1.00  0.00     0.014 A 
ATOM     16  C   UNL A   1      31.012  25.893  26.018  1.00  0.00     0.014 A 
ATOM     17  C   UNL A   1      30.505  25.195  23.356  1.00  0.00     0.006 A 
ATOM     18  C   UNL A   1      30.857  26.884  25.036  1.00  0.00     0.006 A 
ATOM     19  C   UNL A   1      30.553  26.552  23.703  1.00  0.00    -0.029 A 
BRANCH  19  20
ATOM     20  C   UNL A   1      30.157  27.643  22.726  1.00  0.00     0.151 C 
BRANCH  20  21
ATOM     21  N   UNL A   1      28.857  28.211  23.006  1.00  0.00    -0.350 N 
ATOM     22  C   UNL A   1      28.311  29.449  22.941  1.00  0.00     0.249 C 
ATOM     23  H   UNL A   1      28.213  27.535  23.317  1.00  0.00     0.163 HD
ATOM     24  O   UNL A   1      27.107  29.496  23.235  1.00  0.00    -0.272 OA
BRANCH  22  25
ATOM     25  C   UNL A   1      29.022  30.750  22.502  1.00  0.00     0.207 C 
ATOM     26  C   UNL A   1      28.841  31.317  21.108  1.00  0.00     0.044 C 
ATOM     27  O   UNL A   1      28.737  31.823  23.420  1.00  0.00    -0.368 OA
ATOM     28  C   UNL A   1      28.043  32.579  21.331  1.00  0.00     0.032 C 
ATOM     29  C   UNL A   1      28.574  33.029  22.668  1.00  0.00     0.161 C 
ENDBRANCH  22  25
ENDBRANCH  20  21
ENDBRANCH  19  20
ENDBRANCH  11  14
ENDBRANCH   7  10
ENDBRANCH   4   7
ENDBRANCH   2   3
ENDBRANCH   1   2
BRANCH   1  30
ATOM     30  C   UNL A   1      36.995  22.028  23.977  1.00  0.00     0.002 C 
BRANCH  30  31
ATOM     31  C   UNL A   1      37.110  20.860  24.962  1.00  0.00     0.002 C 
BRANCH  31  32
ATOM     32  C   UNL A   1      38.387  20.040  24.846  1.00  0.00     0.021 C 
BRANCH  32  33
ATOM     33  C   UNL A   1      39.464  20.481  25.824  1.00  0.00     0.116 C 
BRANCH  33  34
ATOM     34  N   UNL A   1      40.399  19.408  26.131  1.00  0.00    -0.352 N 
ATOM     35  C   UNL A   1      41.742  19.496  26.389  1.00  0.00     0.251 C 
ATOM     36  H   UNL A   1      40.017  18.502  26.156  1.00  0.00     0.163 HD
ATOM     37  O   UNL A   1      42.430  18.480  26.444  1.00  0.00    -0.269 OA
BRANCH  35  38
ATOM     38  C   UNL A   1      42.336  20.828  26.587  1.00  0.00     0.039 A 
ATOM     39  C   UNL A   1      42.488  21.678  25.492  1.00  0.00     0.014 A 
ATOM     40  C   UNL A   1      42.713  21.240  27.869  1.00  0.00     0.014 A 
ATOM     41  C   UNL A   1      42.993  22.962  25.695  1.00  0.00     0.010 A 
ATOM     42  C   UNL A   1      43.107  22.550  28.082  1.00  0.00     0.010 A 
ATOM     43  C   UNL A   1      43.290  23.412  26.993  1.00  0.00    -0.014 A 
BRANCH  43  44
ATOM     44  C   UNL A   1      43.858  24.759  27.227  1.00  0.00     0.031 A 
ATOM     45  C   UNL A   1      42.954  25.877  27.675  1.00  0.00     0.074 A 
ATOM     46  C   UNL A   1      45.166  24.985  26.997  1.00  0.00     0.049 A 
ATOM     47  N   UNL A   1      43.247  27.128  27.919  1.00  0.00    -0.248 NA
ATOM     48  C   UNL A   1      41.524  25.559  27.839  1.00  0.00     0.031 C 
ATOM     49  C   UNL A   1      46.128  23.989  26.516  1.00  0.00     0.029 A 
ATOM     50  N   UNL A   1      45.913  26.123  27.145  1.00  0.00    -0.354 N 
ATOM     51  C   UNL A   1      42.042  27.742  28.239  1.00  0.00     0.074 A 
ATOM     52  C   UNL A   1      41.005  26.749  28.094  1.00  0.00     0.031 C 
ATOM     53  C   UNL A   1      47.346  24.550  26.456  1.00  0.00     0.029 A 
ATOM     54  C   UNL A   1      47.245  25.951  26.853  1.00  0.00     0.049 A 
ATOM     55  H   UNL A   1      45.532  26.984  27.433  1.00  0.00     0.167 HD
ATOM     56  C   UNL A   1      41.822  29.014  28.646  1.00  0.00     0.031 A 
ATOM     57  C   UNL A   1      48.270  26.823  26.906  1.00  0.00     0.031 A 
ATOM     58  C   UNL A   1      42.865  29.989  28.811  1.00  0.00     0.049 A 
ATOM     59  C   UNL A   1      48.000  28.230  27.368  1.00  0.00     0.074 A 
ATOM     60  C   UNL A   1      42.763  31.286  29.282  1.00  0.00     0.029 A 
ATOM     61  N   UNL A   1      44.202  29.773  28.512  1.00  0.00    -0.354 N 
ATOM     62  N   UNL A   1      46.865  28.775  27.739  1.00  0.00    -0.248 NA
ATOM     63  C   UNL A   1      49.156  29.134  27.438  1.00  0.00     0.031 C 
ATOM     64  C   UNL A   1      44.029  31.874  29.209  1.00  0.00     0.029 A 
ATOM     65  C   UNL A   1      44.933  30.921  28.762  1.00  0.00     0.049 A 
ATOM     66  H   UNL A   1      44.575  28.929  28.171  1.00  0.00     0.167 HD
ATOM     67  C   UNL A   1      47.178  30.075  28.125  1.00  0.00     0.074 A 
ATOM     68  C   UNL A   1      48.608  30.227  27.951  1.00  0.00     0.031 C 
ATOM     69  C   UNL A   1      46.357  31.051  28.586  1.00  0.00     0.031 A 
BRANCH  56  70
ATOM     70  C   UNL A   1      40.399  29.421  28.928  1.00  0.00    -0.014 A 
ATOM     71  C   UNL A   1      39.964  29.715  30.235  1.00  0.00     0.010 A 
ATOM     72  C   UNL A   1      39.485  29.535  27.866  1.00  0.00     0.010 A 
ATOM     73  C   UNL A   1      38.635  30.069  30.477  1.00  0.00     0.020 A 
ATOM     74  C   UNL A   1      38.162  29.923  28.098  1.00  0.00     0.020 A 
ATOM     75  C   UNL A   1      37.741  30.169  29.407  1.00  0.00     0.054 A 
BRANCH  75  76
ATOM     76  S   UNL A   1      36.027  30.652  29.748  1.00  0.00     0.124 S 
ATOM     77  O   UNL A   1      35.342  30.207  28.537  1.00  0.00    -0.237 OA
ATOM     78  O   UNL A   1      35.718  29.895  30.958  1.00  0.00    -0.237 OA
ATOM     79  O   UNL A   1      36.102  32.100  29.924  1.00  0.00    -0.744 OA
ENDBRANCH  75  76
ENDBRANCH  56  70
BRANCH  57  80
ATOM     80  C   UNL A   1      49.646  26.382  26.553  1.00  0.00    -0.014 A 
ATOM     81  C   UNL A   1      50.100  26.455  25.224  1.00  0.00     0.010 A 
ATOM     82  C   UNL A   1      50.516  25.889  27.545  1.00  0.00     0.010 A 
ATOM     83  C   UNL A   1      51.387  26.021  24.888  1.00  0.00     0.020 A 
ATOM     84  C   UNL A   1      51.813  25.485  27.218  1.00  0.00     0.020 A 
ATOM     85  C   UNL A   1      52.235  25.539  25.889  1.00  0.00     0.054 A 
BRANCH  85  86
ATOM     86  S   UNL A   1      53.913  25.019  25.433  1.00  0.00     0.124 S 
ATOM     87  O   UNL A   1      54.350  26.119  24.579  1.00  0.00    -0.237 OA
ATOM     88  O   UNL A   1      54.574  24.922  26.731  1.00  0.00    -0.237 OA
ATOM     89  O   UNL A   1      53.701  23.744  24.752  1.00  0.00    -0.744 OA
ENDBRANCH  85  86
ENDBRANCH  57  80
BRANCH  69  90
ATOM     90  C   UNL A   1      46.993  32.355  28.992  1.00  0.00    -0.014 A 
ATOM     91  C   UNL A   1      47.180  33.402  28.072  1.00  0.00     0.010 A 
ATOM     92  C   UNL A   1      47.372  32.546  30.333  1.00  0.00     0.010 A 
ATOM     93  C   UNL A   1      47.777  34.598  28.479  1.00  0.00     0.020 A 
ATOM     94  C   UNL A   1      47.937  33.752  30.751  1.00  0.00     0.020 A 
ATOM     95  C   UNL A   1      48.153  34.764  29.815  1.00  0.00     0.054 A 
BRANCH  95  96
ATOM     96  S   UNL A   1      48.904  36.335  30.322  1.00  0.00     0.124 S 
ATOM     97  O   UNL A   1      47.949  37.310  29.802  1.00  0.00    -0.237 OA
ATOM     98  O   UNL A   1      48.948  36.213  31.777  1.00  0.00    -0.237 OA
ATOM     99  O   UNL A   1      50.207  36.326  29.661  1.00  0.00    -0.744 OA
ENDBRANCH  95  96
ENDBRANCH  69  90
ENDBRANCH  43  44
ENDBRANCH  35  38
ENDBRANCH  33  34
ENDBRANCH  32  33
ENDBRANCH  31  32
ENDBRANCH  30  31
ENDBRANCH   1  30
TORSDOF 22
ENDMDL
