MODEL 1
REMARK VINA RESULT:     -12.4      0.000      0.000
REMARK SMILES Cc1nn(Cc2ccc(Cl)cc2Cl)c(C)c1NC(=O)c1c(C(=O)NCCCCCCNC(=O)c2ccc(-c3c4nc(c(-c5ccc(S(=O)(=O)[O-])cc5)c5ccc([nH]5)c(-c5ccc(S(=O)(=O)[O-])cc5)c5nc(c(-c6ccc(S(=O)(=O)[O-])cc6)c6ccc3[nH]6)C=C5)C=C4)cc2)cnn1C
REMARK SMILES IDX 27 1 26 2 25 3 24 4 22 5 23 6 21 8 20 9 96 10 94 11 95 12
REMARK SMILES IDX 97 13 18 14 17 15 19 17 16 18 1 19 2 20 3 21 4 22 14 23
REMARK SMILES IDX 15 24 5 25 6 26 7 27 12 28 8 29 11 30 13 31 9 32 10 33 28 34
REMARK SMILES IDX 29 35 30 36 31 37 32 38 33 40 34 41 35 42 93 43 36 44 92 45
REMARK SMILES IDX 37 46 38 47 39 48 86 49 40 50 91 51 85 52 87 53 41 54 90 55
REMARK SMILES IDX 84 56 83 57 42 59 72 60 53 61 71 62 54 63 57 64 70 65 88 66
REMARK SMILES IDX 55 67 56 68 69 70 89 71 58 72 43 73 44 74 52 75 45 76 51 77
REMARK SMILES IDX 46 78 47 79 48 80 49 81 50 82 73 83 74 84 82 85 75 86 81 87
REMARK SMILES IDX 76 88 77 89 78 90 79 91 80 92 59 93 60 94 68 95 61 96 67 97
REMARK SMILES IDX 62 98 63 99 64 100 65 101 66 102
REMARK H PARENT 24 7 17 16 31 39 87 58 57 69
REMARK Flexibility Score: inf
ROOT
ATOM      1  C   UNL A   1      34.989  23.566  25.611  1.00  0.00     0.002 C 
ENDROOT
BRANCH   1   2
ATOM      2  C   UNL A   1      34.452  24.913  25.131  1.00  0.00     0.021 C 
BRANCH   2   3
ATOM      3  C   UNL A   1      33.046  24.938  24.515  1.00  0.00     0.116 C 
BRANCH   3   4
ATOM      4  N   UNL A   1      32.979  25.225  23.090  1.00  0.00    -0.352 N 
ATOM      5  C   UNL A   1      32.008  25.836  22.323  1.00  0.00     0.255 C 
ATOM      6  O   UNL A   1      32.291  26.093  21.151  1.00  0.00    -0.269 OA
ATOM      7  H   UNL A   1      33.768  24.929  22.581  1.00  0.00     0.163 HD
BRANCH   5   8
ATOM      8  C   UNL A   1      30.696  26.145  22.868  1.00  0.00     0.090 A 
ATOM      9  C   UNL A   1      30.092  27.408  22.914  1.00  0.00     0.138 A 
ATOM     10  N   UNL A   1      28.856  27.201  23.482  1.00  0.00    -0.262 N 
ATOM     11  C   UNL A   1      29.768  25.306  23.525  1.00  0.00     0.149 A 
ATOM     12  N   UNL A   1      28.645  25.931  23.871  1.00  0.00    -0.180 NA
ATOM     13  C   UNL A   1      27.744  28.126  23.553  1.00  0.00     0.174 C 
BRANCH   9  14
ATOM     14  C   UNL A   1      30.559  28.723  22.531  1.00  0.00     0.274 C 
ATOM     15  N   UNL A   1      31.605  29.353  23.165  1.00  0.00    -0.317 N 
ATOM     16  H   UNL A   1      31.730  30.295  22.906  1.00  0.00     0.170 HD
ATOM     17  O   UNL A   1      30.015  29.343  21.614  1.00  0.00    -0.267 OA
BRANCH  15  18
ATOM     18  C   UNL A   1      32.508  28.894  24.099  1.00  0.00     0.085 A 
ATOM     19  C   UNL A   1      34.601  28.490  22.572  1.00  0.00     0.071 C 
ATOM     20  C   UNL A   1      33.879  28.590  23.863  1.00  0.00     0.083 A 
ATOM     21  N   UNL A   1      34.543  28.407  25.010  1.00  0.00    -0.175 NA
ATOM     22  N   UNL A   1      33.576  28.493  25.945  1.00  0.00    -0.263 N 
ATOM     23  C   UNL A   1      32.312  28.527  25.411  1.00  0.00     0.060 A 
ATOM     24  C   UNL A   1      31.113  28.186  26.214  1.00  0.00     0.069 C 
BRANCH  22  25
ATOM     25  C   UNL A   1      33.923  28.796  27.330  1.00  0.00     0.181 C 
BRANCH  25  26
ATOM     26  C   UNL A   1      34.669  30.086  27.466  1.00  0.00    -0.008 A 
ATOM     27  C   UNL A   1      36.056  30.012  27.655  1.00  0.00     0.009 A 
ATOM     28  C   UNL A   1      34.042  31.344  27.500  1.00  0.00     0.047 A 
ATOM     29  C   UNL A   1      36.774  31.142  28.009  1.00  0.00     0.021 A 
ATOM     30  C   UNL A   1      34.756  32.473  27.899  1.00  0.00     0.041 A 
ATOM     31  Cl  UNL A   1      32.386  31.557  27.042  1.00  0.00    -0.084 Cl
ATOM     32  C   UNL A   1      36.111  32.348  28.195  1.00  0.00     0.042 A 
ATOM     33  Cl  UNL A   1      37.008  33.641  28.868  1.00  0.00    -0.084 Cl
ENDBRANCH  25  26
ENDBRANCH  22  25
ENDBRANCH  15  18
ENDBRANCH   9  14
ENDBRANCH   5   8
ENDBRANCH   3   4
ENDBRANCH   2   3
ENDBRANCH   1   2
BRANCH   1  34
ATOM     34  C   UNL A   1      35.317  22.571  24.498  1.00  0.00     0.002 C 
BRANCH  34  35
ATOM     35  C   UNL A   1      36.810  22.286  24.279  1.00  0.00     0.021 C 
BRANCH  35  36
ATOM     36  C   UNL A   1      37.739  22.927  25.305  1.00  0.00     0.116 C 
BRANCH  36  37
ATOM     37  N   UNL A   1      38.425  21.939  26.130  1.00  0.00    -0.352 N 
ATOM     38  C   UNL A   1      39.570  22.119  26.874  1.00  0.00     0.251 C 
ATOM     39  H   UNL A   1      38.023  21.041  26.159  1.00  0.00     0.163 HD
ATOM     40  O   UNL A   1      40.281  21.150  27.152  1.00  0.00    -0.269 OA
BRANCH  38  41
ATOM     41  C   UNL A   1      39.930  23.469  27.346  1.00  0.00     0.039 A 
ATOM     42  C   UNL A   1      39.042  24.540  27.214  1.00  0.00     0.014 A 
ATOM     43  C   UNL A   1      41.195  23.668  27.901  1.00  0.00     0.014 A 
ATOM     44  C   UNL A   1      39.415  25.793  27.699  1.00  0.00     0.010 A 
ATOM     45  C   UNL A   1      41.519  24.873  28.483  1.00  0.00     0.010 A 
ATOM     46  C   UNL A   1      40.653  25.951  28.347  1.00  0.00    -0.014 A 
BRANCH  46  47
ATOM     47  C   UNL A   1      40.978  27.198  29.038  1.00  0.00     0.031 A 
ATOM     48  C   UNL A   1      42.180  27.875  28.484  1.00  0.00     0.074 A 
ATOM     49  C   UNL A   1      40.172  27.809  29.935  1.00  0.00     0.049 A 
ATOM     50  N   UNL A   1      43.352  27.956  29.020  1.00  0.00    -0.248 NA
ATOM     51  C   UNL A   1      42.128  28.358  27.092  1.00  0.00     0.031 C 
ATOM     52  C   UNL A   1      38.818  27.418  30.349  1.00  0.00     0.029 A 
ATOM     53  N   UNL A   1      40.354  28.984  30.604  1.00  0.00    -0.354 N 
ATOM     54  C   UNL A   1      44.108  28.733  28.149  1.00  0.00     0.074 A 
ATOM     55  C   UNL A   1      43.389  28.750  26.901  1.00  0.00     0.031 C 
ATOM     56  C   UNL A   1      38.223  28.446  31.001  1.00  0.00     0.029 A 
ATOM     57  C   UNL A   1      39.207  29.492  31.212  1.00  0.00     0.049 A 
ATOM     58  H   UNL A   1      41.227  29.436  30.653  1.00  0.00     0.167 HD
ATOM     59  C   UNL A   1      45.099  29.544  28.615  1.00  0.00     0.031 A 
ATOM     60  C   UNL A   1      39.071  30.689  31.844  1.00  0.00     0.031 A 
ATOM     61  C   UNL A   1      45.450  29.217  29.975  1.00  0.00     0.049 A 
ATOM     62  C   UNL A   1      40.425  31.145  32.215  1.00  0.00     0.074 A 
ATOM     63  C   UNL A   1      45.916  28.091  30.623  1.00  0.00     0.029 A 
ATOM     64  N   UNL A   1      44.924  30.030  30.952  1.00  0.00    -0.354 N 
ATOM     65  N   UNL A   1      41.168  30.533  33.091  1.00  0.00    -0.248 NA
ATOM     66  C   UNL A   1      41.128  32.017  31.290  1.00  0.00     0.031 C 
ATOM     67  C   UNL A   1      45.241  28.080  31.879  1.00  0.00     0.029 A 
ATOM     68  C   UNL A   1      44.467  29.238  31.972  1.00  0.00     0.049 A 
ATOM     69  H   UNL A   1      44.881  31.013  30.922  1.00  0.00     0.167 HD
ATOM     70  C   UNL A   1      42.442  30.572  32.549  1.00  0.00     0.074 A 
ATOM     71  C   UNL A   1      42.376  31.589  31.501  1.00  0.00     0.031 C 
ATOM     72  C   UNL A   1      43.340  29.578  32.814  1.00  0.00     0.031 A 
BRANCH  59  73
ATOM     73  C   UNL A   1      45.403  30.902  28.020  1.00  0.00    -0.014 A 
ATOM     74  C   UNL A   1      44.396  31.889  28.030  1.00  0.00     0.010 A 
ATOM     75  C   UNL A   1      46.530  31.153  27.208  1.00  0.00     0.010 A 
ATOM     76  C   UNL A   1      44.485  33.030  27.221  1.00  0.00     0.020 A 
ATOM     77  C   UNL A   1      46.649  32.308  26.433  1.00  0.00     0.020 A 
ATOM     78  C   UNL A   1      45.611  33.226  26.422  1.00  0.00     0.054 A 
BRANCH  78  79
ATOM     79  S   UNL A   1      45.687  34.665  25.328  1.00  0.00     0.124 S 
ATOM     80  O   UNL A   1      47.126  34.843  25.167  1.00  0.00    -0.237 OA
ATOM     81  O   UNL A   1      44.967  34.193  24.149  1.00  0.00    -0.237 OA
ATOM     82  O   UNL A   1      45.006  35.709  26.092  1.00  0.00    -0.744 OA
ENDBRANCH  78  79
ENDBRANCH  59  73
BRANCH  60  83
ATOM     83  C   UNL A   1      37.941  31.646  31.772  1.00  0.00    -0.014 A 
ATOM     84  C   UNL A   1      36.603  31.225  31.632  1.00  0.00     0.010 A 
ATOM     85  C   UNL A   1      38.170  32.974  32.175  1.00  0.00     0.010 A 
ATOM     86  C   UNL A   1      35.532  32.107  31.881  1.00  0.00     0.020 A 
ATOM     87  C   UNL A   1      37.108  33.840  32.465  1.00  0.00     0.020 A 
ATOM     88  C   UNL A   1      35.794  33.411  32.304  1.00  0.00     0.054 A 
BRANCH  88  89
ATOM     89  S   UNL A   1      34.425  34.561  32.637  1.00  0.00     0.124 S 
ATOM     90  O   UNL A   1      35.015  35.500  33.588  1.00  0.00    -0.237 OA
ATOM     91  O   UNL A   1      34.141  35.102  31.311  1.00  0.00    -0.237 OA
ATOM     92  O   UNL A   1      33.379  33.702  33.192  1.00  0.00    -0.744 OA
ENDBRANCH  88  89
ENDBRANCH  60  83
BRANCH  72  93
ATOM     93  C   UNL A   1      43.044  28.640  33.963  1.00  0.00    -0.014 A 
ATOM     94  C   UNL A   1      43.434  28.860  35.299  1.00  0.00     0.010 A 
ATOM     95  C   UNL A   1      42.221  27.536  33.679  1.00  0.00     0.010 A 
ATOM     96  C   UNL A   1      43.026  27.983  36.318  1.00  0.00     0.020 A 
ATOM     97  C   UNL A   1      41.798  26.672  34.688  1.00  0.00     0.020 A 
ATOM     98  C   UNL A   1      42.209  26.892  36.002  1.00  0.00     0.054 A 
BRANCH  98  99
ATOM     99  S   UNL A   1      41.647  25.777  37.321  1.00  0.00     0.124 S 
ATOM    100  O   UNL A   1      41.668  24.473  36.665  1.00  0.00    -0.237 OA
ATOM    101  O   UNL A   1      42.651  25.973  38.364  1.00  0.00    -0.237 OA
ATOM    102  O   UNL A   1      40.314  26.278  37.655  1.00  0.00    -0.744 OA
ENDBRANCH  98  99
ENDBRANCH  72  93
ENDBRANCH  46  47
ENDBRANCH  38  41
ENDBRANCH  36  37
ENDBRANCH  35  36
ENDBRANCH  34  35
ENDBRANCH   1  34
TORSDOF 20
ENDMDL
MODEL 2
REMARK VINA RESULT:     -12.2      2.995      9.267
REMARK SMILES Cc1nn(Cc2ccc(Cl)cc2Cl)c(C)c1NC(=O)c1c(C(=O)NCCCCCCNC(=O)c2ccc(-c3c4nc(c(-c5ccc(S(=O)(=O)[O-])cc5)c5ccc([nH]5)c(-c5ccc(S(=O)(=O)[O-])cc5)c5nc(c(-c6ccc(S(=O)(=O)[O-])cc6)c6ccc3[nH]6)C=C5)C=C4)cc2)cnn1C
REMARK SMILES IDX 27 1 26 2 25 3 24 4 22 5 23 6 21 8 20 9 96 10 94 11 95 12
REMARK SMILES IDX 97 13 18 14 17 15 19 17 16 18 1 19 2 20 3 21 4 22 14 23
REMARK SMILES IDX 15 24 5 25 6 26 7 27 12 28 8 29 11 30 13 31 9 32 10 33 28 34
REMARK SMILES IDX 29 35 30 36 31 37 32 38 33 40 34 41 35 42 93 43 36 44 92 45
REMARK SMILES IDX 37 46 38 47 39 48 86 49 40 50 91 51 85 52 87 53 41 54 90 55
REMARK SMILES IDX 84 56 83 57 42 59 72 60 53 61 71 62 54 63 57 64 70 65 88 66
REMARK SMILES IDX 55 67 56 68 69 70 89 71 58 72 43 73 44 74 52 75 45 76 51 77
REMARK SMILES IDX 46 78 47 79 48 80 49 81 50 82 73 83 74 84 82 85 75 86 81 87
REMARK SMILES IDX 76 88 77 89 78 90 79 91 80 92 59 93 60 94 68 95 61 96 67 97
REMARK SMILES IDX 62 98 63 99 64 100 65 101 66 102
REMARK H PARENT 24 7 17 16 31 39 87 58 57 69
REMARK Flexibility Score: inf
ROOT
ATOM      1  C   UNL A   1      31.269  27.689  27.316  1.00  0.00     0.002 C 
ENDROOT
BRANCH   1   2
ATOM      2  C   UNL A   1      31.301  26.660  26.188  1.00  0.00     0.021 C 
BRANCH   2   3
ATOM      3  C   UNL A   1      31.848  25.263  26.516  1.00  0.00     0.116 C 
BRANCH   3   4
ATOM      4  N   UNL A   1      30.922  24.155  26.330  1.00  0.00    -0.352 N 
ATOM      5  C   UNL A   1      31.103  22.789  26.394  1.00  0.00     0.255 C 
ATOM      6  O   UNL A   1      30.094  22.082  26.351  1.00  0.00    -0.269 OA
ATOM      7  H   UNL A   1      30.000  24.431  26.121  1.00  0.00     0.163 HD
BRANCH   5   8
ATOM      8  C   UNL A   1      32.432  22.205  26.483  1.00  0.00     0.090 A 
ATOM      9  C   UNL A   1      33.077  21.454  25.492  1.00  0.00     0.138 A 
ATOM     10  N   UNL A   1      34.314  21.148  26.013  1.00  0.00    -0.262 N 
ATOM     11  C   UNL A   1      33.341  22.184  27.565  1.00  0.00     0.149 A 
ATOM     12  N   UNL A   1      34.487  21.573  27.278  1.00  0.00    -0.180 NA
ATOM     13  C   UNL A   1      35.456  20.589  25.322  1.00  0.00     0.174 C 
BRANCH   9  14
ATOM     14  C   UNL A   1      32.648  20.992  24.189  1.00  0.00     0.274 C 
ATOM     15  N   UNL A   1      32.400  21.849  23.142  1.00  0.00    -0.317 N 
ATOM     16  H   UNL A   1      31.979  21.424  22.360  1.00  0.00     0.170 HD
ATOM     17  O   UNL A   1      32.473  19.790  23.973  1.00  0.00    -0.267 OA
BRANCH  15  18
ATOM     18  C   UNL A   1      32.637  23.199  23.000  1.00  0.00     0.085 A 
ATOM     19  C   UNL A   1      35.246  23.247  23.259  1.00  0.00     0.071 C 
ATOM     20  C   UNL A   1      33.915  23.827  22.959  1.00  0.00     0.083 A 
ATOM     21  N   UNL A   1      33.819  25.102  22.567  1.00  0.00    -0.175 NA
ATOM     22  N   UNL A   1      32.490  25.297  22.464  1.00  0.00    -0.263 N 
ATOM     23  C   UNL A   1      31.752  24.253  22.965  1.00  0.00     0.060 A 
ATOM     24  C   UNL A   1      30.332  24.414  23.357  1.00  0.00     0.069 C 
BRANCH  22  25
ATOM     25  C   UNL A   1      31.971  26.390  21.647  1.00  0.00     0.181 C 
BRANCH  25  26
ATOM     26  C   UNL A   1      31.379  27.490  22.471  1.00  0.00    -0.008 A 
ATOM     27  C   UNL A   1      29.981  27.552  22.553  1.00  0.00     0.009 A 
ATOM     28  C   UNL A   1      32.145  28.498  23.082  1.00  0.00     0.047 A 
ATOM     29  C   UNL A   1      29.363  28.662  23.106  1.00  0.00     0.021 A 
ATOM     30  C   UNL A   1      31.523  29.634  23.599  1.00  0.00     0.041 A 
ATOM     31  Cl  UNL A   1      33.864  28.379  23.238  1.00  0.00    -0.084 Cl
ATOM     32  C   UNL A   1      30.134  29.722  23.561  1.00  0.00     0.042 A 
ATOM     33  Cl  UNL A   1      29.311  31.157  24.002  1.00  0.00    -0.084 Cl
ENDBRANCH  25  26
ENDBRANCH  22  25
ENDBRANCH  15  18
ENDBRANCH   9  14
ENDBRANCH   5   8
ENDBRANCH   3   4
ENDBRANCH   2   3
ENDBRANCH   1   2
BRANCH   1  34
ATOM     34  C   UNL A   1      32.570  28.468  27.514  1.00  0.00     0.002 C 
BRANCH  34  35
ATOM     35  C   UNL A   1      32.574  29.905  26.973  1.00  0.00     0.021 C 
BRANCH  35  36
ATOM     36  C   UNL A   1      33.897  30.645  27.140  1.00  0.00     0.116 C 
BRANCH  36  37
ATOM     37  N   UNL A   1      33.839  31.662  28.184  1.00  0.00    -0.352 N 
ATOM     38  C   UNL A   1      34.675  31.795  29.270  1.00  0.00     0.251 C 
ATOM     39  H   UNL A   1      33.120  32.330  28.102  1.00  0.00     0.163 HD
ATOM     40  O   UNL A   1      34.279  32.381  30.282  1.00  0.00    -0.269 OA
BRANCH  38  41
ATOM     41  C   UNL A   1      36.043  31.250  29.212  1.00  0.00     0.039 A 
ATOM     42  C   UNL A   1      37.152  32.094  29.107  1.00  0.00     0.014 A 
ATOM     43  C   UNL A   1      36.212  29.864  29.228  1.00  0.00     0.014 A 
ATOM     44  C   UNL A   1      38.429  31.535  29.081  1.00  0.00     0.010 A 
ATOM     45  C   UNL A   1      37.473  29.317  29.320  1.00  0.00     0.010 A 
ATOM     46  C   UNL A   1      38.584  30.142  29.202  1.00  0.00    -0.014 A 
BRANCH  46  47
ATOM     47  C   UNL A   1      39.911  29.553  29.380  1.00  0.00     0.031 A 
ATOM     48  C   UNL A   1      40.291  29.397  30.810  1.00  0.00     0.074 A 
ATOM     49  C   UNL A   1      40.641  28.995  28.389  1.00  0.00     0.049 A 
ATOM     50  N   UNL A   1      41.154  30.092  31.472  1.00  0.00    -0.248 NA
ATOM     51  C   UNL A   1      39.489  28.489  31.649  1.00  0.00     0.031 C 
ATOM     52  C   UNL A   1      40.259  28.798  26.985  1.00  0.00     0.029 A 
ATOM     53  N   UNL A   1      41.860  28.385  28.448  1.00  0.00    -0.354 N 
ATOM     54  C   UNL A   1      41.194  29.528  32.741  1.00  0.00     0.074 A 
ATOM     55  C   UNL A   1      40.008  28.719  32.857  1.00  0.00     0.031 C 
ATOM     56  C   UNL A   1      41.110  27.923  26.396  1.00  0.00     0.029 A 
ATOM     57  C   UNL A   1      42.195  27.641  27.318  1.00  0.00     0.049 A 
ATOM     58  H   UNL A   1      42.455  28.466  29.228  1.00  0.00     0.167 HD
ATOM     59  C   UNL A   1      42.344  29.528  33.472  1.00  0.00     0.031 A 
ATOM     60  C   UNL A   1      43.286  26.847  27.149  1.00  0.00     0.031 A 
ATOM     61  C   UNL A   1      43.313  30.446  32.927  1.00  0.00     0.049 A 
ATOM     62  C   UNL A   1      44.296  27.272  28.137  1.00  0.00     0.074 A 
ATOM     63  C   UNL A   1      43.344  31.802  32.674  1.00  0.00     0.029 A 
ATOM     64  N   UNL A   1      44.314  29.892  32.164  1.00  0.00    -0.354 N 
ATOM     65  N   UNL A   1      44.881  28.434  28.104  1.00  0.00    -0.248 NA
ATOM     66  C   UNL A   1      44.329  26.587  29.417  1.00  0.00     0.031 C 
ATOM     67  C   UNL A   1      44.047  31.933  31.440  1.00  0.00     0.029 A 
ATOM     68  C   UNL A   1      44.485  30.667  31.048  1.00  0.00     0.049 A 
ATOM     69  H   UNL A   1      44.820  29.076  32.382  1.00  0.00     0.167 HD
ATOM     70  C   UNL A   1      44.943  28.827  29.430  1.00  0.00     0.074 A 
ATOM     71  C   UNL A   1      44.692  27.608  30.198  1.00  0.00     0.031 C 
ATOM     72  C   UNL A   1      44.911  30.150  29.764  1.00  0.00     0.031 A 
BRANCH  59  73
ATOM     73  C   UNL A   1      42.753  28.379  34.369  1.00  0.00    -0.014 A 
ATOM     74  C   UNL A   1      43.052  28.647  35.721  1.00  0.00     0.010 A 
ATOM     75  C   UNL A   1      43.124  27.110  33.876  1.00  0.00     0.010 A 
ATOM     76  C   UNL A   1      43.744  27.719  36.513  1.00  0.00     0.020 A 
ATOM     77  C   UNL A   1      43.772  26.162  34.669  1.00  0.00     0.020 A 
ATOM     78  C   UNL A   1      44.104  26.484  35.975  1.00  0.00     0.054 A 
BRANCH  78  79
ATOM     79  S   UNL A   1      45.056  25.319  36.980  1.00  0.00     0.124 S 
ATOM     80  O   UNL A   1      44.971  24.098  36.186  1.00  0.00    -0.237 OA
ATOM     81  O   UNL A   1      46.368  25.957  37.028  1.00  0.00    -0.237 OA
ATOM     82  O   UNL A   1      44.333  25.296  38.250  1.00  0.00    -0.744 OA
ENDBRANCH  78  79
ENDBRANCH  59  73
BRANCH  60  83
ATOM     83  C   UNL A   1      43.362  25.508  26.514  1.00  0.00    -0.014 A 
ATOM     84  C   UNL A   1      43.879  25.317  25.217  1.00  0.00     0.010 A 
ATOM     85  C   UNL A   1      43.223  24.376  27.336  1.00  0.00     0.010 A 
ATOM     86  C   UNL A   1      44.236  24.033  24.757  1.00  0.00     0.020 A 
ATOM     87  C   UNL A   1      43.618  23.105  26.898  1.00  0.00     0.020 A 
ATOM     88  C   UNL A   1      44.109  22.934  25.607  1.00  0.00     0.054 A 
BRANCH  88  89
ATOM     89  S   UNL A   1      44.572  21.271  25.034  1.00  0.00     0.124 S 
ATOM     90  O   UNL A   1      45.924  21.112  25.564  1.00  0.00    -0.237 OA
ATOM     91  O   UNL A   1      43.550  20.431  25.651  1.00  0.00    -0.237 OA
ATOM     92  O   UNL A   1      44.492  21.373  23.577  1.00  0.00    -0.744 OA
ENDBRANCH  88  89
ENDBRANCH  60  83
BRANCH  72  93
ATOM     93  C   UNL A   1      45.153  31.166  28.671  1.00  0.00    -0.014 A 
ATOM     94  C   UNL A   1      44.181  31.594  27.744  1.00  0.00     0.010 A 
ATOM     95  C   UNL A   1      46.406  31.803  28.667  1.00  0.00     0.010 A 
ATOM     96  C   UNL A   1      44.468  32.618  26.825  1.00  0.00     0.020 A 
ATOM     97  C   UNL A   1      46.691  32.832  27.770  1.00  0.00     0.020 A 
ATOM     98  C   UNL A   1      45.726  33.230  26.846  1.00  0.00     0.054 A 
BRANCH  98  99
ATOM     99  S   UNL A   1      46.089  34.580  25.688  1.00  0.00     0.124 S 
ATOM    100  O   UNL A   1      45.177  34.304  24.581  1.00  0.00    -0.237 OA
ATOM    101  O   UNL A   1      45.784  35.774  26.472  1.00  0.00    -0.237 OA
ATOM    102  O   UNL A   1      47.508  34.400  25.378  1.00  0.00    -0.744 OA
ENDBRANCH  98  99
ENDBRANCH  72  93
ENDBRANCH  46  47
ENDBRANCH  38  41
ENDBRANCH  36  37
ENDBRANCH  35  36
ENDBRANCH  34  35
ENDBRANCH   1  34
TORSDOF 20
ENDMDL
MODEL 3
REMARK VINA RESULT:     -12.2      2.289      4.249
REMARK SMILES Cc1nn(Cc2ccc(Cl)cc2Cl)c(C)c1NC(=O)c1c(C(=O)NCCCCCCNC(=O)c2ccc(-c3c4nc(c(-c5ccc(S(=O)(=O)[O-])cc5)c5ccc([nH]5)c(-c5ccc(S(=O)(=O)[O-])cc5)c5nc(c(-c6ccc(S(=O)(=O)[O-])cc6)c6ccc3[nH]6)C=C5)C=C4)cc2)cnn1C
REMARK SMILES IDX 27 1 26 2 25 3 24 4 22 5 23 6 21 8 20 9 96 10 94 11 95 12
REMARK SMILES IDX 97 13 18 14 17 15 19 17 16 18 1 19 2 20 3 21 4 22 14 23
REMARK SMILES IDX 15 24 5 25 6 26 7 27 12 28 8 29 11 30 13 31 9 32 10 33 28 34
REMARK SMILES IDX 29 35 30 36 31 37 32 38 33 40 34 41 35 42 93 43 36 44 92 45
REMARK SMILES IDX 37 46 38 47 39 48 86 49 40 50 91 51 85 52 87 53 41 54 90 55
REMARK SMILES IDX 84 56 83 57 42 59 72 60 53 61 71 62 54 63 57 64 70 65 88 66
REMARK SMILES IDX 55 67 56 68 69 70 89 71 58 72 43 73 44 74 52 75 45 76 51 77
REMARK SMILES IDX 46 78 47 79 48 80 49 81 50 82 73 83 74 84 82 85 75 86 81 87
REMARK SMILES IDX 76 88 77 89 78 90 79 91 80 92 59 93 60 94 68 95 61 96 67 97
REMARK SMILES IDX 62 98 63 99 64 100 65 101 66 102
REMARK H PARENT 24 7 17 16 31 39 87 58 57 69
REMARK Flexibility Score: inf
ROOT
ATOM      1  C   UNL A   1      38.381  22.172  25.864  1.00  0.00     0.002 C 
ENDROOT
BRANCH   1   2
ATOM      2  C   UNL A   1      37.863  23.601  25.713  1.00  0.00     0.021 C 
BRANCH   2   3
ATOM      3  C   UNL A   1      36.375  23.785  25.379  1.00  0.00     0.116 C 
BRANCH   3   4
ATOM      4  N   UNL A   1      35.447  23.623  26.488  1.00  0.00    -0.352 N 
ATOM      5  C   UNL A   1      34.551  22.620  26.794  1.00  0.00     0.255 C 
ATOM      6  O   UNL A   1      34.001  22.670  27.896  1.00  0.00    -0.269 OA
ATOM      7  H   UNL A   1      35.460  24.365  27.136  1.00  0.00     0.163 HD
BRANCH   5   8
ATOM      8  C   UNL A   1      34.250  21.559  25.847  1.00  0.00     0.090 A 
ATOM      9  C   UNL A   1      33.032  21.359  25.183  1.00  0.00     0.138 A 
ATOM     10  N   UNL A   1      33.233  20.264  24.374  1.00  0.00    -0.262 N 
ATOM     11  C   UNL A   1      35.044  20.468  25.426  1.00  0.00     0.149 A 
ATOM     12  N   UNL A   1      34.446  19.701  24.517  1.00  0.00    -0.180 NA
ATOM     13  C   UNL A   1      32.378  19.774  23.314  1.00  0.00     0.174 C 
BRANCH   9  14
ATOM     14  C   UNL A   1      31.758  22.042  25.264  1.00  0.00     0.274 C 
ATOM     15  N   UNL A   1      31.595  23.355  24.888  1.00  0.00    -0.317 N 
ATOM     16  H   UNL A   1      30.720  23.739  25.124  1.00  0.00     0.170 HD
ATOM     17  O   UNL A   1      30.759  21.461  25.695  1.00  0.00    -0.267 OA
BRANCH  15  18
ATOM     18  C   UNL A   1      32.443  24.224  24.237  1.00  0.00     0.085 A 
ATOM     19  C   UNL A   1      32.973  22.835  22.077  1.00  0.00     0.071 C 
ATOM     20  C   UNL A   1      32.995  24.042  22.937  1.00  0.00     0.083 A 
ATOM     21  N   UNL A   1      33.573  25.164  22.492  1.00  0.00    -0.175 NA
ATOM     22  N   UNL A   1      33.474  26.003  23.541  1.00  0.00    -0.263 N 
ATOM     23  C   UNL A   1      33.033  25.384  24.685  1.00  0.00     0.060 A 
ATOM     24  C   UNL A   1      33.256  25.970  26.029  1.00  0.00     0.069 C 
BRANCH  22  25
ATOM     25  C   UNL A   1      33.570  27.445  23.338  1.00  0.00     0.181 C 
BRANCH  25  26
ATOM     26  C   UNL A   1      32.267  28.145  23.567  1.00  0.00    -0.008 A 
ATOM     27  C   UNL A   1      31.199  27.810  22.724  1.00  0.00     0.009 A 
ATOM     28  C   UNL A   1      32.094  29.168  24.515  1.00  0.00     0.047 A 
ATOM     29  C   UNL A   1      30.041  28.569  22.729  1.00  0.00     0.021 A 
ATOM     30  C   UNL A   1      30.946  29.959  24.491  1.00  0.00     0.041 A 
ATOM     31  Cl  UNL A   1      33.266  29.485  25.749  1.00  0.00    -0.084 Cl
ATOM     32  C   UNL A   1      29.949  29.676  23.562  1.00  0.00     0.042 A 
ATOM     33  Cl  UNL A   1      28.601  30.710  23.346  1.00  0.00    -0.084 Cl
ENDBRANCH  25  26
ENDBRANCH  22  25
ENDBRANCH  15  18
ENDBRANCH   9  14
ENDBRANCH   5   8
ENDBRANCH   3   4
ENDBRANCH   2   3
ENDBRANCH   1   2
BRANCH   1  34
ATOM     34  C   UNL A   1      39.674  22.039  26.670  1.00  0.00     0.002 C 
BRANCH  34  35
ATOM     35  C   UNL A   1      40.538  20.812  26.345  1.00  0.00     0.021 C 
BRANCH  35  36
ATOM     36  C   UNL A   1      41.977  20.896  26.843  1.00  0.00     0.116 C 
BRANCH  36  37
ATOM     37  N   UNL A   1      42.906  21.312  25.798  1.00  0.00    -0.352 N 
ATOM     38  C   UNL A   1      43.106  22.586  25.315  1.00  0.00     0.251 C 
ATOM     39  H   UNL A   1      43.451  20.601  25.391  1.00  0.00     0.163 HD
ATOM     40  O   UNL A   1      43.557  22.749  24.178  1.00  0.00    -0.269 OA
BRANCH  38  41
ATOM     41  C   UNL A   1      42.795  23.748  26.168  1.00  0.00     0.039 A 
ATOM     42  C   UNL A   1      43.455  23.948  27.384  1.00  0.00     0.014 A 
ATOM     43  C   UNL A   1      41.799  24.634  25.753  1.00  0.00     0.014 A 
ATOM     44  C   UNL A   1      43.146  25.075  28.145  1.00  0.00     0.010 A 
ATOM     45  C   UNL A   1      41.577  25.805  26.444  1.00  0.00     0.010 A 
ATOM     46  C   UNL A   1      42.213  26.009  27.662  1.00  0.00    -0.014 A 
BRANCH  46  47
ATOM     47  C   UNL A   1      42.024  27.292  28.339  1.00  0.00     0.031 A 
ATOM     48  C   UNL A   1      43.109  28.267  28.053  1.00  0.00     0.074 A 
ATOM     49  C   UNL A   1      40.892  27.660  28.979  1.00  0.00     0.049 A 
ATOM     50  N   UNL A   1      44.050  28.651  28.850  1.00  0.00    -0.248 NA
ATOM     51  C   UNL A   1      43.280  28.731  26.664  1.00  0.00     0.031 C 
ATOM     52  C   UNL A   1      39.626  26.922  29.075  1.00  0.00     0.029 A 
ATOM     53  N   UNL A   1      40.593  28.835  29.604  1.00  0.00    -0.354 N 
ATOM     54  C   UNL A   1      44.771  29.607  28.144  1.00  0.00     0.074 A 
ATOM     55  C   UNL A   1      44.404  29.445  26.761  1.00  0.00     0.031 C 
ATOM     56  C   UNL A   1      38.644  27.750  29.506  1.00  0.00     0.029 A 
ATOM     57  C   UNL A   1      39.240  29.018  29.887  1.00  0.00     0.049 A 
ATOM     58  H   UNL A   1      41.279  29.502  29.836  1.00  0.00     0.167 HD
ATOM     59  C   UNL A   1      45.371  30.647  28.788  1.00  0.00     0.031 A 
ATOM     60  C   UNL A   1      38.648  30.130  30.399  1.00  0.00     0.031 A 
ATOM     61  C   UNL A   1      45.448  30.413  30.209  1.00  0.00     0.049 A 
ATOM     62  C   UNL A   1      39.703  30.925  31.058  1.00  0.00     0.074 A 
ATOM     63  C   UNL A   1      46.013  29.444  31.013  1.00  0.00     0.029 A 
ATOM     64  N   UNL A   1      44.504  31.049  30.982  1.00  0.00    -0.354 N 
ATOM     65  N   UNL A   1      40.338  30.523  32.121  1.00  0.00    -0.248 NA
ATOM     66  C   UNL A   1      40.363  31.959  30.282  1.00  0.00     0.031 C 
ATOM     67  C   UNL A   1      45.074  29.244  32.068  1.00  0.00     0.029 A 
ATOM     68  C   UNL A   1      44.030  30.156  31.905  1.00  0.00     0.049 A 
ATOM     69  H   UNL A   1      44.219  31.986  30.886  1.00  0.00     0.167 HD
ATOM     70  C   UNL A   1      41.652  30.902  31.900  1.00  0.00     0.074 A 
ATOM     71  C   UNL A   1      41.587  31.875  30.811  1.00  0.00     0.031 C 
ATOM     72  C   UNL A   1      42.681  30.178  32.431  1.00  0.00     0.031 A 
BRANCH  59  73
ATOM     73  C   UNL A   1      45.453  32.043  28.207  1.00  0.00    -0.014 A 
ATOM     74  C   UNL A   1      46.721  32.577  27.900  1.00  0.00     0.010 A 
ATOM     75  C   UNL A   1      44.368  32.945  28.213  1.00  0.00     0.010 A 
ATOM     76  C   UNL A   1      46.900  33.950  27.679  1.00  0.00     0.020 A 
ATOM     77  C   UNL A   1      44.528  34.307  27.949  1.00  0.00     0.020 A 
ATOM     78  C   UNL A   1      45.799  34.805  27.712  1.00  0.00     0.054 A 
BRANCH  78  79
ATOM     79  S   UNL A   1      46.047  36.584  27.494  1.00  0.00     0.124 S 
ATOM     80  O   UNL A   1      44.691  37.043  27.212  1.00  0.00    -0.237 OA
ATOM     81  O   UNL A   1      46.597  36.978  28.788  1.00  0.00    -0.237 OA
ATOM     82  O   UNL A   1      46.983  36.662  26.374  1.00  0.00    -0.744 OA
ENDBRANCH  78  79
ENDBRANCH  59  73
BRANCH  60  83
ATOM     83  C   UNL A   1      37.364  30.756  30.002  1.00  0.00    -0.014 A 
ATOM     84  C   UNL A   1      36.640  31.605  30.864  1.00  0.00     0.010 A 
ATOM     85  C   UNL A   1      37.026  30.769  28.636  1.00  0.00     0.010 A 
ATOM     86  C   UNL A   1      35.608  32.431  30.375  1.00  0.00     0.020 A 
ATOM     87  C   UNL A   1      36.031  31.620  28.141  1.00  0.00     0.020 A 
ATOM     88  C   UNL A   1      35.315  32.438  29.010  1.00  0.00     0.054 A 
BRANCH  88  89
ATOM     89  S   UNL A   1      33.993  33.504  28.359  1.00  0.00     0.124 S 
ATOM     90  O   UNL A   1      34.718  34.419  27.483  1.00  0.00    -0.237 OA
ATOM     91  O   UNL A   1      33.121  32.545  27.687  1.00  0.00    -0.237 OA
ATOM     92  O   UNL A   1      33.425  34.121  29.558  1.00  0.00    -0.744 OA
ENDBRANCH  88  89
ENDBRANCH  60  83
BRANCH  72  93
ATOM     93  C   UNL A   1      42.362  29.185  33.525  1.00  0.00    -0.014 A 
ATOM     94  C   UNL A   1      41.900  27.871  33.305  1.00  0.00     0.010 A 
ATOM     95  C   UNL A   1      42.665  29.576  34.841  1.00  0.00     0.010 A 
ATOM     96  C   UNL A   1      41.727  26.983  34.381  1.00  0.00     0.020 A 
ATOM     97  C   UNL A   1      42.513  28.694  35.910  1.00  0.00     0.020 A 
ATOM     98  C   UNL A   1      42.035  27.405  35.678  1.00  0.00     0.054 A 
BRANCH  98  99
ATOM     99  S   UNL A   1      41.850  26.249  37.067  1.00  0.00     0.124 S 
ATOM    100  O   UNL A   1      41.937  24.948  36.412  1.00  0.00    -0.237 OA
ATOM    101  O   UNL A   1      42.976  26.595  37.931  1.00  0.00    -0.237 OA
ATOM    102  O   UNL A   1      40.535  26.575  37.618  1.00  0.00    -0.744 OA
ENDBRANCH  98  99
ENDBRANCH  72  93
ENDBRANCH  46  47
ENDBRANCH  38  41
ENDBRANCH  36  37
ENDBRANCH  35  36
ENDBRANCH  34  35
ENDBRANCH   1  34
TORSDOF 20
ENDMDL
