MODEL 1
REMARK VINA RESULT:      -9.7      0.000      0.000
REMARK SMILES CCCN(CCC)c1cc(C(=O)NCCCCCCNC(=O)c2ccc(-c3c4nc(c(-c5ccc(S(=O)(=O)[O-])cc5)c5ccc([nH]5)c(-c5ccc(S(=O)(=O)[O-])cc5)c5nc(c(-c6ccc(S(=O)(=O)[O-])cc6)c6ccc3[nH]6)C=C5)C=C4)cc2)cc(C(F)(F)F)c1
REMARK SMILES IDX 16 1 15 2 14 3 13 4 11 5 12 6 10 8 8 9 9 10 89 11 84 12
REMARK SMILES IDX 83 13 4 14 3 15 2 16 1 17 5 18 6 19 7 20 85 21 86 22 87 23
REMARK SMILES IDX 88 24 17 25 18 26 19 27 20 28 21 29 22 31 23 32 24 33 82 34
REMARK SMILES IDX 25 35 81 36 26 37 27 38 28 39 75 40 29 41 80 42 74 43 76 44
REMARK SMILES IDX 30 45 79 46 73 47 72 48 31 50 61 51 42 52 60 53 43 54 46 55
REMARK SMILES IDX 59 56 77 57 44 58 45 59 58 61 78 62 47 63 32 64 33 65 41 66
REMARK SMILES IDX 34 67 40 68 35 69 36 70 37 71 38 72 39 73 62 74 63 75 71 76
REMARK SMILES IDX 64 77 70 78 65 79 66 80 67 81 68 82 69 83 48 84 49 85 57 86
REMARK SMILES IDX 50 87 56 88 51 89 52 90 53 91 54 92 55 93
REMARK H PARENT 13 7 20 30 76 49 46 60
REMARK Flexibility Score: inf
ROOT
ATOM      1  C   UNL A   1      33.855  22.192  25.083  1.00  0.00     0.002 C 
ENDROOT
BRANCH   1   2
ATOM      2  C   UNL A   1      32.561  21.487  24.698  1.00  0.00     0.021 C 
BRANCH   2   3
ATOM      3  C   UNL A   1      31.320  22.356  24.557  1.00  0.00     0.116 C 
BRANCH   3   4
ATOM      4  N   UNL A   1      30.576  22.631  25.778  1.00  0.00    -0.352 N 
ATOM      5  C   UNL A   1      30.264  23.848  26.360  1.00  0.00     0.251 C 
ATOM      6  O   UNL A   1      29.562  23.880  27.368  1.00  0.00    -0.269 OA
ATOM      7  H   UNL A   1      30.247  21.838  26.258  1.00  0.00     0.163 HD
BRANCH   5   8
ATOM      8  C   UNL A   1      30.896  25.099  25.855  1.00  0.00     0.042 A 
ATOM      9  C   UNL A   1      30.592  26.924  24.276  1.00  0.00     0.038 A 
ATOM     10  C   UNL A   1      30.488  25.572  24.602  1.00  0.00     0.039 A 
ATOM     11  C   UNL A   1      31.112  27.764  25.261  1.00  0.00     0.039 A 
ATOM     12  C   UNL A   1      31.715  27.277  26.426  1.00  0.00     0.058 A 
ATOM     13  C   UNL A   1      31.680  25.908  26.671  1.00  0.00     0.027 A 
BRANCH   9  14
ATOM     14  N   UNL A   1      30.165  27.445  23.070  1.00  0.00    -0.372 N 
BRANCH  14  15
ATOM     15  C   UNL A   1      28.818  28.028  22.988  1.00  0.00     0.116 C 
BRANCH  15  16
ATOM     16  C   UNL A   1      28.767  29.419  22.333  1.00  0.00     0.018 C 
ATOM     17  C   UNL A   1      28.749  30.599  23.304  1.00  0.00     0.006 C 
ENDBRANCH  15  16
ENDBRANCH  14  15
BRANCH  14  18
ATOM     18  C   UNL A   1      31.031  27.453  21.881  1.00  0.00     0.116 C 
BRANCH  18  19
ATOM     19  C   UNL A   1      31.899  26.197  21.742  1.00  0.00     0.018 C 
ATOM     20  C   UNL A   1      33.373  26.449  22.057  1.00  0.00     0.006 C 
ENDBRANCH  18  19
ENDBRANCH  14  18
ENDBRANCH   9  14
BRANCH  12  21
ATOM     21  C   UNL A   1      32.225  28.222  27.481  1.00  0.00     0.416 C 
ATOM     22  F   UNL A   1      33.587  28.244  27.511  1.00  0.00    -0.166 F 
ATOM     23  F   UNL A   1      31.835  29.508  27.271  1.00  0.00    -0.166 F 
ATOM     24  F   UNL A   1      31.825  27.900  28.740  1.00  0.00    -0.166 F 
ENDBRANCH  12  21
ENDBRANCH   5   8
ENDBRANCH   3   4
ENDBRANCH   2   3
ENDBRANCH   1   2
BRANCH   1  25
ATOM     25  C   UNL A   1      34.015  23.634  24.597  1.00  0.00     0.002 C 
BRANCH  25  26
ATOM     26  C   UNL A   1      35.448  24.154  24.452  1.00  0.00     0.021 C 
BRANCH  26  27
ATOM     27  C   UNL A   1      36.306  24.108  25.712  1.00  0.00     0.116 C 
BRANCH  27  28
ATOM     28  N   UNL A   1      37.285  23.035  25.687  1.00  0.00    -0.352 N 
ATOM     29  C   UNL A   1      38.594  23.033  26.095  1.00  0.00     0.251 C 
ATOM     30  H   UNL A   1      36.959  22.181  25.323  1.00  0.00     0.163 HD
ATOM     31  O   UNL A   1      39.308  22.061  25.838  1.00  0.00    -0.269 OA
BRANCH  29  32
ATOM     32  C   UNL A   1      39.163  24.194  26.815  1.00  0.00     0.039 A 
ATOM     33  C   UNL A   1      39.980  25.086  26.116  1.00  0.00     0.014 A 
ATOM     34  C   UNL A   1      38.912  24.398  28.174  1.00  0.00     0.014 A 
ATOM     35  C   UNL A   1      40.493  26.214  26.762  1.00  0.00     0.010 A 
ATOM     36  C   UNL A   1      39.363  25.560  28.798  1.00  0.00     0.010 A 
ATOM     37  C   UNL A   1      40.160  26.480  28.101  1.00  0.00    -0.014 A 
BRANCH  37  38
ATOM     38  C   UNL A   1      40.633  27.716  28.779  1.00  0.00     0.031 A 
ATOM     39  C   UNL A   1      42.015  27.778  29.372  1.00  0.00     0.074 A 
ATOM     40  C   UNL A   1      39.797  28.767  28.909  1.00  0.00     0.049 A 
ATOM     41  N   UNL A   1      42.584  28.752  30.037  1.00  0.00    -0.248 NA
ATOM     42  C   UNL A   1      42.862  26.584  29.218  1.00  0.00     0.031 C 
ATOM     43  C   UNL A   1      38.420  28.820  28.411  1.00  0.00     0.029 A 
ATOM     44  N   UNL A   1      39.980  29.991  29.504  1.00  0.00    -0.354 N 
ATOM     45  C   UNL A   1      43.845  28.285  30.390  1.00  0.00     0.074 A 
ATOM     46  C   UNL A   1      43.939  26.923  29.912  1.00  0.00     0.031 C 
ATOM     47  C   UNL A   1      37.896  30.022  28.695  1.00  0.00     0.029 A 
ATOM     48  C   UNL A   1      38.877  30.810  29.434  1.00  0.00     0.049 A 
ATOM     49  H   UNL A   1      40.822  30.258  29.939  1.00  0.00     0.167 HD
ATOM     50  C   UNL A   1      44.842  28.935  31.038  1.00  0.00     0.031 A 
ATOM     51  C   UNL A   1      38.671  32.051  29.918  1.00  0.00     0.031 A 
ATOM     52  C   UNL A   1      44.746  30.293  31.507  1.00  0.00     0.049 A 
ATOM     53  C   UNL A   1      39.783  32.741  30.661  1.00  0.00     0.074 A 
ATOM     54  C   UNL A   1      45.721  31.060  32.122  1.00  0.00     0.029 A 
ATOM     55  N   UNL A   1      43.611  31.084  31.424  1.00  0.00    -0.354 N 
ATOM     56  N   UNL A   1      40.994  32.310  30.917  1.00  0.00    -0.248 NA
ATOM     57  C   UNL A   1      39.501  34.089  31.175  1.00  0.00     0.031 C 
ATOM     58  C   UNL A   1      45.155  32.291  32.467  1.00  0.00     0.029 A 
ATOM     59  C   UNL A   1      43.848  32.317  32.008  1.00  0.00     0.049 A 
ATOM     60  H   UNL A   1      42.760  30.809  31.010  1.00  0.00     0.167 HD
ATOM     61  C   UNL A   1      41.627  33.341  31.603  1.00  0.00     0.074 A 
ATOM     62  C   UNL A   1      40.670  34.425  31.704  1.00  0.00     0.031 C 
ATOM     63  C   UNL A   1      42.885  33.385  32.106  1.00  0.00     0.031 A 
BRANCH  50  64
ATOM     64  C   UNL A   1      46.124  28.183  31.284  1.00  0.00    -0.014 A 
ATOM     65  C   UNL A   1      47.187  28.232  30.364  1.00  0.00     0.010 A 
ATOM     66  C   UNL A   1      46.287  27.452  32.476  1.00  0.00     0.010 A 
ATOM     67  C   UNL A   1      48.370  27.530  30.609  1.00  0.00     0.020 A 
ATOM     68  C   UNL A   1      47.481  26.773  32.739  1.00  0.00     0.020 A 
ATOM     69  C   UNL A   1      48.508  26.802  31.795  1.00  0.00     0.054 A 
BRANCH  69  70
ATOM     70  S   UNL A   1      50.064  25.919  32.095  1.00  0.00     0.124 S 
ATOM     71  O   UNL A   1      49.817  25.309  33.398  1.00  0.00    -0.237 OA
ATOM     72  O   UNL A   1      50.126  24.990  30.968  1.00  0.00    -0.237 OA
ATOM     73  O   UNL A   1      51.071  26.976  32.083  1.00  0.00    -0.744 OA
ENDBRANCH  69  70
ENDBRANCH  50  64
BRANCH  51  74
ATOM     74  C   UNL A   1      37.356  32.721  29.716  1.00  0.00    -0.014 A 
ATOM     75  C   UNL A   1      36.362  32.663  30.709  1.00  0.00     0.010 A 
ATOM     76  C   UNL A   1      37.093  33.430  28.529  1.00  0.00     0.010 A 
ATOM     77  C   UNL A   1      35.125  33.285  30.512  1.00  0.00     0.020 A 
ATOM     78  C   UNL A   1      35.870  34.080  28.342  1.00  0.00     0.020 A 
ATOM     79  C   UNL A   1      34.889  33.993  29.331  1.00  0.00     0.054 A 
BRANCH  79  80
ATOM     80  S   UNL A   1      33.296  34.835  29.120  1.00  0.00     0.124 S 
ATOM     81  O   UNL A   1      33.709  36.156  28.659  1.00  0.00    -0.237 OA
ATOM     82  O   UNL A   1      32.628  33.997  28.127  1.00  0.00    -0.237 OA
ATOM     83  O   UNL A   1      32.706  34.793  30.456  1.00  0.00    -0.744 OA
ENDBRANCH  79  80
ENDBRANCH  51  74
BRANCH  63  84
ATOM     84  C   UNL A   1      43.314  34.652  32.801  1.00  0.00    -0.014 A 
ATOM     85  C   UNL A   1      44.044  35.642  32.119  1.00  0.00     0.010 A 
ATOM     86  C   UNL A   1      42.922  34.884  34.131  1.00  0.00     0.010 A 
ATOM     87  C   UNL A   1      44.393  36.831  32.763  1.00  0.00     0.020 A 
ATOM     88  C   UNL A   1      43.243  36.085  34.770  1.00  0.00     0.020 A 
ATOM     89  C   UNL A   1      43.986  37.048  34.084  1.00  0.00     0.054 A 
BRANCH  89  90
ATOM     90  S   UNL A   1      44.399  38.627  34.875  1.00  0.00     0.124 S 
ATOM     91  O   UNL A   1      43.454  39.541  34.241  1.00  0.00    -0.237 OA
ATOM     92  O   UNL A   1      44.155  38.350  36.288  1.00  0.00    -0.237 OA
ATOM     93  O   UNL A   1      45.801  38.836  34.520  1.00  0.00    -0.744 OA
ENDBRANCH  89  90
ENDBRANCH  63  84
ENDBRANCH  37  38
ENDBRANCH  29  32
ENDBRANCH  27  28
ENDBRANCH  26  27
ENDBRANCH  25  26
ENDBRANCH   1  25
TORSDOF 22
ENDMDL
MODEL 2
REMARK VINA RESULT:      -9.1      3.745      5.148
REMARK SMILES CCCN(CCC)c1cc(C(=O)NCCCCCCNC(=O)c2ccc(-c3c4nc(c(-c5ccc(S(=O)(=O)[O-])cc5)c5ccc([nH]5)c(-c5ccc(S(=O)(=O)[O-])cc5)c5nc(c(-c6ccc(S(=O)(=O)[O-])cc6)c6ccc3[nH]6)C=C5)C=C4)cc2)cc(C(F)(F)F)c1
REMARK SMILES IDX 16 1 15 2 14 3 13 4 11 5 12 6 10 8 8 9 9 10 89 11 84 12
REMARK SMILES IDX 83 13 4 14 3 15 2 16 1 17 5 18 6 19 7 20 85 21 86 22 87 23
REMARK SMILES IDX 88 24 17 25 18 26 19 27 20 28 21 29 22 31 23 32 24 33 82 34
REMARK SMILES IDX 25 35 81 36 26 37 27 38 28 39 75 40 29 41 80 42 74 43 76 44
REMARK SMILES IDX 30 45 79 46 73 47 72 48 31 50 61 51 42 52 60 53 43 54 46 55
REMARK SMILES IDX 59 56 77 57 44 58 45 59 58 61 78 62 47 63 32 64 33 65 41 66
REMARK SMILES IDX 34 67 40 68 35 69 36 70 37 71 38 72 39 73 62 74 63 75 71 76
REMARK SMILES IDX 64 77 70 78 65 79 66 80 67 81 68 82 69 83 48 84 49 85 57 86
REMARK SMILES IDX 50 87 56 88 51 89 52 90 53 91 54 92 55 93
REMARK H PARENT 13 7 20 30 76 49 46 60
REMARK Flexibility Score: inf
ROOT
ATOM      1  C   UNL A   1      39.946  20.496  26.133  1.00  0.00     0.002 C 
ENDROOT
BRANCH   1   2
ATOM      2  C   UNL A   1      38.590  20.162  25.525  1.00  0.00     0.021 C 
BRANCH   2   3
ATOM      3  C   UNL A   1      37.591  21.303  25.404  1.00  0.00     0.116 C 
BRANCH   3   4
ATOM      4  N   UNL A   1      37.663  22.107  24.192  1.00  0.00    -0.352 N 
ATOM      5  C   UNL A   1      36.681  22.876  23.591  1.00  0.00     0.251 C 
ATOM      6  O   UNL A   1      36.954  23.544  22.596  1.00  0.00    -0.269 OA
ATOM      7  H   UNL A   1      38.534  22.101  23.735  1.00  0.00     0.163 HD
BRANCH   5   8
ATOM      8  C   UNL A   1      35.269  22.782  24.057  1.00  0.00     0.042 A 
ATOM      9  C   UNL A   1      33.085  23.830  23.848  1.00  0.00     0.038 A 
ATOM     10  C   UNL A   1      34.472  23.927  23.948  1.00  0.00     0.039 A 
ATOM     11  C   UNL A   1      32.549  22.542  23.855  1.00  0.00     0.039 A 
ATOM     12  C   UNL A   1      33.308  21.410  24.176  1.00  0.00     0.058 A 
ATOM     13  C   UNL A   1      34.678  21.562  24.368  1.00  0.00     0.027 A 
BRANCH   9  14
ATOM     14  N   UNL A   1      32.259  24.927  23.696  1.00  0.00    -0.372 N 
BRANCH  14  15
ATOM     15  C   UNL A   1      32.869  26.248  23.480  1.00  0.00     0.116 C 
BRANCH  15  16
ATOM     16  C   UNL A   1      33.218  26.553  22.014  1.00  0.00     0.018 C 
ATOM     17  C   UNL A   1      32.510  25.681  20.978  1.00  0.00     0.006 C 
ENDBRANCH  15  16
ENDBRANCH  14  15
BRANCH  14  18
ATOM     18  C   UNL A   1      30.794  24.802  23.721  1.00  0.00     0.116 C 
BRANCH  18  19
ATOM     19  C   UNL A   1      30.097  25.880  24.561  1.00  0.00     0.018 C 
ATOM     20  C   UNL A   1      28.818  26.410  23.914  1.00  0.00     0.006 C 
ENDBRANCH  18  19
ENDBRANCH  14  18
ENDBRANCH   9  14
BRANCH  12  21
ATOM     21  C   UNL A   1      32.697  20.036  24.131  1.00  0.00     0.416 C 
ATOM     22  F   UNL A   1      31.827  19.846  25.162  1.00  0.00    -0.166 F 
ATOM     23  F   UNL A   1      31.985  19.812  22.995  1.00  0.00    -0.166 F 
ATOM     24  F   UNL A   1      33.609  19.031  24.218  1.00  0.00    -0.166 F 
ENDBRANCH  12  21
ENDBRANCH   5   8
ENDBRANCH   3   4
ENDBRANCH   2   3
ENDBRANCH   1   2
BRANCH   1  25
ATOM     25  C   UNL A   1      40.143  21.939  26.606  1.00  0.00     0.002 C 
BRANCH  25  26
ATOM     26  C   UNL A   1      41.063  22.146  27.812  1.00  0.00     0.021 C 
BRANCH  26  27
ATOM     27  C   UNL A   1      42.430  22.753  27.513  1.00  0.00     0.116 C 
BRANCH  27  28
ATOM     28  N   UNL A   1      42.433  23.568  26.310  1.00  0.00    -0.352 N 
ATOM     29  C   UNL A   1      42.190  24.908  26.158  1.00  0.00     0.251 C 
ATOM     30  H   UNL A   1      42.642  23.083  25.479  1.00  0.00     0.163 HD
ATOM     31  O   UNL A   1      42.082  25.381  25.024  1.00  0.00    -0.269 OA
BRANCH  29  32
ATOM     32  C   UNL A   1      42.032  25.785  27.339  1.00  0.00     0.039 A 
ATOM     33  C   UNL A   1      42.970  26.797  27.559  1.00  0.00     0.014 A 
ATOM     34  C   UNL A   1      40.978  25.605  28.240  1.00  0.00     0.014 A 
ATOM     35  C   UNL A   1      42.818  27.666  28.642  1.00  0.00     0.010 A 
ATOM     36  C   UNL A   1      40.786  26.517  29.277  1.00  0.00     0.010 A 
ATOM     37  C   UNL A   1      41.704  27.556  29.492  1.00  0.00    -0.014 A 
BRANCH  37  38
ATOM     38  C   UNL A   1      41.486  28.521  30.602  1.00  0.00     0.031 A 
ATOM     39  C   UNL A   1      42.345  28.468  31.837  1.00  0.00     0.074 A 
ATOM     40  C   UNL A   1      40.478  29.413  30.521  1.00  0.00     0.049 A 
ATOM     41  N   UNL A   1      42.274  29.197  32.922  1.00  0.00    -0.248 NA
ATOM     42  C   UNL A   1      43.408  27.450  31.869  1.00  0.00     0.031 C 
ATOM     43  C   UNL A   1      39.550  29.543  29.394  1.00  0.00     0.029 A 
ATOM     44  N   UNL A   1      40.059  30.376  31.405  1.00  0.00    -0.354 N 
ATOM     45  C   UNL A   1      43.270  28.719  33.766  1.00  0.00     0.074 A 
ATOM     46  C   UNL A   1      43.897  27.604  33.090  1.00  0.00     0.031 C 
ATOM     47  C   UNL A   1      38.693  30.545  29.642  1.00  0.00     0.029 A 
ATOM     48  C   UNL A   1      38.976  31.100  30.962  1.00  0.00     0.049 A 
ATOM     49  H   UNL A   1      40.493  30.535  32.275  1.00  0.00     0.167 HD
ATOM     50  C   UNL A   1      43.643  29.177  34.986  1.00  0.00     0.031 A 
ATOM     51  C   UNL A   1      38.280  32.092  31.553  1.00  0.00     0.031 A 
ATOM     52  C   UNL A   1      43.020  30.291  35.653  1.00  0.00     0.049 A 
ATOM     53  C   UNL A   1      38.694  32.563  32.921  1.00  0.00     0.074 A 
ATOM     54  C   UNL A   1      43.364  30.868  36.864  1.00  0.00     0.029 A 
ATOM     55  N   UNL A   1      41.923  30.991  35.174  1.00  0.00    -0.354 N 
ATOM     56  N   UNL A   1      39.688  32.149  33.669  1.00  0.00    -0.248 NA
ATOM     57  C   UNL A   1      37.895  33.641  33.522  1.00  0.00     0.031 C 
ATOM     58  C   UNL A   1      42.435  31.875  37.146  1.00  0.00     0.029 A 
ATOM     59  C   UNL A   1      41.554  31.970  36.081  1.00  0.00     0.049 A 
ATOM     60  H   UNL A   1      41.473  30.818  34.316  1.00  0.00     0.167 HD
ATOM     61  C   UNL A   1      39.647  32.928  34.820  1.00  0.00     0.074 A 
ATOM     62  C   UNL A   1      38.543  33.854  34.659  1.00  0.00     0.031 C 
ATOM     63  C   UNL A   1      40.449  32.881  35.912  1.00  0.00     0.031 A 
BRANCH  50  64
ATOM     64  C   UNL A   1      44.774  28.468  35.684  1.00  0.00    -0.014 A 
ATOM     65  C   UNL A   1      46.108  28.883  35.518  1.00  0.00     0.010 A 
ATOM     66  C   UNL A   1      44.496  27.398  36.556  1.00  0.00     0.010 A 
ATOM     67  C   UNL A   1      47.145  28.215  36.175  1.00  0.00     0.020 A 
ATOM     68  C   UNL A   1      45.529  26.747  37.240  1.00  0.00     0.020 A 
ATOM     69  C   UNL A   1      46.848  27.150  37.030  1.00  0.00     0.054 A 
BRANCH  69  70
ATOM     70  S   UNL A   1      48.215  26.317  37.885  1.00  0.00     0.124 S 
ATOM     71  O   UNL A   1      49.379  27.000  37.327  1.00  0.00    -0.237 OA
ATOM     72  O   UNL A   1      47.933  26.601  39.290  1.00  0.00    -0.237 OA
ATOM     73  O   UNL A   1      48.068  24.918  37.493  1.00  0.00    -0.744 OA
ENDBRANCH  69  70
ENDBRANCH  50  64
BRANCH  51  74
ATOM     74  C   UNL A   1      37.119  32.707  30.851  1.00  0.00    -0.014 A 
ATOM     75  C   UNL A   1      37.303  33.791  29.976  1.00  0.00     0.010 A 
ATOM     76  C   UNL A   1      35.820  32.204  31.050  1.00  0.00     0.010 A 
ATOM     77  C   UNL A   1      36.210  34.372  29.325  1.00  0.00     0.020 A 
ATOM     78  C   UNL A   1      34.728  32.761  30.377  1.00  0.00     0.020 A 
ATOM     79  C   UNL A   1      34.929  33.850  29.528  1.00  0.00     0.054 A 
BRANCH  79  80
ATOM     80  S   UNL A   1      33.533  34.587  28.634  1.00  0.00     0.124 S 
ATOM     81  O   UNL A   1      33.124  33.496  27.757  1.00  0.00    -0.237 OA
ATOM     82  O   UNL A   1      32.606  34.913  29.715  1.00  0.00    -0.237 OA
ATOM     83  O   UNL A   1      34.126  35.742  27.964  1.00  0.00    -0.744 OA
ENDBRANCH  79  80
ENDBRANCH  51  74
BRANCH  63  84
ATOM     84  C   UNL A   1      40.179  33.867  37.019  1.00  0.00    -0.014 A 
ATOM     85  C   UNL A   1      40.889  35.078  37.101  1.00  0.00     0.010 A 
ATOM     86  C   UNL A   1      39.155  33.608  37.947  1.00  0.00     0.010 A 
ATOM     87  C   UNL A   1      40.593  36.003  38.106  1.00  0.00     0.020 A 
ATOM     88  C   UNL A   1      38.836  34.544  38.935  1.00  0.00     0.020 A 
ATOM     89  C   UNL A   1      39.565  35.732  39.014  1.00  0.00     0.054 A 
BRANCH  89  90
ATOM     90  S   UNL A   1      39.161  36.978  40.270  1.00  0.00     0.124 S 
ATOM     91  O   UNL A   1      38.483  37.999  39.477  1.00  0.00    -0.237 OA
ATOM     92  O   UNL A   1      38.312  36.234  41.196  1.00  0.00    -0.237 OA
ATOM     93  O   UNL A   1      40.465  37.367  40.804  1.00  0.00    -0.744 OA
ENDBRANCH  89  90
ENDBRANCH  63  84
ENDBRANCH  37  38
ENDBRANCH  29  32
ENDBRANCH  27  28
ENDBRANCH  26  27
ENDBRANCH  25  26
ENDBRANCH   1  25
TORSDOF 22
ENDMDL
MODEL 3
REMARK VINA RESULT:      -9.0      3.828      5.039
REMARK SMILES CCCN(CCC)c1cc(C(=O)NCCCCCCNC(=O)c2ccc(-c3c4nc(c(-c5ccc(S(=O)(=O)[O-])cc5)c5ccc([nH]5)c(-c5ccc(S(=O)(=O)[O-])cc5)c5nc(c(-c6ccc(S(=O)(=O)[O-])cc6)c6ccc3[nH]6)C=C5)C=C4)cc2)cc(C(F)(F)F)c1
REMARK SMILES IDX 16 1 15 2 14 3 13 4 11 5 12 6 10 8 8 9 9 10 89 11 84 12
REMARK SMILES IDX 83 13 4 14 3 15 2 16 1 17 5 18 6 19 7 20 85 21 86 22 87 23
REMARK SMILES IDX 88 24 17 25 18 26 19 27 20 28 21 29 22 31 23 32 24 33 82 34
REMARK SMILES IDX 25 35 81 36 26 37 27 38 28 39 75 40 29 41 80 42 74 43 76 44
REMARK SMILES IDX 30 45 79 46 73 47 72 48 31 50 61 51 42 52 60 53 43 54 46 55
REMARK SMILES IDX 59 56 77 57 44 58 45 59 58 61 78 62 47 63 32 64 33 65 41 66
REMARK SMILES IDX 34 67 40 68 35 69 36 70 37 71 38 72 39 73 62 74 63 75 71 76
REMARK SMILES IDX 64 77 70 78 65 79 66 80 67 81 68 82 69 83 48 84 49 85 57 86
REMARK SMILES IDX 50 87 56 88 51 89 52 90 53 91 54 92 55 93
REMARK H PARENT 13 7 20 30 76 49 46 60
REMARK Flexibility Score: inf
ROOT
ATOM      1  C   UNL A   1      35.264  21.391  24.636  1.00  0.00     0.002 C 
ENDROOT
BRANCH   1   2
ATOM      2  C   UNL A   1      34.456  22.501  23.975  1.00  0.00     0.021 C 
BRANCH   2   3
ATOM      3  C   UNL A   1      33.880  23.569  24.892  1.00  0.00     0.116 C 
BRANCH   3   4
ATOM      4  N   UNL A   1      33.241  23.104  26.115  1.00  0.00    -0.352 N 
ATOM      5  C   UNL A   1      32.175  23.649  26.810  1.00  0.00     0.251 C 
ATOM      6  O   UNL A   1      31.731  23.069  27.798  1.00  0.00    -0.269 OA
ATOM      7  H   UNL A   1      33.623  22.284  26.503  1.00  0.00     0.163 HD
BRANCH   5   8
ATOM      8  C   UNL A   1      31.666  25.002  26.453  1.00  0.00     0.042 A 
ATOM      9  C   UNL A   1      32.384  27.248  25.853  1.00  0.00     0.038 A 
ATOM     10  C   UNL A   1      32.539  26.086  26.609  1.00  0.00     0.039 A 
ATOM     11  C   UNL A   1      31.328  27.261  24.941  1.00  0.00     0.039 A 
ATOM     12  C   UNL A   1      30.330  26.280  24.928  1.00  0.00     0.058 A 
ATOM     13  C   UNL A   1      30.467  25.181  25.770  1.00  0.00     0.027 A 
BRANCH   9  14
ATOM     14  N   UNL A   1      33.243  28.326  25.940  1.00  0.00    -0.372 N 
BRANCH  14  15
ATOM     15  C   UNL A   1      33.348  29.046  27.218  1.00  0.00     0.116 C 
BRANCH  15  16
ATOM     16  C   UNL A   1      33.002  30.542  27.134  1.00  0.00     0.018 C 
ATOM     17  C   UNL A   1      31.680  30.870  26.442  1.00  0.00     0.006 C 
ENDBRANCH  15  16
ENDBRANCH  14  15
BRANCH  14  18
ATOM     18  C   UNL A   1      34.067  28.753  24.799  1.00  0.00     0.116 C 
BRANCH  18  19
ATOM     19  C   UNL A   1      33.265  28.993  23.515  1.00  0.00     0.018 C 
ATOM     20  C   UNL A   1      33.889  28.332  22.286  1.00  0.00     0.006 C 
ENDBRANCH  18  19
ENDBRANCH  14  18
ENDBRANCH   9  14
BRANCH  12  21
ATOM     21  C   UNL A   1      29.232  26.313  23.899  1.00  0.00     0.416 C 
ATOM     22  F   UNL A   1      29.414  27.331  23.012  1.00  0.00    -0.166 F 
ATOM     23  F   UNL A   1      29.171  25.176  23.156  1.00  0.00    -0.166 F 
ATOM     24  F   UNL A   1      27.993  26.491  24.431  1.00  0.00    -0.166 F 
ENDBRANCH  12  21
ENDBRANCH   5   8
ENDBRANCH   3   4
ENDBRANCH   2   3
ENDBRANCH   1   2
BRANCH   1  25
ATOM     25  C   UNL A   1      36.546  21.818  25.355  1.00  0.00     0.002 C 
BRANCH  25  26
ATOM     26  C   UNL A   1      37.790  20.961  25.107  1.00  0.00     0.021 C 
BRANCH  26  27
ATOM     27  C   UNL A   1      38.993  21.255  25.997  1.00  0.00     0.116 C 
BRANCH  27  28
ATOM     28  N   UNL A   1      39.967  20.177  26.001  1.00  0.00    -0.352 N 
ATOM     29  C   UNL A   1      41.331  20.227  26.130  1.00  0.00     0.251 C 
ATOM     30  H   UNL A   1      39.589  19.274  25.897  1.00  0.00     0.163 HD
ATOM     31  O   UNL A   1      41.996  19.206  25.945  1.00  0.00    -0.269 OA
BRANCH  29  32
ATOM     32  C   UNL A   1      42.011  21.498  26.463  1.00  0.00     0.039 A 
ATOM     33  C   UNL A   1      42.276  22.410  25.438  1.00  0.00     0.014 A 
ATOM     34  C   UNL A   1      42.406  21.788  27.772  1.00  0.00     0.014 A 
ATOM     35  C   UNL A   1      42.877  23.636  25.733  1.00  0.00     0.010 A 
ATOM     36  C   UNL A   1      42.938  23.040  28.077  1.00  0.00     0.010 A 
ATOM     37  C   UNL A   1      43.182  23.977  27.062  1.00  0.00    -0.014 A 
BRANCH  37  38
ATOM     38  C   UNL A   1      43.750  25.309  27.402  1.00  0.00     0.031 A 
ATOM     39  C   UNL A   1      45.207  25.600  27.163  1.00  0.00     0.074 A 
ATOM     40  C   UNL A   1      42.964  26.241  27.978  1.00  0.00     0.049 A 
ATOM     41  N   UNL A   1      45.887  26.685  27.436  1.00  0.00    -0.248 NA
ATOM     42  C   UNL A   1      46.012  24.525  26.558  1.00  0.00     0.031 C 
ATOM     43  C   UNL A   1      41.543  26.072  28.297  1.00  0.00     0.029 A 
ATOM     44  N   UNL A   1      43.246  27.516  28.403  1.00  0.00    -0.354 N 
ATOM     45  C   UNL A   1      47.196  26.420  27.050  1.00  0.00     0.074 A 
ATOM     46  C   UNL A   1      47.227  25.055  26.572  1.00  0.00     0.031 C 
ATOM     47  C   UNL A   1      41.075  27.207  28.838  1.00  0.00     0.029 A 
ATOM     48  C   UNL A   1      42.166  28.169  28.950  1.00  0.00     0.049 A 
ATOM     49  H   UNL A   1      44.139  27.925  28.324  1.00  0.00     0.167 HD
ATOM     50  C   UNL A   1      48.273  27.243  27.073  1.00  0.00     0.031 A 
ATOM     51  C   UNL A   1      42.064  29.400  29.491  1.00  0.00     0.031 A 
ATOM     52  C   UNL A   1      48.237  28.603  27.544  1.00  0.00     0.049 A 
ATOM     53  C   UNL A   1      43.281  30.285  29.533  1.00  0.00     0.074 A 
ATOM     54  C   UNL A   1      49.260  29.535  27.553  1.00  0.00     0.029 A 
ATOM     55  N   UNL A   1      47.126  29.223  28.096  1.00  0.00    -0.354 N 
ATOM     56  N   UNL A   1      44.492  30.042  29.092  1.00  0.00    -0.248 NA
ATOM     57  C   UNL A   1      43.116  31.613  30.141  1.00  0.00     0.031 C 
ATOM     58  C   UNL A   1      48.785  30.698  28.169  1.00  0.00     0.029 A 
ATOM     59  C   UNL A   1      47.448  30.513  28.483  1.00  0.00     0.049 A 
ATOM     60  H   UNL A   1      46.240  28.807  28.198  1.00  0.00     0.167 HD
ATOM     61  C   UNL A   1      45.227  31.193  29.350  1.00  0.00     0.074 A 
ATOM     62  C   UNL A   1      44.320  32.140  29.967  1.00  0.00     0.031 C 
ATOM     63  C   UNL A   1      46.536  31.443  29.101  1.00  0.00     0.031 A 
BRANCH  50  64
ATOM     64  C   UNL A   1      49.586  26.691  26.581  1.00  0.00    -0.014 A 
ATOM     65  C   UNL A   1      50.032  26.933  25.269  1.00  0.00     0.010 A 
ATOM     66  C   UNL A   1      50.409  25.959  27.457  1.00  0.00     0.010 A 
ATOM     67  C   UNL A   1      51.254  26.416  24.829  1.00  0.00     0.020 A 
ATOM     68  C   UNL A   1      51.646  25.466  27.030  1.00  0.00     0.020 A 
ATOM     69  C   UNL A   1      52.052  25.683  25.713  1.00  0.00     0.054 A 
BRANCH  69  70
ATOM     70  S   UNL A   1      53.642  25.044  25.119  1.00  0.00     0.124 S 
ATOM     71  O   UNL A   1      53.452  23.601  25.246  1.00  0.00    -0.237 OA
ATOM     72  O   UNL A   1      53.699  25.551  23.750  1.00  0.00    -0.237 OA
ATOM     73  O   UNL A   1      54.616  25.627  26.037  1.00  0.00    -0.744 OA
ENDBRANCH  69  70
ENDBRANCH  50  64
BRANCH  51  74
ATOM     74  C   UNL A   1      40.759  29.868  30.036  1.00  0.00    -0.014 A 
ATOM     75  C   UNL A   1      39.799  30.451  29.192  1.00  0.00     0.010 A 
ATOM     76  C   UNL A   1      40.467  29.723  31.405  1.00  0.00     0.010 A 
ATOM     77  C   UNL A   1      38.578  30.898  29.709  1.00  0.00     0.020 A 
ATOM     78  C   UNL A   1      39.236  30.139  31.919  1.00  0.00     0.020 A 
ATOM     79  C   UNL A   1      38.303  30.735  31.069  1.00  0.00     0.054 A 
BRANCH  79  80
ATOM     80  S   UNL A   1      36.693  31.275  31.707  1.00  0.00     0.124 S 
ATOM     81  O   UNL A   1      36.022  31.728  30.493  1.00  0.00    -0.237 OA
ATOM     82  O   UNL A   1      36.166  30.051  32.304  1.00  0.00    -0.237 OA
ATOM     83  O   UNL A   1      37.037  32.326  32.662  1.00  0.00    -0.744 OA
ENDBRANCH  79  80
ENDBRANCH  51  74
BRANCH  63  84
ATOM     84  C   UNL A   1      47.071  32.800  29.479  1.00  0.00    -0.014 A 
ATOM     85  C   UNL A   1      46.997  33.885  28.586  1.00  0.00     0.010 A 
ATOM     86  C   UNL A   1      47.592  33.009  30.769  1.00  0.00     0.010 A 
ATOM     87  C   UNL A   1      47.454  35.147  28.970  1.00  0.00     0.020 A 
ATOM     88  C   UNL A   1      48.022  34.278  31.167  1.00  0.00     0.020 A 
ATOM     89  C   UNL A   1      47.960  35.338  30.260  1.00  0.00     0.054 A 
BRANCH  89  90
ATOM     90  S   UNL A   1      48.488  37.002  30.751  1.00  0.00     0.124 S 
ATOM     91  O   UNL A   1      48.135  37.027  32.168  1.00  0.00    -0.237 OA
ATOM     92  O   UNL A   1      49.919  36.982  30.460  1.00  0.00    -0.237 OA
ATOM     93  O   UNL A   1      47.696  37.884  29.896  1.00  0.00    -0.744 OA
ENDBRANCH  89  90
ENDBRANCH  63  84
ENDBRANCH  37  38
ENDBRANCH  29  32
ENDBRANCH  27  28
ENDBRANCH  26  27
ENDBRANCH  25  26
ENDBRANCH   1  25
TORSDOF 22
ENDMDL
