MODEL 1
REMARK VINA RESULT:      -8.7      0.000      0.000
REMARK SMILES NS(=O)(=O)c1ccc(/N=N/c2ccc(O)c(C(=O)NCCCCCCNC(=O)c3ccc(-c4c5nc(c(-c6ccc(S(=O)(=O)[O-])cc6)c6ccc([nH]6)c(-c6ccc(S(=O)(=O)[O-])cc6)c6nc(c(-c7ccc(S(=O)(=O)[O-])cc7)c7ccc4[nH]7)C=C6)C=C5)cc3)c2)cc1
REMARK SMILES IDX 22 1 21 2 20 3 19 4 17 5 18 6 16 8 11 9 12 10 89 11 13 12
REMARK SMILES IDX 14 13 10 14 9 15 8 16 5 17 6 18 91 19 7 20 90 21 2 22 3 23
REMARK SMILES IDX 4 24 1 25 15 28 23 30 24 31 25 32 26 33 27 34 28 36 29 37
REMARK SMILES IDX 30 38 88 39 31 40 87 41 32 42 33 43 34 44 81 45 35 46 86 47
REMARK SMILES IDX 80 48 82 49 36 50 85 51 79 52 78 53 37 55 67 56 48 57 66 58
REMARK SMILES IDX 49 59 52 60 65 61 83 62 50 63 51 64 64 66 84 67 53 68 38 69
REMARK SMILES IDX 39 70 47 71 40 72 46 73 41 74 42 75 43 76 44 77 45 78 68 79
REMARK SMILES IDX 69 80 77 81 70 82 76 83 71 84 72 85 73 86 74 87 75 88 54 89
REMARK SMILES IDX 55 90 63 91 56 92 62 93 57 94 58 95 59 96 60 97 61 98
REMARK H PARENT 19 7 1 26 1 27 15 29 26 35 82 54 52 65
REMARK Flexibility Score: inf
ROOT
ATOM      1  C   UNL A   1      37.707  33.272  30.308  1.00  0.00     0.002 C 
ENDROOT
BRANCH   1   2
ATOM      2  C   UNL A   1      38.078  34.506  31.129  1.00  0.00     0.021 C 
BRANCH   2   3
ATOM      3  C   UNL A   1      39.339  34.405  31.980  1.00  0.00     0.116 C 
BRANCH   3   4
ATOM      4  N   UNL A   1      39.123  34.627  33.401  1.00  0.00    -0.352 N 
ATOM      5  C   UNL A   1      38.854  33.740  34.419  1.00  0.00     0.255 C 
ATOM      6  O   UNL A   1      38.622  34.175  35.549  1.00  0.00    -0.269 OA
ATOM      7  H   UNL A   1      39.176  35.568  33.681  1.00  0.00     0.163 HD
BRANCH   5   8
ATOM      8  C   UNL A   1      38.743  32.273  34.201  1.00  0.00     0.083 A 
ATOM      9  C   UNL A   1      39.791  30.074  34.052  1.00  0.00     0.087 A 
ATOM     10  C   UNL A   1      38.633  29.578  33.446  1.00  0.00     0.034 A 
ATOM     11  C   UNL A   1      39.783  31.398  34.519  1.00  0.00     0.048 A 
ATOM     12  C   UNL A   1      37.516  30.400  33.263  1.00  0.00     0.049 A 
ATOM     13  C   UNL A   1      37.581  31.745  33.623  1.00  0.00     0.128 A 
BRANCH   9  14
ATOM     14  N   UNL A   1      40.950  29.261  34.110  1.00  0.00    -0.151 NA
ATOM     15  N   UNL A   1      40.624  28.054  34.197  1.00  0.00    -0.151 NA
BRANCH  15  16
ATOM     16  C   UNL A   1      41.704  27.203  34.481  1.00  0.00     0.086 A 
ATOM     17  C   UNL A   1      43.822  25.387  34.775  1.00  0.00     0.082 A 
ATOM     18  C   UNL A   1      44.011  26.554  34.031  1.00  0.00     0.024 A 
ATOM     19  C   UNL A   1      42.586  25.117  35.371  1.00  0.00     0.024 A 
ATOM     20  C   UNL A   1      42.949  27.453  33.884  1.00  0.00     0.031 A 
ATOM     21  C   UNL A   1      41.534  26.025  35.221  1.00  0.00     0.031 A 
BRANCH  17  22
ATOM     22  S   UNL A   1      45.140  24.216  34.953  1.00  0.00     0.238 S 
ATOM     23  O   UNL A   1      46.304  24.917  35.441  1.00  0.00    -0.207 OA
ATOM     24  O   UNL A   1      45.162  23.390  33.770  1.00  0.00    -0.207 OA
BRANCH  22  25
ATOM     25  N   UNL A   1      44.637  23.243  36.224  1.00  0.00    -0.225 NA
ATOM     26  H   UNL A   1      44.942  22.283  36.060  1.00  0.00     0.137 HD
ATOM     27  H   UNL A   1      43.618  23.268  36.289  1.00  0.00     0.137 HD
ENDBRANCH  22  25
ENDBRANCH  17  22
ENDBRANCH  15  16
ENDBRANCH   9  14
BRANCH  13  28
ATOM     28  O   UNL A   1      36.464  32.498  33.370  1.00  0.00    -0.507 OA
ATOM     29  H   UNL A   1      36.519  33.242  32.803  1.00  0.00     0.293 HD
ENDBRANCH  13  28
ENDBRANCH   5   8
ENDBRANCH   3   4
ENDBRANCH   2   3
ENDBRANCH   1   2
BRANCH   1  30
ATOM     30  C   UNL A   1      37.485  33.490  28.810  1.00  0.00     0.002 C 
BRANCH  30  31
ATOM     31  C   UNL A   1      36.031  33.606  28.346  1.00  0.00     0.021 C 
BRANCH  31  32
ATOM     32  C   UNL A   1      35.005  32.845  29.180  1.00  0.00     0.116 C 
BRANCH  32  33
ATOM     33  N   UNL A   1      34.220  31.912  28.389  1.00  0.00    -0.352 N 
ATOM     34  C   UNL A   1      34.576  30.693  27.863  1.00  0.00     0.251 C 
ATOM     35  H   UNL A   1      33.296  32.195  28.202  1.00  0.00     0.163 HD
ATOM     36  O   UNL A   1      33.822  30.119  27.082  1.00  0.00    -0.269 OA
BRANCH  34  37
ATOM     37  C   UNL A   1      35.879  30.087  28.215  1.00  0.00     0.039 A 
ATOM     38  C   UNL A   1      36.917  30.130  27.280  1.00  0.00     0.014 A 
ATOM     39  C   UNL A   1      36.081  29.486  29.461  1.00  0.00     0.014 A 
ATOM     40  C   UNL A   1      38.182  29.648  27.627  1.00  0.00     0.010 A 
ATOM     41  C   UNL A   1      37.359  29.066  29.828  1.00  0.00     0.010 A 
ATOM     42  C   UNL A   1      38.425  29.154  28.920  1.00  0.00    -0.014 A 
BRANCH  42  43
ATOM     43  C   UNL A   1      39.795  28.776  29.356  1.00  0.00     0.031 A 
ATOM     44  C   UNL A   1      40.658  29.757  30.102  1.00  0.00     0.074 A 
ATOM     45  C   UNL A   1      40.290  27.571  29.008  1.00  0.00     0.049 A 
ATOM     46  N   UNL A   1      41.902  29.629  30.489  1.00  0.00    -0.248 NA
ATOM     47  C   UNL A   1      40.056  31.058  30.434  1.00  0.00     0.031 C 
ATOM     48  C   UNL A   1      39.566  26.545  28.251  1.00  0.00     0.029 A 
ATOM     49  N   UNL A   1      41.522  27.006  29.232  1.00  0.00    -0.354 N 
ATOM     50  C   UNL A   1      42.235  30.833  31.098  1.00  0.00     0.074 A 
ATOM     51  C   UNL A   1      41.078  31.695  30.990  1.00  0.00     0.031 C 
ATOM     52  C   UNL A   1      40.358  25.473  28.094  1.00  0.00     0.029 A 
ATOM     53  C   UNL A   1      41.660  25.748  28.693  1.00  0.00     0.049 A 
ATOM     54  H   UNL A   1      42.239  27.459  29.733  1.00  0.00     0.167 HD
ATOM     55  C   UNL A   1      43.395  31.182  31.704  1.00  0.00     0.031 A 
ATOM     56  C   UNL A   1      42.718  24.914  28.664  1.00  0.00     0.031 A 
ATOM     57  C   UNL A   1      44.540  30.317  31.817  1.00  0.00     0.049 A 
ATOM     58  C   UNL A   1      44.002  25.337  29.322  1.00  0.00     0.074 A 
ATOM     59  C   UNL A   1      45.737  30.560  32.470  1.00  0.00     0.029 A 
ATOM     60  N   UNL A   1      44.637  29.050  31.264  1.00  0.00    -0.354 N 
ATOM     61  N   UNL A   1      44.272  26.454  29.955  1.00  0.00    -0.248 NA
ATOM     62  C   UNL A   1      45.124  24.389  29.264  1.00  0.00     0.031 C 
ATOM     63  C   UNL A   1      46.583  29.469  32.250  1.00  0.00     0.029 A 
ATOM     64  C   UNL A   1      45.889  28.517  31.520  1.00  0.00     0.049 A 
ATOM     65  H   UNL A   1      43.922  28.596  30.762  1.00  0.00     0.167 HD
ATOM     66  C   UNL A   1      45.586  26.331  30.392  1.00  0.00     0.074 A 
ATOM     67  C   UNL A   1      46.050  25.027  29.966  1.00  0.00     0.031 C 
ATOM     68  C   UNL A   1      46.342  27.220  31.083  1.00  0.00     0.031 A 
BRANCH  55  69
ATOM     69  C   UNL A   1      43.496  32.570  32.283  1.00  0.00    -0.014 A 
ATOM     70  C   UNL A   1      43.976  33.648  31.517  1.00  0.00     0.010 A 
ATOM     71  C   UNL A   1      43.040  32.812  33.592  1.00  0.00     0.010 A 
ATOM     72  C   UNL A   1      44.029  34.935  32.061  1.00  0.00     0.020 A 
ATOM     73  C   UNL A   1      43.065  34.102  34.131  1.00  0.00     0.020 A 
ATOM     74  C   UNL A   1      43.572  35.154  33.365  1.00  0.00     0.054 A 
BRANCH  74  75
ATOM     75  S   UNL A   1      43.618  36.840  34.028  1.00  0.00     0.124 S 
ATOM     76  O   UNL A   1      42.468  36.840  34.930  1.00  0.00    -0.237 OA
ATOM     77  O   UNL A   1      44.925  36.892  34.679  1.00  0.00    -0.237 OA
ATOM     78  O   UNL A   1      43.479  37.684  32.845  1.00  0.00    -0.744 OA
ENDBRANCH  74  75
ENDBRANCH  55  69
BRANCH  56  79
ATOM     79  C   UNL A   1      42.611  23.599  27.972  1.00  0.00    -0.014 A 
ATOM     80  C   UNL A   1      42.899  23.482  26.602  1.00  0.00     0.010 A 
ATOM     81  C   UNL A   1      42.223  22.451  28.689  1.00  0.00     0.010 A 
ATOM     82  C   UNL A   1      42.782  22.248  25.957  1.00  0.00     0.020 A 
ATOM     83  C   UNL A   1      42.136  21.210  28.054  1.00  0.00     0.020 A 
ATOM     84  C   UNL A   1      42.404  21.118  26.688  1.00  0.00     0.054 A 
BRANCH  84  85
ATOM     85  S   UNL A   1      42.307  19.517  25.842  1.00  0.00     0.124 S 
ATOM     86  O   UNL A   1      40.916  19.490  25.403  1.00  0.00    -0.237 OA
ATOM     87  O   UNL A   1      43.303  19.661  24.783  1.00  0.00    -0.237 OA
ATOM     88  O   UNL A   1      42.655  18.557  26.887  1.00  0.00    -0.744 OA
ENDBRANCH  84  85
ENDBRANCH  56  79
BRANCH  68  89
ATOM     89  C   UNL A   1      47.748  26.813  31.437  1.00  0.00    -0.014 A 
ATOM     90  C   UNL A   1      48.036  26.191  32.665  1.00  0.00     0.010 A 
ATOM     91  C   UNL A   1      48.782  26.992  30.500  1.00  0.00     0.010 A 
ATOM     92  C   UNL A   1      49.338  25.775  32.957  1.00  0.00     0.020 A 
ATOM     93  C   UNL A   1      50.078  26.551  30.776  1.00  0.00     0.020 A 
ATOM     94  C   UNL A   1      50.350  25.953  32.009  1.00  0.00     0.054 A 
BRANCH  94  95
ATOM     95  S   UNL A   1      52.017  25.349  32.390  1.00  0.00     0.124 S 
ATOM     96  O   UNL A   1      52.820  26.004  31.362  1.00  0.00    -0.237 OA
ATOM     97  O   UNL A   1      52.226  25.829  33.754  1.00  0.00    -0.237 OA
ATOM     98  O   UNL A   1      51.898  23.897  32.258  1.00  0.00    -0.744 OA
ENDBRANCH  94  95
ENDBRANCH  68  89
ENDBRANCH  42  43
ENDBRANCH  34  37
ENDBRANCH  32  33
ENDBRANCH  31  32
ENDBRANCH  30  31
ENDBRANCH   1  30
TORSDOF 21
ENDMDL
MODEL 2
REMARK VINA RESULT:      -8.5      0.478      7.955
REMARK SMILES NS(=O)(=O)c1ccc(/N=N/c2ccc(O)c(C(=O)NCCCCCCNC(=O)c3ccc(-c4c5nc(c(-c6ccc(S(=O)(=O)[O-])cc6)c6ccc([nH]6)c(-c6ccc(S(=O)(=O)[O-])cc6)c6nc(c(-c7ccc(S(=O)(=O)[O-])cc7)c7ccc4[nH]7)C=C6)C=C5)cc3)c2)cc1
REMARK SMILES IDX 22 1 21 2 20 3 19 4 17 5 18 6 16 8 11 9 12 10 89 11 13 12
REMARK SMILES IDX 14 13 10 14 9 15 8 16 5 17 6 18 91 19 7 20 90 21 2 22 3 23
REMARK SMILES IDX 4 24 1 25 15 28 23 30 24 31 25 32 26 33 27 34 28 36 29 37
REMARK SMILES IDX 30 38 88 39 31 40 87 41 32 42 33 43 34 44 81 45 35 46 86 47
REMARK SMILES IDX 80 48 82 49 36 50 85 51 79 52 78 53 37 55 67 56 48 57 66 58
REMARK SMILES IDX 49 59 52 60 65 61 83 62 50 63 51 64 64 66 84 67 53 68 38 69
REMARK SMILES IDX 39 70 47 71 40 72 46 73 41 74 42 75 43 76 44 77 45 78 68 79
REMARK SMILES IDX 69 80 77 81 70 82 76 83 71 84 72 85 73 86 74 87 75 88 54 89
REMARK SMILES IDX 55 90 63 91 56 92 62 93 57 94 58 95 59 96 60 97 61 98
REMARK H PARENT 19 7 1 26 1 27 15 29 26 35 82 54 52 65
REMARK Flexibility Score: inf
ROOT
ATOM      1  C   UNL A   1      37.425  33.341  30.311  1.00  0.00     0.002 C 
ENDROOT
BRANCH   1   2
ATOM      2  C   UNL A   1      37.744  34.555  31.182  1.00  0.00     0.021 C 
BRANCH   2   3
ATOM      3  C   UNL A   1      38.997  34.463  32.046  1.00  0.00     0.116 C 
BRANCH   3   4
ATOM      4  N   UNL A   1      38.752  34.605  33.473  1.00  0.00    -0.352 N 
ATOM      5  C   UNL A   1      38.498  33.658  34.440  1.00  0.00     0.255 C 
ATOM      6  O   UNL A   1      38.235  34.028  35.587  1.00  0.00    -0.269 OA
ATOM      7  H   UNL A   1      38.770  35.532  33.802  1.00  0.00     0.163 HD
BRANCH   5   8
ATOM      8  C   UNL A   1      38.439  32.202  34.145  1.00  0.00     0.083 A 
ATOM      9  C   UNL A   1      39.567  30.058  33.855  1.00  0.00     0.087 A 
ATOM     10  C   UNL A   1      38.415  29.548  33.249  1.00  0.00     0.034 A 
ATOM     11  C   UNL A   1      39.519  31.354  34.393  1.00  0.00     0.048 A 
ATOM     12  C   UNL A   1      37.263  30.333  33.135  1.00  0.00     0.049 A 
ATOM     13  C   UNL A   1      37.284  31.659  33.566  1.00  0.00     0.128 A 
BRANCH   9  14
ATOM     14  N   UNL A   1      40.758  29.290  33.844  1.00  0.00    -0.151 NA
ATOM     15  N   UNL A   1      40.496  28.088  34.083  1.00  0.00    -0.151 NA
BRANCH  15  16
ATOM     16  C   UNL A   1      41.638  27.301  34.308  1.00  0.00     0.086 A 
ATOM     17  C   UNL A   1      43.845  25.582  34.508  1.00  0.00     0.082 A 
ATOM     18  C   UNL A   1      43.883  26.653  33.613  1.00  0.00     0.024 A 
ATOM     19  C   UNL A   1      42.716  25.361  35.303  1.00  0.00     0.024 A 
ATOM     20  C   UNL A   1      42.776  27.504  33.514  1.00  0.00     0.031 A 
ATOM     21  C   UNL A   1      41.619  26.220  35.199  1.00  0.00     0.031 A 
BRANCH  17  22
ATOM     22  S   UNL A   1      45.220  24.471  34.633  1.00  0.00     0.238 S 
ATOM     23  O   UNL A   1      46.164  25.024  35.575  1.00  0.00    -0.207 OA
ATOM     24  O   UNL A   1      45.590  24.072  33.296  1.00  0.00    -0.207 OA
BRANCH  22  25
ATOM     25  N   UNL A   1      44.570  23.121  35.389  1.00  0.00    -0.225 NA
ATOM     26  H   UNL A   1      43.612  23.320  35.678  1.00  0.00     0.137 HD
ATOM     27  H   UNL A   1      45.131  22.887  36.209  1.00  0.00     0.137 HD
ENDBRANCH  22  25
ENDBRANCH  17  22
ENDBRANCH  15  16
ENDBRANCH   9  14
BRANCH  13  28
ATOM     28  O   UNL A   1      36.133  32.379  33.379  1.00  0.00    -0.507 OA
ATOM     29  H   UNL A   1      36.139  33.138  32.829  1.00  0.00     0.293 HD
ENDBRANCH  13  28
ENDBRANCH   5   8
ENDBRANCH   3   4
ENDBRANCH   2   3
ENDBRANCH   1   2
BRANCH   1  30
ATOM     30  C   UNL A   1      37.215  33.609  28.819  1.00  0.00     0.002 C 
BRANCH  30  31
ATOM     31  C   UNL A   1      35.790  33.431  28.289  1.00  0.00     0.021 C 
BRANCH  31  32
ATOM     32  C   UNL A   1      34.834  32.664  29.196  1.00  0.00     0.116 C 
BRANCH  32  33
ATOM     33  N   UNL A   1      34.068  31.656  28.483  1.00  0.00    -0.352 N 
ATOM     34  C   UNL A   1      34.478  30.456  27.953  1.00  0.00     0.251 C 
ATOM     35  H   UNL A   1      33.113  31.863  28.360  1.00  0.00     0.163 HD
ATOM     36  O   UNL A   1      33.716  29.809  27.239  1.00  0.00    -0.269 OA
BRANCH  34  37
ATOM     37  C   UNL A   1      35.846  29.959  28.215  1.00  0.00     0.039 A 
ATOM     38  C   UNL A   1      36.821  30.110  27.225  1.00  0.00     0.014 A 
ATOM     39  C   UNL A   1      36.172  29.356  29.434  1.00  0.00     0.014 A 
ATOM     40  C   UNL A   1      38.140  29.733  27.488  1.00  0.00     0.010 A 
ATOM     41  C   UNL A   1      37.500  29.043  29.718  1.00  0.00     0.010 A 
ATOM     42  C   UNL A   1      38.500  29.240  28.753  1.00  0.00    -0.014 A 
BRANCH  42  43
ATOM     43  C   UNL A   1      39.920  28.974  29.102  1.00  0.00     0.031 A 
ATOM     44  C   UNL A   1      40.565  27.664  28.738  1.00  0.00     0.074 A 
ATOM     45  C   UNL A   1      40.606  29.887  29.819  1.00  0.00     0.049 A 
ATOM     46  N   UNL A   1      41.764  27.229  29.031  1.00  0.00    -0.248 NA
ATOM     47  C   UNL A   1      39.751  26.711  27.968  1.00  0.00     0.031 C 
ATOM     48  C   UNL A   1      40.081  31.180  30.267  1.00  0.00     0.029 A 
ATOM     49  N   UNL A   1      41.889  29.866  30.310  1.00  0.00    -0.354 N 
ATOM     50  C   UNL A   1      41.845  25.950  28.493  1.00  0.00     0.074 A 
ATOM     51  C   UNL A   1      40.560  25.662  27.896  1.00  0.00     0.031 C 
ATOM     52  C   UNL A   1      41.038  31.833  30.946  1.00  0.00     0.029 A 
ATOM     53  C   UNL A   1      42.226  30.991  31.026  1.00  0.00     0.049 A 
ATOM     54  H   UNL A   1      42.509  29.115  30.163  1.00  0.00     0.167 HD
ATOM     55  C   UNL A   1      42.899  25.099  28.488  1.00  0.00     0.031 A 
ATOM     56  C   UNL A   1      43.356  31.307  31.689  1.00  0.00     0.031 A 
ATOM     57  C   UNL A   1      44.180  25.395  29.076  1.00  0.00     0.049 A 
ATOM     58  C   UNL A   1      44.502  30.334  31.688  1.00  0.00     0.074 A 
ATOM     59  C   UNL A   1      45.329  24.622  29.063  1.00  0.00     0.029 A 
ATOM     60  N   UNL A   1      44.482  26.547  29.784  1.00  0.00    -0.354 N 
ATOM     61  N   UNL A   1      44.582  29.158  31.111  1.00  0.00    -0.248 NA
ATOM     62  C   UNL A   1      45.712  30.729  32.424  1.00  0.00     0.031 C 
ATOM     63  C   UNL A   1      46.303  25.275  29.825  1.00  0.00     0.029 A 
ATOM     64  C   UNL A   1      45.784  26.486  30.253  1.00  0.00     0.049 A 
ATOM     65  H   UNL A   1      43.863  27.299  29.933  1.00  0.00     0.167 HD
ATOM     66  C   UNL A   1      45.858  28.685  31.395  1.00  0.00     0.074 A 
ATOM     67  C   UNL A   1      46.520  29.707  32.179  1.00  0.00     0.031 C 
ATOM     68  C   UNL A   1      46.429  27.507  31.039  1.00  0.00     0.031 A 
BRANCH  55  69
ATOM     69  C   UNL A   1      42.714  23.753  27.836  1.00  0.00    -0.014 A 
ATOM     70  C   UNL A   1      43.058  23.540  26.488  1.00  0.00     0.010 A 
ATOM     71  C   UNL A   1      42.253  22.667  28.603  1.00  0.00     0.010 A 
ATOM     72  C   UNL A   1      42.912  22.276  25.912  1.00  0.00     0.020 A 
ATOM     73  C   UNL A   1      42.133  21.393  28.038  1.00  0.00     0.020 A 
ATOM     74  C   UNL A   1      42.451  21.209  26.691  1.00  0.00     0.054 A 
BRANCH  74  75
ATOM     75  S   UNL A   1      42.309  19.572  25.925  1.00  0.00     0.124 S 
ATOM     76  O   UNL A   1      40.917  19.569  25.479  1.00  0.00    -0.237 OA
ATOM     77  O   UNL A   1      43.308  19.630  24.861  1.00  0.00    -0.237 OA
ATOM     78  O   UNL A   1      42.614  18.650  27.015  1.00  0.00    -0.744 OA
ENDBRANCH  74  75
ENDBRANCH  55  69
BRANCH  56  79
ATOM     79  C   UNL A   1      43.451  32.599  32.424  1.00  0.00    -0.014 A 
ATOM     80  C   UNL A   1      43.029  32.699  33.760  1.00  0.00     0.010 A 
ATOM     81  C   UNL A   1      43.974  33.740  31.786  1.00  0.00     0.010 A 
ATOM     82  C   UNL A   1      43.108  33.918  34.439  1.00  0.00     0.020 A 
ATOM     83  C   UNL A   1      44.084  34.953  32.471  1.00  0.00     0.020 A 
ATOM     84  C   UNL A   1      43.638  35.038  33.790  1.00  0.00     0.054 A 
BRANCH  84  85
ATOM     85  S   UNL A   1      43.778  36.597  34.705  1.00  0.00     0.124 S 
ATOM     86  O   UNL A   1      44.917  37.232  34.049  1.00  0.00    -0.237 OA
ATOM     87  O   UNL A   1      42.480  37.220  34.465  1.00  0.00    -0.237 OA
ATOM     88  O   UNL A   1      44.008  36.165  36.083  1.00  0.00    -0.744 OA
ENDBRANCH  84  85
ENDBRANCH  56  79
BRANCH  68  89
ATOM     89  C   UNL A   1      47.848  27.260  31.480  1.00  0.00    -0.014 A 
ATOM     90  C   UNL A   1      48.128  26.533  32.651  1.00  0.00     0.010 A 
ATOM     91  C   UNL A   1      48.915  27.700  30.676  1.00  0.00     0.010 A 
ATOM     92  C   UNL A   1      49.450  26.269  33.020  1.00  0.00     0.020 A 
ATOM     93  C   UNL A   1      50.236  27.413  31.025  1.00  0.00     0.020 A 
ATOM     94  C   UNL A   1      50.496  26.708  32.202  1.00  0.00     0.054 A 
BRANCH  94  95
ATOM     95  S   UNL A   1      52.199  26.300  32.672  1.00  0.00     0.124 S 
ATOM     96  O   UNL A   1      52.760  25.832  31.409  1.00  0.00    -0.237 OA
ATOM     97  O   UNL A   1      52.712  27.580  33.154  1.00  0.00    -0.237 OA
ATOM     98  O   UNL A   1      52.038  25.273  33.701  1.00  0.00    -0.744 OA
ENDBRANCH  94  95
ENDBRANCH  68  89
ENDBRANCH  42  43
ENDBRANCH  34  37
ENDBRANCH  32  33
ENDBRANCH  31  32
ENDBRANCH  30  31
ENDBRANCH   1  30
TORSDOF 21
ENDMDL
MODEL 3
REMARK VINA RESULT:      -7.2      2.983      4.994
REMARK SMILES NS(=O)(=O)c1ccc(/N=N/c2ccc(O)c(C(=O)NCCCCCCNC(=O)c3ccc(-c4c5nc(c(-c6ccc(S(=O)(=O)[O-])cc6)c6ccc([nH]6)c(-c6ccc(S(=O)(=O)[O-])cc6)c6nc(c(-c7ccc(S(=O)(=O)[O-])cc7)c7ccc4[nH]7)C=C6)C=C5)cc3)c2)cc1
REMARK SMILES IDX 22 1 21 2 20 3 19 4 17 5 18 6 16 8 11 9 12 10 89 11 13 12
REMARK SMILES IDX 14 13 10 14 9 15 8 16 5 17 6 18 91 19 7 20 90 21 2 22 3 23
REMARK SMILES IDX 4 24 1 25 15 28 23 30 24 31 25 32 26 33 27 34 28 36 29 37
REMARK SMILES IDX 30 38 88 39 31 40 87 41 32 42 33 43 34 44 81 45 35 46 86 47
REMARK SMILES IDX 80 48 82 49 36 50 85 51 79 52 78 53 37 55 67 56 48 57 66 58
REMARK SMILES IDX 49 59 52 60 65 61 83 62 50 63 51 64 64 66 84 67 53 68 38 69
REMARK SMILES IDX 39 70 47 71 40 72 46 73 41 74 42 75 43 76 44 77 45 78 68 79
REMARK SMILES IDX 69 80 77 81 70 82 76 83 71 84 72 85 73 86 74 87 75 88 54 89
REMARK SMILES IDX 55 90 63 91 56 92 62 93 57 94 58 95 59 96 60 97 61 98
REMARK H PARENT 19 7 1 26 1 27 15 29 26 35 82 54 52 65
REMARK Flexibility Score: inf
ROOT
ATOM      1  C   UNL A   1      38.538  33.311  29.485  1.00  0.00     0.002 C 
ENDROOT
BRANCH   1   2
ATOM      2  C   UNL A   1      39.798  34.027  29.971  1.00  0.00     0.021 C 
BRANCH   2   3
ATOM      3  C   UNL A   1      40.533  34.882  28.945  1.00  0.00     0.116 C 
BRANCH   3   4
ATOM      4  N   UNL A   1      41.796  35.429  29.416  1.00  0.00    -0.352 N 
ATOM      5  C   UNL A   1      43.074  35.298  28.919  1.00  0.00     0.255 C 
ATOM      6  O   UNL A   1      44.014  35.792  29.545  1.00  0.00    -0.269 OA
ATOM      7  H   UNL A   1      41.726  35.984  30.225  1.00  0.00     0.163 HD
BRANCH   5   8
ATOM      8  C   UNL A   1      43.386  34.508  27.699  1.00  0.00     0.083 A 
ATOM      9  C   UNL A   1      44.588  32.682  26.615  1.00  0.00     0.087 A 
ATOM     10  C   UNL A   1      44.268  33.229  25.368  1.00  0.00     0.034 A 
ATOM     11  C   UNL A   1      44.044  33.279  27.763  1.00  0.00     0.048 A 
ATOM     12  C   UNL A   1      43.470  34.374  25.276  1.00  0.00     0.049 A 
ATOM     13  C   UNL A   1      43.048  35.019  26.438  1.00  0.00     0.128 A 
BRANCH   9  14
ATOM     14  N   UNL A   1      45.500  31.600  26.688  1.00  0.00    -0.151 NA
ATOM     15  N   UNL A   1      44.914  30.525  26.417  1.00  0.00    -0.151 NA
BRANCH  15  16
ATOM     16  C   UNL A   1      45.689  29.384  26.680  1.00  0.00     0.086 A 
ATOM     17  C   UNL A   1      47.469  27.289  27.236  1.00  0.00     0.082 A 
ATOM     18  C   UNL A   1      46.978  28.074  28.281  1.00  0.00     0.024 A 
ATOM     19  C   UNL A   1      47.081  27.541  25.916  1.00  0.00     0.024 A 
ATOM     20  C   UNL A   1      46.095  29.121  27.997  1.00  0.00     0.031 A 
ATOM     21  C   UNL A   1      46.194  28.587  25.645  1.00  0.00     0.031 A 
BRANCH  17  22
ATOM     22  S   UNL A   1      48.613  25.976  27.563  1.00  0.00     0.238 S 
ATOM     23  O   UNL A   1      48.894  25.963  28.979  1.00  0.00    -0.207 OA
ATOM     24  O   UNL A   1      49.648  26.030  26.559  1.00  0.00    -0.207 OA
BRANCH  22  25
ATOM     25  N   UNL A   1      47.716  24.588  27.271  1.00  0.00    -0.225 NA
ATOM     26  H   UNL A   1      46.851  24.836  26.790  1.00  0.00     0.137 HD
ATOM     27  H   UNL A   1      47.493  24.133  28.158  1.00  0.00     0.137 HD
ENDBRANCH  22  25
ENDBRANCH  17  22
ENDBRANCH  15  16
ENDBRANCH   9  14
BRANCH  13  28
ATOM     28  O   UNL A   1      42.310  36.161  26.268  1.00  0.00    -0.507 OA
ATOM     29  H   UNL A   1      41.412  36.104  26.008  1.00  0.00     0.293 HD
ENDBRANCH  13  28
ENDBRANCH   5   8
ENDBRANCH   3   4
ENDBRANCH   2   3
ENDBRANCH   1   2
BRANCH   1  30
ATOM     30  C   UNL A   1      37.231  34.102  29.564  1.00  0.00     0.002 C 
BRANCH  30  31
ATOM     31  C   UNL A   1      36.122  33.684  28.595  1.00  0.00     0.021 C 
BRANCH  31  32
ATOM     32  C   UNL A   1      34.929  32.968  29.220  1.00  0.00     0.116 C 
BRANCH  32  33
ATOM     33  N   UNL A   1      34.290  32.036  28.306  1.00  0.00    -0.352 N 
ATOM     34  C   UNL A   1      34.741  30.829  27.828  1.00  0.00     0.251 C 
ATOM     35  H   UNL A   1      33.403  32.311  27.979  1.00  0.00     0.163 HD
ATOM     36  O   UNL A   1      34.127  30.257  26.932  1.00  0.00    -0.269 OA
BRANCH  34  37
ATOM     37  C   UNL A   1      35.982  30.235  28.372  1.00  0.00     0.039 A 
ATOM     38  C   UNL A   1      37.167  30.360  27.641  1.00  0.00     0.014 A 
ATOM     39  C   UNL A   1      35.982  29.565  29.599  1.00  0.00     0.014 A 
ATOM     40  C   UNL A   1      38.367  29.888  28.180  1.00  0.00     0.010 A 
ATOM     41  C   UNL A   1      37.189  29.154  30.163  1.00  0.00     0.010 A 
ATOM     42  C   UNL A   1      38.394  29.323  29.466  1.00  0.00    -0.014 A 
BRANCH  42  43
ATOM     43  C   UNL A   1      39.678  28.953  30.117  1.00  0.00     0.031 A 
ATOM     44  C   UNL A   1      40.166  29.702  31.328  1.00  0.00     0.074 A 
ATOM     45  C   UNL A   1      40.445  27.989  29.567  1.00  0.00     0.049 A 
ATOM     46  N   UNL A   1      41.295  29.569  31.976  1.00  0.00    -0.248 NA
ATOM     47  C   UNL A   1      39.283  30.750  31.864  1.00  0.00     0.031 C 
ATOM     48  C   UNL A   1      40.101  27.216  28.371  1.00  0.00     0.029 A 
ATOM     49  N   UNL A   1      41.676  27.502  29.931  1.00  0.00    -0.354 N 
ATOM     50  C   UNL A   1      41.265  30.523  32.988  1.00  0.00     0.074 A 
ATOM     51  C   UNL A   1      40.027  31.256  32.840  1.00  0.00     0.031 C 
ATOM     52  C   UNL A   1      41.087  26.340  28.114  1.00  0.00     0.029 A 
ATOM     53  C   UNL A   1      42.152  26.520  29.094  1.00  0.00     0.049 A 
ATOM     54  H   UNL A   1      42.172  27.826  30.719  1.00  0.00     0.167 HD
ATOM     55  C   UNL A   1      42.180  30.756  33.958  1.00  0.00     0.031 A 
ATOM     56  C   UNL A   1      43.321  25.850  29.098  1.00  0.00     0.031 A 
ATOM     57  C   UNL A   1      43.407  30.017  34.107  1.00  0.00     0.049 A 
ATOM     58  C   UNL A   1      44.331  26.146  30.173  1.00  0.00     0.074 A 
ATOM     59  C   UNL A   1      44.367  30.138  35.098  1.00  0.00     0.029 A 
ATOM     60  N   UNL A   1      43.848  29.027  33.243  1.00  0.00    -0.354 N 
ATOM     61  N   UNL A   1      44.251  27.003  31.163  1.00  0.00    -0.248 NA
ATOM     62  C   UNL A   1      45.588  25.385  30.133  1.00  0.00     0.031 C 
ATOM     63  C   UNL A   1      45.421  29.272  34.794  1.00  0.00     0.029 A 
ATOM     64  C   UNL A   1      45.087  28.561  33.652  1.00  0.00     0.049 A 
ATOM     65  H   UNL A   1      43.354  28.703  32.455  1.00  0.00     0.167 HD
ATOM     66  C   UNL A   1      45.436  26.866  31.877  1.00  0.00     0.074 A 
ATOM     67  C   UNL A   1      46.207  25.834  31.217  1.00  0.00     0.031 C 
ATOM     68  C   UNL A   1      45.848  27.538  32.981  1.00  0.00     0.031 A 
BRANCH  55  69
ATOM     69  C   UNL A   1      41.902  31.870  34.936  1.00  0.00    -0.014 A 
ATOM     70  C   UNL A   1      41.215  31.630  36.140  1.00  0.00     0.010 A 
ATOM     71  C   UNL A   1      42.396  33.162  34.677  1.00  0.00     0.010 A 
ATOM     72  C   UNL A   1      40.998  32.668  37.050  1.00  0.00     0.020 A 
ATOM     73  C   UNL A   1      42.206  34.197  35.597  1.00  0.00     0.020 A 
ATOM     74  C   UNL A   1      41.496  33.946  36.772  1.00  0.00     0.054 A 
BRANCH  74  75
ATOM     75  S   UNL A   1      41.231  35.263  37.990  1.00  0.00     0.124 S 
ATOM     76  O   UNL A   1      41.748  36.433  37.284  1.00  0.00    -0.237 OA
ATOM     77  O   UNL A   1      39.783  35.235  38.181  1.00  0.00    -0.237 OA
ATOM     78  O   UNL A   1      42.018  34.835  39.143  1.00  0.00    -0.744 OA
ENDBRANCH  74  75
ENDBRANCH  55  69
BRANCH  56  79
ATOM     79  C   UNL A   1      43.606  24.842  28.039  1.00  0.00    -0.014 A 
ATOM     80  C   UNL A   1      43.259  23.493  28.219  1.00  0.00     0.010 A 
ATOM     81  C   UNL A   1      44.227  25.234  26.838  1.00  0.00     0.010 A 
ATOM     82  C   UNL A   1      43.543  22.550  27.226  1.00  0.00     0.020 A 
ATOM     83  C   UNL A   1      44.484  24.300  25.830  1.00  0.00     0.020 A 
ATOM     84  C   UNL A   1      44.151  22.961  26.037  1.00  0.00     0.054 A 
BRANCH  84  85
ATOM     85  S   UNL A   1      44.465  21.730  24.742  1.00  0.00     0.124 S 
ATOM     86  O   UNL A   1      45.865  21.394  24.977  1.00  0.00    -0.237 OA
ATOM     87  O   UNL A   1      43.499  20.683  25.063  1.00  0.00    -0.237 OA
ATOM     88  O   UNL A   1      44.193  22.459  23.505  1.00  0.00    -0.744 OA
ENDBRANCH  84  85
ENDBRANCH  56  79
BRANCH  68  89
ATOM     89  C   UNL A   1      47.190  27.171  33.559  1.00  0.00    -0.014 A 
ATOM     90  C   UNL A   1      48.357  27.856  33.175  1.00  0.00     0.010 A 
ATOM     91  C   UNL A   1      47.274  26.176  34.549  1.00  0.00     0.010 A 
ATOM     92  C   UNL A   1      49.587  27.537  33.758  1.00  0.00     0.020 A 
ATOM     93  C   UNL A   1      48.495  25.874  35.155  1.00  0.00     0.020 A 
ATOM     94  C   UNL A   1      49.647  26.550  34.747  1.00  0.00     0.054 A 
BRANCH  94  95
ATOM     95  S   UNL A   1      51.245  26.199  35.529  1.00  0.00     0.124 S 
ATOM     96  O   UNL A   1      52.069  25.824  34.383  1.00  0.00    -0.237 OA
ATOM     97  O   UNL A   1      51.581  27.475  36.156  1.00  0.00    -0.237 OA
ATOM     98  O   UNL A   1      50.944  25.114  36.461  1.00  0.00    -0.744 OA
ENDBRANCH  94  95
ENDBRANCH  68  89
ENDBRANCH  42  43
ENDBRANCH  34  37
ENDBRANCH  32  33
ENDBRANCH  31  32
ENDBRANCH  30  31
ENDBRANCH   1  30
TORSDOF 21
ENDMDL
