MODEL 1
REMARK VINA RESULT:     -12.4      0.000      0.000
REMARK SMILES Cc1c(CC(=O)NCCCCCCNC(=O)c2ccc(-c3c4nc(c(-c5ccc(S(=O)(=O)[O-])cc5)c5ccc([nH]5)c(-c5ccc(S(=O)(=O)[O-])cc5)c5nc(c(-c6ccc(S(=O)(=O)[O-])cc6)c6ccc3[nH]6)C=C5)C=C4)cc2)c2ccccc2n1C(=O)c1ccc(Cl)cc1
REMARK SMILES IDX 10 1 9 2 8 3 7 4 5 5 6 6 4 8 3 9 1 10 2 11 83 12 77 13 82 14
REMARK SMILES IDX 78 15 81 16 79 17 80 18 84 19 85 20 86 21 87 22 92 23 88 24
REMARK SMILES IDX 91 25 89 26 90 27 11 28 12 29 13 30 14 31 15 32 16 34 17 35
REMARK SMILES IDX 18 36 76 37 19 38 75 39 20 40 21 41 22 42 69 43 23 44 74 45
REMARK SMILES IDX 68 46 70 47 24 48 73 49 67 50 66 51 25 53 55 54 36 55 54 56
REMARK SMILES IDX 37 57 40 58 53 59 71 60 38 61 39 62 52 64 72 65 41 66 26 67
REMARK SMILES IDX 27 68 35 69 28 70 34 71 29 72 30 73 31 74 32 75 33 76 56 77
REMARK SMILES IDX 57 78 65 79 58 80 64 81 59 82 60 83 61 84 62 85 63 86 42 87
REMARK SMILES IDX 43 88 51 89 44 90 50 91 45 92 46 93 47 94 48 95 49 96
REMARK H PARENT 7 7 14 33 70 52 40 63
REMARK Flexibility Score: inf
ROOT
ATOM      1  C   UNL A   1      35.358  23.323  23.428  1.00  0.00     0.002 C 
ENDROOT
BRANCH   1   2
ATOM      2  C   UNL A   1      34.180  22.346  23.531  1.00  0.00     0.021 C 
BRANCH   2   3
ATOM      3  C   UNL A   1      33.175  22.727  24.619  1.00  0.00     0.116 C 
BRANCH   3   4
ATOM      4  N   UNL A   1      31.850  22.912  24.059  1.00  0.00    -0.356 N 
ATOM      5  C   UNL A   1      31.347  24.003  23.411  1.00  0.00     0.224 C 
ATOM      6  O   UNL A   1      30.155  24.005  23.093  1.00  0.00    -0.275 OA
ATOM      7  H   UNL A   1      31.232  22.152  24.160  1.00  0.00     0.163 HD
BRANCH   5   8
ATOM      8  C   UNL A   1      32.264  25.162  23.052  1.00  0.00     0.138 C 
BRANCH   8   9
ATOM      9  C   UNL A   1      32.056  26.383  23.906  1.00  0.00    -0.010 A 
ATOM     10  C   UNL A   1      33.698  25.877  25.856  1.00  0.00     0.065 C 
ATOM     11  C   UNL A   1      32.668  26.677  25.118  1.00  0.00     0.028 A 
ATOM     12  N   UNL A   1      32.123  27.867  25.625  1.00  0.00    -0.280 N 
ATOM     13  C   UNL A   1      31.204  27.477  23.592  1.00  0.00     0.004 A 
ATOM     14  C   UNL A   1      31.318  28.424  24.617  1.00  0.00     0.056 A 
ATOM     15  C   UNL A   1      30.354  27.743  22.493  1.00  0.00     0.010 A 
ATOM     16  C   UNL A   1      30.654  29.665  24.499  1.00  0.00     0.027 A 
ATOM     17  C   UNL A   1      29.641  28.939  22.426  1.00  0.00     0.001 A 
ATOM     18  C   UNL A   1      29.801  29.894  23.415  1.00  0.00     0.002 A 
BRANCH  12  19
ATOM     19  C   UNL A   1      32.365  28.386  26.933  1.00  0.00     0.262 C 
ATOM     20  O   UNL A   1      31.743  27.923  27.882  1.00  0.00    -0.268 OA
BRANCH  19  21
ATOM     21  C   UNL A   1      33.334  29.441  27.279  1.00  0.00     0.040 A 
ATOM     22  C   UNL A   1      32.950  30.780  27.394  1.00  0.00     0.015 A 
ATOM     23  C   UNL A   1      34.658  29.053  27.509  1.00  0.00     0.015 A 
ATOM     24  C   UNL A   1      33.926  31.750  27.640  1.00  0.00     0.021 A 
ATOM     25  C   UNL A   1      35.626  30.023  27.769  1.00  0.00     0.021 A 
ATOM     26  C   UNL A   1      35.260  31.368  27.812  1.00  0.00     0.041 A 
ATOM     27  Cl  UNL A   1      36.467  32.568  28.059  1.00  0.00    -0.084 Cl
ENDBRANCH  19  21
ENDBRANCH  12  19
ENDBRANCH   8   9
ENDBRANCH   5   8
ENDBRANCH   3   4
ENDBRANCH   2   3
ENDBRANCH   1   2
BRANCH   1  28
ATOM     28  C   UNL A   1      36.732  22.657  23.294  1.00  0.00     0.002 C 
BRANCH  28  29
ATOM     29  C   UNL A   1      37.210  21.902  24.540  1.00  0.00     0.021 C 
BRANCH  29  30
ATOM     30  C   UNL A   1      38.028  22.755  25.510  1.00  0.00     0.116 C 
BRANCH  30  31
ATOM     31  N   UNL A   1      39.266  22.134  25.935  1.00  0.00    -0.352 N 
ATOM     32  C   UNL A   1      40.302  22.516  26.741  1.00  0.00     0.251 C 
ATOM     33  H   UNL A   1      39.388  21.232  25.559  1.00  0.00     0.163 HD
ATOM     34  O   UNL A   1      41.142  21.646  26.993  1.00  0.00    -0.269 OA
BRANCH  32  35
ATOM     35  C   UNL A   1      40.527  23.899  27.245  1.00  0.00     0.039 A 
ATOM     36  C   UNL A   1      41.729  24.395  27.744  1.00  0.00     0.014 A 
ATOM     37  C   UNL A   1      39.387  24.726  27.294  1.00  0.00     0.014 A 
ATOM     38  C   UNL A   1      41.760  25.609  28.418  1.00  0.00     0.010 A 
ATOM     39  C   UNL A   1      39.419  25.957  27.938  1.00  0.00     0.010 A 
ATOM     40  C   UNL A   1      40.591  26.362  28.562  1.00  0.00    -0.014 A 
BRANCH  40  41
ATOM     41  C   UNL A   1      40.683  27.615  29.303  1.00  0.00     0.031 A 
ATOM     42  C   UNL A   1      41.696  28.570  28.773  1.00  0.00     0.074 A 
ATOM     43  C   UNL A   1      39.893  27.931  30.349  1.00  0.00     0.049 A 
ATOM     44  N   UNL A   1      42.773  28.987  29.353  1.00  0.00    -0.248 NA
ATOM     45  C   UNL A   1      41.564  28.999  27.372  1.00  0.00     0.031 C 
ATOM     46  C   UNL A   1      38.701  27.232  30.838  1.00  0.00     0.029 A 
ATOM     47  N   UNL A   1      39.950  29.027  31.156  1.00  0.00    -0.354 N 
ATOM     48  C   UNL A   1      43.376  29.870  28.461  1.00  0.00     0.074 A 
ATOM     49  C   UNL A   1      42.665  29.735  27.215  1.00  0.00     0.031 C 
ATOM     50  C   UNL A   1      38.021  28.042  31.684  1.00  0.00     0.029 A 
ATOM     51  C   UNL A   1      38.809  29.239  31.920  1.00  0.00     0.049 A 
ATOM     52  H   UNL A   1      40.735  29.620  31.194  1.00  0.00     0.167 HD
ATOM     53  C   UNL A   1      44.309  30.779  28.858  1.00  0.00     0.031 A 
ATOM     54  C   UNL A   1      38.517  30.345  32.654  1.00  0.00     0.031 A 
ATOM     55  C   UNL A   1      44.865  30.449  30.142  1.00  0.00     0.049 A 
ATOM     56  C   UNL A   1      39.802  31.034  32.928  1.00  0.00     0.074 A 
ATOM     57  C   UNL A   1      45.626  29.403  30.623  1.00  0.00     0.029 A 
ATOM     58  N   UNL A   1      44.333  31.074  31.243  1.00  0.00    -0.354 N 
ATOM     59  N   UNL A   1      40.744  30.533  33.678  1.00  0.00    -0.248 NA
ATOM     60  C   UNL A   1      40.219  32.081  32.010  1.00  0.00     0.031 C 
ATOM     61  C   UNL A   1      45.124  29.161  31.933  1.00  0.00     0.029 A 
ATOM     62  C   UNL A   1      44.142  30.115  32.207  1.00  0.00     0.049 A 
ATOM     63  H   UNL A   1      44.126  32.032  31.326  1.00  0.00     0.167 HD
ATOM     64  C   UNL A   1      41.924  30.879  33.038  1.00  0.00     0.074 A 
ATOM     65  C   UNL A   1      41.541  31.901  32.064  1.00  0.00     0.031 C 
ATOM     66  C   UNL A   1      43.052  30.121  33.165  1.00  0.00     0.031 A 
BRANCH  53  67
ATOM     67  C   UNL A   1      44.490  32.130  28.218  1.00  0.00    -0.014 A 
ATOM     68  C   UNL A   1      43.570  33.185  28.387  1.00  0.00     0.010 A 
ATOM     69  C   UNL A   1      45.728  32.454  27.623  1.00  0.00     0.010 A 
ATOM     70  C   UNL A   1      43.846  34.486  27.967  1.00  0.00     0.020 A 
ATOM     71  C   UNL A   1      46.033  33.768  27.236  1.00  0.00     0.020 A 
ATOM     72  C   UNL A   1      45.083  34.773  27.402  1.00  0.00     0.054 A 
BRANCH  72  73
ATOM     73  S   UNL A   1      45.434  36.490  26.955  1.00  0.00     0.124 S 
ATOM     74  O   UNL A   1      46.176  36.958  28.122  1.00  0.00    -0.237 OA
ATOM     75  O   UNL A   1      46.214  36.341  25.730  1.00  0.00    -0.237 OA
ATOM     76  O   UNL A   1      44.108  37.078  26.780  1.00  0.00    -0.744 OA
ENDBRANCH  72  73
ENDBRANCH  53  67
BRANCH  54  77
ATOM     77  C   UNL A   1      37.222  31.079  32.690  1.00  0.00    -0.014 A 
ATOM     78  C   UNL A   1      36.402  31.108  31.544  1.00  0.00     0.010 A 
ATOM     79  C   UNL A   1      36.957  32.015  33.710  1.00  0.00     0.010 A 
ATOM     80  C   UNL A   1      35.420  32.092  31.377  1.00  0.00     0.020 A 
ATOM     81  C   UNL A   1      35.971  33.005  33.550  1.00  0.00     0.020 A 
ATOM     82  C   UNL A   1      35.238  33.060  32.364  1.00  0.00     0.054 A 
BRANCH  82  83
ATOM     83  S   UNL A   1      34.103  34.437  32.016  1.00  0.00     0.124 S 
ATOM     84  O   UNL A   1      32.958  34.107  32.861  1.00  0.00    -0.237 OA
ATOM     85  O   UNL A   1      34.879  35.600  32.440  1.00  0.00    -0.237 OA
ATOM     86  O   UNL A   1      33.868  34.340  30.578  1.00  0.00    -0.744 OA
ENDBRANCH  82  83
ENDBRANCH  54  77
BRANCH  66  87
ATOM     87  C   UNL A   1      43.098  29.031  34.217  1.00  0.00    -0.014 A 
ATOM     88  C   UNL A   1      42.897  27.710  33.776  1.00  0.00     0.010 A 
ATOM     89  C   UNL A   1      43.109  29.278  35.606  1.00  0.00     0.010 A 
ATOM     90  C   UNL A   1      42.661  26.674  34.681  1.00  0.00     0.020 A 
ATOM     91  C   UNL A   1      42.900  28.233  36.523  1.00  0.00     0.020 A 
ATOM     92  C   UNL A   1      42.647  26.943  36.050  1.00  0.00     0.054 A 
BRANCH  92  93
ATOM     93  S   UNL A   1      42.255  25.578  37.181  1.00  0.00     0.124 S 
ATOM     94  O   UNL A   1      40.985  26.011  37.759  1.00  0.00    -0.237 OA
ATOM     95  O   UNL A   1      42.169  24.429  36.282  1.00  0.00    -0.237 OA
ATOM     96  O   UNL A   1      43.380  25.553  38.111  1.00  0.00    -0.744 OA
ENDBRANCH  92  93
ENDBRANCH  66  87
ENDBRANCH  40  41
ENDBRANCH  32  35
ENDBRANCH  30  31
ENDBRANCH  29  30
ENDBRANCH  28  29
ENDBRANCH   1  28
TORSDOF 19
ENDMDL
MODEL 2
REMARK VINA RESULT:     -12.4      3.171      9.929
REMARK SMILES Cc1c(CC(=O)NCCCCCCNC(=O)c2ccc(-c3c4nc(c(-c5ccc(S(=O)(=O)[O-])cc5)c5ccc([nH]5)c(-c5ccc(S(=O)(=O)[O-])cc5)c5nc(c(-c6ccc(S(=O)(=O)[O-])cc6)c6ccc3[nH]6)C=C5)C=C4)cc2)c2ccccc2n1C(=O)c1ccc(Cl)cc1
REMARK SMILES IDX 10 1 9 2 8 3 7 4 5 5 6 6 4 8 3 9 1 10 2 11 83 12 77 13 82 14
REMARK SMILES IDX 78 15 81 16 79 17 80 18 84 19 85 20 86 21 87 22 92 23 88 24
REMARK SMILES IDX 91 25 89 26 90 27 11 28 12 29 13 30 14 31 15 32 16 34 17 35
REMARK SMILES IDX 18 36 76 37 19 38 75 39 20 40 21 41 22 42 69 43 23 44 74 45
REMARK SMILES IDX 68 46 70 47 24 48 73 49 67 50 66 51 25 53 55 54 36 55 54 56
REMARK SMILES IDX 37 57 40 58 53 59 71 60 38 61 39 62 52 64 72 65 41 66 26 67
REMARK SMILES IDX 27 68 35 69 28 70 34 71 29 72 30 73 31 74 32 75 33 76 56 77
REMARK SMILES IDX 57 78 65 79 58 80 64 81 59 82 60 83 61 84 62 85 63 86 42 87
REMARK SMILES IDX 43 88 51 89 44 90 50 91 45 92 46 93 47 94 48 95 49 96
REMARK H PARENT 7 7 14 33 70 52 40 63
REMARK Flexibility Score: inf
ROOT
ATOM      1  C   UNL A   1      32.741  29.521  25.510  1.00  0.00     0.002 C 
ENDROOT
BRANCH   1   2
ATOM      2  C   UNL A   1      31.318  29.202  25.039  1.00  0.00     0.021 C 
BRANCH   2   3
ATOM      3  C   UNL A   1      31.151  27.762  24.552  1.00  0.00     0.116 C 
BRANCH   3   4
ATOM      4  N   UNL A   1      31.023  26.848  25.670  1.00  0.00    -0.356 N 
ATOM      5  C   UNL A   1      31.871  25.850  26.054  1.00  0.00     0.224 C 
ATOM      6  O   UNL A   1      31.535  25.111  26.983  1.00  0.00    -0.275 OA
ATOM      7  H   UNL A   1      30.217  26.961  26.225  1.00  0.00     0.163 HD
BRANCH   5   8
ATOM      8  C   UNL A   1      33.222  25.700  25.372  1.00  0.00     0.138 C 
BRANCH   8   9
ATOM      9  C   UNL A   1      33.504  24.302  24.891  1.00  0.00    -0.010 A 
ATOM     10  C   UNL A   1      31.310  23.804  23.589  1.00  0.00     0.065 C 
ATOM     11  C   UNL A   1      32.670  23.488  24.135  1.00  0.00     0.028 A 
ATOM     12  N   UNL A   1      33.276  22.232  23.984  1.00  0.00    -0.280 N 
ATOM     13  C   UNL A   1      34.709  23.579  25.109  1.00  0.00     0.004 A 
ATOM     14  C   UNL A   1      34.590  22.337  24.473  1.00  0.00     0.056 A 
ATOM     15  C   UNL A   1      35.908  23.900  25.786  1.00  0.00     0.010 A 
ATOM     16  C   UNL A   1      35.696  21.460  24.441  1.00  0.00     0.027 A 
ATOM     17  C   UNL A   1      36.965  22.992  25.817  1.00  0.00     0.001 A 
ATOM     18  C   UNL A   1      36.862  21.790  25.139  1.00  0.00     0.002 A 
BRANCH  12  19
ATOM     19  C   UNL A   1      32.643  21.078  23.431  1.00  0.00     0.262 C 
ATOM     20  O   UNL A   1      31.947  21.202  22.431  1.00  0.00    -0.268 OA
BRANCH  19  21
ATOM     21  C   UNL A   1      32.760  19.701  23.942  1.00  0.00     0.040 A 
ATOM     22  C   UNL A   1      33.007  18.621  23.089  1.00  0.00     0.015 A 
ATOM     23  C   UNL A   1      32.633  19.508  25.322  1.00  0.00     0.015 A 
ATOM     24  C   UNL A   1      33.024  17.326  23.615  1.00  0.00     0.021 A 
ATOM     25  C   UNL A   1      32.667  18.216  25.844  1.00  0.00     0.021 A 
ATOM     26  C   UNL A   1      32.839  17.130  24.987  1.00  0.00     0.041 A 
ATOM     27  Cl  UNL A   1      32.806  15.532  25.624  1.00  0.00    -0.084 Cl
ENDBRANCH  19  21
ENDBRANCH  12  19
ENDBRANCH   8   9
ENDBRANCH   5   8
ENDBRANCH   3   4
ENDBRANCH   2   3
ENDBRANCH   1   2
BRANCH   1  28
ATOM     28  C   UNL A   1      32.832  30.102  26.926  1.00  0.00     0.002 C 
BRANCH  28  29
ATOM     29  C   UNL A   1      34.256  30.294  27.458  1.00  0.00     0.021 C 
BRANCH  29  30
ATOM     30  C   UNL A   1      34.593  31.739  27.831  1.00  0.00     0.116 C 
BRANCH  30  31
ATOM     31  N   UNL A   1      34.339  32.058  29.222  1.00  0.00    -0.352 N 
ATOM     32  C   UNL A   1      35.067  31.963  30.375  1.00  0.00     0.251 C 
ATOM     33  H   UNL A   1      33.438  32.428  29.369  1.00  0.00     0.163 HD
ATOM     34  O   UNL A   1      34.563  32.477  31.378  1.00  0.00    -0.269 OA
BRANCH  32  35
ATOM     35  C   UNL A   1      36.351  31.221  30.515  1.00  0.00     0.039 A 
ATOM     36  C   UNL A   1      37.624  31.786  30.461  1.00  0.00     0.014 A 
ATOM     37  C   UNL A   1      36.242  29.821  30.617  1.00  0.00     0.014 A 
ATOM     38  C   UNL A   1      38.745  30.975  30.348  1.00  0.00     0.010 A 
ATOM     39  C   UNL A   1      37.363  29.004  30.538  1.00  0.00     0.010 A 
ATOM     40  C   UNL A   1      38.608  29.584  30.331  1.00  0.00    -0.014 A 
BRANCH  40  41
ATOM     41  C   UNL A   1      39.820  28.787  30.184  1.00  0.00     0.031 A 
ATOM     42  C   UNL A   1      40.564  28.560  31.454  1.00  0.00     0.074 A 
ATOM     43  C   UNL A   1      40.228  28.245  29.018  1.00  0.00     0.049 A 
ATOM     44  N   UNL A   1      41.746  28.980  31.768  1.00  0.00    -0.248 NA
ATOM     45  C   UNL A   1      39.847  27.906  32.559  1.00  0.00     0.031 C 
ATOM     46  C   UNL A   1      39.503  28.159  27.747  1.00  0.00     0.029 A 
ATOM     47  N   UNL A   1      41.377  27.561  28.756  1.00  0.00    -0.354 N 
ATOM     48  C   UNL A   1      41.999  28.501  33.050  1.00  0.00     0.074 A 
ATOM     49  C   UNL A   1      40.752  27.966  33.536  1.00  0.00     0.031 C 
ATOM     50  C   UNL A   1      40.119  27.262  26.940  1.00  0.00     0.029 A 
ATOM     51  C   UNL A   1      41.359  26.841  27.567  1.00  0.00     0.049 A 
ATOM     52  H   UNL A   1      42.155  27.576  29.359  1.00  0.00     0.167 HD
ATOM     53  C   UNL A   1      43.260  28.420  33.559  1.00  0.00     0.031 A 
ATOM     54  C   UNL A   1      42.277  25.928  27.158  1.00  0.00     0.031 A 
ATOM     55  C   UNL A   1      44.188  29.231  32.820  1.00  0.00     0.049 A 
ATOM     56  C   UNL A   1      43.529  26.209  27.903  1.00  0.00     0.074 A 
ATOM     57  C   UNL A   1      44.324  30.587  32.604  1.00  0.00     0.029 A 
ATOM     58  N   UNL A   1      44.942  28.612  31.853  1.00  0.00    -0.354 N 
ATOM     59  N   UNL A   1      44.234  27.294  27.746  1.00  0.00    -0.248 NA
ATOM     60  C   UNL A   1      43.756  25.485  29.143  1.00  0.00     0.031 C 
ATOM     61  C   UNL A   1      44.744  30.699  31.248  1.00  0.00     0.029 A 
ATOM     62  C   UNL A   1      44.915  29.410  30.737  1.00  0.00     0.049 A 
ATOM     63  H   UNL A   1      45.414  27.753  31.943  1.00  0.00     0.167 HD
ATOM     64  C   UNL A   1      44.662  27.623  29.023  1.00  0.00     0.074 A 
ATOM     65  C   UNL A   1      44.407  26.428  29.828  1.00  0.00     0.031 C 
ATOM     66  C   UNL A   1      44.932  28.914  29.373  1.00  0.00     0.031 A 
BRANCH  53  67
ATOM     67  C   UNL A   1      43.704  27.364  34.536  1.00  0.00    -0.014 A 
ATOM     68  C   UNL A   1      43.705  25.988  34.227  1.00  0.00     0.010 A 
ATOM     69  C   UNL A   1      44.369  27.751  35.719  1.00  0.00     0.010 A 
ATOM     70  C   UNL A   1      44.310  25.041  35.054  1.00  0.00     0.020 A 
ATOM     71  C   UNL A   1      45.017  26.811  36.536  1.00  0.00     0.020 A 
ATOM     72  C   UNL A   1      44.972  25.460  36.202  1.00  0.00     0.054 A 
BRANCH  72  73
ATOM     73  S   UNL A   1      45.818  24.210  37.198  1.00  0.00     0.124 S 
ATOM     74  O   UNL A   1      45.831  23.065  36.293  1.00  0.00    -0.237 OA
ATOM     75  O   UNL A   1      47.115  24.833  37.446  1.00  0.00    -0.237 OA
ATOM     76  O   UNL A   1      44.961  24.068  38.373  1.00  0.00    -0.744 OA
ENDBRANCH  72  73
ENDBRANCH  53  67
BRANCH  54  77
ATOM     77  C   UNL A   1      42.006  24.583  26.579  1.00  0.00    -0.014 A 
ATOM     78  C   UNL A   1      40.796  23.925  26.877  1.00  0.00     0.010 A 
ATOM     79  C   UNL A   1      43.053  23.815  26.029  1.00  0.00     0.010 A 
ATOM     80  C   UNL A   1      40.665  22.539  26.723  1.00  0.00     0.020 A 
ATOM     81  C   UNL A   1      42.927  22.423  25.871  1.00  0.00     0.020 A 
ATOM     82  C   UNL A   1      41.746  21.791  26.259  1.00  0.00     0.054 A 
BRANCH  82  83
ATOM     83  S   UNL A   1      41.603  19.978  26.273  1.00  0.00     0.124 S 
ATOM     84  O   UNL A   1      42.497  19.596  25.183  1.00  0.00    -0.237 OA
ATOM     85  O   UNL A   1      42.070  19.635  27.615  1.00  0.00    -0.237 OA
ATOM     86  O   UNL A   1      40.183  19.739  26.031  1.00  0.00    -0.744 OA
ENDBRANCH  82  83
ENDBRANCH  54  77
BRANCH  66  87
ATOM     87  C   UNL A   1      45.017  29.973  28.292  1.00  0.00    -0.014 A 
ATOM     88  C   UNL A   1      46.297  30.467  27.981  1.00  0.00     0.010 A 
ATOM     89  C   UNL A   1      43.896  30.635  27.749  1.00  0.00     0.010 A 
ATOM     90  C   UNL A   1      46.460  31.613  27.200  1.00  0.00     0.020 A 
ATOM     91  C   UNL A   1      44.055  31.773  26.938  1.00  0.00     0.020 A 
ATOM     92  C   UNL A   1      45.338  32.270  26.696  1.00  0.00     0.054 A 
BRANCH  92  93
ATOM     93  S   UNL A   1      45.599  33.800  25.755  1.00  0.00     0.124 S 
ATOM     94  O   UNL A   1      47.057  33.871  25.680  1.00  0.00    -0.237 OA
ATOM     95  O   UNL A   1      44.925  33.519  24.489  1.00  0.00    -0.237 OA
ATOM     96  O   UNL A   1      44.972  34.833  26.574  1.00  0.00    -0.744 OA
ENDBRANCH  92  93
ENDBRANCH  66  87
ENDBRANCH  40  41
ENDBRANCH  32  35
ENDBRANCH  30  31
ENDBRANCH  29  30
ENDBRANCH  28  29
ENDBRANCH   1  28
TORSDOF 19
ENDMDL
MODEL 3
REMARK VINA RESULT:     -12.3      1.842      3.016
REMARK SMILES Cc1c(CC(=O)NCCCCCCNC(=O)c2ccc(-c3c4nc(c(-c5ccc(S(=O)(=O)[O-])cc5)c5ccc([nH]5)c(-c5ccc(S(=O)(=O)[O-])cc5)c5nc(c(-c6ccc(S(=O)(=O)[O-])cc6)c6ccc3[nH]6)C=C5)C=C4)cc2)c2ccccc2n1C(=O)c1ccc(Cl)cc1
REMARK SMILES IDX 10 1 9 2 8 3 7 4 5 5 6 6 4 8 3 9 1 10 2 11 83 12 77 13 82 14
REMARK SMILES IDX 78 15 81 16 79 17 80 18 84 19 85 20 86 21 87 22 92 23 88 24
REMARK SMILES IDX 91 25 89 26 90 27 11 28 12 29 13 30 14 31 15 32 16 34 17 35
REMARK SMILES IDX 18 36 76 37 19 38 75 39 20 40 21 41 22 42 69 43 23 44 74 45
REMARK SMILES IDX 68 46 70 47 24 48 73 49 67 50 66 51 25 53 55 54 36 55 54 56
REMARK SMILES IDX 37 57 40 58 53 59 71 60 38 61 39 62 52 64 72 65 41 66 26 67
REMARK SMILES IDX 27 68 35 69 28 70 34 71 29 72 30 73 31 74 32 75 33 76 56 77
REMARK SMILES IDX 57 78 65 79 58 80 64 81 59 82 60 83 61 84 62 85 63 86 42 87
REMARK SMILES IDX 43 88 51 89 44 90 50 91 45 92 46 93 47 94 48 95 49 96
REMARK H PARENT 7 7 14 33 70 52 40 63
REMARK Flexibility Score: inf
ROOT
ATOM      1  C   UNL A   1      37.481  21.548  24.769  1.00  0.00     0.002 C 
ENDROOT
BRANCH   1   2
ATOM      2  C   UNL A   1      36.325  20.568  25.000  1.00  0.00     0.021 C 
BRANCH   2   3
ATOM      3  C   UNL A   1      35.095  21.223  25.631  1.00  0.00     0.116 C 
BRANCH   3   4
ATOM      4  N   UNL A   1      34.042  20.251  25.846  1.00  0.00    -0.356 N 
ATOM      5  C   UNL A   1      32.891  20.074  25.134  1.00  0.00     0.224 C 
ATOM      6  O   UNL A   1      32.066  19.249  25.536  1.00  0.00    -0.275 OA
ATOM      7  H   UNL A   1      34.174  19.637  26.605  1.00  0.00     0.163 HD
BRANCH   5   8
ATOM      8  C   UNL A   1      32.669  20.850  23.845  1.00  0.00     0.138 C 
BRANCH   8   9
ATOM      9  C   UNL A   1      32.392  22.313  24.061  1.00  0.00    -0.010 A 
ATOM     10  C   UNL A   1      33.819  23.348  22.151  1.00  0.00     0.065 C 
ATOM     11  C   UNL A   1      32.901  23.382  23.336  1.00  0.00     0.028 A 
ATOM     12  N   UNL A   1      32.464  24.579  23.924  1.00  0.00    -0.280 N 
ATOM     13  C   UNL A   1      31.519  22.852  25.045  1.00  0.00     0.004 A 
ATOM     14  C   UNL A   1      31.506  24.245  24.897  1.00  0.00     0.056 A 
ATOM     15  C   UNL A   1      30.718  22.254  26.045  1.00  0.00     0.010 A 
ATOM     16  C   UNL A   1      30.630  25.024  25.684  1.00  0.00     0.027 A 
ATOM     17  C   UNL A   1      29.916  23.041  26.872  1.00  0.00     0.001 A 
ATOM     18  C   UNL A   1      29.866  24.410  26.682  1.00  0.00     0.002 A 
BRANCH  12  19
ATOM     19  C   UNL A   1      32.932  25.882  23.574  1.00  0.00     0.262 C 
ATOM     20  O   UNL A   1      33.190  26.127  22.403  1.00  0.00    -0.268 OA
BRANCH  19  21
ATOM     21  C   UNL A   1      33.122  27.010  24.503  1.00  0.00     0.040 A 
ATOM     22  C   UNL A   1      33.822  26.860  25.704  1.00  0.00     0.015 A 
ATOM     23  C   UNL A   1      32.593  28.250  24.133  1.00  0.00     0.015 A 
ATOM     24  C   UNL A   1      33.899  27.942  26.587  1.00  0.00     0.021 A 
ATOM     25  C   UNL A   1      32.686  29.331  25.010  1.00  0.00     0.021 A 
ATOM     26  C   UNL A   1      33.319  29.165  26.241  1.00  0.00     0.041 A 
ATOM     27  Cl  UNL A   1      33.367  30.478  27.352  1.00  0.00    -0.084 Cl
ENDBRANCH  19  21
ENDBRANCH  12  19
ENDBRANCH   8   9
ENDBRANCH   5   8
ENDBRANCH   3   4
ENDBRANCH   2   3
ENDBRANCH   1   2
BRANCH   1  28
ATOM     28  C   UNL A   1      37.392  22.846  25.581  1.00  0.00     0.002 C 
BRANCH  28  29
ATOM     29  C   UNL A   1      38.697  23.276  26.260  1.00  0.00     0.021 C 
BRANCH  29  30
ATOM     30  C   UNL A   1      39.642  22.118  26.585  1.00  0.00     0.116 C 
BRANCH  30  31
ATOM     31  N   UNL A   1      40.881  22.147  25.835  1.00  0.00    -0.352 N 
ATOM     32  C   UNL A   1      41.961  22.985  25.800  1.00  0.00     0.251 C 
ATOM     33  H   UNL A   1      40.966  21.391  25.209  1.00  0.00     0.163 HD
ATOM     34  O   UNL A   1      42.920  22.606  25.122  1.00  0.00    -0.269 OA
BRANCH  32  35
ATOM     35  C   UNL A   1      42.017  24.331  26.435  1.00  0.00     0.039 A 
ATOM     36  C   UNL A   1      42.463  24.600  27.727  1.00  0.00     0.014 A 
ATOM     37  C   UNL A   1      41.482  25.390  25.676  1.00  0.00     0.014 A 
ATOM     38  C   UNL A   1      42.235  25.843  28.302  1.00  0.00     0.010 A 
ATOM     39  C   UNL A   1      41.281  26.646  26.235  1.00  0.00     0.010 A 
ATOM     40  C   UNL A   1      41.594  26.848  27.572  1.00  0.00    -0.014 A 
BRANCH  40  41
ATOM     41  C   UNL A   1      41.359  28.123  28.241  1.00  0.00     0.031 A 
ATOM     42  C   UNL A   1      42.451  29.120  28.062  1.00  0.00     0.074 A 
ATOM     43  C   UNL A   1      40.235  28.419  28.924  1.00  0.00     0.049 A 
ATOM     44  N   UNL A   1      43.231  29.614  28.968  1.00  0.00    -0.248 NA
ATOM     45  C   UNL A   1      42.808  29.505  26.688  1.00  0.00     0.031 C 
ATOM     46  C   UNL A   1      38.979  27.665  28.990  1.00  0.00     0.029 A 
ATOM     47  N   UNL A   1      39.951  29.537  29.649  1.00  0.00    -0.354 N 
ATOM     48  C   UNL A   1      44.071  30.506  28.309  1.00  0.00     0.074 A 
ATOM     49  C   UNL A   1      43.858  30.298  26.899  1.00  0.00     0.031 C 
ATOM     50  C   UNL A   1      38.007  28.457  29.502  1.00  0.00     0.029 A 
ATOM     51  C   UNL A   1      38.605  29.703  29.949  1.00  0.00     0.049 A 
ATOM     52  H   UNL A   1      40.644  30.176  29.936  1.00  0.00     0.167 HD
ATOM     53  C   UNL A   1      44.760  31.477  28.970  1.00  0.00     0.031 A 
ATOM     54  C   UNL A   1      38.021  30.808  30.481  1.00  0.00     0.031 A 
ATOM     55  C   UNL A   1      44.837  31.213  30.380  1.00  0.00     0.049 A 
ATOM     56  C   UNL A   1      39.092  31.577  31.162  1.00  0.00     0.074 A 
ATOM     57  C   UNL A   1      45.422  30.226  31.147  1.00  0.00     0.029 A 
ATOM     58  N   UNL A   1      43.919  31.835  31.193  1.00  0.00    -0.354 N 
ATOM     59  N   UNL A   1      39.726  31.151  32.218  1.00  0.00    -0.248 NA
ATOM     60  C   UNL A   1      39.762  32.622  30.405  1.00  0.00     0.031 C 
ATOM     61  C   UNL A   1      44.498  29.989  32.203  1.00  0.00     0.029 A 
ATOM     62  C   UNL A   1      43.440  30.892  32.068  1.00  0.00     0.049 A 
ATOM     63  H   UNL A   1      43.654  32.781  31.154  1.00  0.00     0.167 HD
ATOM     64  C   UNL A   1      41.040  31.548  32.024  1.00  0.00     0.074 A 
ATOM     65  C   UNL A   1      40.984  32.521  30.932  1.00  0.00     0.031 C 
ATOM     66  C   UNL A   1      42.082  30.860  32.576  1.00  0.00     0.031 A 
BRANCH  53  67
ATOM     67  C   UNL A   1      45.097  32.820  28.376  1.00  0.00    -0.014 A 
ATOM     68  C   UNL A   1      44.186  33.896  28.355  1.00  0.00     0.010 A 
ATOM     69  C   UNL A   1      46.436  33.112  28.039  1.00  0.00     0.010 A 
ATOM     70  C   UNL A   1      44.571  35.188  27.996  1.00  0.00     0.020 A 
ATOM     71  C   UNL A   1      46.842  34.417  27.718  1.00  0.00     0.020 A 
ATOM     72  C   UNL A   1      45.902  35.444  27.689  1.00  0.00     0.054 A 
BRANCH  72  73
ATOM     73  S   UNL A   1      46.375  37.149  27.317  1.00  0.00     0.124 S 
ATOM     74  O   UNL A   1      46.707  37.065  25.898  1.00  0.00    -0.237 OA
ATOM     75  O   UNL A   1      45.157  37.889  27.636  1.00  0.00    -0.237 OA
ATOM     76  O   UNL A   1      47.505  37.396  28.209  1.00  0.00    -0.744 OA
ENDBRANCH  72  73
ENDBRANCH  53  67
BRANCH  54  77
ATOM     77  C   UNL A   1      36.767  31.467  30.023  1.00  0.00    -0.014 A 
ATOM     78  C   UNL A   1      36.709  32.046  28.739  1.00  0.00     0.010 A 
ATOM     79  C   UNL A   1      35.765  31.824  30.949  1.00  0.00     0.010 A 
ATOM     80  C   UNL A   1      35.749  33.014  28.420  1.00  0.00     0.020 A 
ATOM     81  C   UNL A   1      34.797  32.795  30.634  1.00  0.00     0.020 A 
ATOM     82  C   UNL A   1      34.824  33.412  29.383  1.00  0.00     0.054 A 
BRANCH  82  83
ATOM     83  S   UNL A   1      33.734  34.815  28.998  1.00  0.00     0.124 S 
ATOM     84  O   UNL A   1      34.587  35.637  28.144  1.00  0.00    -0.237 OA
ATOM     85  O   UNL A   1      32.611  34.167  28.325  1.00  0.00    -0.237 OA
ATOM     86  O   UNL A   1      33.425  35.385  30.307  1.00  0.00    -0.744 OA
ENDBRANCH  82  83
ENDBRANCH  54  77
BRANCH  66  87
ATOM     87  C   UNL A   1      41.798  29.802  33.624  1.00  0.00    -0.014 A 
ATOM     88  C   UNL A   1      42.272  30.050  34.926  1.00  0.00     0.010 A 
ATOM     89  C   UNL A   1      41.295  28.518  33.330  1.00  0.00     0.010 A 
ATOM     90  C   UNL A   1      42.297  29.042  35.890  1.00  0.00     0.020 A 
ATOM     91  C   UNL A   1      41.291  27.506  34.307  1.00  0.00     0.020 A 
ATOM     92  C   UNL A   1      41.821  27.770  35.572  1.00  0.00     0.054 A 
BRANCH  92  93
ATOM     93  S   UNL A   1      41.949  26.473  36.834  1.00  0.00     0.124 S 
ATOM     94  O   UNL A   1      40.596  26.444  37.385  1.00  0.00    -0.237 OA
ATOM     95  O   UNL A   1      42.327  25.297  36.053  1.00  0.00    -0.237 OA
ATOM     96  O   UNL A   1      42.978  26.965  37.747  1.00  0.00    -0.744 OA
ENDBRANCH  92  93
ENDBRANCH  66  87
ENDBRANCH  40  41
ENDBRANCH  32  35
ENDBRANCH  30  31
ENDBRANCH  29  30
ENDBRANCH  28  29
ENDBRANCH   1  28
TORSDOF 19
ENDMDL
