MODEL 1
REMARK VINA RESULT:     -11.5      0.000      0.000
REMARK SMILES O=C(NCCCCCCNC(=O)c1cn(-c2cc(Cl)ncn2)cn1)c1ccc(-c2c3nc(c(-c4ccc(S(=O)(=O)[O-])cc4)c4ccc([nH]4)c(-c4ccc(S(=O)(=O)[O-])cc4)c4nc(c(-c5ccc(S(=O)(=O)[O-])cc5)c5ccc2[nH]5)C=C4)C=C3)cc1
REMARK SMILES IDX 5 1 4 2 3 3 1 4 2 5 25 7 26 8 84 9 27 10 83 11 28 12 29 13
REMARK SMILES IDX 30 14 77 15 31 16 82 17 76 18 78 19 32 20 81 21 75 22 74 23
REMARK SMILES IDX 33 25 63 26 44 27 62 28 45 29 48 30 61 31 79 32 46 33 47 34
REMARK SMILES IDX 60 36 80 37 49 38 34 39 35 40 43 41 36 42 42 43 37 44 38 45
REMARK SMILES IDX 39 46 40 47 41 48 64 49 65 50 73 51 66 52 72 53 67 54 68 55
REMARK SMILES IDX 69 56 70 57 71 58 50 59 51 60 59 61 52 62 58 63 53 64 54 65
REMARK SMILES IDX 55 66 56 67 57 68 6 69 7 70 8 71 9 72 10 73 11 74 12 76
REMARK SMILES IDX 13 77 14 78 24 79 15 80 23 81 16 82 17 83 22 84 18 85 21 86
REMARK SMILES IDX 19 87 20 88
REMARK H PARENT 3 6 78 24 48 35 10 75
REMARK Flexibility Score: inf
ROOT
ATOM      1  C   UNL A   1      31.725  28.967  26.942  1.00  0.00     0.021 C 
ENDROOT
BRANCH   1   2
ATOM      2  C   UNL A   1      33.191  29.351  27.132  1.00  0.00     0.116 C 
BRANCH   2   3
ATOM      3  N   UNL A   1      33.404  30.692  27.633  1.00  0.00    -0.352 N 
ATOM      4  O   UNL A   1      34.314  32.593  28.296  1.00  0.00    -0.269 OA
ATOM      5  C   UNL A   1      34.500  31.399  28.047  1.00  0.00     0.251 C 
ATOM      6  H   UNL A   1      32.572  31.214  27.690  1.00  0.00     0.163 HD
BRANCH   5   7
ATOM      7  C   UNL A   1      35.851  30.821  28.277  1.00  0.00     0.039 A 
ATOM      8  C   UNL A   1      36.232  29.502  28.024  1.00  0.00     0.014 A 
ATOM      9  C   UNL A   1      36.813  31.711  28.793  1.00  0.00     0.014 A 
ATOM     10  C   UNL A   1      37.514  29.062  28.352  1.00  0.00     0.010 A 
ATOM     11  C   UNL A   1      38.096  31.282  29.109  1.00  0.00     0.010 A 
ATOM     12  C   UNL A   1      38.439  29.947  28.914  1.00  0.00    -0.014 A 
BRANCH  12  13
ATOM     13  C   UNL A   1      39.810  29.487  29.128  1.00  0.00     0.031 A 
ATOM     14  C   UNL A   1      40.174  29.242  30.554  1.00  0.00     0.074 A 
ATOM     15  C   UNL A   1      40.644  29.123  28.133  1.00  0.00     0.049 A 
ATOM     16  N   UNL A   1      41.081  29.831  31.262  1.00  0.00    -0.248 NA
ATOM     17  C   UNL A   1      39.352  28.285  31.313  1.00  0.00     0.031 C 
ATOM     18  C   UNL A   1      40.336  29.004  26.706  1.00  0.00     0.029 A 
ATOM     19  N   UNL A   1      41.924  28.659  28.211  1.00  0.00    -0.354 N 
ATOM     20  C   UNL A   1      41.080  29.190  32.500  1.00  0.00     0.074 A 
ATOM     21  C   UNL A   1      39.905  28.357  32.524  1.00  0.00     0.031 C 
ATOM     22  C   UNL A   1      41.308  28.284  26.101  1.00  0.00     0.029 A 
ATOM     23  C   UNL A   1      42.363  28.009  27.062  1.00  0.00     0.049 A 
ATOM     24  H   UNL A   1      42.488  28.774  29.010  1.00  0.00     0.167 HD
ATOM     25  C   UNL A   1      42.154  29.223  33.340  1.00  0.00     0.031 A 
ATOM     26  C   UNL A   1      43.477  27.243  26.932  1.00  0.00     0.031 A 
ATOM     27  C   UNL A   1      43.101  30.238  32.968  1.00  0.00     0.049 A 
ATOM     28  C   UNL A   1      44.394  27.592  28.042  1.00  0.00     0.074 A 
ATOM     29  C   UNL A   1      43.068  31.612  32.845  1.00  0.00     0.029 A 
ATOM     30  N   UNL A   1      44.232  29.825  32.305  1.00  0.00    -0.354 N 
ATOM     31  N   UNL A   1      44.984  28.748  28.153  1.00  0.00    -0.248 NA
ATOM     32  C   UNL A   1      44.334  26.801  29.262  1.00  0.00     0.031 C 
ATOM     33  C   UNL A   1      43.897  31.900  31.723  1.00  0.00     0.029 A 
ATOM     34  C   UNL A   1      44.432  30.693  31.266  1.00  0.00     0.049 A 
ATOM     35  H   UNL A   1      44.793  29.049  32.536  1.00  0.00     0.167 HD
ATOM     36  C   UNL A   1      44.978  29.018  29.514  1.00  0.00     0.074 A 
ATOM     37  C   UNL A   1      44.663  27.742  30.152  1.00  0.00     0.031 C 
ATOM     38  C   UNL A   1      44.960  30.302  29.977  1.00  0.00     0.031 A 
BRANCH  25  39
ATOM     39  C   UNL A   1      42.540  28.088  34.260  1.00  0.00    -0.014 A 
ATOM     40  C   UNL A   1      42.805  28.372  35.617  1.00  0.00     0.010 A 
ATOM     41  C   UNL A   1      42.938  26.823  33.784  1.00  0.00     0.010 A 
ATOM     42  C   UNL A   1      43.508  27.469  36.427  1.00  0.00     0.020 A 
ATOM     43  C   UNL A   1      43.597  25.897  34.595  1.00  0.00     0.020 A 
ATOM     44  C   UNL A   1      43.914  26.243  35.902  1.00  0.00     0.054 A 
BRANCH  44  45
ATOM     45  S   UNL A   1      44.927  25.137  36.915  1.00  0.00     0.124 S 
ATOM     46  O   UNL A   1      44.781  23.868  36.208  1.00  0.00    -0.237 OA
ATOM     47  O   UNL A   1      46.244  25.761  36.832  1.00  0.00    -0.237 OA
ATOM     48  O   UNL A   1      44.293  25.200  38.229  1.00  0.00    -0.744 OA
ENDBRANCH  44  45
ENDBRANCH  25  39
BRANCH  26  49
ATOM     49  C   UNL A   1      43.663  26.023  26.103  1.00  0.00    -0.014 A 
ATOM     50  C   UNL A   1      44.898  25.740  25.487  1.00  0.00     0.010 A 
ATOM     51  C   UNL A   1      42.709  24.987  26.156  1.00  0.00     0.010 A 
ATOM     52  C   UNL A   1      45.188  24.453  25.000  1.00  0.00     0.020 A 
ATOM     53  C   UNL A   1      42.986  23.704  25.666  1.00  0.00     0.020 A 
ATOM     54  C   UNL A   1      44.237  23.436  25.113  1.00  0.00     0.054 A 
BRANCH  54  55
ATOM     55  S   UNL A   1      44.682  21.733  24.658  1.00  0.00     0.124 S 
ATOM     56  O   UNL A   1      44.664  21.785  23.200  1.00  0.00    -0.237 OA
ATOM     57  O   UNL A   1      45.998  21.573  25.270  1.00  0.00    -0.237 OA
ATOM     58  O   UNL A   1      43.621  20.927  25.262  1.00  0.00    -0.744 OA
ENDBRANCH  54  55
ENDBRANCH  26  49
BRANCH  38  59
ATOM     59  C   UNL A   1      45.269  31.424  29.014  1.00  0.00    -0.014 A 
ATOM     60  C   UNL A   1      46.575  31.801  28.641  1.00  0.00     0.010 A 
ATOM     61  C   UNL A   1      44.183  32.016  28.346  1.00  0.00     0.010 A 
ATOM     62  C   UNL A   1      46.782  32.764  27.641  1.00  0.00     0.020 A 
ATOM     63  C   UNL A   1      44.383  32.960  27.338  1.00  0.00     0.020 A 
ATOM     64  C   UNL A   1      45.682  33.336  26.995  1.00  0.00     0.054 A 
BRANCH  64  65
ATOM     65  S   UNL A   1      45.957  34.539  25.664  1.00  0.00     0.124 S 
ATOM     66  O   UNL A   1      45.072  34.052  24.609  1.00  0.00    -0.237 OA
ATOM     67  O   UNL A   1      45.563  35.803  26.283  1.00  0.00    -0.237 OA
ATOM     68  O   UNL A   1      47.385  34.419  25.376  1.00  0.00    -0.744 OA
ENDBRANCH  64  65
ENDBRANCH  38  59
ENDBRANCH  12  13
ENDBRANCH   5   7
ENDBRANCH   2   3
ENDBRANCH   1   2
BRANCH   1  69
ATOM     69  C   UNL A   1      31.394  27.501  27.242  1.00  0.00     0.002 C 
BRANCH  69  70
ATOM     70  C   UNL A   1      31.494  26.534  26.057  1.00  0.00     0.002 C 
BRANCH  70  71
ATOM     71  C   UNL A   1      32.846  25.834  25.880  1.00  0.00     0.021 C 
BRANCH  71  72
ATOM     72  C   UNL A   1      33.202  25.470  24.439  1.00  0.00     0.116 C 
BRANCH  72  73
ATOM     73  N   UNL A   1      32.602  24.209  24.033  1.00  0.00    -0.351 N 
ATOM     74  C   UNL A   1      33.225  23.043  23.651  1.00  0.00     0.271 C 
ATOM     75  H   UNL A   1      31.618  24.187  24.030  1.00  0.00     0.163 HD
ATOM     76  O   UNL A   1      32.555  22.120  23.185  1.00  0.00    -0.267 OA
BRANCH  74  77
ATOM     77  C   UNL A   1      34.670  22.954  23.835  1.00  0.00     0.146 A 
ATOM     78  C   UNL A   1      35.335  22.776  25.038  1.00  0.00     0.128 A 
ATOM     79  N   UNL A   1      35.581  23.095  22.808  1.00  0.00    -0.231 NA
ATOM     80  N   UNL A   1      36.670  22.938  24.752  1.00  0.00    -0.290 N 
ATOM     81  C   UNL A   1      36.759  23.104  23.390  1.00  0.00     0.206 A 
BRANCH  80  82
ATOM     82  C   UNL A   1      37.757  23.005  25.659  1.00  0.00     0.142 A 
ATOM     83  C   UNL A   1      38.028  24.179  26.324  1.00  0.00     0.088 A 
ATOM     84  N   UNL A   1      38.506  21.887  25.804  1.00  0.00    -0.219 NA
ATOM     85  C   UNL A   1      39.118  24.128  27.157  1.00  0.00     0.134 A 
ATOM     86  C   UNL A   1      39.582  21.991  26.596  1.00  0.00     0.226 A 
ATOM     87  Cl  UNL A   1      39.525  25.467  28.149  1.00  0.00    -0.062 Cl
ATOM     88  N   UNL A   1      39.924  23.065  27.306  1.00  0.00    -0.224 NA
ENDBRANCH  80  82
ENDBRANCH  74  77
ENDBRANCH  72  73
ENDBRANCH  71  72
ENDBRANCH  70  71
ENDBRANCH  69  70
ENDBRANCH   1  69
TORSDOF 17
ENDMDL
MODEL 2
REMARK VINA RESULT:     -11.4      2.617      4.403
REMARK SMILES O=C(NCCCCCCNC(=O)c1cn(-c2cc(Cl)ncn2)cn1)c1ccc(-c2c3nc(c(-c4ccc(S(=O)(=O)[O-])cc4)c4ccc([nH]4)c(-c4ccc(S(=O)(=O)[O-])cc4)c4nc(c(-c5ccc(S(=O)(=O)[O-])cc5)c5ccc2[nH]5)C=C4)C=C3)cc1
REMARK SMILES IDX 5 1 4 2 3 3 1 4 2 5 25 7 26 8 84 9 27 10 83 11 28 12 29 13
REMARK SMILES IDX 30 14 77 15 31 16 82 17 76 18 78 19 32 20 81 21 75 22 74 23
REMARK SMILES IDX 33 25 63 26 44 27 62 28 45 29 48 30 61 31 79 32 46 33 47 34
REMARK SMILES IDX 60 36 80 37 49 38 34 39 35 40 43 41 36 42 42 43 37 44 38 45
REMARK SMILES IDX 39 46 40 47 41 48 64 49 65 50 73 51 66 52 72 53 67 54 68 55
REMARK SMILES IDX 69 56 70 57 71 58 50 59 51 60 59 61 52 62 58 63 53 64 54 65
REMARK SMILES IDX 55 66 56 67 57 68 6 69 7 70 8 71 9 72 10 73 11 74 12 76
REMARK SMILES IDX 13 77 14 78 24 79 15 80 23 81 16 82 17 83 22 84 18 85 21 86
REMARK SMILES IDX 19 87 20 88
REMARK H PARENT 3 6 78 24 48 35 10 75
REMARK Flexibility Score: inf
ROOT
ATOM      1  C   UNL A   1      32.048  28.968  26.444  1.00  0.00     0.021 C 
ENDROOT
BRANCH   1   2
ATOM      2  C   UNL A   1      33.278  29.855  26.260  1.00  0.00     0.116 C 
BRANCH   2   3
ATOM      3  N   UNL A   1      33.346  30.988  27.160  1.00  0.00    -0.352 N 
ATOM      4  O   UNL A   1      34.048  32.619  28.473  1.00  0.00    -0.269 OA
ATOM      5  C   UNL A   1      34.335  31.559  27.911  1.00  0.00     0.251 C 
ATOM      6  H   UNL A   1      32.482  31.452  27.252  1.00  0.00     0.163 HD
BRANCH   5   7
ATOM      7  C   UNL A   1      35.679  30.965  28.145  1.00  0.00     0.039 A 
ATOM      8  C   UNL A   1      36.014  29.617  28.009  1.00  0.00     0.014 A 
ATOM      9  C   UNL A   1      36.684  31.871  28.535  1.00  0.00     0.014 A 
ATOM     10  C   UNL A   1      37.297  29.172  28.329  1.00  0.00     0.010 A 
ATOM     11  C   UNL A   1      37.967  31.436  28.843  1.00  0.00     0.010 A 
ATOM     12  C   UNL A   1      38.266  30.079  28.767  1.00  0.00    -0.014 A 
BRANCH  12  13
ATOM     13  C   UNL A   1      39.632  29.600  28.973  1.00  0.00     0.031 A 
ATOM     14  C   UNL A   1      40.052  29.497  30.401  1.00  0.00     0.074 A 
ATOM     15  C   UNL A   1      40.411  29.106  27.990  1.00  0.00     0.049 A 
ATOM     16  N   UNL A   1      41.006  30.129  31.003  1.00  0.00    -0.248 NA
ATOM     17  C   UNL A   1      39.238  28.654  31.292  1.00  0.00     0.031 C 
ATOM     18  C   UNL A   1      40.038  28.845  26.597  1.00  0.00     0.029 A 
ATOM     19  N   UNL A   1      41.680  28.612  28.065  1.00  0.00    -0.354 N 
ATOM     20  C   UNL A   1      41.042  29.624  32.302  1.00  0.00     0.074 A 
ATOM     21  C   UNL A   1      39.846  28.837  32.464  1.00  0.00     0.031 C 
ATOM     22  C   UNL A   1      40.961  28.033  26.034  1.00  0.00     0.029 A 
ATOM     23  C   UNL A   1      42.050  27.828  26.975  1.00  0.00     0.049 A 
ATOM     24  H   UNL A   1      42.282  28.792  28.823  1.00  0.00     0.167 HD
ATOM     25  C   UNL A   1      42.152  29.711  33.089  1.00  0.00     0.031 A 
ATOM     26  C   UNL A   1      43.135  27.017  26.883  1.00  0.00     0.031 A 
ATOM     27  C   UNL A   1      43.110  30.650  32.571  1.00  0.00     0.049 A 
ATOM     28  C   UNL A   1      44.110  27.453  27.910  1.00  0.00     0.074 A 
ATOM     29  C   UNL A   1      43.109  32.004  32.302  1.00  0.00     0.029 A 
ATOM     30  N   UNL A   1      44.198  30.132  31.911  1.00  0.00    -0.354 N 
ATOM     31  N   UNL A   1      44.735  28.595  27.872  1.00  0.00    -0.248 NA
ATOM     32  C   UNL A   1      44.082  26.800  29.210  1.00  0.00     0.031 C 
ATOM     33  C   UNL A   1      43.896  32.143  31.122  1.00  0.00     0.029 A 
ATOM     34  C   UNL A   1      44.376  30.878  30.776  1.00  0.00     0.049 A 
ATOM     35  H   UNL A   1      44.747  29.368  32.200  1.00  0.00     0.167 HD
ATOM     36  C   UNL A   1      44.798  29.008  29.195  1.00  0.00     0.074 A 
ATOM     37  C   UNL A   1      44.476  27.818  29.979  1.00  0.00     0.031 C 
ATOM     38  C   UNL A   1      44.836  30.335  29.517  1.00  0.00     0.031 A 
BRANCH  25  39
ATOM     39  C   UNL A   1      42.547  28.670  34.110  1.00  0.00    -0.014 A 
ATOM     40  C   UNL A   1      43.149  27.474  33.664  1.00  0.00     0.010 A 
ATOM     41  C   UNL A   1      42.084  28.693  35.441  1.00  0.00     0.010 A 
ATOM     42  C   UNL A   1      43.204  26.336  34.481  1.00  0.00     0.020 A 
ATOM     43  C   UNL A   1      42.177  27.580  36.279  1.00  0.00     0.020 A 
ATOM     44  C   UNL A   1      42.700  26.396  35.779  1.00  0.00     0.054 A 
BRANCH  44  45
ATOM     45  S   UNL A   1      42.662  24.890  36.785  1.00  0.00     0.124 S 
ATOM     46  O   UNL A   1      43.012  23.868  35.804  1.00  0.00    -0.237 OA
ATOM     47  O   UNL A   1      43.676  25.170  37.798  1.00  0.00    -0.237 OA
ATOM     48  O   UNL A   1      41.288  24.844  37.279  1.00  0.00    -0.744 OA
ENDBRANCH  44  45
ENDBRANCH  25  39
BRANCH  26  49
ATOM     49  C   UNL A   1      43.250  25.711  26.184  1.00  0.00    -0.014 A 
ATOM     50  C   UNL A   1      44.274  25.472  25.247  1.00  0.00     0.010 A 
ATOM     51  C   UNL A   1      42.524  24.597  26.653  1.00  0.00     0.010 A 
ATOM     52  C   UNL A   1      44.600  24.164  24.845  1.00  0.00     0.020 A 
ATOM     53  C   UNL A   1      42.836  23.292  26.252  1.00  0.00     0.020 A 
ATOM     54  C   UNL A   1      43.892  23.079  25.368  1.00  0.00     0.054 A 
BRANCH  54  55
ATOM     55  S   UNL A   1      44.436  21.385  24.995  1.00  0.00     0.124 S 
ATOM     56  O   UNL A   1      45.685  21.287  25.742  1.00  0.00    -0.237 OA
ATOM     57  O   UNL A   1      43.330  20.576  25.501  1.00  0.00    -0.237 OA
ATOM     58  O   UNL A   1      44.582  21.384  23.540  1.00  0.00    -0.744 OA
ENDBRANCH  54  55
ENDBRANCH  26  49
BRANCH  38  59
ATOM     59  C   UNL A   1      45.133  31.337  28.426  1.00  0.00    -0.014 A 
ATOM     60  C   UNL A   1      44.162  31.845  27.541  1.00  0.00     0.010 A 
ATOM     61  C   UNL A   1      46.423  31.897  28.401  1.00  0.00     0.010 A 
ATOM     62  C   UNL A   1      44.484  32.871  26.639  1.00  0.00     0.020 A 
ATOM     63  C   UNL A   1      46.744  32.931  27.521  1.00  0.00     0.020 A 
ATOM     64  C   UNL A   1      45.775  33.408  26.637  1.00  0.00     0.054 A 
BRANCH  64  65
ATOM     65  S   UNL A   1      46.170  34.774  25.509  1.00  0.00     0.124 S 
ATOM     66  O   UNL A   1      47.606  34.609  25.303  1.00  0.00    -0.237 OA
ATOM     67  O   UNL A   1      45.330  34.489  24.348  1.00  0.00    -0.237 OA
ATOM     68  O   UNL A   1      45.787  35.968  26.261  1.00  0.00    -0.744 OA
ENDBRANCH  64  65
ENDBRANCH  38  59
ENDBRANCH  12  13
ENDBRANCH   5   7
ENDBRANCH   2   3
ENDBRANCH   1   2
BRANCH   1  69
ATOM     69  C   UNL A   1      32.334  27.463  26.488  1.00  0.00     0.002 C 
BRANCH  69  70
ATOM     70  C   UNL A   1      33.752  27.036  26.090  1.00  0.00     0.002 C 
BRANCH  70  71
ATOM     71  C   UNL A   1      33.904  25.584  25.624  1.00  0.00     0.021 C 
BRANCH  71  72
ATOM     72  C   UNL A   1      32.714  25.028  24.843  1.00  0.00     0.116 C 
BRANCH  72  73
ATOM     73  N   UNL A   1      33.051  24.764  23.453  1.00  0.00    -0.351 N 
ATOM     74  C   UNL A   1      32.871  25.574  22.355  1.00  0.00     0.271 C 
ATOM     75  H   UNL A   1      33.461  23.887  23.274  1.00  0.00     0.163 HD
ATOM     76  O   UNL A   1      33.070  25.121  21.227  1.00  0.00    -0.267 OA
BRANCH  74  77
ATOM     77  C   UNL A   1      32.461  26.955  22.590  1.00  0.00     0.146 A 
ATOM     78  C   UNL A   1      31.160  27.417  22.707  1.00  0.00     0.128 A 
ATOM     79  N   UNL A   1      33.346  28.011  22.671  1.00  0.00    -0.231 NA
ATOM     80  N   UNL A   1      31.252  28.788  22.734  1.00  0.00    -0.290 N 
ATOM     81  C   UNL A   1      32.594  29.087  22.733  1.00  0.00     0.206 A 
BRANCH  80  82
ATOM     82  C   UNL A   1      30.201  29.737  22.691  1.00  0.00     0.142 A 
ATOM     83  C   UNL A   1      29.667  30.121  21.481  1.00  0.00     0.088 A 
ATOM     84  N   UNL A   1      29.786  30.248  23.873  1.00  0.00    -0.219 NA
ATOM     85  C   UNL A   1      28.671  31.061  21.566  1.00  0.00     0.134 A 
ATOM     86  C   UNL A   1      28.853  31.208  23.812  1.00  0.00     0.226 A 
ATOM     87  Cl  UNL A   1      27.819  31.562  20.164  1.00  0.00    -0.062 Cl
ATOM     88  N   UNL A   1      28.251  31.637  22.703  1.00  0.00    -0.224 NA
ENDBRANCH  80  82
ENDBRANCH  74  77
ENDBRANCH  72  73
ENDBRANCH  71  72
ENDBRANCH  70  71
ENDBRANCH  69  70
ENDBRANCH   1  69
TORSDOF 17
ENDMDL
MODEL 3
REMARK VINA RESULT:     -11.3      1.443      2.065
REMARK SMILES O=C(NCCCCCCNC(=O)c1cn(-c2cc(Cl)ncn2)cn1)c1ccc(-c2c3nc(c(-c4ccc(S(=O)(=O)[O-])cc4)c4ccc([nH]4)c(-c4ccc(S(=O)(=O)[O-])cc4)c4nc(c(-c5ccc(S(=O)(=O)[O-])cc5)c5ccc2[nH]5)C=C4)C=C3)cc1
REMARK SMILES IDX 5 1 4 2 3 3 1 4 2 5 25 7 26 8 84 9 27 10 83 11 28 12 29 13
REMARK SMILES IDX 30 14 77 15 31 16 82 17 76 18 78 19 32 20 81 21 75 22 74 23
REMARK SMILES IDX 33 25 63 26 44 27 62 28 45 29 48 30 61 31 79 32 46 33 47 34
REMARK SMILES IDX 60 36 80 37 49 38 34 39 35 40 43 41 36 42 42 43 37 44 38 45
REMARK SMILES IDX 39 46 40 47 41 48 64 49 65 50 73 51 66 52 72 53 67 54 68 55
REMARK SMILES IDX 69 56 70 57 71 58 50 59 51 60 59 61 52 62 58 63 53 64 54 65
REMARK SMILES IDX 55 66 56 67 57 68 6 69 7 70 8 71 9 72 10 73 11 74 12 76
REMARK SMILES IDX 13 77 14 78 24 79 15 80 23 81 16 82 17 83 22 84 18 85 21 86
REMARK SMILES IDX 19 87 20 88
REMARK H PARENT 3 6 78 24 48 35 10 75
REMARK Flexibility Score: inf
ROOT
ATOM      1  C   UNL A   1      31.805  28.941  26.298  1.00  0.00     0.021 C 
ENDROOT
BRANCH   1   2
ATOM      2  C   UNL A   1      33.226  29.454  26.524  1.00  0.00     0.116 C 
BRANCH   2   3
ATOM      3  N   UNL A   1      33.311  30.679  27.292  1.00  0.00    -0.352 N 
ATOM      4  O   UNL A   1      34.040  32.446  28.399  1.00  0.00    -0.269 OA
ATOM      5  C   UNL A   1      34.317  31.332  27.949  1.00  0.00     0.251 C 
ATOM      6  H   UNL A   1      32.448  31.148  27.356  1.00  0.00     0.163 HD
BRANCH   5   7
ATOM      7  C   UNL A   1      35.670  30.771  28.209  1.00  0.00     0.039 A 
ATOM      8  C   UNL A   1      36.029  29.424  28.127  1.00  0.00     0.014 A 
ATOM      9  C   UNL A   1      36.659  31.708  28.566  1.00  0.00     0.014 A 
ATOM     10  C   UNL A   1      37.318  29.014  28.468  1.00  0.00     0.010 A 
ATOM     11  C   UNL A   1      37.948  31.308  28.894  1.00  0.00     0.010 A 
ATOM     12  C   UNL A   1      38.270  29.954  28.872  1.00  0.00    -0.014 A 
BRANCH  12  13
ATOM     13  C   UNL A   1      39.644  29.507  29.100  1.00  0.00     0.031 A 
ATOM     14  C   UNL A   1      39.997  29.270  30.530  1.00  0.00     0.074 A 
ATOM     15  C   UNL A   1      40.490  29.148  28.115  1.00  0.00     0.049 A 
ATOM     16  N   UNL A   1      40.892  29.871  31.245  1.00  0.00    -0.248 NA
ATOM     17  C   UNL A   1      39.177  28.309  31.285  1.00  0.00     0.031 C 
ATOM     18  C   UNL A   1      40.197  29.020  26.685  1.00  0.00     0.029 A 
ATOM     19  N   UNL A   1      41.774  28.696  28.206  1.00  0.00    -0.354 N 
ATOM     20  C   UNL A   1      40.886  29.235  32.485  1.00  0.00     0.074 A 
ATOM     21  C   UNL A   1      39.718  28.391  32.501  1.00  0.00     0.031 C 
ATOM     22  C   UNL A   1      41.180  28.307  26.091  1.00  0.00     0.029 A 
ATOM     23  C   UNL A   1      42.230  28.045  27.063  1.00  0.00     0.049 A 
ATOM     24  H   UNL A   1      42.329  28.818  29.009  1.00  0.00     0.167 HD
ATOM     25  C   UNL A   1      41.951  29.280  33.335  1.00  0.00     0.031 A 
ATOM     26  C   UNL A   1      43.351  27.288  26.946  1.00  0.00     0.031 A 
ATOM     27  C   UNL A   1      42.893  30.302  32.968  1.00  0.00     0.049 A 
ATOM     28  C   UNL A   1      44.255  27.650  28.063  1.00  0.00     0.074 A 
ATOM     29  C   UNL A   1      42.848  31.676  32.839  1.00  0.00     0.029 A 
ATOM     30  N   UNL A   1      44.033  29.897  32.316  1.00  0.00    -0.354 N 
ATOM     31  N   UNL A   1      44.833  28.812  28.176  1.00  0.00    -0.248 NA
ATOM     32  C   UNL A   1      44.191  26.864  29.285  1.00  0.00     0.031 C 
ATOM     33  C   UNL A   1      43.685  31.967  31.723  1.00  0.00     0.029 A 
ATOM     34  C   UNL A   1      44.234  30.764  31.276  1.00  0.00     0.049 A 
ATOM     35  H   UNL A   1      44.599  29.128  32.555  1.00  0.00     0.167 HD
ATOM     36  C   UNL A   1      44.812  29.087  29.535  1.00  0.00     0.074 A 
ATOM     37  C   UNL A   1      44.503  27.810  30.175  1.00  0.00     0.031 C 
ATOM     38  C   UNL A   1      44.778  30.373  29.993  1.00  0.00     0.031 A 
BRANCH  25  39
ATOM     39  C   UNL A   1      42.340  28.152  34.263  1.00  0.00    -0.014 A 
ATOM     40  C   UNL A   1      42.486  28.424  35.639  1.00  0.00     0.010 A 
ATOM     41  C   UNL A   1      42.850  26.924  33.797  1.00  0.00     0.010 A 
ATOM     42  C   UNL A   1      43.182  27.549  36.485  1.00  0.00     0.020 A 
ATOM     43  C   UNL A   1      43.505  26.023  34.640  1.00  0.00     0.020 A 
ATOM     44  C   UNL A   1      43.702  26.362  35.972  1.00  0.00     0.054 A 
BRANCH  44  45
ATOM     45  S   UNL A   1      44.706  25.299  37.040  1.00  0.00     0.124 S 
ATOM     46  O   UNL A   1      46.040  25.859  36.849  1.00  0.00    -0.237 OA
ATOM     47  O   UNL A   1      44.106  25.524  38.352  1.00  0.00    -0.237 OA
ATOM     48  O   UNL A   1      44.499  23.963  36.485  1.00  0.00    -0.744 OA
ENDBRANCH  44  45
ENDBRANCH  25  39
BRANCH  26  49
ATOM     49  C   UNL A   1      43.556  26.068  26.124  1.00  0.00    -0.014 A 
ATOM     50  C   UNL A   1      44.791  25.807  25.499  1.00  0.00     0.010 A 
ATOM     51  C   UNL A   1      42.624  25.012  26.191  1.00  0.00     0.010 A 
ATOM     52  C   UNL A   1      45.104  24.522  25.018  1.00  0.00     0.020 A 
ATOM     53  C   UNL A   1      42.925  23.733  25.707  1.00  0.00     0.020 A 
ATOM     54  C   UNL A   1      44.176  23.487  25.146  1.00  0.00     0.054 A 
BRANCH  54  55
ATOM     55  S   UNL A   1      44.653  21.790  24.698  1.00  0.00     0.124 S 
ATOM     56  O   UNL A   1      43.623  20.993  25.356  1.00  0.00    -0.237 OA
ATOM     57  O   UNL A   1      44.595  21.818  23.239  1.00  0.00    -0.237 OA
ATOM     58  O   UNL A   1      45.996  21.652  25.257  1.00  0.00    -0.744 OA
ENDBRANCH  54  55
ENDBRANCH  26  49
BRANCH  38  59
ATOM     59  C   UNL A   1      45.086  31.494  29.029  1.00  0.00    -0.014 A 
ATOM     60  C   UNL A   1      46.381  32.001  28.802  1.00  0.00     0.010 A 
ATOM     61  C   UNL A   1      44.036  31.944  28.209  1.00  0.00     0.010 A 
ATOM     62  C   UNL A   1      46.610  32.952  27.795  1.00  0.00     0.020 A 
ATOM     63  C   UNL A   1      44.260  32.875  27.194  1.00  0.00     0.020 A 
ATOM     64  C   UNL A   1      45.545  33.381  26.997  1.00  0.00     0.054 A 
BRANCH  64  65
ATOM     65  S   UNL A   1      45.856  34.568  25.660  1.00  0.00     0.124 S 
ATOM     66  O   UNL A   1      45.477  35.839  26.269  1.00  0.00    -0.237 OA
ATOM     67  O   UNL A   1      47.284  34.396  25.399  1.00  0.00    -0.237 OA
ATOM     68  O   UNL A   1      44.980  34.114  24.580  1.00  0.00    -0.744 OA
ENDBRANCH  64  65
ENDBRANCH  38  59
ENDBRANCH  12  13
ENDBRANCH   5   7
ENDBRANCH   2   3
ENDBRANCH   1   2
BRANCH   1  69
ATOM     69  C   UNL A   1      31.291  29.067  24.860  1.00  0.00     0.002 C 
BRANCH  69  70
ATOM     70  C   UNL A   1      30.975  27.750  24.142  1.00  0.00     0.002 C 
BRANCH  70  71
ATOM     71  C   UNL A   1      30.083  26.769  24.911  1.00  0.00     0.021 C 
BRANCH  71  72
ATOM     72  C   UNL A   1      30.751  25.446  25.286  1.00  0.00     0.116 C 
BRANCH  72  73
ATOM     73  N   UNL A   1      30.043  24.763  26.357  1.00  0.00    -0.351 N 
ATOM     74  C   UNL A   1      30.236  23.490  26.840  1.00  0.00     0.271 C 
ATOM     75  H   UNL A   1      29.328  25.281  26.793  1.00  0.00     0.163 HD
ATOM     76  O   UNL A   1      29.434  23.018  27.647  1.00  0.00    -0.267 OA
BRANCH  74  77
ATOM     77  C   UNL A   1      31.409  22.757  26.375  1.00  0.00     0.146 A 
ATOM     78  C   UNL A   1      32.731  23.056  26.661  1.00  0.00     0.128 A 
ATOM     79  N   UNL A   1      31.345  21.676  25.520  1.00  0.00    -0.231 NA
ATOM     80  N   UNL A   1      33.483  22.221  25.868  1.00  0.00    -0.290 N 
ATOM     81  C   UNL A   1      32.593  21.397  25.221  1.00  0.00     0.206 A 
BRANCH  80  82
ATOM     82  C   UNL A   1      34.886  22.231  25.671  1.00  0.00     0.142 A 
ATOM     83  C   UNL A   1      35.551  21.057  25.396  1.00  0.00     0.088 A 
ATOM     84  N   UNL A   1      35.515  23.423  25.793  1.00  0.00    -0.219 NA
ATOM     85  C   UNL A   1      36.909  21.190  25.248  1.00  0.00     0.134 A 
ATOM     86  C   UNL A   1      36.851  23.403  25.691  1.00  0.00     0.226 A 
ATOM     87  Cl  UNL A   1      37.874  19.848  24.788  1.00  0.00    -0.062 Cl
ATOM     88  N   UNL A   1      37.593  22.334  25.402  1.00  0.00    -0.224 NA
ENDBRANCH  80  82
ENDBRANCH  74  77
ENDBRANCH  72  73
ENDBRANCH  71  72
ENDBRANCH  70  71
ENDBRANCH  69  70
ENDBRANCH   1  69
TORSDOF 17
ENDMDL
