MODEL 1
REMARK VINA RESULT:     -10.7      0.000      0.000
REMARK SMILES O=C(NCCCCCCNC(=O)[C@@H]1CCCN(C(=O)c2c(F)cc(Br)cc2F)C1)c1ccc(-c2c3nc(c(-c4ccc(S(=O)(=O)[O-])cc4)c4ccc([nH]4)c(-c4ccc(S(=O)(=O)[O-])cc4)c4nc(c(-c5ccc(S(=O)(=O)[O-])cc5)c5ccc2[nH]5)C=C4)C=C3)cc1
REMARK SMILES IDX 6 1 5 2 4 3 3 4 1 5 2 6 30 8 31 9 89 10 32 11 88 12 33 13
REMARK SMILES IDX 34 14 35 15 82 16 36 17 87 18 81 19 83 20 37 21 86 22 80 23
REMARK SMILES IDX 79 24 38 26 68 27 49 28 67 29 50 30 53 31 66 32 84 33 51 34
REMARK SMILES IDX 52 35 65 37 85 38 54 39 39 40 40 41 48 42 41 43 47 44 42 45
REMARK SMILES IDX 43 46 44 47 45 48 46 49 69 50 70 51 78 52 71 53 77 54 72 55
REMARK SMILES IDX 73 56 74 57 75 58 76 59 55 60 56 61 64 62 57 63 63 64 58 65
REMARK SMILES IDX 59 66 60 67 61 68 62 69 7 70 8 71 9 72 10 73 11 74 12 76
REMARK SMILES IDX 13 77 14 78 29 79 15 80 17 81 16 82 18 83 19 84 20 85 21 86
REMARK SMILES IDX 27 87 22 88 23 89 26 90 28 91 24 92 25 93
REMARK H PARENT 3 7 83 25 53 36 10 75
REMARK Flexibility Score: inf
ROOT
ATOM      1  C   UNL A   1      33.285  28.954  24.644  1.00  0.00     0.002 C 
ENDROOT
BRANCH   1   2
ATOM      2  C   UNL A   1      34.244  28.267  25.617  1.00  0.00     0.021 C 
BRANCH   2   3
ATOM      3  C   UNL A   1      33.856  28.414  27.083  1.00  0.00     0.116 C 
BRANCH   3   4
ATOM      4  N   UNL A   1      33.621  29.803  27.443  1.00  0.00    -0.352 N 
ATOM      5  O   UNL A   1      33.987  31.729  28.558  1.00  0.00    -0.269 OA
ATOM      6  C   UNL A   1      34.427  30.656  28.152  1.00  0.00     0.251 C 
ATOM      7  H   UNL A   1      32.766  30.183  27.135  1.00  0.00     0.163 HD
BRANCH   6   8
ATOM      8  C   UNL A   1      35.824  30.268  28.436  1.00  0.00     0.039 A 
ATOM      9  C   UNL A   1      36.805  30.381  27.444  1.00  0.00     0.014 A 
ATOM     10  C   UNL A   1      36.155  29.798  29.708  1.00  0.00     0.014 A 
ATOM     11  C   UNL A   1      38.092  29.918  27.691  1.00  0.00     0.010 A 
ATOM     12  C   UNL A   1      37.467  29.407  29.977  1.00  0.00     0.010 A 
ATOM     13  C   UNL A   1      38.441  29.447  28.965  1.00  0.00    -0.014 A 
BRANCH  13  14
ATOM     14  C   UNL A   1      39.846  29.070  29.258  1.00  0.00     0.031 A 
ATOM     15  C   UNL A   1      40.813  30.067  29.825  1.00  0.00     0.074 A 
ATOM     16  C   UNL A   1      40.252  27.819  28.965  1.00  0.00     0.049 A 
ATOM     17  N   UNL A   1      42.090  29.926  30.070  1.00  0.00    -0.248 NA
ATOM     18  C   UNL A   1      40.281  31.399  30.148  1.00  0.00     0.031 C 
ATOM     19  C   UNL A   1      39.401  26.767  28.404  1.00  0.00     0.029 A 
ATOM     20  N   UNL A   1      41.482  27.224  29.083  1.00  0.00    -0.354 N 
ATOM     21  C   UNL A   1      42.524  31.156  30.551  1.00  0.00     0.074 A 
ATOM     22  C   UNL A   1      41.375  32.037  30.541  1.00  0.00     0.031 C 
ATOM     23  C   UNL A   1      40.130  25.656  28.233  1.00  0.00     0.029 A 
ATOM     24  C   UNL A   1      41.512  25.935  28.608  1.00  0.00     0.049 A 
ATOM     25  H   UNL A   1      42.266  27.676  29.472  1.00  0.00     0.167 HD
ATOM     26  C   UNL A   1      43.766  31.514  30.957  1.00  0.00     0.031 A 
ATOM     27  C   UNL A   1      42.540  25.081  28.445  1.00  0.00     0.031 A 
ATOM     28  C   UNL A   1      44.903  30.629  30.938  1.00  0.00     0.049 A 
ATOM     29  C   UNL A   1      43.916  25.510  28.861  1.00  0.00     0.074 A 
ATOM     30  C   UNL A   1      46.195  30.881  31.368  1.00  0.00     0.029 A 
ATOM     31  N   UNL A   1      44.892  29.331  30.448  1.00  0.00    -0.354 N 
ATOM     32  N   UNL A   1      44.299  26.659  29.365  1.00  0.00    -0.248 NA
ATOM     33  C   UNL A   1      44.998  24.531  28.693  1.00  0.00     0.031 C 
ATOM     34  C   UNL A   1      46.979  29.760  31.074  1.00  0.00     0.029 A 
ATOM     35  C   UNL A   1      46.161  28.782  30.531  1.00  0.00     0.049 A 
ATOM     36  H   UNL A   1      44.099  28.869  30.093  1.00  0.00     0.167 HD
ATOM     37  C   UNL A   1      45.663  26.535  29.598  1.00  0.00     0.074 A 
ATOM     38  C   UNL A   1      46.037  25.196  29.186  1.00  0.00     0.031 C 
ATOM     39  C   UNL A   1      46.521  27.447  30.115  1.00  0.00     0.031 A 
BRANCH  26  40
ATOM     40  C   UNL A   1      43.967  32.940  31.402  1.00  0.00    -0.014 A 
ATOM     41  C   UNL A   1      44.348  33.949  30.497  1.00  0.00     0.010 A 
ATOM     42  C   UNL A   1      43.763  33.281  32.753  1.00  0.00     0.010 A 
ATOM     43  C   UNL A   1      44.586  35.251  30.946  1.00  0.00     0.020 A 
ATOM     44  C   UNL A   1      43.969  34.589  33.200  1.00  0.00     0.020 A 
ATOM     45  C   UNL A   1      44.406  35.560  32.298  1.00  0.00     0.054 A 
BRANCH  45  46
ATOM     46  S   UNL A   1      44.754  37.250  32.860  1.00  0.00     0.124 S 
ATOM     47  O   UNL A   1      43.767  38.023  32.109  1.00  0.00    -0.237 OA
ATOM     48  O   UNL A   1      44.519  37.164  34.299  1.00  0.00    -0.237 OA
ATOM     49  O   UNL A   1      46.144  37.468  32.470  1.00  0.00    -0.744 OA
ENDBRANCH  45  46
ENDBRANCH  26  40
BRANCH  27  50
ATOM     50  C   UNL A   1      42.280  23.751  27.834  1.00  0.00    -0.014 A 
ATOM     51  C   UNL A   1      42.478  23.539  26.460  1.00  0.00     0.010 A 
ATOM     52  C   UNL A   1      41.920  22.662  28.651  1.00  0.00     0.010 A 
ATOM     53  C   UNL A   1      42.331  22.260  25.916  1.00  0.00     0.020 A 
ATOM     54  C   UNL A   1      41.800  21.377  28.117  1.00  0.00     0.020 A 
ATOM     55  C   UNL A   1      42.004  21.185  26.750  1.00  0.00     0.054 A 
BRANCH  55  56
ATOM     56  S   UNL A   1      41.919  19.519  26.037  1.00  0.00     0.124 S 
ATOM     57  O   UNL A   1      40.492  19.379  25.761  1.00  0.00    -0.237 OA
ATOM     58  O   UNL A   1      42.782  19.635  24.864  1.00  0.00    -0.237 OA
ATOM     59  O   UNL A   1      42.439  18.663  27.100  1.00  0.00    -0.744 OA
ENDBRANCH  55  56
ENDBRANCH  27  50
BRANCH  39  60
ATOM     60  C   UNL A   1      47.955  27.028  30.307  1.00  0.00    -0.014 A 
ATOM     61  C   UNL A   1      48.938  27.316  29.344  1.00  0.00     0.010 A 
ATOM     62  C   UNL A   1      48.337  26.425  31.520  1.00  0.00     0.010 A 
ATOM     63  C   UNL A   1      50.279  27.006  29.592  1.00  0.00     0.020 A 
ATOM     64  C   UNL A   1      49.678  26.138  31.782  1.00  0.00     0.020 A 
ATOM     65  C   UNL A   1      50.642  26.428  30.814  1.00  0.00     0.054 A 
BRANCH  65  66
ATOM     66  S   UNL A   1      52.398  26.123  31.148  1.00  0.00     0.124 S 
ATOM     67  O   UNL A   1      52.974  26.156  29.805  1.00  0.00    -0.237 OA
ATOM     68  O   UNL A   1      52.758  27.243  32.014  1.00  0.00    -0.237 OA
ATOM     69  O   UNL A   1      52.406  24.814  31.795  1.00  0.00    -0.744 OA
ENDBRANCH  65  66
ENDBRANCH  39  60
ENDBRANCH  13  14
ENDBRANCH   6   8
ENDBRANCH   3   4
ENDBRANCH   2   3
ENDBRANCH   1   2
BRANCH   1  70
ATOM     70  C   UNL A   1      33.478  28.562  23.175  1.00  0.00     0.002 C 
BRANCH  70  71
ATOM     71  C   UNL A   1      32.398  27.628  22.610  1.00  0.00     0.021 C 
BRANCH  71  72
ATOM     72  C   UNL A   1      32.905  26.223  22.286  1.00  0.00     0.116 C 
BRANCH  72  73
ATOM     73  N   UNL A   1      33.486  25.619  23.469  1.00  0.00    -0.356 N 
ATOM     74  C   UNL A   1      32.876  25.142  24.589  1.00  0.00     0.224 C 
ATOM     75  H   UNL A   1      34.467  25.543  23.463  1.00  0.00     0.163 HD
ATOM     76  O   UNL A   1      33.574  24.922  25.579  1.00  0.00    -0.275 OA
BRANCH  74  77
ATOM     77  C   UNL A   1      31.376  24.874  24.556  1.00  0.00     0.098 C 
ATOM     78  C   UNL A   1      30.766  24.791  25.964  1.00  0.00     0.017 C 
ATOM     79  C   UNL A   1      31.111  23.584  23.769  1.00  0.00     0.133 C 
ATOM     80  C   UNL A   1      31.113  23.496  26.701  1.00  0.00     0.022 C 
ATOM     81  N   UNL A   1      31.520  22.403  24.530  1.00  0.00    -0.338 N 
ATOM     82  C   UNL A   1      30.878  22.262  25.837  1.00  0.00     0.120 C 
BRANCH  81  83
ATOM     83  C   UNL A   1      32.531  21.593  24.013  1.00  0.00     0.259 C 
ATOM     84  O   UNL A   1      32.333  20.701  23.190  1.00  0.00    -0.269 OA
BRANCH  83  85
ATOM     85  C   UNL A   1      33.919  21.794  24.442  1.00  0.00     0.111 A 
ATOM     86  C   UNL A   1      34.834  22.459  23.631  1.00  0.00     0.140 A 
ATOM     87  C   UNL A   1      34.314  21.374  25.709  1.00  0.00     0.140 A 
ATOM     88  F   UNL A   1      34.482  22.901  22.416  1.00  0.00    -0.206 F 
ATOM     89  C   UNL A   1      36.148  22.655  24.053  1.00  0.00     0.056 A 
ATOM     90  C   UNL A   1      35.621  21.570  26.151  1.00  0.00     0.056 A 
ATOM     91  F   UNL A   1      33.456  20.750  26.529  1.00  0.00    -0.206 F 
ATOM     92  C   UNL A   1      36.537  22.204  25.312  1.00  0.00     0.023 A 
ATOM     93  Br  UNL A   1      38.321  22.449  25.886  1.00  0.00    -0.051 Br
ENDBRANCH  83  85
ENDBRANCH  81  83
ENDBRANCH  74  77
ENDBRANCH  72  73
ENDBRANCH  71  72
ENDBRANCH  70  71
ENDBRANCH   1  70
TORSDOF 18
ENDMDL
MODEL 2
REMARK VINA RESULT:     -10.5      1.686      2.376
REMARK SMILES O=C(NCCCCCCNC(=O)[C@@H]1CCCN(C(=O)c2c(F)cc(Br)cc2F)C1)c1ccc(-c2c3nc(c(-c4ccc(S(=O)(=O)[O-])cc4)c4ccc([nH]4)c(-c4ccc(S(=O)(=O)[O-])cc4)c4nc(c(-c5ccc(S(=O)(=O)[O-])cc5)c5ccc2[nH]5)C=C4)C=C3)cc1
REMARK SMILES IDX 6 1 5 2 4 3 3 4 1 5 2 6 30 8 31 9 89 10 32 11 88 12 33 13
REMARK SMILES IDX 34 14 35 15 82 16 36 17 87 18 81 19 83 20 37 21 86 22 80 23
REMARK SMILES IDX 79 24 38 26 68 27 49 28 67 29 50 30 53 31 66 32 84 33 51 34
REMARK SMILES IDX 52 35 65 37 85 38 54 39 39 40 40 41 48 42 41 43 47 44 42 45
REMARK SMILES IDX 43 46 44 47 45 48 46 49 69 50 70 51 78 52 71 53 77 54 72 55
REMARK SMILES IDX 73 56 74 57 75 58 76 59 55 60 56 61 64 62 57 63 63 64 58 65
REMARK SMILES IDX 59 66 60 67 61 68 62 69 7 70 8 71 9 72 10 73 11 74 12 76
REMARK SMILES IDX 13 77 14 78 29 79 15 80 17 81 16 82 18 83 19 84 20 85 21 86
REMARK SMILES IDX 27 87 22 88 23 89 26 90 28 91 24 92 25 93
REMARK H PARENT 3 7 83 25 53 36 10 75
REMARK Flexibility Score: inf
ROOT
ATOM      1  C   UNL A   1      33.434  28.470  24.096  1.00  0.00     0.002 C 
ENDROOT
BRANCH   1   2
ATOM      2  C   UNL A   1      33.184  27.726  25.407  1.00  0.00     0.021 C 
BRANCH   2   3
ATOM      3  C   UNL A   1      34.061  28.188  26.564  1.00  0.00     0.116 C 
BRANCH   3   4
ATOM      4  N   UNL A   1      33.808  29.577  26.912  1.00  0.00    -0.352 N 
ATOM      5  O   UNL A   1      34.101  31.495  28.062  1.00  0.00    -0.269 OA
ATOM      6  C   UNL A   1      34.564  30.420  27.686  1.00  0.00     0.251 C 
ATOM      7  H   UNL A   1      32.983  29.965  26.540  1.00  0.00     0.163 HD
BRANCH   6   8
ATOM      8  C   UNL A   1      35.931  30.020  28.075  1.00  0.00     0.039 A 
ATOM      9  C   UNL A   1      36.982  30.107  27.156  1.00  0.00     0.014 A 
ATOM     10  C   UNL A   1      36.163  29.566  29.375  1.00  0.00     0.014 A 
ATOM     11  C   UNL A   1      38.242  29.632  27.501  1.00  0.00     0.010 A 
ATOM     12  C   UNL A   1      37.448  29.163  29.743  1.00  0.00     0.010 A 
ATOM     13  C   UNL A   1      38.493  29.176  28.804  1.00  0.00    -0.014 A 
BRANCH  13  14
ATOM     14  C   UNL A   1      39.867  28.787  29.202  1.00  0.00     0.031 A 
ATOM     15  C   UNL A   1      40.784  29.766  29.876  1.00  0.00     0.074 A 
ATOM     16  C   UNL A   1      40.297  27.544  28.910  1.00  0.00     0.049 A 
ATOM     17  N   UNL A   1      42.036  29.613  30.223  1.00  0.00    -0.248 NA
ATOM     18  C   UNL A   1      40.228  31.089  30.191  1.00  0.00     0.031 C 
ATOM     19  C   UNL A   1      39.494  26.510  28.250  1.00  0.00     0.029 A 
ATOM     20  N   UNL A   1      41.512  26.942  29.114  1.00  0.00    -0.354 N 
ATOM     21  C   UNL A   1      42.429  30.828  30.773  1.00  0.00     0.074 A 
ATOM     22  C   UNL A   1      41.286  31.713  30.692  1.00  0.00     0.031 C 
ATOM     23  C   UNL A   1      40.235  25.402  28.110  1.00  0.00     0.029 A 
ATOM     24  C   UNL A   1      41.581  25.667  28.607  1.00  0.00     0.049 A 
ATOM     25  H   UNL A   1      42.261  27.381  29.579  1.00  0.00     0.167 HD
ATOM     26  C   UNL A   1      43.633  31.171  31.292  1.00  0.00     0.031 A 
ATOM     27  C   UNL A   1      42.619  24.815  28.507  1.00  0.00     0.031 A 
ATOM     28  C   UNL A   1      44.767  30.284  31.344  1.00  0.00     0.049 A 
ATOM     29  C   UNL A   1      43.955  25.227  29.048  1.00  0.00     0.074 A 
ATOM     30  C   UNL A   1      46.019  30.520  31.887  1.00  0.00     0.029 A 
ATOM     31  N   UNL A   1      44.797  29.000  30.818  1.00  0.00    -0.354 N 
ATOM     32  N   UNL A   1      44.294  26.361  29.615  1.00  0.00    -0.248 NA
ATOM     33  C   UNL A   1      45.046  24.251  28.945  1.00  0.00     0.031 C 
ATOM     34  C   UNL A   1      46.824  29.406  31.628  1.00  0.00     0.029 A 
ATOM     35  C   UNL A   1      46.054  28.445  30.991  1.00  0.00     0.049 A 
ATOM     36  H   UNL A   1      44.036  28.550  30.385  1.00  0.00     0.167 HD
ATOM     37  C   UNL A   1      45.634  26.226  29.958  1.00  0.00     0.074 A 
ATOM     38  C   UNL A   1      46.040  24.899  29.541  1.00  0.00     0.031 C 
ATOM     39  C   UNL A   1      46.447  27.121  30.570  1.00  0.00     0.031 A 
BRANCH  26  40
ATOM     40  C   UNL A   1      43.797  32.584  31.792  1.00  0.00    -0.014 A 
ATOM     41  C   UNL A   1      44.191  33.629  30.935  1.00  0.00     0.010 A 
ATOM     42  C   UNL A   1      43.544  32.875  33.146  1.00  0.00     0.010 A 
ATOM     43  C   UNL A   1      44.393  34.919  31.436  1.00  0.00     0.020 A 
ATOM     44  C   UNL A   1      43.715  34.169  33.644  1.00  0.00     0.020 A 
ATOM     45  C   UNL A   1      44.165  35.177  32.791  1.00  0.00     0.054 A 
BRANCH  45  46
ATOM     46  S   UNL A   1      44.467  36.852  33.422  1.00  0.00     0.124 S 
ATOM     47  O   UNL A   1      44.615  36.609  34.855  1.00  0.00    -0.237 OA
ATOM     48  O   UNL A   1      45.689  37.241  32.722  1.00  0.00    -0.237 OA
ATOM     49  O   UNL A   1      43.268  37.591  33.035  1.00  0.00    -0.744 OA
ENDBRANCH  45  46
ENDBRANCH  26  40
BRANCH  27  50
ATOM     50  C   UNL A   1      42.409  23.502  27.839  1.00  0.00    -0.014 A 
ATOM     51  C   UNL A   1      42.746  23.322  26.488  1.00  0.00     0.010 A 
ATOM     52  C   UNL A   1      41.956  22.399  28.588  1.00  0.00     0.010 A 
ATOM     53  C   UNL A   1      42.643  22.057  25.900  1.00  0.00     0.020 A 
ATOM     54  C   UNL A   1      41.880  21.129  28.012  1.00  0.00     0.020 A 
ATOM     55  C   UNL A   1      42.222  20.967  26.668  1.00  0.00     0.054 A 
BRANCH  55  56
ATOM     56  S   UNL A   1      42.194  19.320  25.909  1.00  0.00     0.124 S 
ATOM     57  O   UNL A   1      42.745  18.486  26.973  1.00  0.00    -0.237 OA
ATOM     58  O   UNL A   1      40.774  19.129  25.624  1.00  0.00    -0.237 OA
ATOM     59  O   UNL A   1      43.043  19.472  24.728  1.00  0.00    -0.744 OA
ENDBRANCH  55  56
ENDBRANCH  27  50
BRANCH  39  60
ATOM     60  C   UNL A   1      47.859  26.693  30.869  1.00  0.00    -0.014 A 
ATOM     61  C   UNL A   1      48.914  26.976  29.985  1.00  0.00     0.010 A 
ATOM     62  C   UNL A   1      48.145  26.086  32.107  1.00  0.00     0.010 A 
ATOM     63  C   UNL A   1      50.231  26.657  30.333  1.00  0.00     0.020 A 
ATOM     64  C   UNL A   1      49.460  25.791  32.470  1.00  0.00     0.020 A 
ATOM     65  C   UNL A   1      50.496  26.076  31.578  1.00  0.00     0.054 A 
BRANCH  65  66
ATOM     66  S   UNL A   1      52.220  25.759  32.044  1.00  0.00     0.124 S 
ATOM     67  O   UNL A   1      52.314  26.428  33.338  1.00  0.00    -0.237 OA
ATOM     68  O   UNL A   1      52.276  24.300  32.085  1.00  0.00    -0.237 OA
ATOM     69  O   UNL A   1      52.990  26.376  30.967  1.00  0.00    -0.744 OA
ENDBRANCH  65  66
ENDBRANCH  39  60
ENDBRANCH  13  14
ENDBRANCH   6   8
ENDBRANCH   3   4
ENDBRANCH   2   3
ENDBRANCH   1   2
BRANCH   1  70
ATOM     70  C   UNL A   1      33.191  27.637  22.833  1.00  0.00     0.002 C 
BRANCH  70  71
ATOM     71  C   UNL A   1      31.713  27.416  22.480  1.00  0.00     0.021 C 
BRANCH  71  72
ATOM     72  C   UNL A   1      31.187  26.032  22.862  1.00  0.00     0.116 C 
BRANCH  72  73
ATOM     73  N   UNL A   1      31.875  25.011  22.098  1.00  0.00    -0.356 N 
ATOM     74  C   UNL A   1      33.009  24.318  22.396  1.00  0.00     0.224 C 
ATOM     75  H   UNL A   1      31.462  24.784  21.234  1.00  0.00     0.163 HD
ATOM     76  O   UNL A   1      33.563  23.698  21.488  1.00  0.00    -0.275 OA
BRANCH  74  77
ATOM     77  C   UNL A   1      33.518  24.317  23.832  1.00  0.00     0.098 C 
ATOM     78  C   UNL A   1      35.052  24.284  23.909  1.00  0.00     0.017 C 
ATOM     79  C   UNL A   1      32.907  23.128  24.584  1.00  0.00     0.133 C 
ATOM     80  C   UNL A   1      35.648  22.920  23.560  1.00  0.00     0.022 C 
ATOM     81  N   UNL A   1      33.501  21.862  24.148  1.00  0.00    -0.338 N 
ATOM     82  C   UNL A   1      34.953  21.782  24.300  1.00  0.00     0.120 C 
BRANCH  81  83
ATOM     83  C   UNL A   1      32.677  20.911  23.547  1.00  0.00     0.259 C 
ATOM     84  O   UNL A   1      31.918  21.161  22.614  1.00  0.00    -0.269 OA
BRANCH  83  85
ATOM     85  C   UNL A   1      32.700  19.523  24.021  1.00  0.00     0.111 A 
ATOM     86  C   UNL A   1      32.729  19.226  25.381  1.00  0.00     0.140 A 
ATOM     87  C   UNL A   1      32.625  18.481  23.100  1.00  0.00     0.140 A 
ATOM     88  F   UNL A   1      32.776  20.204  26.296  1.00  0.00    -0.206 F 
ATOM     89  C   UNL A   1      32.741  17.904  25.821  1.00  0.00     0.056 A 
ATOM     90  C   UNL A   1      32.625  17.153  23.523  1.00  0.00     0.056 A 
ATOM     91  F   UNL A   1      32.572  18.726  21.783  1.00  0.00    -0.206 F 
ATOM     92  C   UNL A   1      32.693  16.872  24.887  1.00  0.00     0.023 A 
ATOM     93  Br  UNL A   1      32.726  15.075  25.473  1.00  0.00    -0.051 Br
ENDBRANCH  83  85
ENDBRANCH  81  83
ENDBRANCH  74  77
ENDBRANCH  72  73
ENDBRANCH  71  72
ENDBRANCH  70  71
ENDBRANCH   1  70
TORSDOF 18
ENDMDL
MODEL 3
REMARK VINA RESULT:     -10.4      1.767      2.779
REMARK SMILES O=C(NCCCCCCNC(=O)[C@@H]1CCCN(C(=O)c2c(F)cc(Br)cc2F)C1)c1ccc(-c2c3nc(c(-c4ccc(S(=O)(=O)[O-])cc4)c4ccc([nH]4)c(-c4ccc(S(=O)(=O)[O-])cc4)c4nc(c(-c5ccc(S(=O)(=O)[O-])cc5)c5ccc2[nH]5)C=C4)C=C3)cc1
REMARK SMILES IDX 6 1 5 2 4 3 3 4 1 5 2 6 30 8 31 9 89 10 32 11 88 12 33 13
REMARK SMILES IDX 34 14 35 15 82 16 36 17 87 18 81 19 83 20 37 21 86 22 80 23
REMARK SMILES IDX 79 24 38 26 68 27 49 28 67 29 50 30 53 31 66 32 84 33 51 34
REMARK SMILES IDX 52 35 65 37 85 38 54 39 39 40 40 41 48 42 41 43 47 44 42 45
REMARK SMILES IDX 43 46 44 47 45 48 46 49 69 50 70 51 78 52 71 53 77 54 72 55
REMARK SMILES IDX 73 56 74 57 75 58 76 59 55 60 56 61 64 62 57 63 63 64 58 65
REMARK SMILES IDX 59 66 60 67 61 68 62 69 7 70 8 71 9 72 10 73 11 74 12 76
REMARK SMILES IDX 13 77 14 78 29 79 15 80 17 81 16 82 18 83 19 84 20 85 21 86
REMARK SMILES IDX 27 87 22 88 23 89 26 90 28 91 24 92 25 93
REMARK H PARENT 3 7 83 25 53 36 10 75
REMARK Flexibility Score: inf
ROOT
ATOM      1  C   UNL A   1      34.324  28.573  23.439  1.00  0.00     0.002 C 
ENDROOT
BRANCH   1   2
ATOM      2  C   UNL A   1      33.540  28.507  24.750  1.00  0.00     0.021 C 
BRANCH   2   3
ATOM      3  C   UNL A   1      34.387  28.733  25.996  1.00  0.00     0.116 C 
BRANCH   3   4
ATOM      4  N   UNL A   1      33.999  29.944  26.700  1.00  0.00    -0.352 N 
ATOM      5  O   UNL A   1      34.051  31.456  28.373  1.00  0.00    -0.269 OA
ATOM      6  C   UNL A   1      34.624  30.565  27.751  1.00  0.00     0.251 C 
ATOM      7  H   UNL A   1      33.176  30.378  26.378  1.00  0.00     0.163 HD
BRANCH   6   8
ATOM      8  C   UNL A   1      35.986  30.144  28.138  1.00  0.00     0.039 A 
ATOM      9  C   UNL A   1      37.044  30.247  27.227  1.00  0.00     0.014 A 
ATOM     10  C   UNL A   1      36.207  29.653  29.425  1.00  0.00     0.014 A 
ATOM     11  C   UNL A   1      38.298  29.754  27.567  1.00  0.00     0.010 A 
ATOM     12  C   UNL A   1      37.486  29.230  29.790  1.00  0.00     0.010 A 
ATOM     13  C   UNL A   1      38.537  29.261  28.859  1.00  0.00    -0.014 A 
BRANCH  13  14
ATOM     14  C   UNL A   1      39.906  28.851  29.254  1.00  0.00     0.031 A 
ATOM     15  C   UNL A   1      40.834  29.811  29.939  1.00  0.00     0.074 A 
ATOM     16  C   UNL A   1      40.320  27.606  28.950  1.00  0.00     0.049 A 
ATOM     17  N   UNL A   1      42.084  29.640  30.286  1.00  0.00    -0.248 NA
ATOM     18  C   UNL A   1      40.294  31.138  30.267  1.00  0.00     0.031 C 
ATOM     19  C   UNL A   1      39.506  26.589  28.279  1.00  0.00     0.029 A 
ATOM     20  N   UNL A   1      41.528  26.987  29.149  1.00  0.00    -0.354 N 
ATOM     21  C   UNL A   1      42.491  30.844  30.849  1.00  0.00     0.074 A 
ATOM     22  C   UNL A   1      41.359  31.744  30.776  1.00  0.00     0.031 C 
ATOM     23  C   UNL A   1      40.233  25.473  28.128  1.00  0.00     0.029 A 
ATOM     24  C   UNL A   1      41.581  25.716  28.629  1.00  0.00     0.049 A 
ATOM     25  H   UNL A   1      42.281  27.411  29.620  1.00  0.00     0.167 HD
ATOM     26  C   UNL A   1      43.698  31.167  31.372  1.00  0.00     0.031 A 
ATOM     27  C   UNL A   1      42.608  24.852  28.522  1.00  0.00     0.031 A 
ATOM     28  C   UNL A   1      44.822  30.265  31.417  1.00  0.00     0.049 A 
ATOM     29  C   UNL A   1      43.949  25.242  29.069  1.00  0.00     0.074 A 
ATOM     30  C   UNL A   1      46.075  30.480  31.964  1.00  0.00     0.029 A 
ATOM     31  N   UNL A   1      44.836  28.986  30.878  1.00  0.00    -0.354 N 
ATOM     32  N   UNL A   1      44.302  26.366  29.647  1.00  0.00    -0.248 NA
ATOM     33  C   UNL A   1      45.028  24.253  28.957  1.00  0.00     0.031 C 
ATOM     34  C   UNL A   1      46.867  29.358  31.695  1.00  0.00     0.029 A 
ATOM     35  C   UNL A   1      46.085  28.414  31.047  1.00  0.00     0.049 A 
ATOM     36  H   UNL A   1      44.069  28.550  30.440  1.00  0.00     0.167 HD
ATOM     37  C   UNL A   1      45.640  26.211  29.990  1.00  0.00     0.074 A 
ATOM     38  C   UNL A   1      46.030  24.883  29.560  1.00  0.00     0.031 C 
ATOM     39  C   UNL A   1      46.462  27.090  30.612  1.00  0.00     0.031 A 
BRANCH  26  40
ATOM     40  C   UNL A   1      43.879  32.572  31.887  1.00  0.00    -0.014 A 
ATOM     41  C   UNL A   1      44.328  33.612  31.051  1.00  0.00     0.010 A 
ATOM     42  C   UNL A   1      43.586  32.861  33.234  1.00  0.00     0.010 A 
ATOM     43  C   UNL A   1      44.544  34.893  31.567  1.00  0.00     0.020 A 
ATOM     44  C   UNL A   1      43.771  34.148  33.746  1.00  0.00     0.020 A 
ATOM     45  C   UNL A   1      44.276  35.150  32.915  1.00  0.00     0.054 A 
BRANCH  45  46
ATOM     46  S   UNL A   1      44.596  36.813  33.567  1.00  0.00     0.124 S 
ATOM     47  O   UNL A   1      45.420  36.521  34.738  1.00  0.00    -0.237 OA
ATOM     48  O   UNL A   1      45.290  37.462  32.458  1.00  0.00    -0.237 OA
ATOM     49  O   UNL A   1      43.264  37.336  33.857  1.00  0.00    -0.744 OA
ENDBRANCH  45  46
ENDBRANCH  26  40
BRANCH  27  50
ATOM     50  C   UNL A   1      42.384  23.549  27.840  1.00  0.00    -0.014 A 
ATOM     51  C   UNL A   1      43.007  23.262  26.616  1.00  0.00     0.010 A 
ATOM     52  C   UNL A   1      41.614  22.552  28.470  1.00  0.00     0.010 A 
ATOM     53  C   UNL A   1      42.871  21.996  26.037  1.00  0.00     0.020 A 
ATOM     54  C   UNL A   1      41.500  21.278  27.910  1.00  0.00     0.020 A 
ATOM     55  C   UNL A   1      42.129  21.009  26.693  1.00  0.00     0.054 A 
BRANCH  55  56
ATOM     56  S   UNL A   1      42.054  19.346  25.971  1.00  0.00     0.124 S 
ATOM     57  O   UNL A   1      42.887  19.494  24.782  1.00  0.00    -0.237 OA
ATOM     58  O   UNL A   1      42.611  18.516  27.036  1.00  0.00    -0.237 OA
ATOM     59  O   UNL A   1      40.629  19.146  25.717  1.00  0.00    -0.744 OA
ENDBRANCH  55  56
ENDBRANCH  27  50
BRANCH  39  60
ATOM     60  C   UNL A   1      47.869  26.641  30.909  1.00  0.00    -0.014 A 
ATOM     61  C   UNL A   1      48.922  26.888  30.012  1.00  0.00     0.010 A 
ATOM     62  C   UNL A   1      48.153  26.051  32.156  1.00  0.00     0.010 A 
ATOM     63  C   UNL A   1      50.235  26.551  30.357  1.00  0.00     0.020 A 
ATOM     64  C   UNL A   1      49.465  25.738  32.514  1.00  0.00     0.020 A 
ATOM     65  C   UNL A   1      50.500  25.988  31.610  1.00  0.00     0.054 A 
BRANCH  65  66
ATOM     66  S   UNL A   1      52.221  25.647  32.068  1.00  0.00     0.124 S 
ATOM     67  O   UNL A   1      52.192  24.208  32.314  1.00  0.00    -0.237 OA
ATOM     68  O   UNL A   1      52.957  26.067  30.878  1.00  0.00    -0.237 OA
ATOM     69  O   UNL A   1      52.436  26.476  33.251  1.00  0.00    -0.744 OA
ENDBRANCH  65  66
ENDBRANCH  39  60
ENDBRANCH  13  14
ENDBRANCH   6   8
ENDBRANCH   3   4
ENDBRANCH   2   3
ENDBRANCH   1   2
BRANCH   1  70
ATOM     70  C   UNL A   1      33.642  27.884  22.252  1.00  0.00     0.002 C 
BRANCH  70  71
ATOM     71  C   UNL A   1      32.985  26.535  22.578  1.00  0.00     0.021 C 
BRANCH  71  72
ATOM     72  C   UNL A   1      33.734  25.331  22.007  1.00  0.00     0.116 C 
BRANCH  72  73
ATOM     73  N   UNL A   1      33.212  24.105  22.578  1.00  0.00    -0.356 N 
ATOM     74  C   UNL A   1      33.696  23.348  23.601  1.00  0.00     0.224 C 
ATOM     75  H   UNL A   1      32.384  23.769  22.165  1.00  0.00     0.163 HD
ATOM     76  O   UNL A   1      33.248  22.210  23.741  1.00  0.00    -0.275 OA
BRANCH  74  77
ATOM     77  C   UNL A   1      34.739  23.949  24.536  1.00  0.00     0.098 C 
ATOM     78  C   UNL A   1      35.633  22.879  25.181  1.00  0.00     0.017 C 
ATOM     79  C   UNL A   1      34.031  24.788  25.608  1.00  0.00     0.133 C 
ATOM     80  C   UNL A   1      34.927  22.075  26.274  1.00  0.00     0.022 C 
ATOM     81  N   UNL A   1      33.341  23.937  26.579  1.00  0.00    -0.338 N 
ATOM     82  C   UNL A   1      34.199  22.973  27.268  1.00  0.00     0.120 C 
BRANCH  81  83
ATOM     83  C   UNL A   1      31.955  24.039  26.689  1.00  0.00     0.259 C 
ATOM     84  O   UNL A   1      31.282  23.358  27.460  1.00  0.00    -0.269 OA
BRANCH  83  85
ATOM     85  C   UNL A   1      31.227  25.008  25.863  1.00  0.00     0.111 A 
ATOM     86  C   UNL A   1      31.252  26.368  26.158  1.00  0.00     0.140 A 
ATOM     87  C   UNL A   1      30.553  24.571  24.725  1.00  0.00     0.140 A 
ATOM     88  F   UNL A   1      31.912  26.827  27.230  1.00  0.00    -0.206 F 
ATOM     89  C   UNL A   1      30.565  27.282  25.361  1.00  0.00     0.056 A 
ATOM     90  C   UNL A   1      29.870  25.473  23.912  1.00  0.00     0.056 A 
ATOM     91  F   UNL A   1      30.525  23.273  24.395  1.00  0.00    -0.206 F 
ATOM     92  C   UNL A   1      29.872  26.828  24.241  1.00  0.00     0.023 A 
ATOM     93  Br  UNL A   1      28.923  28.057  23.164  1.00  0.00    -0.051 Br
ENDBRANCH  83  85
ENDBRANCH  81  83
ENDBRANCH  74  77
ENDBRANCH  72  73
ENDBRANCH  71  72
ENDBRANCH  70  71
ENDBRANCH   1  70
TORSDOF 18
ENDMDL
