MODEL 1
REMARK VINA RESULT:     -10.5      0.000      0.000
REMARK SMILES C=C[C@@H]1[C@@H](O)C[C@H]2[C@]3(CC[C@]4(C)[C@@H]([C@H](C)CCC=C(C)C)CC[C@]24C)C[C@]13CCC(=O)NCCCCCCNC(=O)c1ccc(-c2c3nc(c(-c4ccc(S(=O)(=O)[O-])cc4)c4ccc([nH]4)c(-c4ccc(S(=O)(=O)[O-])cc4)c4nc(c(-c5ccc(S(=O)(=O)[O-])cc5)c5ccc2[nH]5)C=C4)C=C3)cc1
REMARK SMILES IDX 34 1 33 2 32 3 30 4 31 5 29 7 28 8 27 9 3 10 4 11 6 12 8 13
REMARK SMILES IDX 26 14 7 15 9 16 24 17 10 18 11 19 23 20 25 21 13 22 12 23
REMARK SMILES IDX 22 24 2 25 1 26 5 27 14 29 15 30 16 31 17 32 18 33 19 34
REMARK SMILES IDX 20 35 21 36 35 37 36 38 37 39 38 40 39 41 40 42 41 44 42 45
REMARK SMILES IDX 43 46 101 47 44 48 100 49 45 50 46 51 47 52 94 53 48 54
REMARK SMILES IDX 99 55 93 56 95 57 49 58 98 59 92 60 91 61 50 63 80 64 61 65
REMARK SMILES IDX 79 66 62 67 65 68 78 69 96 70 63 71 64 72 77 74 97 75 66 76
REMARK SMILES IDX 51 77 52 78 60 79 53 80 59 81 54 82 55 83 56 84 57 85 58 86
REMARK SMILES IDX 81 87 82 88 90 89 83 90 89 91 84 92 85 93 86 94 87 95 88 96
REMARK SMILES IDX 67 97 68 98 76 99 69 100 75 101 70 102 71 103 72 104 73 105
REMARK SMILES IDX 74 106
REMARK H PARENT 32 6 5 28 39 43 95 62 65 73
REMARK Flexibility Score: inf
ROOT
ATOM      1  C   UNL A   1      39.332  25.949  27.382  1.00  0.00     0.021 C 
ENDROOT
BRANCH   1   2
ATOM      2  C   UNL A   1      39.208  24.113  27.521  1.00  0.00     0.116 C 
BRANCH   2   3
ATOM      3  N   UNL A   1      38.531  22.799  26.177  1.00  0.00    -0.356 N 
ATOM      4  C   UNL A   1      37.492  21.966  25.622  1.00  0.00     0.220 C 
ATOM      5  O   UNL A   1      37.859  21.209  24.705  1.00  0.00    -0.275 OA
ATOM      6  H   UNL A   1      39.306  22.635  25.593  1.00  0.00     0.163 HD
BRANCH   4   7
ATOM      7  C   UNL A   1      36.007  21.809  26.014  1.00  0.00     0.100 C 
BRANCH   7   8
ATOM      8  C   UNL A   1      35.155  23.053  25.873  1.00  0.00     0.018 C 
BRANCH   8   9
ATOM      9  C   UNL A   1      33.863  22.829  25.134  1.00  0.00    -0.014 C 
ATOM     10  C   UNL A   1      32.975  21.739  25.779  1.00  0.00     0.047 C 
ATOM     11  C   UNL A   1      32.159  22.296  26.954  1.00  0.00     0.122 C 
ATOM     12  C   UNL A   1      31.319  23.525  26.598  1.00  0.00     0.037 C 
ATOM     13  C   UNL A   1      33.331  24.169  24.549  1.00  0.00    -0.019 C 
ATOM     14  C   UNL A   1      33.668  22.955  23.687  1.00  0.00     0.016 C 
ATOM     15  C   UNL A   1      32.016  24.792  25.898  1.00  0.00     0.005 C 
ATOM     16  C   UNL A   1      34.305  25.544  23.534  1.00  0.00     0.008 C 
ATOM     17  C   UNL A   1      31.405  26.740  25.722  1.00  0.00    -0.023 C 
ATOM     18  C   UNL A   1      33.984  27.388  23.887  1.00  0.00     0.008 C 
ATOM     19  C   UNL A   1      32.676  28.040  25.084  1.00  0.00    -0.024 C 
ATOM     20  C   UNL A   1      31.040  27.249  27.124  1.00  0.00     0.008 C 
ATOM     21  C   UNL A   1      30.215  27.407  24.739  1.00  0.00     0.012 C 
ATOM     22  C   UNL A   1      33.117  28.648  26.512  1.00  0.00    -0.002 C 
ATOM     23  C   UNL A   1      32.174  29.269  24.285  1.00  0.00     0.012 C 
ATOM     24  C   UNL A   1      32.053  28.285  27.583  1.00  0.00     0.005 C 
BRANCH  10  25
ATOM     25  C   UNL A   1      32.134  20.762  24.937  1.00  0.00    -0.028 C 
ATOM     26  C   UNL A   1      32.425  19.591  24.349  1.00  0.00     0.004 C 
ENDBRANCH  10  25
BRANCH  11  27
ATOM     27  O   UNL A   1      32.971  22.538  28.101  1.00  0.00    -0.392 OA
ATOM     28  H   UNL A   1      33.576  23.275  27.918  1.00  0.00     0.210 HD
ENDBRANCH  11  27
BRANCH  22  29
ATOM     29  C   UNL A   1      33.877  29.985  26.786  1.00  0.00    -0.010 C 
ATOM     30  C   UNL A   1      35.257  29.578  27.407  1.00  0.00     0.008 C 
BRANCH  29  31
ATOM     31  C   UNL A   1      33.434  31.226  27.619  1.00  0.00     0.008 C 
BRANCH  31  32
ATOM     32  C   UNL A   1      34.282  32.414  28.067  1.00  0.00     0.027 C 
BRANCH  32  33
ATOM     33  C   UNL A   1      33.572  33.732  28.089  1.00  0.00    -0.028 C 
ATOM     34  C   UNL A   1      33.622  34.628  29.092  1.00  0.00    -0.080 C 
ATOM     35  C   UNL A   1      33.013  35.994  28.939  1.00  0.00     0.039 C 
ATOM     36  C   UNL A   1      34.282  34.364  30.418  1.00  0.00     0.039 C 
ENDBRANCH  32  33
ENDBRANCH  31  32
ENDBRANCH  29  31
ENDBRANCH  22  29
ENDBRANCH   8   9
ENDBRANCH   7   8
ENDBRANCH   4   7
ENDBRANCH   2   3
ENDBRANCH   1   2
BRANCH   1  37
ATOM     37  C   UNL A   1      40.422  27.047  27.982  1.00  0.00     0.002 C 
BRANCH  37  38
ATOM     38  C   UNL A   1      41.909  26.952  28.347  1.00  0.00     0.002 C 
BRANCH  38  39
ATOM     39  C   UNL A   1      42.609  25.789  27.700  1.00  0.00     0.021 C 
BRANCH  39  40
ATOM     40  C   UNL A   1      44.076  26.067  27.798  1.00  0.00     0.116 C 
BRANCH  40  41
ATOM     41  N   UNL A   1      44.669  26.334  26.487  1.00  0.00    -0.352 N 
ATOM     42  C   UNL A   1      45.065  27.581  26.049  1.00  0.00     0.251 C 
ATOM     43  H   UNL A   1      44.794  25.572  25.877  1.00  0.00     0.163 HD
ATOM     44  O   UNL A   1      45.427  27.811  24.916  1.00  0.00    -0.269 OA
BRANCH  42  45
ATOM     45  C   UNL A   1      44.989  28.619  27.092  1.00  0.00     0.039 A 
ATOM     46  C   UNL A   1      46.044  28.741  27.995  1.00  0.00     0.014 A 
ATOM     47  C   UNL A   1      44.097  29.668  26.848  1.00  0.00     0.014 A 
ATOM     48  C   UNL A   1      46.200  29.947  28.669  1.00  0.00     0.010 A 
ATOM     49  C   UNL A   1      44.383  30.913  27.373  1.00  0.00     0.010 A 
ATOM     50  C   UNL A   1      45.375  31.042  28.355  1.00  0.00    -0.014 A 
BRANCH  50  51
ATOM     51  C   UNL A   1      45.405  32.281  29.160  1.00  0.00     0.031 A 
ATOM     52  C   UNL A   1      46.404  33.344  28.771  1.00  0.00     0.074 A 
ATOM     53  C   UNL A   1      44.566  32.450  30.200  1.00  0.00     0.049 A 
ATOM     54  N   UNL A   1      46.618  34.513  29.312  1.00  0.00    -0.248 NA
ATOM     55  C   UNL A   1      47.332  33.031  27.664  1.00  0.00     0.031 C 
ATOM     56  C   UNL A   1      43.616  31.455  30.709  1.00  0.00     0.029 A 
ATOM     57  N   UNL A   1      44.359  33.542  31.001  1.00  0.00    -0.354 N 
ATOM     58  C   UNL A   1      47.714  35.037  28.632  1.00  0.00     0.074 A 
ATOM     59  C   UNL A   1      48.199  34.023  27.736  1.00  0.00     0.031 C 
ATOM     60  C   UNL A   1      42.879  32.009  31.687  1.00  0.00     0.029 A 
ATOM     61  C   UNL A   1      43.320  33.385  31.889  1.00  0.00     0.049 A 
ATOM     62  H   UNL A   1      44.902  34.361  30.946  1.00  0.00     0.167 HD
ATOM     63  C   UNL A   1      48.228  36.284  28.686  1.00  0.00     0.031 A 
ATOM     64  C   UNL A   1      42.773  34.274  32.741  1.00  0.00     0.031 A 
ATOM     65  C   UNL A   1      47.678  37.311  29.518  1.00  0.00     0.049 A 
ATOM     66  C   UNL A   1      43.321  35.678  32.749  1.00  0.00     0.074 A 
ATOM     67  C   UNL A   1      48.055  38.635  29.619  1.00  0.00     0.029 A 
ATOM     68  N   UNL A   1      46.606  37.121  30.377  1.00  0.00    -0.354 N 
ATOM     69  N   UNL A   1      44.310  36.180  32.046  1.00  0.00    -0.248 NA
ATOM     70  C   UNL A   1      42.664  36.640  33.642  1.00  0.00     0.031 C 
ATOM     71  C   UNL A   1      47.233  39.238  30.577  1.00  0.00     0.029 A 
ATOM     72  C   UNL A   1      46.312  38.302  31.027  1.00  0.00     0.049 A 
ATOM     73  H   UNL A   1      46.126  36.271  30.506  1.00  0.00     0.167 HD
ATOM     74  C   UNL A   1      44.379  37.524  32.394  1.00  0.00     0.074 A 
ATOM     75  C   UNL A   1      43.314  37.758  33.351  1.00  0.00     0.031 C 
ATOM     76  C   UNL A   1      45.241  38.483  31.972  1.00  0.00     0.031 A 
BRANCH  63  77
ATOM     77  C   UNL A   1      49.407  36.587  27.800  1.00  0.00    -0.014 A 
ATOM     78  C   UNL A   1      49.231  36.989  26.462  1.00  0.00     0.010 A 
ATOM     79  C   UNL A   1      50.710  36.452  28.307  1.00  0.00     0.010 A 
ATOM     80  C   UNL A   1      50.335  37.200  25.632  1.00  0.00     0.020 A 
ATOM     81  C   UNL A   1      51.818  36.698  27.491  1.00  0.00     0.020 A 
ATOM     82  C   UNL A   1      51.622  37.054  26.154  1.00  0.00     0.054 A 
BRANCH  82  83
ATOM     83  S   UNL A   1      53.039  37.369  25.066  1.00  0.00     0.124 S 
ATOM     84  O   UNL A   1      53.229  38.808  25.227  1.00  0.00    -0.237 OA
ATOM     85  O   UNL A   1      54.081  36.528  25.648  1.00  0.00    -0.237 OA
ATOM     86  O   UNL A   1      52.564  36.946  23.750  1.00  0.00    -0.744 OA
ENDBRANCH  82  83
ENDBRANCH  63  77
BRANCH  64  87
ATOM     87  C   UNL A   1      41.619  33.885  33.600  1.00  0.00    -0.014 A 
ATOM     88  C   UNL A   1      41.824  33.376  34.895  1.00  0.00     0.010 A 
ATOM     89  C   UNL A   1      40.300  34.029  33.130  1.00  0.00     0.010 A 
ATOM     90  C   UNL A   1      40.739  32.996  35.694  1.00  0.00     0.020 A 
ATOM     91  C   UNL A   1      39.211  33.676  33.935  1.00  0.00     0.020 A 
ATOM     92  C   UNL A   1      39.438  33.149  35.207  1.00  0.00     0.054 A 
BRANCH  92  93
ATOM     93  S   UNL A   1      38.042  32.689  36.274  1.00  0.00     0.124 S 
ATOM     94  O   UNL A   1      36.971  32.488  35.303  1.00  0.00    -0.237 OA
ATOM     95  O   UNL A   1      38.535  31.483  36.935  1.00  0.00    -0.237 OA
ATOM     96  O   UNL A   1      37.886  33.850  37.148  1.00  0.00    -0.744 OA
ENDBRANCH  92  93
ENDBRANCH  64  87
BRANCH  76  97
ATOM     97  C   UNL A   1      45.045  39.866  32.521  1.00  0.00    -0.014 A 
ATOM     98  C   UNL A   1      45.687  40.273  33.703  1.00  0.00     0.010 A 
ATOM     99  C   UNL A   1      44.251  40.785  31.811  1.00  0.00     0.010 A 
ATOM    100  C   UNL A   1      45.498  41.566  34.192  1.00  0.00     0.020 A 
ATOM    101  C   UNL A   1      44.087  42.088  32.280  1.00  0.00     0.020 A 
ATOM    102  C   UNL A   1      44.697  42.463  33.479  1.00  0.00     0.054 A 
BRANCH 102 103
ATOM    103  S   UNL A   1      44.485  44.142  34.125  1.00  0.00     0.124 S 
ATOM    104  O   UNL A   1      44.615  44.948  32.915  1.00  0.00    -0.237 OA
ATOM    105  O   UNL A   1      43.147  44.094  34.709  1.00  0.00    -0.237 OA
ATOM    106  O   UNL A   1      45.576  44.282  35.088  1.00  0.00    -0.744 OA
ENDBRANCH 102 103
ENDBRANCH  76  97
ENDBRANCH  50  51
ENDBRANCH  42  45
ENDBRANCH  40  41
ENDBRANCH  39  40
ENDBRANCH  38  39
ENDBRANCH  37  38
ENDBRANCH   1  37
TORSDOF 24
ENDMDL
MODEL 2
REMARK VINA RESULT:     -10.2      4.853      7.964
REMARK SMILES C=C[C@@H]1[C@@H](O)C[C@H]2[C@]3(CC[C@]4(C)[C@@H]([C@H](C)CCC=C(C)C)CC[C@]24C)C[C@]13CCC(=O)NCCCCCCNC(=O)c1ccc(-c2c3nc(c(-c4ccc(S(=O)(=O)[O-])cc4)c4ccc([nH]4)c(-c4ccc(S(=O)(=O)[O-])cc4)c4nc(c(-c5ccc(S(=O)(=O)[O-])cc5)c5ccc2[nH]5)C=C4)C=C3)cc1
REMARK SMILES IDX 34 1 33 2 32 3 30 4 31 5 29 7 28 8 27 9 3 10 4 11 6 12 8 13
REMARK SMILES IDX 26 14 7 15 9 16 24 17 10 18 11 19 23 20 25 21 13 22 12 23
REMARK SMILES IDX 22 24 2 25 1 26 5 27 14 29 15 30 16 31 17 32 18 33 19 34
REMARK SMILES IDX 20 35 21 36 35 37 36 38 37 39 38 40 39 41 40 42 41 44 42 45
REMARK SMILES IDX 43 46 101 47 44 48 100 49 45 50 46 51 47 52 94 53 48 54
REMARK SMILES IDX 99 55 93 56 95 57 49 58 98 59 92 60 91 61 50 63 80 64 61 65
REMARK SMILES IDX 79 66 62 67 65 68 78 69 96 70 63 71 64 72 77 74 97 75 66 76
REMARK SMILES IDX 51 77 52 78 60 79 53 80 59 81 54 82 55 83 56 84 57 85 58 86
REMARK SMILES IDX 81 87 82 88 90 89 83 90 89 91 84 92 85 93 86 94 87 95 88 96
REMARK SMILES IDX 67 97 68 98 76 99 69 100 75 101 70 102 71 103 72 104 73 105
REMARK SMILES IDX 74 106
REMARK H PARENT 32 6 5 28 39 43 95 62 65 73
REMARK Flexibility Score: inf
ROOT
ATOM      1  C   UNL A   1      39.390  24.657  27.012  1.00  0.00     0.021 C 
ENDROOT
BRANCH   1   2
ATOM      2  C   UNL A   1      39.407  22.829  26.756  1.00  0.00     0.116 C 
BRANCH   2   3
ATOM      3  N   UNL A   1      38.378  21.740  25.433  1.00  0.00    -0.356 N 
ATOM      4  C   UNL A   1      37.145  21.214  24.902  1.00  0.00     0.220 C 
ATOM      5  O   UNL A   1      37.279  20.385  23.983  1.00  0.00    -0.275 OA
ATOM      6  H   UNL A   1      39.070  21.376  24.836  1.00  0.00     0.163 HD
BRANCH   4   7
ATOM      7  C   UNL A   1      35.679  21.459  25.322  1.00  0.00     0.100 C 
BRANCH   7   8
ATOM      8  C   UNL A   1      35.053  22.739  24.808  1.00  0.00     0.018 C 
BRANCH   8   9
ATOM      9  C   UNL A   1      33.820  22.524  23.973  1.00  0.00    -0.014 C 
ATOM     10  C   UNL A   1      32.982  21.306  24.427  1.00  0.00     0.047 C 
ATOM     11  C   UNL A   1      32.070  21.657  25.612  1.00  0.00     0.122 C 
ATOM     12  C   UNL A   1      31.162  22.862  25.359  1.00  0.00     0.037 C 
ATOM     13  C   UNL A   1      33.222  23.889  23.525  1.00  0.00    -0.019 C 
ATOM     14  C   UNL A   1      33.688  22.818  22.543  1.00  0.00     0.016 C 
ATOM     15  C   UNL A   1      31.799  24.250  24.860  1.00  0.00     0.005 C 
ATOM     16  C   UNL A   1      34.143  25.442  22.743  1.00  0.00     0.008 C 
ATOM     17  C   UNL A   1      31.058  26.161  24.886  1.00  0.00    -0.023 C 
ATOM     18  C   UNL A   1      33.672  27.202  23.299  1.00  0.00     0.008 C 
ATOM     19  C   UNL A   1      32.262  27.611  24.487  1.00  0.00    -0.024 C 
ATOM     20  C   UNL A   1      30.588  26.465  26.316  1.00  0.00     0.008 C 
ATOM     21  C   UNL A   1      29.874  26.866  23.924  1.00  0.00     0.012 C 
ATOM     22  C   UNL A   1      32.586  28.064  26.001  1.00  0.00    -0.002 C 
ATOM     23  C   UNL A   1      31.713  28.895  23.815  1.00  0.00     0.012 C 
ATOM     24  C   UNL A   1      31.498  27.500  26.956  1.00  0.00     0.005 C 
BRANCH  10  25
ATOM     25  C   UNL A   1      32.258  20.389  23.425  1.00  0.00    -0.028 C 
ATOM     26  C   UNL A   1      32.275  19.061  23.236  1.00  0.00     0.004 C 
ENDBRANCH  10  25
BRANCH  11  27
ATOM     27  O   UNL A   1      32.804  21.807  26.826  1.00  0.00    -0.392 OA
ATOM     28  H   UNL A   1      32.198  22.057  27.541  1.00  0.00     0.210 HD
ENDBRANCH  11  27
BRANCH  22  29
ATOM     29  C   UNL A   1      33.232  29.403  26.480  1.00  0.00    -0.010 C 
ATOM     30  C   UNL A   1      34.497  28.999  27.312  1.00  0.00     0.008 C 
BRANCH  29  31
ATOM     31  C   UNL A   1      32.600  30.576  27.290  1.00  0.00     0.008 C 
BRANCH  31  32
ATOM     32  C   UNL A   1      33.153  31.984  27.496  1.00  0.00     0.027 C 
BRANCH  32  33
ATOM     33  C   UNL A   1      34.622  32.058  27.778  1.00  0.00    -0.028 C 
ATOM     34  C   UNL A   1      35.298  33.174  28.107  1.00  0.00    -0.080 C 
ATOM     35  C   UNL A   1      36.736  33.106  28.540  1.00  0.00     0.039 C 
ATOM     36  C   UNL A   1      34.697  34.553  28.086  1.00  0.00     0.039 C 
ENDBRANCH  32  33
ENDBRANCH  31  32
ENDBRANCH  29  31
ENDBRANCH  22  29
ENDBRANCH   8   9
ENDBRANCH   7   8
ENDBRANCH   4   7
ENDBRANCH   2   3
ENDBRANCH   1   2
BRANCH   1  37
ATOM     37  C   UNL A   1      40.446  25.692  27.764  1.00  0.00     0.002 C 
BRANCH  37  38
ATOM     38  C   UNL A   1      41.751  25.474  28.540  1.00  0.00     0.002 C 
BRANCH  38  39
ATOM     39  C   UNL A   1      42.241  24.052  28.496  1.00  0.00     0.021 C 
BRANCH  39  40
ATOM     40  C   UNL A   1      43.718  24.104  28.725  1.00  0.00     0.116 C 
BRANCH  40  41
ATOM     41  N   UNL A   1      44.425  23.084  27.951  1.00  0.00    -0.352 N 
ATOM     42  C   UNL A   1      45.529  23.329  27.161  1.00  0.00     0.251 C 
ATOM     43  H   UNL A   1      44.091  22.159  27.998  1.00  0.00     0.163 HD
ATOM     44  O   UNL A   1      46.022  22.506  26.421  1.00  0.00    -0.269 OA
BRANCH  42  45
ATOM     45  C   UNL A   1      46.046  24.703  27.289  1.00  0.00     0.039 A 
ATOM     46  C   UNL A   1      46.896  25.003  28.353  1.00  0.00     0.014 A 
ATOM     47  C   UNL A   1      46.007  25.483  26.128  1.00  0.00     0.014 A 
ATOM     48  C   UNL A   1      47.720  26.118  28.245  1.00  0.00     0.010 A 
ATOM     49  C   UNL A   1      46.967  26.461  25.958  1.00  0.00     0.010 A 
ATOM     50  C   UNL A   1      47.767  26.847  27.043  1.00  0.00    -0.014 A 
BRANCH  50  51
ATOM     51  C   UNL A   1      48.505  28.124  26.948  1.00  0.00     0.031 A 
ATOM     52  C   UNL A   1      49.980  28.057  26.633  1.00  0.00     0.074 A 
ATOM     53  C   UNL A   1      47.878  29.300  27.133  1.00  0.00     0.049 A 
ATOM     54  N   UNL A   1      50.839  29.030  26.490  1.00  0.00    -0.248 NA
ATOM     55  C   UNL A   1      50.591  26.715  26.523  1.00  0.00     0.031 C 
ATOM     56  C   UNL A   1      46.473  29.474  27.519  1.00  0.00     0.029 A 
ATOM     57  N   UNL A   1      48.341  30.582  26.992  1.00  0.00    -0.354 N 
ATOM     58  C   UNL A   1      52.072  28.409  26.313  1.00  0.00     0.074 A 
ATOM     59  C   UNL A   1      51.879  26.995  26.491  1.00  0.00     0.031 C 
ATOM     60  C   UNL A   1      46.173  30.785  27.511  1.00  0.00     0.029 A 
ATOM     61  C   UNL A   1      47.366  31.541  27.145  1.00  0.00     0.049 A 
ATOM     62  H   UNL A   1      49.282  30.796  26.799  1.00  0.00     0.167 HD
ATOM     63  C   UNL A   1      53.252  28.955  25.952  1.00  0.00     0.031 A 
ATOM     64  C   UNL A   1      47.435  32.875  26.972  1.00  0.00     0.031 A 
ATOM     65  C   UNL A   1      53.408  30.354  25.692  1.00  0.00     0.049 A 
ATOM     66  C   UNL A   1      48.745  33.464  26.515  1.00  0.00     0.074 A 
ATOM     67  C   UNL A   1      54.528  31.031  25.253  1.00  0.00     0.029 A 
ATOM     68  N   UNL A   1      52.390  31.286  25.825  1.00  0.00    -0.354 N 
ATOM     69  N   UNL A   1      49.884  32.854  26.278  1.00  0.00    -0.248 NA
ATOM     70  C   UNL A   1      48.772  34.911  26.274  1.00  0.00     0.031 C 
ATOM     71  C   UNL A   1      54.196  32.387  25.161  1.00  0.00     0.029 A 
ATOM     72  C   UNL A   1      52.856  32.540  25.490  1.00  0.00     0.049 A 
ATOM     73  H   UNL A   1      51.472  31.084  26.117  1.00  0.00     0.167 HD
ATOM     74  C   UNL A   1      50.759  33.841  25.839  1.00  0.00     0.074 A 
ATOM     75  C   UNL A   1      50.005  35.081  25.819  1.00  0.00     0.031 C 
ATOM     76  C   UNL A   1      52.065  33.744  25.486  1.00  0.00     0.031 A 
BRANCH  63  77
ATOM     77  C   UNL A   1      54.427  28.027  25.796  1.00  0.00    -0.014 A 
ATOM     78  C   UNL A   1      54.724  27.428  24.556  1.00  0.00     0.010 A 
ATOM     79  C   UNL A   1      55.236  27.735  26.907  1.00  0.00     0.010 A 
ATOM     80  C   UNL A   1      55.776  26.516  24.442  1.00  0.00     0.020 A 
ATOM     81  C   UNL A   1      56.312  26.851  26.788  1.00  0.00     0.020 A 
ATOM     82  C   UNL A   1      56.564  26.235  25.560  1.00  0.00     0.054 A 
BRANCH  82  83
ATOM     83  S   UNL A   1      57.946  25.074  25.377  1.00  0.00     0.124 S 
ATOM     84  O   UNL A   1      57.510  23.953  26.205  1.00  0.00    -0.237 OA
ATOM     85  O   UNL A   1      57.963  24.824  23.939  1.00  0.00    -0.237 OA
ATOM     86  O   UNL A   1      59.093  25.819  25.891  1.00  0.00    -0.744 OA
ENDBRANCH  82  83
ENDBRANCH  63  77
BRANCH  64  87
ATOM     87  C   UNL A   1      46.228  33.726  27.169  1.00  0.00    -0.014 A 
ATOM     88  C   UNL A   1      45.336  33.968  26.109  1.00  0.00     0.010 A 
ATOM     89  C   UNL A   1      45.955  34.295  28.427  1.00  0.00     0.010 A 
ATOM     90  C   UNL A   1      44.211  34.781  26.293  1.00  0.00     0.020 A 
ATOM     91  C   UNL A   1      44.818  35.086  28.623  1.00  0.00     0.020 A 
ATOM     92  C   UNL A   1      43.960  35.335  27.551  1.00  0.00     0.054 A 
BRANCH  92  93
ATOM     93  S   UNL A   1      42.474  36.353  27.781  1.00  0.00     0.124 S 
ATOM     94  O   UNL A   1      42.824  37.142  28.957  1.00  0.00    -0.237 OA
ATOM     95  O   UNL A   1      42.399  37.090  26.521  1.00  0.00    -0.237 OA
ATOM     96  O   UNL A   1      41.414  35.367  27.980  1.00  0.00    -0.744 OA
ENDBRANCH  92  93
ENDBRANCH  64  87
BRANCH  76  97
ATOM     97  C   UNL A   1      52.744  35.001  25.027  1.00  0.00    -0.014 A 
ATOM     98  C   UNL A   1      52.650  35.428  23.691  1.00  0.00     0.010 A 
ATOM     99  C   UNL A   1      53.439  35.792  25.960  1.00  0.00     0.010 A 
ATOM    100  C   UNL A   1      53.281  36.604  23.286  1.00  0.00     0.020 A 
ATOM    101  C   UNL A   1      54.043  36.985  25.565  1.00  0.00     0.020 A 
ATOM    102  C   UNL A   1      53.976  37.372  24.226  1.00  0.00     0.054 A 
BRANCH 102 103
ATOM    103  S   UNL A   1      54.769  38.906  23.679  1.00  0.00     0.124 S 
ATOM    104  O   UNL A   1      54.776  38.740  22.228  1.00  0.00    -0.237 OA
ATOM    105  O   UNL A   1      53.866  39.934  24.190  1.00  0.00    -0.237 OA
ATOM    106  O   UNL A   1      56.082  38.864  24.318  1.00  0.00    -0.744 OA
ENDBRANCH 102 103
ENDBRANCH  76  97
ENDBRANCH  50  51
ENDBRANCH  42  45
ENDBRANCH  40  41
ENDBRANCH  39  40
ENDBRANCH  38  39
ENDBRANCH  37  38
ENDBRANCH   1  37
TORSDOF 24
ENDMDL
MODEL 3
REMARK VINA RESULT:     -10.1      6.594      7.988
REMARK SMILES C=C[C@@H]1[C@@H](O)C[C@H]2[C@]3(CC[C@]4(C)[C@@H]([C@H](C)CCC=C(C)C)CC[C@]24C)C[C@]13CCC(=O)NCCCCCCNC(=O)c1ccc(-c2c3nc(c(-c4ccc(S(=O)(=O)[O-])cc4)c4ccc([nH]4)c(-c4ccc(S(=O)(=O)[O-])cc4)c4nc(c(-c5ccc(S(=O)(=O)[O-])cc5)c5ccc2[nH]5)C=C4)C=C3)cc1
REMARK SMILES IDX 34 1 33 2 32 3 30 4 31 5 29 7 28 8 27 9 3 10 4 11 6 12 8 13
REMARK SMILES IDX 26 14 7 15 9 16 24 17 10 18 11 19 23 20 25 21 13 22 12 23
REMARK SMILES IDX 22 24 2 25 1 26 5 27 14 29 15 30 16 31 17 32 18 33 19 34
REMARK SMILES IDX 20 35 21 36 35 37 36 38 37 39 38 40 39 41 40 42 41 44 42 45
REMARK SMILES IDX 43 46 101 47 44 48 100 49 45 50 46 51 47 52 94 53 48 54
REMARK SMILES IDX 99 55 93 56 95 57 49 58 98 59 92 60 91 61 50 63 80 64 61 65
REMARK SMILES IDX 79 66 62 67 65 68 78 69 96 70 63 71 64 72 77 74 97 75 66 76
REMARK SMILES IDX 51 77 52 78 60 79 53 80 59 81 54 82 55 83 56 84 57 85 58 86
REMARK SMILES IDX 81 87 82 88 90 89 83 90 89 91 84 92 85 93 86 94 87 95 88 96
REMARK SMILES IDX 67 97 68 98 76 99 69 100 75 101 70 102 71 103 72 104 73 105
REMARK SMILES IDX 74 106
REMARK H PARENT 32 6 5 28 39 43 95 62 65 73
REMARK Flexibility Score: inf
ROOT
ATOM      1  C   UNL A   1      39.929  26.019  27.452  1.00  0.00     0.021 C 
ENDROOT
BRANCH   1   2
ATOM      2  C   UNL A   1      39.006  24.449  27.756  1.00  0.00     0.116 C 
BRANCH   2   3
ATOM      3  N   UNL A   1      39.112  22.722  26.757  1.00  0.00    -0.356 N 
ATOM      4  C   UNL A   1      38.613  21.782  25.783  1.00  0.00     0.220 C 
ATOM      5  O   UNL A   1      39.211  20.690  25.752  1.00  0.00    -0.275 OA
ATOM      6  H   UNL A   1      39.921  22.290  27.113  1.00  0.00     0.163 HD
BRANCH   4   7
ATOM      7  C   UNL A   1      37.419  21.876  24.809  1.00  0.00     0.100 C 
BRANCH   7   8
ATOM      8  C   UNL A   1      36.130  22.411  25.399  1.00  0.00     0.018 C 
BRANCH   8   9
ATOM      9  C   UNL A   1      34.893  21.712  24.902  1.00  0.00    -0.014 C 
ATOM     10  C   UNL A   1      34.388  20.612  25.865  1.00  0.00     0.047 C 
ATOM     11  C   UNL A   1      33.547  21.202  27.007  1.00  0.00     0.122 C 
ATOM     12  C   UNL A   1      32.380  22.070  26.532  1.00  0.00     0.037 C 
ATOM     13  C   UNL A   1      33.973  22.709  24.141  1.00  0.00    -0.019 C 
ATOM     14  C   UNL A   1      34.557  21.454  23.499  1.00  0.00     0.016 C 
ATOM     15  C   UNL A   1      32.649  23.277  25.506  1.00  0.00     0.005 C 
ATOM     16  C   UNL A   1      34.455  24.015  22.750  1.00  0.00     0.008 C 
ATOM     17  C   UNL A   1      31.521  24.921  25.031  1.00  0.00    -0.023 C 
ATOM     18  C   UNL A   1      33.674  25.752  22.771  1.00  0.00     0.008 C 
ATOM     19  C   UNL A   1      32.338  26.315  23.982  1.00  0.00    -0.024 C 
ATOM     20  C   UNL A   1      31.144  25.629  26.341  1.00  0.00     0.008 C 
ATOM     21  C   UNL A   1      30.122  25.031  24.107  1.00  0.00     0.012 C 
ATOM     22  C   UNL A   1      32.709  27.322  25.186  1.00  0.00    -0.002 C 
ATOM     23  C   UNL A   1      31.460  27.166  23.030  1.00  0.00     0.012 C 
ATOM     24  C   UNL A   1      31.871  26.959  26.443  1.00  0.00     0.005 C 
BRANCH  10  25
ATOM     25  C   UNL A   1      33.780  19.292  25.356  1.00  0.00    -0.028 C 
ATOM     26  C   UNL A   1      32.517  18.911  25.112  1.00  0.00     0.004 C 
ENDBRANCH  10  25
BRANCH  11  27
ATOM     27  O   UNL A   1      34.351  21.892  27.961  1.00  0.00    -0.392 OA
ATOM     28  H   UNL A   1      33.779  22.394  28.563  1.00  0.00     0.210 HD
ENDBRANCH  11  27
BRANCH  22  29
ATOM     29  C   UNL A   1      33.097  28.831  25.084  1.00  0.00    -0.010 C 
ATOM     30  C   UNL A   1      34.028  29.122  26.310  1.00  0.00     0.008 C 
BRANCH  29  31
ATOM     31  C   UNL A   1      32.179  30.088  24.994  1.00  0.00     0.008 C 
BRANCH  31  32
ATOM     32  C   UNL A   1      30.653  30.143  24.992  1.00  0.00     0.027 C 
BRANCH  32  33
ATOM     33  C   UNL A   1      30.006  29.827  23.679  1.00  0.00    -0.028 C 
ATOM     34  C   UNL A   1      29.116  30.608  23.039  1.00  0.00    -0.080 C 
ATOM     35  C   UNL A   1      28.660  30.279  21.645  1.00  0.00     0.039 C 
ATOM     36  C   UNL A   1      28.518  31.854  23.633  1.00  0.00     0.039 C 
ENDBRANCH  32  33
ENDBRANCH  31  32
ENDBRANCH  29  31
ENDBRANCH  22  29
ENDBRANCH   8   9
ENDBRANCH   7   8
ENDBRANCH   4   7
ENDBRANCH   2   3
ENDBRANCH   1   2
BRANCH   1  37
ATOM     37  C   UNL A   1      40.763  26.591  26.137  1.00  0.00     0.002 C 
BRANCH  37  38
ATOM     38  C   UNL A   1      42.220  27.025  25.931  1.00  0.00     0.002 C 
BRANCH  38  39
ATOM     39  C   UNL A   1      43.062  25.983  25.247  1.00  0.00     0.021 C 
BRANCH  39  40
ATOM     40  C   UNL A   1      42.877  24.714  26.016  1.00  0.00     0.116 C 
BRANCH  40  41
ATOM     41  N   UNL A   1      44.001  23.797  25.834  1.00  0.00    -0.352 N 
ATOM     42  C   UNL A   1      45.074  23.695  26.696  1.00  0.00     0.251 C 
ATOM     43  H   UNL A   1      43.992  23.211  25.042  1.00  0.00     0.163 HD
ATOM     44  O   UNL A   1      46.062  23.032  26.464  1.00  0.00    -0.269 OA
BRANCH  42  45
ATOM     45  C   UNL A   1      44.912  24.490  27.926  1.00  0.00     0.039 A 
ATOM     46  C   UNL A   1      45.351  25.813  27.931  1.00  0.00     0.014 A 
ATOM     47  C   UNL A   1      43.962  24.020  28.838  1.00  0.00     0.014 A 
ATOM     48  C   UNL A   1      44.822  26.680  28.882  1.00  0.00     0.010 A 
ATOM     49  C   UNL A   1      43.306  24.935  29.639  1.00  0.00     0.010 A 
ATOM     50  C   UNL A   1      43.790  26.247  29.734  1.00  0.00    -0.014 A 
BRANCH  50  51
ATOM     51  C   UNL A   1      43.320  27.086  30.857  1.00  0.00     0.031 A 
ATOM     52  C   UNL A   1      44.136  27.075  32.127  1.00  0.00     0.074 A 
ATOM     53  C   UNL A   1      42.205  27.832  30.743  1.00  0.00     0.049 A 
ATOM     54  N   UNL A   1      43.938  27.727  33.241  1.00  0.00    -0.248 NA
ATOM     55  C   UNL A   1      45.300  26.165  32.179  1.00  0.00     0.031 C 
ATOM     56  C   UNL A   1      41.300  27.854  29.588  1.00  0.00     0.029 A 
ATOM     57  N   UNL A   1      41.658  28.743  31.606  1.00  0.00    -0.354 N 
ATOM     58  C   UNL A   1      44.924  27.273  34.112  1.00  0.00     0.074 A 
ATOM     59  C   UNL A   1      45.634  26.210  33.454  1.00  0.00     0.031 C 
ATOM     60  C   UNL A   1      40.354  28.788  29.788  1.00  0.00     0.029 A 
ATOM     61  C   UNL A   1      40.571  29.409  31.090  1.00  0.00     0.049 A 
ATOM     62  H   UNL A   1      42.009  28.905  32.511  1.00  0.00     0.167 HD
ATOM     63  C   UNL A   1      45.266  27.751  35.328  1.00  0.00     0.031 A 
ATOM     64  C   UNL A   1      39.861  30.431  31.607  1.00  0.00     0.031 A 
ATOM     65  C   UNL A   1      44.606  28.868  35.932  1.00  0.00     0.049 A 
ATOM     66  C   UNL A   1      40.290  30.990  32.939  1.00  0.00     0.074 A 
ATOM     67  C   UNL A   1      44.895  29.499  37.125  1.00  0.00     0.029 A 
ATOM     68  N   UNL A   1      43.533  29.537  35.362  1.00  0.00    -0.354 N 
ATOM     69  N   UNL A   1      41.272  30.599  33.719  1.00  0.00    -0.248 NA
ATOM     70  C   UNL A   1      39.537  32.142  33.447  1.00  0.00     0.031 C 
ATOM     71  C   UNL A   1      43.963  30.528  37.298  1.00  0.00     0.029 A 
ATOM     72  C   UNL A   1      43.134  30.569  36.185  1.00  0.00     0.049 A 
ATOM     73  H   UNL A   1      43.117  29.308  34.500  1.00  0.00     0.167 HD
ATOM     74  C   UNL A   1      41.270  31.472  34.800  1.00  0.00     0.074 A 
ATOM     75  C   UNL A   1      40.204  32.426  34.557  1.00  0.00     0.031 C 
ATOM     76  C   UNL A   1      42.066  31.491  35.898  1.00  0.00     0.031 A 
BRANCH  63  77
ATOM     77  C   UNL A   1      46.412  27.082  36.038  1.00  0.00    -0.014 A 
ATOM     78  C   UNL A   1      47.739  27.516  35.854  1.00  0.00     0.010 A 
ATOM     79  C   UNL A   1      46.162  25.991  36.888  1.00  0.00     0.010 A 
ATOM     80  C   UNL A   1      48.799  26.842  36.466  1.00  0.00     0.020 A 
ATOM     81  C   UNL A   1      47.216  25.337  37.532  1.00  0.00     0.020 A 
ATOM     82  C   UNL A   1      48.529  25.756  37.303  1.00  0.00     0.054 A 
BRANCH  82  83
ATOM     83  S   UNL A   1      49.919  24.921  38.114  1.00  0.00     0.124 S 
ATOM     84  O   UNL A   1      50.697  24.451  36.971  1.00  0.00    -0.237 OA
ATOM     85  O   UNL A   1      50.529  25.996  38.890  1.00  0.00    -0.237 OA
ATOM     86  O   UNL A   1      49.278  23.872  38.905  1.00  0.00    -0.744 OA
ENDBRANCH  82  83
ENDBRANCH  63  77
BRANCH  64  87
ATOM     87  C   UNL A   1      38.725  31.023  30.845  1.00  0.00    -0.014 A 
ATOM     88  C   UNL A   1      38.928  32.110  29.976  1.00  0.00     0.010 A 
ATOM     89  C   UNL A   1      37.427  30.496  30.979  1.00  0.00     0.010 A 
ATOM     90  C   UNL A   1      37.856  32.673  29.275  1.00  0.00     0.020 A 
ATOM     91  C   UNL A   1      36.356  31.039  30.259  1.00  0.00     0.020 A 
ATOM     92  C   UNL A   1      36.576  32.133  29.422  1.00  0.00     0.054 A 
BRANCH  92  93
ATOM     93  S   UNL A   1      35.205  32.853  28.472  1.00  0.00     0.124 S 
ATOM     94  O   UNL A   1      35.877  33.292  27.254  1.00  0.00    -0.237 OA
ATOM     95  O   UNL A   1      34.296  31.719  28.322  1.00  0.00    -0.237 OA
ATOM     96  O   UNL A   1      34.715  33.923  29.339  1.00  0.00    -0.744 OA
ENDBRANCH  92  93
ENDBRANCH  64  87
BRANCH  76  97
ATOM     97  C   UNL A   1      41.829  32.588  36.895  1.00  0.00    -0.014 A 
ATOM     98  C   UNL A   1      42.548  33.793  36.829  1.00  0.00     0.010 A 
ATOM     99  C   UNL A   1      40.833  32.427  37.876  1.00  0.00     0.010 A 
ATOM    100  C   UNL A   1      42.307  34.804  37.760  1.00  0.00     0.020 A 
ATOM    101  C   UNL A   1      40.567  33.448  38.787  1.00  0.00     0.020 A 
ATOM    102  C   UNL A   1      41.320  34.622  38.734  1.00  0.00     0.054 A 
BRANCH 102 103
ATOM    103  S   UNL A   1      41.012  35.958  39.918  1.00  0.00     0.124 S 
ATOM    104  O   UNL A   1      40.752  35.216  41.149  1.00  0.00    -0.237 OA
ATOM    105  O   UNL A   1      42.264  36.708  39.888  1.00  0.00    -0.237 OA
ATOM    106  O   UNL A   1      39.858  36.658  39.358  1.00  0.00    -0.744 OA
ENDBRANCH 102 103
ENDBRANCH  76  97
ENDBRANCH  50  51
ENDBRANCH  42  45
ENDBRANCH  40  41
ENDBRANCH  39  40
ENDBRANCH  38  39
ENDBRANCH  37  38
ENDBRANCH   1  37
TORSDOF 24
ENDMDL
