MODEL 1
REMARK VINA RESULT:     -11.8      0.000      0.000
REMARK SMILES O=C(NCCCCCCNC(=O)c1ccccc1/N=C/c1coc2ccccc2c1=O)c1ccc(-c2c3nc(c(-c4ccc(S(=O)(=O)[O-])cc4)c4ccc([nH]4)c(-c4ccc(S(=O)(=O)[O-])cc4)c4nc(c(-c5ccc(S(=O)(=O)[O-])cc5)c5ccc2[nH]5)C=C4)C=C3)cc1
REMARK SMILES IDX 6 1 5 2 4 3 3 4 1 5 2 6 32 8 33 9 91 10 34 11 90 12 35 13
REMARK SMILES IDX 36 14 37 15 84 16 38 17 89 18 83 19 85 20 39 21 88 22 82 23
REMARK SMILES IDX 81 24 40 26 70 27 51 28 69 29 52 30 55 31 68 32 86 33 53 34
REMARK SMILES IDX 54 35 67 37 87 38 56 39 41 40 42 41 50 42 43 43 49 44 44 45
REMARK SMILES IDX 45 46 46 47 47 48 48 49 71 50 72 51 80 52 73 53 79 54 74 55
REMARK SMILES IDX 75 56 76 57 77 58 78 59 57 60 58 61 66 62 59 63 65 64 60 65
REMARK SMILES IDX 61 66 62 67 63 68 64 69 7 70 8 71 9 72 10 73 11 74 12 76
REMARK SMILES IDX 13 77 14 78 18 79 15 80 17 81 16 82 19 83 20 84 21 85 22 86
REMARK SMILES IDX 30 87 23 88 29 89 31 90 24 91 28 92 25 93 27 94 26 95
REMARK H PARENT 3 7 85 25 55 36 10 75
REMARK Flexibility Score: inf
ROOT
ATOM      1  C   UNL A   1      40.683  22.160  27.823  1.00  0.00     0.002 C 
ENDROOT
BRANCH   1   2
ATOM      2  C   UNL A   1      42.171  22.053  27.484  1.00  0.00     0.021 C 
BRANCH   2   3
ATOM      3  C   UNL A   1      42.950  23.362  27.424  1.00  0.00     0.116 C 
BRANCH   3   4
ATOM      4  N   UNL A   1      42.684  24.138  26.225  1.00  0.00    -0.352 N 
ATOM      5  O   UNL A   1      41.921  25.828  24.959  1.00  0.00    -0.269 OA
ATOM      6  C   UNL A   1      42.156  25.400  26.088  1.00  0.00     0.251 C 
ATOM      7  H   UNL A   1      42.917  23.692  25.380  1.00  0.00     0.163 HD
BRANCH   6   8
ATOM      8  C   UNL A   1      41.839  26.245  27.269  1.00  0.00     0.039 A 
ATOM      9  C   UNL A   1      40.824  25.916  28.172  1.00  0.00     0.014 A 
ATOM     10  C   UNL A   1      42.635  27.373  27.515  1.00  0.00     0.014 A 
ATOM     11  C   UNL A   1      40.545  26.758  29.250  1.00  0.00     0.010 A 
ATOM     12  C   UNL A   1      42.387  28.190  28.625  1.00  0.00     0.010 A 
ATOM     13  C   UNL A   1      41.324  27.902  29.489  1.00  0.00    -0.014 A 
BRANCH  13  14
ATOM     14  C   UNL A   1      41.035  28.742  30.679  1.00  0.00     0.031 A 
ATOM     15  C   UNL A   1      41.948  28.743  31.872  1.00  0.00     0.074 A 
ATOM     16  C   UNL A   1      39.963  29.557  30.658  1.00  0.00     0.049 A 
ATOM     17  N   UNL A   1      41.892  29.491  32.946  1.00  0.00    -0.248 NA
ATOM     18  C   UNL A   1      43.063  27.784  31.863  1.00  0.00     0.031 C 
ATOM     19  C   UNL A   1      38.984  29.638  29.573  1.00  0.00     0.029 A 
ATOM     20  N   UNL A   1      39.544  30.503  31.559  1.00  0.00    -0.354 N 
ATOM     21  C   UNL A   1      42.943  29.078  33.753  1.00  0.00     0.074 A 
ATOM     22  C   UNL A   1      43.626  28.015  33.042  1.00  0.00     0.031 C 
ATOM     23  C   UNL A   1      38.117  30.627  29.838  1.00  0.00     0.029 A 
ATOM     24  C   UNL A   1      38.471  31.238  31.116  1.00  0.00     0.049 A 
ATOM     25  H   UNL A   1      39.970  30.641  32.435  1.00  0.00     0.167 HD
ATOM     26  C   UNL A   1      43.309  29.536  34.974  1.00  0.00     0.031 A 
ATOM     27  C   UNL A   1      37.856  32.305  31.659  1.00  0.00     0.031 A 
ATOM     28  C   UNL A   1      42.655  30.603  35.682  1.00  0.00     0.049 A 
ATOM     29  C   UNL A   1      38.334  32.855  32.968  1.00  0.00     0.074 A 
ATOM     30  C   UNL A   1      42.946  31.117  36.935  1.00  0.00     0.029 A 
ATOM     31  N   UNL A   1      41.584  31.333  35.192  1.00  0.00    -0.354 N 
ATOM     32  N   UNL A   1      39.323  32.439  33.721  1.00  0.00    -0.248 NA
ATOM     33  C   UNL A   1      37.613  34.022  33.497  1.00  0.00     0.031 C 
ATOM     34  C   UNL A   1      42.052  32.165  37.198  1.00  0.00     0.029 A 
ATOM     35  C   UNL A   1      41.211  32.303  36.107  1.00  0.00     0.049 A 
ATOM     36  H   UNL A   1      41.152  31.184  34.319  1.00  0.00     0.167 HD
ATOM     37  C   UNL A   1      39.336  33.285  34.822  1.00  0.00     0.074 A 
ATOM     38  C   UNL A   1      38.272  34.249  34.626  1.00  0.00     0.031 C 
ATOM     39  C   UNL A   1      40.151  33.253  35.904  1.00  0.00     0.031 A 
BRANCH  26  40
ATOM     40  C   UNL A   1      44.481  28.860  35.626  1.00  0.00    -0.014 A 
ATOM     41  C   UNL A   1      45.775  29.392  35.497  1.00  0.00     0.010 A 
ATOM     42  C   UNL A   1      44.286  27.687  36.374  1.00  0.00     0.010 A 
ATOM     43  C   UNL A   1      46.866  28.740  36.079  1.00  0.00     0.020 A 
ATOM     44  C   UNL A   1      45.374  27.036  36.963  1.00  0.00     0.020 A 
ATOM     45  C   UNL A   1      46.660  27.557  36.796  1.00  0.00     0.054 A 
BRANCH  45  46
ATOM     46  S   UNL A   1      48.076  26.708  37.546  1.00  0.00     0.124 S 
ATOM     47  O   UNL A   1      47.944  27.090  38.950  1.00  0.00    -0.237 OA
ATOM     48  O   UNL A   1      47.817  25.301  37.254  1.00  0.00    -0.237 OA
ATOM     49  O   UNL A   1      49.223  27.283  36.847  1.00  0.00    -0.744 OA
ENDBRANCH  45  46
ENDBRANCH  26  40
BRANCH  27  50
ATOM     50  C   UNL A   1      36.749  32.952  30.919  1.00  0.00    -0.014 A 
ATOM     51  C   UNL A   1      35.417  32.685  31.280  1.00  0.00     0.010 A 
ATOM     52  C   UNL A   1      37.019  33.884  29.903  1.00  0.00     0.010 A 
ATOM     53  C   UNL A   1      34.367  33.349  30.642  1.00  0.00     0.020 A 
ATOM     54  C   UNL A   1      35.971  34.554  29.269  1.00  0.00     0.020 A 
ATOM     55  C   UNL A   1      34.651  34.281  29.642  1.00  0.00     0.054 A 
BRANCH  55  56
ATOM     56  S   UNL A   1      33.302  35.222  28.874  1.00  0.00     0.124 S 
ATOM     57  O   UNL A   1      32.689  34.220  28.008  1.00  0.00    -0.237 OA
ATOM     58  O   UNL A   1      32.496  35.647  30.016  1.00  0.00    -0.237 OA
ATOM     59  O   UNL A   1      34.009  36.301  28.188  1.00  0.00    -0.744 OA
ENDBRANCH  55  56
ENDBRANCH  27  50
BRANCH  39  60
ATOM     60  C   UNL A   1      39.907  34.289  36.960  1.00  0.00    -0.014 A 
ATOM     61  C   UNL A   1      40.568  35.528  36.903  1.00  0.00     0.010 A 
ATOM     62  C   UNL A   1      39.010  34.029  38.011  1.00  0.00     0.010 A 
ATOM     63  C   UNL A   1      40.359  36.485  37.898  1.00  0.00     0.020 A 
ATOM     64  C   UNL A   1      38.796  34.987  39.005  1.00  0.00     0.020 A 
ATOM     65  C   UNL A   1      39.483  36.203  38.951  1.00  0.00     0.054 A 
BRANCH  65  66
ATOM     66  S   UNL A   1      39.196  37.451  40.237  1.00  0.00     0.124 S 
ATOM     67  O   UNL A   1      40.541  37.981  40.448  1.00  0.00    -0.237 OA
ATOM     68  O   UNL A   1      38.251  38.371  39.610  1.00  0.00    -0.237 OA
ATOM     69  O   UNL A   1      38.649  36.670  41.344  1.00  0.00    -0.744 OA
ENDBRANCH  65  66
ENDBRANCH  39  60
ENDBRANCH  13  14
ENDBRANCH   6   8
ENDBRANCH   3   4
ENDBRANCH   2   3
ENDBRANCH   1   2
BRANCH   1  70
ATOM     70  C   UNL A   1      39.714  22.159  26.637  1.00  0.00     0.002 C 
BRANCH  70  71
ATOM     71  C   UNL A   1      38.903  23.441  26.406  1.00  0.00     0.021 C 
BRANCH  71  72
ATOM     72  C   UNL A   1      37.478  23.268  25.879  1.00  0.00     0.116 C 
BRANCH  72  73
ATOM     73  N   UNL A   1      37.394  23.245  24.429  1.00  0.00    -0.352 N 
ATOM     74  C   UNL A   1      36.367  22.829  23.624  1.00  0.00     0.253 C 
ATOM     75  H   UNL A   1      38.193  23.576  23.955  1.00  0.00     0.163 HD
ATOM     76  O   UNL A   1      36.456  22.958  22.403  1.00  0.00    -0.269 OA
BRANCH  74  77
ATOM     77  C   UNL A   1      35.165  22.168  24.170  1.00  0.00     0.065 A 
ATOM     78  C   UNL A   1      35.359  20.915  24.778  1.00  0.00     0.016 A 
ATOM     79  C   UNL A   1      33.872  22.685  24.044  1.00  0.00     0.076 A 
ATOM     80  C   UNL A   1      34.280  20.201  25.302  1.00  0.00     0.001 A 
ATOM     81  C   UNL A   1      32.799  21.957  24.588  1.00  0.00     0.029 A 
ATOM     82  C   UNL A   1      32.996  20.726  25.210  1.00  0.00     0.002 A 
BRANCH  79  83
ATOM     83  N   UNL A   1      33.544  23.935  23.516  1.00  0.00    -0.255 NA
ATOM     84  C   UNL A   1      32.608  24.042  22.629  1.00  0.00     0.127 C 
BRANCH  84  85
ATOM     85  C   UNL A   1      32.079  25.397  22.387  1.00  0.00     0.076 A 
ATOM     86  C   UNL A   1      30.852  25.617  22.882  1.00  0.00     0.209 A 
ATOM     87  C   UNL A   1      32.979  26.567  22.313  1.00  0.00     0.201 A 
ATOM     88  O   UNL A   1      30.437  26.838  23.394  1.00  0.00    -0.463 OA
ATOM     89  C   UNL A   1      32.746  27.549  23.380  1.00  0.00     0.065 A 
ATOM     90  O   UNL A   1      33.876  26.671  21.491  1.00  0.00    -0.288 OA
ATOM     91  C   UNL A   1      31.455  27.615  23.910  1.00  0.00     0.137 A 
ATOM     92  C   UNL A   1      33.795  28.283  23.932  1.00  0.00     0.016 A 
ATOM     93  C   UNL A   1      31.204  28.426  25.012  1.00  0.00     0.048 A 
ATOM     94  C   UNL A   1      33.548  29.073  25.054  1.00  0.00     0.001 A 
ATOM     95  C   UNL A   1      32.257  29.141  25.593  1.00  0.00     0.004 A 
ENDBRANCH  84  85
ENDBRANCH  79  83
ENDBRANCH  74  77
ENDBRANCH  72  73
ENDBRANCH  71  72
ENDBRANCH  70  71
ENDBRANCH   1  70
TORSDOF 18
ENDMDL
MODEL 2
REMARK VINA RESULT:     -11.7      6.019     13.305
REMARK SMILES O=C(NCCCCCCNC(=O)c1ccccc1/N=C/c1coc2ccccc2c1=O)c1ccc(-c2c3nc(c(-c4ccc(S(=O)(=O)[O-])cc4)c4ccc([nH]4)c(-c4ccc(S(=O)(=O)[O-])cc4)c4nc(c(-c5ccc(S(=O)(=O)[O-])cc5)c5ccc2[nH]5)C=C4)C=C3)cc1
REMARK SMILES IDX 6 1 5 2 4 3 3 4 1 5 2 6 32 8 33 9 91 10 34 11 90 12 35 13
REMARK SMILES IDX 36 14 37 15 84 16 38 17 89 18 83 19 85 20 39 21 88 22 82 23
REMARK SMILES IDX 81 24 40 26 70 27 51 28 69 29 52 30 55 31 68 32 86 33 53 34
REMARK SMILES IDX 54 35 67 37 87 38 56 39 41 40 42 41 50 42 43 43 49 44 44 45
REMARK SMILES IDX 45 46 46 47 47 48 48 49 71 50 72 51 80 52 73 53 79 54 74 55
REMARK SMILES IDX 75 56 76 57 77 58 78 59 57 60 58 61 66 62 59 63 65 64 60 65
REMARK SMILES IDX 61 66 62 67 63 68 64 69 7 70 8 71 9 72 10 73 11 74 12 76
REMARK SMILES IDX 13 77 14 78 18 79 15 80 17 81 16 82 19 83 20 84 21 85 22 86
REMARK SMILES IDX 30 87 23 88 29 89 31 90 24 91 28 92 25 93 27 94 26 95
REMARK H PARENT 3 7 85 25 55 36 10 75
REMARK Flexibility Score: inf
ROOT
ATOM      1  C   UNL A   1      36.149  33.313  28.974  1.00  0.00     0.002 C 
ENDROOT
BRANCH   1   2
ATOM      2  C   UNL A   1      35.370  32.313  28.117  1.00  0.00     0.021 C 
BRANCH   2   3
ATOM      3  C   UNL A   1      35.597  30.836  28.420  1.00  0.00     0.116 C 
BRANCH   3   4
ATOM      4  N   UNL A   1      35.562  30.526  29.839  1.00  0.00    -0.352 N 
ATOM      5  O   UNL A   1      36.243  29.698  31.811  1.00  0.00    -0.269 OA
ATOM      6  C   UNL A   1      36.526  29.967  30.644  1.00  0.00     0.251 C 
ATOM      7  H   UNL A   1      34.720  30.751  30.294  1.00  0.00     0.163 HD
BRANCH   6   8
ATOM      8  C   UNL A   1      37.887  29.657  30.133  1.00  0.00     0.039 A 
ATOM      9  C   UNL A   1      38.929  29.263  30.975  1.00  0.00     0.014 A 
ATOM     10  C   UNL A   1      38.105  29.700  28.748  1.00  0.00     0.014 A 
ATOM     11  C   UNL A   1      40.198  29.013  30.450  1.00  0.00     0.010 A 
ATOM     12  C   UNL A   1      39.364  29.399  28.216  1.00  0.00     0.010 A 
ATOM     13  C   UNL A   1      40.429  29.075  29.067  1.00  0.00    -0.014 A 
BRANCH  13  14
ATOM     14  C   UNL A   1      41.777  28.745  28.539  1.00  0.00     0.031 A 
ATOM     15  C   UNL A   1      42.908  29.732  28.620  1.00  0.00     0.074 A 
ATOM     16  C   UNL A   1      41.997  27.518  28.031  1.00  0.00     0.049 A 
ATOM     17  N   UNL A   1      44.166  29.565  28.297  1.00  0.00    -0.248 NA
ATOM     18  C   UNL A   1      42.588  31.076  29.122  1.00  0.00     0.031 C 
ATOM     19  C   UNL A   1      40.983  26.474  27.874  1.00  0.00     0.029 A 
ATOM     20  N   UNL A   1      43.156  26.929  27.593  1.00  0.00    -0.354 N 
ATOM     21  C   UNL A   1      44.785  30.785  28.530  1.00  0.00     0.074 A 
ATOM     22  C   UNL A   1      43.763  31.685  29.027  1.00  0.00     0.031 C 
ATOM     23  C   UNL A   1      41.575  25.351  27.439  1.00  0.00     0.029 A 
ATOM     24  C   UNL A   1      43.004  25.601  27.274  1.00  0.00     0.049 A 
ATOM     25  H   UNL A   1      44.011  27.409  27.516  1.00  0.00     0.167 HD
ATOM     26  C   UNL A   1      46.082  31.130  28.347  1.00  0.00     0.031 A 
ATOM     27  C   UNL A   1      43.915  24.676  26.917  1.00  0.00     0.031 A 
ATOM     28  C   UNL A   1      47.110  30.242  27.874  1.00  0.00     0.049 A 
ATOM     29  C   UNL A   1      45.360  25.054  26.809  1.00  0.00     0.074 A 
ATOM     30  C   UNL A   1      48.447  30.514  27.638  1.00  0.00     0.029 A 
ATOM     31  N   UNL A   1      46.918  28.902  27.579  1.00  0.00    -0.354 N 
ATOM     32  N   UNL A   1      45.921  26.220  27.021  1.00  0.00    -0.248 NA
ATOM     33  C   UNL A   1      46.294  23.990  26.415  1.00  0.00     0.031 C 
ATOM     34  C   UNL A   1      49.066  29.333  27.205  1.00  0.00     0.029 A 
ATOM     35  C   UNL A   1      48.113  28.328  27.178  1.00  0.00     0.049 A 
ATOM     36  H   UNL A   1      46.059  28.427  27.646  1.00  0.00     0.167 HD
ATOM     37  C   UNL A   1      47.274  26.034  26.774  1.00  0.00     0.074 A 
ATOM     38  C   UNL A   1      47.451  24.640  26.418  1.00  0.00     0.031 C 
ATOM     39  C   UNL A   1      48.277  26.944  26.825  1.00  0.00     0.031 A 
BRANCH  26  40
ATOM     40  C   UNL A   1      46.453  32.552  28.655  1.00  0.00    -0.014 A 
ATOM     41  C   UNL A   1      46.890  32.914  29.940  1.00  0.00     0.010 A 
ATOM     42  C   UNL A   1      46.366  33.532  27.652  1.00  0.00     0.010 A 
ATOM     43  C   UNL A   1      47.202  34.245  30.229  1.00  0.00     0.020 A 
ATOM     44  C   UNL A   1      46.684  34.863  27.936  1.00  0.00     0.020 A 
ATOM     45  C   UNL A   1      47.083  35.214  29.229  1.00  0.00     0.054 A 
BRANCH  45  46
ATOM     46  S   UNL A   1      47.483  36.943  29.606  1.00  0.00     0.124 S 
ATOM     47  O   UNL A   1      46.173  37.581  29.505  1.00  0.00    -0.237 OA
ATOM     48  O   UNL A   1      48.042  36.871  30.953  1.00  0.00    -0.237 OA
ATOM     49  O   UNL A   1      48.437  37.303  28.560  1.00  0.00    -0.744 OA
ENDBRANCH  45  46
ENDBRANCH  26  40
BRANCH  27  50
ATOM     50  C   UNL A   1      43.473  23.280  26.694  1.00  0.00    -0.014 A 
ATOM     51  C   UNL A   1      43.867  22.601  25.528  1.00  0.00     0.010 A 
ATOM     52  C   UNL A   1      42.722  22.605  27.670  1.00  0.00     0.010 A 
ATOM     53  C   UNL A   1      43.524  21.260  25.343  1.00  0.00     0.020 A 
ATOM     54  C   UNL A   1      42.383  21.262  27.490  1.00  0.00     0.020 A 
ATOM     55  C   UNL A   1      42.786  20.599  26.327  1.00  0.00     0.054 A 
BRANCH  55  56
ATOM     56  S   UNL A   1      42.417  18.830  26.145  1.00  0.00     0.124 S 
ATOM     57  O   UNL A   1      43.351  18.433  25.097  1.00  0.00    -0.237 OA
ATOM     58  O   UNL A   1      42.694  18.291  27.474  1.00  0.00    -0.237 OA
ATOM     59  O   UNL A   1      41.006  18.831  25.766  1.00  0.00    -0.744 OA
ENDBRANCH  55  56
ENDBRANCH  27  50
BRANCH  39  60
ATOM     60  C   UNL A   1      49.649  26.453  26.474  1.00  0.00    -0.014 A 
ATOM     61  C   UNL A   1      50.502  25.960  27.477  1.00  0.00     0.010 A 
ATOM     62  C   UNL A   1      50.089  26.476  25.139  1.00  0.00     0.010 A 
ATOM     63  C   UNL A   1      51.790  25.523  27.155  1.00  0.00     0.020 A 
ATOM     64  C   UNL A   1      51.374  26.035  24.815  1.00  0.00     0.020 A 
ATOM     65  C   UNL A   1      52.222  25.575  25.826  1.00  0.00     0.054 A 
BRANCH  65  66
ATOM     66  S   UNL A   1      53.888  24.993  25.403  1.00  0.00     0.124 S 
ATOM     67  O   UNL A   1      54.539  24.963  26.710  1.00  0.00    -0.237 OA
ATOM     68  O   UNL A   1      53.644  23.688  24.794  1.00  0.00    -0.237 OA
ATOM     69  O   UNL A   1      54.376  26.018  24.483  1.00  0.00    -0.744 OA
ENDBRANCH  65  66
ENDBRANCH  39  60
ENDBRANCH  13  14
ENDBRANCH   6   8
ENDBRANCH   3   4
ENDBRANCH   2   3
ENDBRANCH   1   2
BRANCH   1  70
ATOM     70  C   UNL A   1      37.668  33.335  28.779  1.00  0.00     0.002 C 
BRANCH  70  71
ATOM     71  C   UNL A   1      38.471  34.248  29.715  1.00  0.00     0.021 C 
BRANCH  71  72
ATOM     72  C   UNL A   1      39.639  33.607  30.467  1.00  0.00     0.116 C 
BRANCH  72  73
ATOM     73  N   UNL A   1      40.160  34.435  31.541  1.00  0.00    -0.352 N 
ATOM     74  C   UNL A   1      40.583  34.070  32.793  1.00  0.00     0.253 C 
ATOM     75  H   UNL A   1      40.216  35.398  31.342  1.00  0.00     0.163 HD
ATOM     76  O   UNL A   1      41.067  34.916  33.545  1.00  0.00    -0.269 OA
BRANCH  74  77
ATOM     77  C   UNL A   1      40.423  32.694  33.300  1.00  0.00     0.065 A 
ATOM     78  C   UNL A   1      41.554  31.861  33.226  1.00  0.00     0.016 A 
ATOM     79  C   UNL A   1      39.210  32.176  33.766  1.00  0.00     0.076 A 
ATOM     80  C   UNL A   1      41.494  30.535  33.659  1.00  0.00     0.001 A 
ATOM     81  C   UNL A   1      39.172  30.842  34.208  1.00  0.00     0.029 A 
ATOM     82  C   UNL A   1      40.300  30.025  34.155  1.00  0.00     0.002 A 
BRANCH  79  83
ATOM     83  N   UNL A   1      38.031  32.901  33.944  1.00  0.00    -0.255 NA
ATOM     84  C   UNL A   1      37.126  32.912  33.019  1.00  0.00     0.127 C 
BRANCH  84  85
ATOM     85  C   UNL A   1      35.787  33.388  33.409  1.00  0.00     0.076 A 
ATOM     86  C   UNL A   1      35.784  34.361  34.333  1.00  0.00     0.209 A 
ATOM     87  C   UNL A   1      34.666  33.393  32.445  1.00  0.00     0.201 A 
ATOM     88  O   UNL A   1      34.853  35.389  34.365  1.00  0.00    -0.463 OA
ATOM     89  C   UNL A   1      34.165  34.739  32.142  1.00  0.00     0.065 A 
ATOM     90  O   UNL A   1      34.248  32.383  31.899  1.00  0.00    -0.288 OA
ATOM     91  C   UNL A   1      34.319  35.711  33.133  1.00  0.00     0.137 A 
ATOM     92  C   UNL A   1      33.683  35.065  30.875  1.00  0.00     0.016 A 
ATOM     93  C   UNL A   1      33.989  37.035  32.857  1.00  0.00     0.048 A 
ATOM     94  C   UNL A   1      33.380  36.396  30.591  1.00  0.00     0.001 A 
ATOM     95  C   UNL A   1      33.535  37.377  31.578  1.00  0.00     0.004 A 
ENDBRANCH  84  85
ENDBRANCH  79  83
ENDBRANCH  74  77
ENDBRANCH  72  73
ENDBRANCH  71  72
ENDBRANCH  70  71
ENDBRANCH   1  70
TORSDOF 18
ENDMDL
MODEL 3
REMARK VINA RESULT:     -11.7      6.026     11.872
REMARK SMILES O=C(NCCCCCCNC(=O)c1ccccc1/N=C/c1coc2ccccc2c1=O)c1ccc(-c2c3nc(c(-c4ccc(S(=O)(=O)[O-])cc4)c4ccc([nH]4)c(-c4ccc(S(=O)(=O)[O-])cc4)c4nc(c(-c5ccc(S(=O)(=O)[O-])cc5)c5ccc2[nH]5)C=C4)C=C3)cc1
REMARK SMILES IDX 6 1 5 2 4 3 3 4 1 5 2 6 32 8 33 9 91 10 34 11 90 12 35 13
REMARK SMILES IDX 36 14 37 15 84 16 38 17 89 18 83 19 85 20 39 21 88 22 82 23
REMARK SMILES IDX 81 24 40 26 70 27 51 28 69 29 52 30 55 31 68 32 86 33 53 34
REMARK SMILES IDX 54 35 67 37 87 38 56 39 41 40 42 41 50 42 43 43 49 44 44 45
REMARK SMILES IDX 45 46 46 47 47 48 48 49 71 50 72 51 80 52 73 53 79 54 74 55
REMARK SMILES IDX 75 56 76 57 77 58 78 59 57 60 58 61 66 62 59 63 65 64 60 65
REMARK SMILES IDX 61 66 62 67 63 68 64 69 7 70 8 71 9 72 10 73 11 74 12 76
REMARK SMILES IDX 13 77 14 78 18 79 15 80 17 81 16 82 19 83 20 84 21 85 22 86
REMARK SMILES IDX 30 87 23 88 29 89 31 90 24 91 28 92 25 93 27 94 26 95
REMARK H PARENT 3 7 85 25 55 36 10 75
REMARK Flexibility Score: inf
ROOT
ATOM      1  C   UNL A   1      34.246  31.588  27.990  1.00  0.00     0.002 C 
ENDROOT
BRANCH   1   2
ATOM      2  C   UNL A   1      35.547  32.391  28.021  1.00  0.00     0.021 C 
BRANCH   2   3
ATOM      3  C   UNL A   1      36.164  32.635  29.394  1.00  0.00     0.116 C 
BRANCH   3   4
ATOM      4  N   UNL A   1      35.806  31.625  30.374  1.00  0.00    -0.352 N 
ATOM      5  O   UNL A   1      35.929  29.708  31.536  1.00  0.00    -0.269 OA
ATOM      6  C   UNL A   1      36.471  30.481  30.747  1.00  0.00     0.251 C 
ATOM      7  H   UNL A   1      34.957  31.783  30.845  1.00  0.00     0.163 HD
BRANCH   6   8
ATOM      8  C   UNL A   1      37.812  30.145  30.201  1.00  0.00     0.039 A 
ATOM      9  C   UNL A   1      38.925  29.948  31.023  1.00  0.00     0.014 A 
ATOM     10  C   UNL A   1      37.940  29.955  28.817  1.00  0.00     0.014 A 
ATOM     11  C   UNL A   1      40.170  29.663  30.460  1.00  0.00     0.010 A 
ATOM     12  C   UNL A   1      39.179  29.620  28.258  1.00  0.00     0.010 A 
ATOM     13  C   UNL A   1      40.310  29.494  29.073  1.00  0.00    -0.014 A 
BRANCH  13  14
ATOM     14  C   UNL A   1      41.639  29.134  28.516  1.00  0.00     0.031 A 
ATOM     15  C   UNL A   1      42.781  30.111  28.534  1.00  0.00     0.074 A 
ATOM     16  C   UNL A   1      41.832  27.890  28.038  1.00  0.00     0.049 A 
ATOM     17  N   UNL A   1      44.027  29.921  28.179  1.00  0.00    -0.248 NA
ATOM     18  C   UNL A   1      42.490  31.473  29.006  1.00  0.00     0.031 C 
ATOM     19  C   UNL A   1      40.803  26.853  27.941  1.00  0.00     0.029 A 
ATOM     20  N   UNL A   1      42.971  27.277  27.583  1.00  0.00    -0.354 N 
ATOM     21  C   UNL A   1      44.665  31.141  28.358  1.00  0.00     0.074 A 
ATOM     22  C   UNL A   1      43.667  32.066  28.859  1.00  0.00     0.031 C 
ATOM     23  C   UNL A   1      41.371  25.712  27.522  1.00  0.00     0.029 A 
ATOM     24  C   UNL A   1      42.797  25.942  27.307  1.00  0.00     0.049 A 
ATOM     25  H   UNL A   1      43.828  27.745  27.466  1.00  0.00     0.167 HD
ATOM     26  C   UNL A   1      45.959  31.466  28.126  1.00  0.00     0.031 A 
ATOM     27  C   UNL A   1      43.687  24.997  26.951  1.00  0.00     0.031 A 
ATOM     28  C   UNL A   1      46.963  30.555  27.650  1.00  0.00     0.049 A 
ATOM     29  C   UNL A   1      45.132  25.357  26.789  1.00  0.00     0.074 A 
ATOM     30  C   UNL A   1      48.296  30.805  27.366  1.00  0.00     0.029 A 
ATOM     31  N   UNL A   1      46.750  29.208  27.399  1.00  0.00    -0.354 N 
ATOM     32  N   UNL A   1      45.710  26.522  26.950  1.00  0.00    -0.248 NA
ATOM     33  C   UNL A   1      46.044  24.272  26.399  1.00  0.00     0.031 C 
ATOM     34  C   UNL A   1      48.890  29.605  26.950  1.00  0.00     0.029 A 
ATOM     35  C   UNL A   1      47.927  28.610  26.981  1.00  0.00     0.049 A 
ATOM     36  H   UNL A   1      45.888  28.745  27.506  1.00  0.00     0.167 HD
ATOM     37  C   UNL A   1      47.053  26.314  26.668  1.00  0.00     0.074 A 
ATOM     38  C   UNL A   1      47.206  24.909  26.349  1.00  0.00     0.031 C 
ATOM     39  C   UNL A   1      48.066  27.215  26.663  1.00  0.00     0.031 A 
BRANCH  26  40
ATOM     40  C   UNL A   1      46.353  32.893  28.381  1.00  0.00    -0.014 A 
ATOM     41  C   UNL A   1      46.842  33.285  29.639  1.00  0.00     0.010 A 
ATOM     42  C   UNL A   1      46.235  33.847  27.357  1.00  0.00     0.010 A 
ATOM     43  C   UNL A   1      47.176  34.620  29.880  1.00  0.00     0.020 A 
ATOM     44  C   UNL A   1      46.574  35.182  27.592  1.00  0.00     0.020 A 
ATOM     45  C   UNL A   1      47.025  35.563  28.859  1.00  0.00     0.054 A 
BRANCH  45  46
ATOM     46  S   UNL A   1      47.454  37.298  29.173  1.00  0.00     0.124 S 
ATOM     47  O   UNL A   1      46.883  37.963  28.005  1.00  0.00    -0.237 OA
ATOM     48  O   UNL A   1      46.790  37.582  30.442  1.00  0.00    -0.237 OA
ATOM     49  O   UNL A   1      48.914  37.279  29.232  1.00  0.00    -0.744 OA
ENDBRANCH  45  46
ENDBRANCH  26  40
BRANCH  27  50
ATOM     50  C   UNL A   1      43.225  23.600  26.782  1.00  0.00    -0.014 A 
ATOM     51  C   UNL A   1      43.051  23.074  25.490  1.00  0.00     0.010 A 
ATOM     52  C   UNL A   1      43.026  22.774  27.900  1.00  0.00     0.010 A 
ATOM     53  C   UNL A   1      42.693  21.735  25.317  1.00  0.00     0.020 A 
ATOM     54  C   UNL A   1      42.675  21.434  27.730  1.00  0.00     0.020 A 
ATOM     55  C   UNL A   1      42.509  20.923  26.438  1.00  0.00     0.054 A 
BRANCH  55  56
ATOM     56  S   UNL A   1      42.140  19.158  26.225  1.00  0.00     0.124 S 
ATOM     57  O   UNL A   1      43.076  18.779  25.172  1.00  0.00    -0.237 OA
ATOM     58  O   UNL A   1      42.414  18.597  27.546  1.00  0.00    -0.237 OA
ATOM     59  O   UNL A   1      40.729  19.166  25.844  1.00  0.00    -0.744 OA
ENDBRANCH  55  56
ENDBRANCH  27  50
BRANCH  39  60
ATOM     60  C   UNL A   1      49.423  26.699  26.286  1.00  0.00    -0.014 A 
ATOM     61  C   UNL A   1      50.216  26.033  27.237  1.00  0.00     0.010 A 
ATOM     62  C   UNL A   1      49.907  26.873  24.979  1.00  0.00     0.010 A 
ATOM     63  C   UNL A   1      51.489  25.572  26.894  1.00  0.00     0.020 A 
ATOM     64  C   UNL A   1      51.178  26.408  24.632  1.00  0.00     0.020 A 
ATOM     65  C   UNL A   1      51.967  25.774  25.595  1.00  0.00     0.054 A 
BRANCH  65  66
ATOM     66  S   UNL A   1      53.614  25.161  25.142  1.00  0.00     0.124 S 
ATOM     67  O   UNL A   1      53.662  25.452  23.712  1.00  0.00    -0.237 OA
ATOM     68  O   UNL A   1      54.511  25.959  25.974  1.00  0.00    -0.237 OA
ATOM     69  O   UNL A   1      53.551  23.744  25.491  1.00  0.00    -0.744 OA
ENDBRANCH  65  66
ENDBRANCH  39  60
ENDBRANCH  13  14
ENDBRANCH   6   8
ENDBRANCH   3   4
ENDBRANCH   2   3
ENDBRANCH   1   2
BRANCH   1  70
ATOM     70  C   UNL A   1      34.341  30.160  27.445  1.00  0.00     0.002 C 
BRANCH  70  71
ATOM     71  C   UNL A   1      33.032  29.508  26.981  1.00  0.00     0.021 C 
BRANCH  71  72
ATOM     72  C   UNL A   1      32.404  30.062  25.702  1.00  0.00     0.116 C 
BRANCH  72  73
ATOM     73  N   UNL A   1      33.075  29.623  24.490  1.00  0.00    -0.352 N 
ATOM     74  C   UNL A   1      32.561  28.974  23.398  1.00  0.00     0.253 C 
ATOM     75  H   UNL A   1      34.040  29.818  24.448  1.00  0.00     0.163 HD
ATOM     76  O   UNL A   1      33.282  28.749  22.425  1.00  0.00    -0.269 OA
BRANCH  74  77
ATOM     77  C   UNL A   1      31.172  28.476  23.368  1.00  0.00     0.065 A 
ATOM     78  C   UNL A   1      30.191  29.377  22.915  1.00  0.00     0.016 A 
ATOM     79  C   UNL A   1      30.792  27.211  23.828  1.00  0.00     0.076 A 
ATOM     80  C   UNL A   1      28.846  29.006  22.875  1.00  0.00     0.001 A 
ATOM     81  C   UNL A   1      29.434  26.852  23.769  1.00  0.00     0.029 A 
ATOM     82  C   UNL A   1      28.467  27.737  23.299  1.00  0.00     0.002 A 
BRANCH  79  83
ATOM     83  N   UNL A   1      31.662  26.204  24.250  1.00  0.00    -0.255 NA
ATOM     84  C   UNL A   1      31.741  25.093  23.592  1.00  0.00     0.127 C 
BRANCH  84  85
ATOM     85  C   UNL A   1      32.910  24.240  23.872  1.00  0.00     0.076 A 
ATOM     86  C   UNL A   1      33.225  24.128  25.171  1.00  0.00     0.209 A 
ATOM     87  C   UNL A   1      33.233  23.080  23.015  1.00  0.00     0.201 A 
ATOM     88  O   UNL A   1      33.742  22.974  25.741  1.00  0.00    -0.463 OA
ATOM     89  C   UNL A   1      33.148  21.794  23.719  1.00  0.00     0.065 A 
ATOM     90  O   UNL A   1      33.475  23.176  21.821  1.00  0.00    -0.288 OA
ATOM     91  C   UNL A   1      33.379  21.808  25.096  1.00  0.00     0.137 A 
ATOM     92  C   UNL A   1      32.723  20.638  23.066  1.00  0.00     0.016 A 
ATOM     93  C   UNL A   1      33.180  20.649  25.840  1.00  0.00     0.048 A 
ATOM     94  C   UNL A   1      32.496  19.485  23.817  1.00  0.00     0.001 A 
ATOM     95  C   UNL A   1      32.722  19.492  25.199  1.00  0.00     0.004 A 
ENDBRANCH  84  85
ENDBRANCH  79  83
ENDBRANCH  74  77
ENDBRANCH  72  73
ENDBRANCH  71  72
ENDBRANCH  70  71
ENDBRANCH   1  70
TORSDOF 18
ENDMDL
