MODEL 1
REMARK VINA RESULT:      -8.0      0.000      0.000
REMARK SMILES CN1C=C/C(=C\C=C/C=N\c2ccc(C(=O)NCCCCCCNC(=O)c3ccc(-c4c5nc(c(-c6ccc(S(=O)(=O)[O-])cc6)c6ccc([nH]6)c(-c6ccc(S(=O)(=O)[O-])cc6)c6nc(c(-c7ccc(S(=O)(=O)[O-])cc7)c7ccc4[nH]7)C=C6)C=C5)cc3)cc2)c2ccccc21
REMARK SMILES IDX 20 1 19 2 18 3 17 4 15 5 16 6 14 8 11 9 12 10 88 11 13 12
REMARK SMILES IDX 87 13 10 14 9 15 8 16 7 17 6 18 1 19 2 20 3 21 94 22 4 23
REMARK SMILES IDX 89 24 93 25 5 26 90 27 92 28 91 29 21 30 22 31 23 32 24 33
REMARK SMILES IDX 25 34 26 36 27 37 28 38 86 39 29 40 85 41 30 42 31 43 32 44
REMARK SMILES IDX 79 45 33 46 84 47 78 48 80 49 34 50 83 51 77 52 76 53 35 55
REMARK SMILES IDX 65 56 46 57 64 58 47 59 50 60 63 61 81 62 48 63 49 64 62 66
REMARK SMILES IDX 82 67 51 68 36 69 37 70 45 71 38 72 44 73 39 74 40 75 41 76
REMARK SMILES IDX 42 77 43 78 66 79 67 80 75 81 68 82 74 83 69 84 70 85 71 86
REMARK SMILES IDX 72 87 73 88 52 89 53 90 61 91 54 92 60 93 55 94 56 95 57 96
REMARK SMILES IDX 58 97 59 98
REMARK H PARENT 17 7 24 35 80 54 50 65
REMARK Flexibility Score: inf
ROOT
ATOM      1  C   UNL A   1      32.883  35.836  30.017  1.00  0.00     0.002 C 
ENDROOT
BRANCH   1   2
ATOM      2  C   UNL A   1      33.887  36.047  31.153  1.00  0.00     0.021 C 
BRANCH   2   3
ATOM      3  C   UNL A   1      33.596  35.355  32.481  1.00  0.00     0.116 C 
BRANCH   3   4
ATOM      4  N   UNL A   1      33.775  33.917  32.453  1.00  0.00    -0.352 N 
ATOM      5  C   UNL A   1      34.906  33.146  32.571  1.00  0.00     0.251 C 
ATOM      6  O   UNL A   1      34.782  31.923  32.504  1.00  0.00    -0.269 OA
ATOM      7  H   UNL A   1      32.944  33.405  32.327  1.00  0.00     0.163 HD
BRANCH   5   8
ATOM      8  C   UNL A   1      36.270  33.732  32.698  1.00  0.00     0.039 A 
ATOM      9  C   UNL A   1      38.928  34.576  33.105  1.00  0.00     0.063 A 
ATOM     10  C   UNL A   1      38.091  34.326  34.194  1.00  0.00     0.029 A 
ATOM     11  C   UNL A   1      38.379  34.545  31.822  1.00  0.00     0.029 A 
ATOM     12  C   UNL A   1      36.784  33.874  33.994  1.00  0.00     0.016 A 
ATOM     13  C   UNL A   1      37.049  34.157  31.619  1.00  0.00     0.016 A 
BRANCH   9  14
ATOM     14  N   UNL A   1      40.280  34.907  33.253  1.00  0.00    -0.257 NA
ATOM     15  C   UNL A   1      41.129  34.745  32.286  1.00  0.00     0.111 C 
BRANCH  15  16
ATOM     16  C   UNL A   1      40.912  34.216  30.910  1.00  0.00     0.020 C 
ATOM     17  C   UNL A   1      41.637  33.255  30.317  1.00  0.00     0.002 C 
BRANCH  17  18
ATOM     18  C   UNL A   1      42.842  32.624  30.822  1.00  0.00     0.009 C 
ATOM     19  C   UNL A   1      45.787  28.470  28.334  1.00  0.00     0.149 C 
ATOM     20  N   UNL A   1      45.013  29.497  29.027  1.00  0.00    -0.351 N 
ATOM     21  C   UNL A   1      43.756  29.875  28.592  1.00  0.00     0.086 C 
ATOM     22  C   UNL A   1      45.572  30.110  30.186  1.00  0.00     0.048 A 
ATOM     23  C   UNL A   1      43.007  30.838  29.143  1.00  0.00     0.026 C 
ATOM     24  C   UNL A   1      44.847  31.136  30.871  1.00  0.00     0.005 A 
ATOM     25  C   UNL A   1      46.833  29.733  30.694  1.00  0.00     0.027 A 
ATOM     26  C   UNL A   1      43.519  31.578  30.294  1.00  0.00    -0.015 C 
ATOM     27  C   UNL A   1      45.411  31.706  32.031  1.00  0.00     0.011 A 
ATOM     28  C   UNL A   1      47.373  30.328  31.834  1.00  0.00     0.002 A 
ATOM     29  C   UNL A   1      46.662  31.310  32.504  1.00  0.00     0.001 A 
ENDBRANCH  17  18
ENDBRANCH  15  16
ENDBRANCH   9  14
ENDBRANCH   5   8
ENDBRANCH   3   4
ENDBRANCH   2   3
ENDBRANCH   1   2
BRANCH   1  30
ATOM     30  C   UNL A   1      33.440  35.377  28.667  1.00  0.00     0.002 C 
BRANCH  30  31
ATOM     31  C   UNL A   1      34.613  34.400  28.703  1.00  0.00     0.021 C 
BRANCH  31  32
ATOM     32  C   UNL A   1      34.311  33.006  29.235  1.00  0.00     0.116 C 
BRANCH  32  33
ATOM     33  N   UNL A   1      34.061  32.026  28.194  1.00  0.00    -0.352 N 
ATOM     34  C   UNL A   1      34.817  30.934  27.825  1.00  0.00     0.251 C 
ATOM     35  H   UNL A   1      33.232  32.159  27.679  1.00  0.00     0.163 HD
ATOM     36  O   UNL A   1      34.495  30.262  26.855  1.00  0.00    -0.269 OA
BRANCH  34  37
ATOM     37  C   UNL A   1      36.050  30.609  28.583  1.00  0.00     0.039 A 
ATOM     38  C   UNL A   1      37.253  31.265  28.315  1.00  0.00     0.014 A 
ATOM     39  C   UNL A   1      36.001  29.607  29.556  1.00  0.00     0.014 A 
ATOM     40  C   UNL A   1      38.433  30.806  28.895  1.00  0.00     0.010 A 
ATOM     41  C   UNL A   1      37.175  29.205  30.200  1.00  0.00     0.010 A 
ATOM     42  C   UNL A   1      38.409  29.769  29.842  1.00  0.00    -0.014 A 
BRANCH  42  43
ATOM     43  C   UNL A   1      39.680  29.306  30.459  1.00  0.00     0.031 A 
ATOM     44  C   UNL A   1      40.491  28.205  29.828  1.00  0.00     0.074 A 
ATOM     45  C   UNL A   1      40.126  29.915  31.576  1.00  0.00     0.049 A 
ATOM     46  N   UNL A   1      41.625  27.691  30.230  1.00  0.00    -0.248 NA
ATOM     47  C   UNL A   1      39.971  27.605  28.588  1.00  0.00     0.031 C 
ATOM     48  C   UNL A   1      39.437  31.006  32.268  1.00  0.00     0.029 A 
ATOM     49  N   UNL A   1      41.270  29.726  32.312  1.00  0.00    -0.354 N 
ATOM     50  C   UNL A   1      41.946  26.701  29.308  1.00  0.00     0.074 A 
ATOM     51  C   UNL A   1      40.877  26.667  28.336  1.00  0.00     0.031 C 
ATOM     52  C   UNL A   1      40.194  31.425  33.291  1.00  0.00     0.029 A 
ATOM     53  C   UNL A   1      41.387  30.588  33.376  1.00  0.00     0.049 A 
ATOM     54  H   UNL A   1      41.941  29.037  32.098  1.00  0.00     0.167 HD
ATOM     55  C   UNL A   1      43.039  25.903  29.273  1.00  0.00     0.031 A 
ATOM     56  C   UNL A   1      42.335  30.691  34.329  1.00  0.00     0.031 A 
ATOM     57  C   UNL A   1      44.110  25.955  30.235  1.00  0.00     0.049 A 
ATOM     58  C   UNL A   1      43.510  29.758  34.299  1.00  0.00     0.074 A 
ATOM     59  C   UNL A   1      45.274  25.207  30.257  1.00  0.00     0.029 A 
ATOM     60  N   UNL A   1      44.154  26.794  31.337  1.00  0.00    -0.354 N 
ATOM     61  N   UNL A   1      43.799  28.838  33.410  1.00  0.00    -0.248 NA
ATOM     62  C   UNL A   1      44.480  29.866  35.396  1.00  0.00     0.031 C 
ATOM     63  C   UNL A   1      45.990  25.546  31.406  1.00  0.00     0.029 A 
ATOM     64  C   UNL A   1      45.307  26.556  32.066  1.00  0.00     0.049 A 
ATOM     65  H   UNL A   1      43.467  27.462  31.568  1.00  0.00     0.167 HD
ATOM     66  C   UNL A   1      44.984  28.255  33.841  1.00  0.00     0.074 A 
ATOM     67  C   UNL A   1      45.373  28.944  35.055  1.00  0.00     0.031 C 
ATOM     68  C   UNL A   1      45.679  27.235  33.281  1.00  0.00     0.031 A 
BRANCH  55  69
ATOM     69  C   UNL A   1      43.161  24.892  28.161  1.00  0.00    -0.014 A 
ATOM     70  C   UNL A   1      42.784  23.555  28.392  1.00  0.00     0.010 A 
ATOM     71  C   UNL A   1      43.780  25.228  26.945  1.00  0.00     0.010 A 
ATOM     72  C   UNL A   1      43.056  22.566  27.442  1.00  0.00     0.020 A 
ATOM     73  C   UNL A   1      44.032  24.245  25.981  1.00  0.00     0.020 A 
ATOM     74  C   UNL A   1      43.691  22.916  26.248  1.00  0.00     0.054 A 
BRANCH  74  75
ATOM     75  S   UNL A   1      44.074  21.613  25.045  1.00  0.00     0.124 S 
ATOM     76  O   UNL A   1      43.987  22.329  23.777  1.00  0.00    -0.237 OA
ATOM     77  O   UNL A   1      45.415  21.192  25.444  1.00  0.00    -0.237 OA
ATOM     78  O   UNL A   1      43.027  20.619  25.275  1.00  0.00    -0.744 OA
ENDBRANCH  74  75
ENDBRANCH  55  69
BRANCH  56  79
ATOM     79  C   UNL A   1      42.184  31.729  35.385  1.00  0.00    -0.014 A 
ATOM     80  C   UNL A   1      42.744  33.009  35.204  1.00  0.00     0.010 A 
ATOM     81  C   UNL A   1      41.578  31.416  36.613  1.00  0.00     0.010 A 
ATOM     82  C   UNL A   1      42.764  33.931  36.253  1.00  0.00     0.020 A 
ATOM     83  C   UNL A   1      41.568  32.348  37.656  1.00  0.00     0.020 A 
ATOM     84  C   UNL A   1      42.192  33.586  37.479  1.00  0.00     0.054 A 
BRANCH  84  85
ATOM     85  S   UNL A   1      42.288  34.770  38.851  1.00  0.00     0.124 S 
ATOM     86  O   UNL A   1      43.722  35.036  38.913  1.00  0.00    -0.237 OA
ATOM     87  O   UNL A   1      41.462  35.878  38.378  1.00  0.00    -0.237 OA
ATOM     88  O   UNL A   1      41.738  34.026  39.982  1.00  0.00    -0.744 OA
ENDBRANCH  84  85
ENDBRANCH  56  79
BRANCH  68  89
ATOM     89  C   UNL A   1      46.931  26.766  33.973  1.00  0.00    -0.014 A 
ATOM     90  C   UNL A   1      48.178  27.307  33.611  1.00  0.00     0.010 A 
ATOM     91  C   UNL A   1      46.886  25.688  34.875  1.00  0.00     0.010 A 
ATOM     92  C   UNL A   1      49.360  26.752  34.103  1.00  0.00     0.020 A 
ATOM     93  C   UNL A   1      48.067  25.148  35.391  1.00  0.00     0.020 A 
ATOM     94  C   UNL A   1      49.298  25.665  34.980  1.00  0.00     0.054 A 
BRANCH  94  95
ATOM     95  S   UNL A   1      50.845  24.927  35.572  1.00  0.00     0.124 S 
ATOM     96  O   UNL A   1      50.654  23.516  35.253  1.00  0.00    -0.237 OA
ATOM     97  O   UNL A   1      51.856  25.621  34.779  1.00  0.00    -0.237 OA
ATOM     98  O   UNL A   1      50.855  25.250  36.997  1.00  0.00    -0.744 OA
ENDBRANCH  94  95
ENDBRANCH  68  89
ENDBRANCH  42  43
ENDBRANCH  34  37
ENDBRANCH  32  33
ENDBRANCH  31  32
ENDBRANCH  30  31
ENDBRANCH   1  30
TORSDOF 19
ENDMDL
MODEL 2
REMARK VINA RESULT:      -7.8      5.226     11.730
REMARK SMILES CN1C=C/C(=C\C=C/C=N\c2ccc(C(=O)NCCCCCCNC(=O)c3ccc(-c4c5nc(c(-c6ccc(S(=O)(=O)[O-])cc6)c6ccc([nH]6)c(-c6ccc(S(=O)(=O)[O-])cc6)c6nc(c(-c7ccc(S(=O)(=O)[O-])cc7)c7ccc4[nH]7)C=C6)C=C5)cc3)cc2)c2ccccc21
REMARK SMILES IDX 20 1 19 2 18 3 17 4 15 5 16 6 14 8 11 9 12 10 88 11 13 12
REMARK SMILES IDX 87 13 10 14 9 15 8 16 7 17 6 18 1 19 2 20 3 21 94 22 4 23
REMARK SMILES IDX 89 24 93 25 5 26 90 27 92 28 91 29 21 30 22 31 23 32 24 33
REMARK SMILES IDX 25 34 26 36 27 37 28 38 86 39 29 40 85 41 30 42 31 43 32 44
REMARK SMILES IDX 79 45 33 46 84 47 78 48 80 49 34 50 83 51 77 52 76 53 35 55
REMARK SMILES IDX 65 56 46 57 64 58 47 59 50 60 63 61 81 62 48 63 49 64 62 66
REMARK SMILES IDX 82 67 51 68 36 69 37 70 45 71 38 72 44 73 39 74 40 75 41 76
REMARK SMILES IDX 42 77 43 78 66 79 67 80 75 81 68 82 74 83 69 84 70 85 71 86
REMARK SMILES IDX 72 87 73 88 52 89 53 90 61 91 54 92 60 93 55 94 56 95 57 96
REMARK SMILES IDX 58 97 59 98
REMARK H PARENT 17 7 24 35 80 54 50 65
REMARK Flexibility Score: inf
ROOT
ATOM      1  C   UNL A   1      34.683  21.925  25.640  1.00  0.00     0.002 C 
ENDROOT
BRANCH   1   2
ATOM      2  C   UNL A   1      33.900  20.611  25.678  1.00  0.00     0.021 C 
BRANCH   2   3
ATOM      3  C   UNL A   1      32.442  20.653  25.228  1.00  0.00     0.116 C 
BRANCH   3   4
ATOM      4  N   UNL A   1      32.250  20.403  23.814  1.00  0.00    -0.352 N 
ATOM      5  C   UNL A   1      32.100  21.267  22.758  1.00  0.00     0.251 C 
ATOM      6  O   UNL A   1      31.943  20.787  21.634  1.00  0.00    -0.269 OA
ATOM      7  H   UNL A   1      32.221  19.449  23.569  1.00  0.00     0.163 HD
BRANCH   5   8
ATOM      8  C   UNL A   1      32.044  22.746  22.928  1.00  0.00     0.039 A 
ATOM      9  C   UNL A   1      32.062  25.564  22.956  1.00  0.00     0.063 A 
ATOM     10  C   UNL A   1      33.251  24.851  22.783  1.00  0.00     0.029 A 
ATOM     11  C   UNL A   1      30.899  24.856  23.262  1.00  0.00     0.029 A 
ATOM     12  C   UNL A   1      33.238  23.455  22.735  1.00  0.00     0.016 A 
ATOM     13  C   UNL A   1      30.895  23.456  23.281  1.00  0.00     0.016 A 
BRANCH   9  14
ATOM     14  N   UNL A   1      32.004  26.961  22.884  1.00  0.00    -0.257 NA
ATOM     15  C   UNL A   1      31.532  27.673  23.859  1.00  0.00     0.111 C 
BRANCH  15  16
ATOM     16  C   UNL A   1      30.982  27.237  25.174  1.00  0.00     0.020 C 
ATOM     17  C   UNL A   1      31.493  27.541  26.377  1.00  0.00     0.002 C 
BRANCH  17  18
ATOM     18  C   UNL A   1      32.735  28.238  26.654  1.00  0.00     0.009 C 
ATOM     19  C   UNL A   1      33.326  33.721  27.957  1.00  0.00     0.149 C 
ATOM     20  N   UNL A   1      33.209  32.320  27.562  1.00  0.00    -0.351 N 
ATOM     21  C   UNL A   1      32.020  31.797  27.088  1.00  0.00     0.086 C 
ATOM     22  C   UNL A   1      34.358  31.482  27.662  1.00  0.00     0.048 A 
ATOM     23  C   UNL A   1      31.821  30.516  26.752  1.00  0.00     0.026 C 
ATOM     24  C   UNL A   1      34.267  30.099  27.307  1.00  0.00     0.005 A 
ATOM     25  C   UNL A   1      35.603  31.976  28.103  1.00  0.00     0.027 A 
ATOM     26  C   UNL A   1      32.917  29.558  26.885  1.00  0.00    -0.015 C 
ATOM     27  C   UNL A   1      35.425  29.300  27.388  1.00  0.00     0.011 A 
ATOM     28  C   UNL A   1      36.729  31.156  28.191  1.00  0.00     0.002 A 
ATOM     29  C   UNL A   1      36.641  29.821  27.831  1.00  0.00     0.001 A 
ENDBRANCH  17  18
ENDBRANCH  15  16
ENDBRANCH   9  14
ENDBRANCH   5   8
ENDBRANCH   3   4
ENDBRANCH   2   3
ENDBRANCH   1   2
BRANCH   1  30
ATOM     30  C   UNL A   1      36.109  21.874  25.085  1.00  0.00     0.002 C 
BRANCH  30  31
ATOM     31  C   UNL A   1      36.837  23.209  24.939  1.00  0.00     0.021 C 
BRANCH  31  32
ATOM     32  C   UNL A   1      37.919  23.501  25.969  1.00  0.00     0.116 C 
BRANCH  32  33
ATOM     33  N   UNL A   1      39.069  22.620  25.874  1.00  0.00    -0.352 N 
ATOM     34  C   UNL A   1      40.383  22.862  26.212  1.00  0.00     0.251 C 
ATOM     35  H   UNL A   1      38.883  21.720  25.518  1.00  0.00     0.163 HD
ATOM     36  O   UNL A   1      41.243  22.025  25.977  1.00  0.00    -0.269 OA
BRANCH  34  37
ATOM     37  C   UNL A   1      40.754  24.164  26.818  1.00  0.00     0.039 A 
ATOM     38  C   UNL A   1      40.709  25.344  26.072  1.00  0.00     0.014 A 
ATOM     39  C   UNL A   1      41.183  24.193  28.148  1.00  0.00     0.014 A 
ATOM     40  C   UNL A   1      41.248  26.514  26.599  1.00  0.00     0.010 A 
ATOM     41  C   UNL A   1      41.647  25.390  28.703  1.00  0.00     0.010 A 
ATOM     42  C   UNL A   1      41.726  26.551  27.919  1.00  0.00    -0.014 A 
BRANCH  42  43
ATOM     43  C   UNL A   1      42.286  27.816  28.465  1.00  0.00     0.031 A 
ATOM     44  C   UNL A   1      41.403  28.814  29.167  1.00  0.00     0.074 A 
ATOM     45  C   UNL A   1      43.611  28.045  28.360  1.00  0.00     0.049 A 
ATOM     46  N   UNL A   1      41.733  29.959  29.708  1.00  0.00    -0.248 NA
ATOM     47  C   UNL A   1      39.972  28.490  29.282  1.00  0.00     0.031 C 
ATOM     48  C   UNL A   1      44.569  27.143  27.719  1.00  0.00     0.029 A 
ATOM     49  N   UNL A   1      44.385  29.085  28.810  1.00  0.00    -0.354 N 
ATOM     50  C   UNL A   1      40.555  30.498  30.212  1.00  0.00     0.074 A 
ATOM     51  C   UNL A   1      39.495  29.569  29.893  1.00  0.00     0.031 C 
ATOM     52  C   UNL A   1      45.805  27.640  27.863  1.00  0.00     0.029 A 
ATOM     53  C   UNL A   1      45.724  28.931  28.542  1.00  0.00     0.049 A 
ATOM     54  H   UNL A   1      44.015  29.869  29.280  1.00  0.00     0.167 HD
ATOM     55  C   UNL A   1      40.380  31.658  30.888  1.00  0.00     0.031 A 
ATOM     56  C   UNL A   1      46.775  29.736  28.793  1.00  0.00     0.031 A 
ATOM     57  C   UNL A   1      41.443  32.570  31.218  1.00  0.00     0.049 A 
ATOM     58  C   UNL A   1      46.545  31.042  29.496  1.00  0.00     0.074 A 
ATOM     59  C   UNL A   1      41.362  33.754  31.933  1.00  0.00     0.029 A 
ATOM     60  N   UNL A   1      42.774  32.409  30.865  1.00  0.00    -0.354 N 
ATOM     61  N   UNL A   1      45.424  31.526  29.975  1.00  0.00    -0.248 NA
ATOM     62  C   UNL A   1      47.711  31.914  29.687  1.00  0.00     0.031 C 
ATOM     63  C   UNL A   1      42.628  34.339  31.954  1.00  0.00     0.029 A 
ATOM     64  C   UNL A   1      43.516  33.489  31.313  1.00  0.00     0.049 A 
ATOM     65  H   UNL A   1      43.138  31.640  30.368  1.00  0.00     0.167 HD
ATOM     66  C   UNL A   1      45.749  32.760  30.522  1.00  0.00     0.074 A 
ATOM     67  C   UNL A   1      47.175  32.938  30.340  1.00  0.00     0.031 C 
ATOM     68  C   UNL A   1      44.932  33.665  31.115  1.00  0.00     0.031 A 
BRANCH  55  69
ATOM     69  C   UNL A   1      38.988  32.032  31.333  1.00  0.00    -0.014 A 
ATOM     70  C   UNL A   1      38.301  33.069  30.674  1.00  0.00     0.010 A 
ATOM     71  C   UNL A   1      38.422  31.462  32.488  1.00  0.00     0.010 A 
ATOM     72  C   UNL A   1      37.092  33.555  31.180  1.00  0.00     0.020 A 
ATOM     73  C   UNL A   1      37.200  31.929  32.983  1.00  0.00     0.020 A 
ATOM     74  C   UNL A   1      36.557  32.990  32.340  1.00  0.00     0.054 A 
BRANCH  74  75
ATOM     75  S   UNL A   1      35.007  33.661  33.006  1.00  0.00     0.124 S 
ATOM     76  O   UNL A   1      35.113  35.076  32.668  1.00  0.00    -0.237 OA
ATOM     77  O   UNL A   1      33.991  32.909  32.273  1.00  0.00    -0.237 OA
ATOM     78  O   UNL A   1      35.088  33.350  34.432  1.00  0.00    -0.744 OA
ENDBRANCH  74  75
ENDBRANCH  55  69
BRANCH  56  79
ATOM     79  C   UNL A   1      48.132  29.304  28.363  1.00  0.00    -0.014 A 
ATOM     80  C   UNL A   1      48.945  28.552  29.234  1.00  0.00     0.010 A 
ATOM     81  C   UNL A   1      48.661  29.729  27.132  1.00  0.00     0.010 A 
ATOM     82  C   UNL A   1      50.279  28.292  28.914  1.00  0.00     0.020 A 
ATOM     83  C   UNL A   1      49.988  29.445  26.795  1.00  0.00     0.020 A 
ATOM     84  C   UNL A   1      50.797  28.758  27.704  1.00  0.00     0.054 A 
BRANCH  84  85
ATOM     85  S   UNL A   1      52.551  28.472  27.338  1.00  0.00     0.124 S 
ATOM     86  O   UNL A   1      52.941  29.744  26.738  1.00  0.00    -0.237 OA
ATOM     87  O   UNL A   1      53.115  28.199  28.657  1.00  0.00    -0.237 OA
ATOM     88  O   UNL A   1      52.526  27.330  26.426  1.00  0.00    -0.744 OA
ENDBRANCH  84  85
ENDBRANCH  56  79
BRANCH  68  89
ATOM     89  C   UNL A   1      45.537  34.955  31.602  1.00  0.00    -0.014 A 
ATOM     90  C   UNL A   1      45.621  36.061  30.735  1.00  0.00     0.010 A 
ATOM     91  C   UNL A   1      46.151  35.023  32.865  1.00  0.00     0.010 A 
ATOM     92  C   UNL A   1      46.345  37.196  31.105  1.00  0.00     0.020 A 
ATOM     93  C   UNL A   1      46.853  36.169  33.248  1.00  0.00     0.020 A 
ATOM     94  C   UNL A   1      46.969  37.237  32.355  1.00  0.00     0.054 A 
BRANCH  94  95
ATOM     95  S   UNL A   1      47.945  38.699  32.799  1.00  0.00     0.124 S 
ATOM     96  O   UNL A   1      46.909  39.687  33.081  1.00  0.00    -0.237 OA
ATOM     97  O   UNL A   1      48.708  38.238  33.956  1.00  0.00    -0.237 OA
ATOM     98  O   UNL A   1      48.743  38.954  31.601  1.00  0.00    -0.744 OA
ENDBRANCH  94  95
ENDBRANCH  68  89
ENDBRANCH  42  43
ENDBRANCH  34  37
ENDBRANCH  32  33
ENDBRANCH  31  32
ENDBRANCH  30  31
ENDBRANCH   1  30
TORSDOF 19
ENDMDL
MODEL 3
REMARK VINA RESULT:      -7.7      5.634      7.882
REMARK SMILES CN1C=C/C(=C\C=C/C=N\c2ccc(C(=O)NCCCCCCNC(=O)c3ccc(-c4c5nc(c(-c6ccc(S(=O)(=O)[O-])cc6)c6ccc([nH]6)c(-c6ccc(S(=O)(=O)[O-])cc6)c6nc(c(-c7ccc(S(=O)(=O)[O-])cc7)c7ccc4[nH]7)C=C6)C=C5)cc3)cc2)c2ccccc21
REMARK SMILES IDX 20 1 19 2 18 3 17 4 15 5 16 6 14 8 11 9 12 10 88 11 13 12
REMARK SMILES IDX 87 13 10 14 9 15 8 16 7 17 6 18 1 19 2 20 3 21 94 22 4 23
REMARK SMILES IDX 89 24 93 25 5 26 90 27 92 28 91 29 21 30 22 31 23 32 24 33
REMARK SMILES IDX 25 34 26 36 27 37 28 38 86 39 29 40 85 41 30 42 31 43 32 44
REMARK SMILES IDX 79 45 33 46 84 47 78 48 80 49 34 50 83 51 77 52 76 53 35 55
REMARK SMILES IDX 65 56 46 57 64 58 47 59 50 60 63 61 81 62 48 63 49 64 62 66
REMARK SMILES IDX 82 67 51 68 36 69 37 70 45 71 38 72 44 73 39 74 40 75 41 76
REMARK SMILES IDX 42 77 43 78 66 79 67 80 75 81 68 82 74 83 69 84 70 85 71 86
REMARK SMILES IDX 72 87 73 88 52 89 53 90 61 91 54 92 60 93 55 94 56 95 57 96
REMARK SMILES IDX 58 97 59 98
REMARK H PARENT 17 7 24 35 80 54 50 65
REMARK Flexibility Score: inf
ROOT
ATOM      1  C   UNL A   1      38.090  33.291  34.211  1.00  0.00     0.002 C 
ENDROOT
BRANCH   1   2
ATOM      2  C   UNL A   1      38.603  34.726  34.078  1.00  0.00     0.021 C 
BRANCH   2   3
ATOM      3  C   UNL A   1      40.076  34.914  33.723  1.00  0.00     0.116 C 
BRANCH   3   4
ATOM      4  N   UNL A   1      40.768  33.684  33.394  1.00  0.00    -0.352 N 
ATOM      5  C   UNL A   1      41.436  33.301  32.257  1.00  0.00     0.251 C 
ATOM      6  O   UNL A   1      41.940  32.178  32.232  1.00  0.00    -0.269 OA
ATOM      7  H   UNL A   1      40.756  33.007  34.108  1.00  0.00     0.163 HD
BRANCH   5   8
ATOM      8  C   UNL A   1      41.507  34.155  31.038  1.00  0.00     0.039 A 
ATOM      9  C   UNL A   1      41.902  35.604  28.653  1.00  0.00     0.063 A 
ATOM     10  C   UNL A   1      42.890  35.584  29.640  1.00  0.00     0.029 A 
ATOM     11  C   UNL A   1      40.666  35.021  28.935  1.00  0.00     0.029 A 
ATOM     12  C   UNL A   1      42.709  34.838  30.808  1.00  0.00     0.016 A 
ATOM     13  C   UNL A   1      40.456  34.328  30.134  1.00  0.00     0.016 A 
BRANCH   9  14
ATOM     14  N   UNL A   1      42.087  36.229  27.414  1.00  0.00    -0.257 NA
ATOM     15  C   UNL A   1      42.158  37.519  27.308  1.00  0.00     0.111 C 
BRANCH  15  16
ATOM     16  C   UNL A   1      42.067  38.566  28.365  1.00  0.00     0.020 C 
ATOM     17  C   UNL A   1      41.922  39.883  28.152  1.00  0.00     0.002 C 
BRANCH  17  18
ATOM     18  C   UNL A   1      41.949  40.577  26.878  1.00  0.00     0.009 C 
ATOM     19  C   UNL A   1      46.350  43.348  24.627  1.00  0.00     0.149 C 
ATOM     20  N   UNL A   1      45.182  42.695  25.211  1.00  0.00    -0.351 N 
ATOM     21  C   UNL A   1      45.173  42.265  26.525  1.00  0.00     0.086 C 
ATOM     22  C   UNL A   1      44.024  42.510  24.401  1.00  0.00     0.048 A 
ATOM     23  C   UNL A   1      44.162  41.618  27.118  1.00  0.00     0.026 C 
ATOM     24  C   UNL A   1      42.873  41.850  24.939  1.00  0.00     0.005 A 
ATOM     25  C   UNL A   1      43.968  42.965  23.067  1.00  0.00     0.027 A 
ATOM     26  C   UNL A   1      42.954  41.315  26.353  1.00  0.00    -0.015 C 
ATOM     27  C   UNL A   1      41.731  41.706  24.125  1.00  0.00     0.011 A 
ATOM     28  C   UNL A   1      42.829  42.791  22.279  1.00  0.00     0.002 A 
ATOM     29  C   UNL A   1      41.711  42.166  22.808  1.00  0.00     0.001 A 
ENDBRANCH  17  18
ENDBRANCH  15  16
ENDBRANCH   9  14
ENDBRANCH   5   8
ENDBRANCH   3   4
ENDBRANCH   2   3
ENDBRANCH   1   2
BRANCH   1  30
ATOM     30  C   UNL A   1      37.345  32.699  33.013  1.00  0.00     0.002 C 
BRANCH  30  31
ATOM     31  C   UNL A   1      37.165  33.608  31.798  1.00  0.00     0.021 C 
BRANCH  31  32
ATOM     32  C   UNL A   1      36.738  32.926  30.506  1.00  0.00     0.116 C 
BRANCH  32  33
ATOM     33  N   UNL A   1      36.062  31.658  30.710  1.00  0.00    -0.352 N 
ATOM     34  C   UNL A   1      36.522  30.379  30.483  1.00  0.00     0.251 C 
ATOM     35  H   UNL A   1      35.144  31.721  31.061  1.00  0.00     0.163 HD
ATOM     36  O   UNL A   1      35.775  29.422  30.628  1.00  0.00    -0.269 OA
BRANCH  34  37
ATOM     37  C   UNL A   1      37.915  30.175  30.017  1.00  0.00     0.039 A 
ATOM     38  C   UNL A   1      38.215  30.100  28.655  1.00  0.00     0.014 A 
ATOM     39  C   UNL A   1      38.931  30.027  30.966  1.00  0.00     0.014 A 
ATOM     40  C   UNL A   1      39.488  29.711  28.249  1.00  0.00     0.010 A 
ATOM     41  C   UNL A   1      40.230  29.718  30.550  1.00  0.00     0.010 A 
ATOM     42  C   UNL A   1      40.510  29.513  29.191  1.00  0.00    -0.014 A 
BRANCH  42  43
ATOM     43  C   UNL A   1      41.867  29.111  28.732  1.00  0.00     0.031 A 
ATOM     44  C   UNL A   1      42.140  27.709  28.257  1.00  0.00     0.074 A 
ATOM     45  C   UNL A   1      42.849  30.034  28.706  1.00  0.00     0.049 A 
ATOM     46  N   UNL A   1      43.261  27.198  27.815  1.00  0.00    -0.248 NA
ATOM     47  C   UNL A   1      41.017  26.756  28.274  1.00  0.00     0.031 C 
ATOM     48  C   UNL A   1      42.700  31.430  29.123  1.00  0.00     0.029 A 
ATOM     49  N   UNL A   1      44.155  29.951  28.290  1.00  0.00    -0.354 N 
ATOM     50  C   UNL A   1      42.987  25.869  27.518  1.00  0.00     0.074 A 
ATOM     51  C   UNL A   1      41.599  25.640  27.851  1.00  0.00     0.031 C 
ATOM     52  C   UNL A   1      43.847  32.083  28.894  1.00  0.00     0.029 A 
ATOM     53  C   UNL A   1      44.838  31.141  28.381  1.00  0.00     0.049 A 
ATOM     54  H   UNL A   1      44.563  29.118  27.959  1.00  0.00     0.167 HD
ATOM     55  C   UNL A   1      43.816  24.931  27.003  1.00  0.00     0.031 A 
ATOM     56  C   UNL A   1      46.120  31.448  28.101  1.00  0.00     0.031 A 
ATOM     57  C   UNL A   1      45.193  25.171  26.657  1.00  0.00     0.049 A 
ATOM     58  C   UNL A   1      47.034  30.375  27.584  1.00  0.00     0.074 A 
ATOM     59  C   UNL A   1      46.099  24.286  26.097  1.00  0.00     0.029 A 
ATOM     60  N   UNL A   1      45.864  26.371  26.831  1.00  0.00    -0.354 N 
ATOM     61  N   UNL A   1      46.749  29.127  27.298  1.00  0.00    -0.248 NA
ATOM     62  C   UNL A   1      48.437  30.743  27.358  1.00  0.00     0.031 C 
ATOM     63  C   UNL A   1      47.333  24.931  25.994  1.00  0.00     0.029 A 
ATOM     64  C   UNL A   1      47.181  26.239  26.425  1.00  0.00     0.049 A 
ATOM     65  H   UNL A   1      45.463  27.196  27.191  1.00  0.00     0.167 HD
ATOM     66  C   UNL A   1      47.938  28.559  26.861  1.00  0.00     0.074 A 
ATOM     67  C   UNL A   1      48.941  29.605  26.893  1.00  0.00     0.031 C 
ATOM     68  C   UNL A   1      48.175  27.281  26.475  1.00  0.00     0.031 A 
BRANCH  55  69
ATOM     69  C   UNL A   1      43.280  23.541  26.770  1.00  0.00    -0.014 A 
ATOM     70  C   UNL A   1      43.021  22.701  27.870  1.00  0.00     0.010 A 
ATOM     71  C   UNL A   1      43.172  23.018  25.469  1.00  0.00     0.010 A 
ATOM     72  C   UNL A   1      42.699  21.354  27.675  1.00  0.00     0.020 A 
ATOM     73  C   UNL A   1      42.826  21.677  25.270  1.00  0.00     0.020 A 
ATOM     74  C   UNL A   1      42.617  20.849  26.376  1.00  0.00     0.054 A 
BRANCH  74  75
ATOM     75  S   UNL A   1      42.238  19.089  26.144  1.00  0.00     0.124 S 
ATOM     76  O   UNL A   1      42.629  18.517  27.428  1.00  0.00    -0.237 OA
ATOM     77  O   UNL A   1      40.804  19.103  25.867  1.00  0.00    -0.237 OA
ATOM     78  O   UNL A   1      43.076  18.708  25.008  1.00  0.00    -0.744 OA
ENDBRANCH  74  75
ENDBRANCH  55  69
BRANCH  56  79
ATOM     79  C   UNL A   1      46.590  32.843  28.317  1.00  0.00    -0.014 A 
ATOM     80  C   UNL A   1      47.031  33.252  29.591  1.00  0.00     0.010 A 
ATOM     81  C   UNL A   1      46.499  33.795  27.287  1.00  0.00     0.010 A 
ATOM     82  C   UNL A   1      47.306  34.597  29.850  1.00  0.00     0.020 A 
ATOM     83  C   UNL A   1      46.803  35.137  27.534  1.00  0.00     0.020 A 
ATOM     84  C   UNL A   1      47.170  35.534  28.823  1.00  0.00     0.054 A 
BRANCH  84  85
ATOM     85  S   UNL A   1      47.464  37.285  29.196  1.00  0.00     0.124 S 
ATOM     86  O   UNL A   1      47.415  37.885  27.866  1.00  0.00    -0.237 OA
ATOM     87  O   UNL A   1      46.348  37.617  30.078  1.00  0.00    -0.237 OA
ATOM     88  O   UNL A   1      48.778  37.281  29.835  1.00  0.00    -0.744 OA
ENDBRANCH  84  85
ENDBRANCH  56  79
BRANCH  68  89
ATOM     89  C   UNL A   1      49.578  26.910  26.072  1.00  0.00    -0.014 A 
ATOM     90  C   UNL A   1      50.016  27.152  24.757  1.00  0.00     0.010 A 
ATOM     91  C   UNL A   1      50.406  26.191  26.952  1.00  0.00     0.010 A 
ATOM     92  C   UNL A   1      51.240  26.646  24.315  1.00  0.00     0.020 A 
ATOM     93  C   UNL A   1      51.644  25.706  26.519  1.00  0.00     0.020 A 
ATOM     94  C   UNL A   1      52.040  25.913  25.196  1.00  0.00     0.054 A 
BRANCH  94  95
ATOM     95  S   UNL A   1      53.603  25.221  24.590  1.00  0.00     0.124 S 
ATOM     96  O   UNL A   1      53.451  23.802  24.894  1.00  0.00    -0.237 OA
ATOM     97  O   UNL A   1      53.579  25.567  23.171  1.00  0.00    -0.237 OA
ATOM     98  O   UNL A   1      54.615  25.924  25.376  1.00  0.00    -0.744 OA
ENDBRANCH  94  95
ENDBRANCH  68  89
ENDBRANCH  42  43
ENDBRANCH  34  37
ENDBRANCH  32  33
ENDBRANCH  31  32
ENDBRANCH  30  31
ENDBRANCH   1  30
TORSDOF 19
ENDMDL
