MODEL 1
REMARK VINA RESULT:      -8.7      0.000      0.000
REMARK SMILES C/C=C(\C)[C@H]1C(C)=C[C@H]2CC[C@@H](OS(=O)(=O)[O-])[C@@H](C)[C@H]2[C@H]1/C=C/C=C/C(=O)NCCCCCCNC(=O)c1ccc(-c2c3nc(c(-c4ccc(S(=O)(=O)[O-])cc4)c4ccc([nH]4)c(-c4ccc(S(=O)(=O)[O-])cc4)c4nc(c(-c5ccc(S(=O)(=O)[O-])cc5)c5ccc2[nH]5)C=C4)C=C3)cc1
REMARK SMILES IDX 31 1 30 2 29 3 28 4 26 5 27 6 25 8 24 9 23 10 22 11 21 12
REMARK SMILES IDX 5 13 6 14 7 15 8 16 20 17 9 18 18 19 10 20 12 21 19 22 11 23
REMARK SMILES IDX 3 24 1 25 2 26 4 27 13 28 14 29 15 30 16 31 17 32 32 33
REMARK SMILES IDX 33 34 34 35 35 36 36 37 37 39 38 40 39 41 97 42 40 43 96 44
REMARK SMILES IDX 41 45 42 46 43 47 90 48 44 49 95 50 89 51 91 52 45 53 94 54
REMARK SMILES IDX 88 55 87 56 46 58 76 59 57 60 75 61 58 62 61 63 74 64 92 65
REMARK SMILES IDX 59 66 60 67 73 69 93 70 62 71 47 72 48 73 56 74 49 75 55 76
REMARK SMILES IDX 50 77 51 78 52 79 53 80 54 81 77 82 78 83 86 84 79 85 85 86
REMARK SMILES IDX 80 87 81 88 82 89 83 90 84 91 63 92 64 93 72 94 65 95 71 96
REMARK SMILES IDX 66 97 67 98 68 99 69 100 70 101
REMARK H PARENT 28 7 35 38 91 57 61 68
REMARK Flexibility Score: inf
ROOT
ATOM      1  C   UNL A   1      51.713  29.576  28.867  1.00  0.00     0.002 C 
ENDROOT
BRANCH   1   2
ATOM      2  C   UNL A   1      52.013  29.257  27.404  1.00  0.00     0.021 C 
BRANCH   2   3
ATOM      3  C   UNL A   1      51.124  28.135  26.870  1.00  0.00     0.116 C 
BRANCH   3   4
ATOM      4  N   UNL A   1      51.958  27.002  26.534  1.00  0.00    -0.353 N 
ATOM      5  C   UNL A   1      51.656  25.683  26.625  1.00  0.00     0.243 C 
ATOM      6  O   UNL A   1      52.498  24.826  26.370  1.00  0.00    -0.270 OA
ATOM      7  H   UNL A   1      52.858  27.216  26.197  1.00  0.00     0.163 HD
BRANCH   5   8
ATOM      8  C   UNL A   1      50.248  25.291  26.822  1.00  0.00     0.071 C 
ATOM      9  C   UNL A   1      49.585  24.981  27.951  1.00  0.00     0.005 C 
BRANCH   9  10
ATOM     10  C   UNL A   1      48.158  24.959  27.875  1.00  0.00    -0.004 C 
ATOM     11  C   UNL A   1      47.281  24.416  27.028  1.00  0.00    -0.022 C 
BRANCH  11  12
ATOM     12  C   UNL A   1      45.764  24.584  27.213  1.00  0.00     0.027 C 
ATOM     13  C   UNL A   1      45.009  25.915  26.704  1.00  0.00     0.047 C 
ATOM     14  C   UNL A   1      43.666  25.635  26.004  1.00  0.00    -0.069 C 
ATOM     15  C   UNL A   1      43.115  26.530  24.926  1.00  0.00     0.040 C 
ATOM     16  C   UNL A   1      42.934  24.551  26.345  1.00  0.00    -0.024 C 
ATOM     17  C   UNL A   1      44.949  23.243  26.977  1.00  0.00     0.009 C 
ATOM     18  C   UNL A   1      43.450  23.477  27.261  1.00  0.00     0.016 C 
ATOM     19  C   UNL A   1      45.160  22.478  25.621  1.00  0.00     0.021 C 
ATOM     20  C   UNL A   1      42.664  22.152  27.150  1.00  0.00     0.011 C 
ATOM     21  C   UNL A   1      44.351  21.168  25.558  1.00  0.00     0.141 C 
ATOM     22  C   UNL A   1      44.945  23.312  24.344  1.00  0.00     0.011 C 
ATOM     23  C   UNL A   1      42.867  21.396  25.833  1.00  0.00     0.034 C 
BRANCH  13  24
ATOM     24  C   UNL A   1      45.835  27.096  26.129  1.00  0.00    -0.070 C 
ATOM     25  C   UNL A   1      46.502  29.582  26.173  1.00  0.00     0.035 C 
ATOM     26  C   UNL A   1      45.925  28.310  26.709  1.00  0.00    -0.031 C 
ATOM     27  C   UNL A   1      46.521  26.790  24.811  1.00  0.00     0.040 C 
ENDBRANCH  13  24
BRANCH  21  28
ATOM     28  O   UNL A   1      44.713  20.456  24.375  1.00  0.00    -0.276 OA
BRANCH  28  29
ATOM     29  S   UNL A   1      45.520  19.050  24.357  1.00  0.00     0.217 S 
ATOM     30  O   UNL A   1      44.999  18.199  25.401  1.00  0.00    -0.213 OA
ATOM     31  O   UNL A   1      45.673  18.589  22.999  1.00  0.00    -0.213 OA
ATOM     32  O   UNL A   1      47.000  19.510  24.791  1.00  0.00    -0.726 OA
ENDBRANCH  28  29
ENDBRANCH  21  28
ENDBRANCH  11  12
ENDBRANCH   9  10
ENDBRANCH   5   8
ENDBRANCH   3   4
ENDBRANCH   2   3
ENDBRANCH   1   2
BRANCH   1  33
ATOM     33  C   UNL A   1      52.899  29.320  29.799  1.00  0.00     0.002 C 
BRANCH  33  34
ATOM     34  C   UNL A   1      52.507  29.157  31.269  1.00  0.00     0.021 C 
BRANCH  34  35
ATOM     35  C   UNL A   1      51.062  28.716  31.457  1.00  0.00     0.116 C 
BRANCH  35  36
ATOM     36  N   UNL A   1      50.958  27.267  31.388  1.00  0.00    -0.352 N 
ATOM     37  C   UNL A   1      49.845  26.485  31.538  1.00  0.00     0.251 C 
ATOM     38  H   UNL A   1      51.799  26.785  31.212  1.00  0.00     0.163 HD
ATOM     39  O   UNL A   1      49.958  25.291  31.795  1.00  0.00    -0.269 OA
BRANCH  37  40
ATOM     40  C   UNL A   1      48.513  27.100  31.374  1.00  0.00     0.039 A 
ATOM     41  C   UNL A   1      48.207  27.757  30.183  1.00  0.00     0.014 A 
ATOM     42  C   UNL A   1      47.583  27.046  32.417  1.00  0.00     0.014 A 
ATOM     43  C   UNL A   1      46.953  28.347  30.032  1.00  0.00     0.010 A 
ATOM     44  C   UNL A   1      46.306  27.556  32.231  1.00  0.00     0.010 A 
ATOM     45  C   UNL A   1      45.990  28.240  31.050  1.00  0.00    -0.014 A 
BRANCH  45  46
ATOM     46  C   UNL A   1      44.666  28.895  30.925  1.00  0.00     0.031 A 
ATOM     47  C   UNL A   1      44.442  30.243  31.560  1.00  0.00     0.074 A 
ATOM     48  C   UNL A   1      43.666  28.269  30.276  1.00  0.00     0.049 A 
ATOM     49  N   UNL A   1      43.345  30.954  31.618  1.00  0.00    -0.248 NA
ATOM     50  C   UNL A   1      45.591  30.863  32.244  1.00  0.00     0.031 C 
ATOM     51  C   UNL A   1      43.756  26.947  29.651  1.00  0.00     0.029 A 
ATOM     52  N   UNL A   1      42.374  28.660  30.038  1.00  0.00    -0.354 N 
ATOM     53  C   UNL A   1      43.672  32.094  32.342  1.00  0.00     0.074 A 
ATOM     54  C   UNL A   1      45.046  31.951  32.766  1.00  0.00     0.031 C 
ATOM     55  C   UNL A   1      42.579  26.650  29.077  1.00  0.00     0.029 A 
ATOM     56  C   UNL A   1      41.638  27.737  29.332  1.00  0.00     0.049 A 
ATOM     57  H   UNL A   1      42.006  29.521  30.342  1.00  0.00     0.167 HD
ATOM     58  C   UNL A   1      42.909  33.180  32.604  1.00  0.00     0.031 A 
ATOM     59  C   UNL A   1      40.349  27.760  28.944  1.00  0.00     0.031 A 
ATOM     60  C   UNL A   1      41.546  33.324  32.168  1.00  0.00     0.049 A 
ATOM     61  C   UNL A   1      39.513  28.971  29.272  1.00  0.00     0.074 A 
ATOM     62  C   UNL A   1      40.691  34.395  32.358  1.00  0.00     0.029 A 
ATOM     63  N   UNL A   1      40.843  32.373  31.445  1.00  0.00    -0.354 N 
ATOM     64  N   UNL A   1      39.855  30.058  29.923  1.00  0.00    -0.248 NA
ATOM     65  C   UNL A   1      38.123  28.965  28.797  1.00  0.00     0.031 C 
ATOM     66  C   UNL A   1      39.455  34.071  31.794  1.00  0.00     0.029 A 
ATOM     67  C   UNL A   1      39.562  32.829  31.190  1.00  0.00     0.049 A 
ATOM     68  H   UNL A   1      41.201  31.503  31.157  1.00  0.00     0.167 HD
ATOM     69  C   UNL A   1      38.734  30.883  29.893  1.00  0.00     0.074 A 
ATOM     70  C   UNL A   1      37.714  30.174  29.150  1.00  0.00     0.031 C 
ATOM     71  C   UNL A   1      38.566  32.116  30.430  1.00  0.00     0.031 A 
BRANCH  58  72
ATOM     72  C   UNL A   1      43.534  34.308  33.382  1.00  0.00    -0.014 A 
ATOM     73  C   UNL A   1      44.199  35.358  32.722  1.00  0.00     0.010 A 
ATOM     74  C   UNL A   1      43.396  34.359  34.782  1.00  0.00     0.010 A 
ATOM     75  C   UNL A   1      44.735  36.424  33.447  1.00  0.00     0.020 A 
ATOM     76  C   UNL A   1      43.903  35.440  35.507  1.00  0.00     0.020 A 
ATOM     77  C   UNL A   1      44.577  36.463  34.836  1.00  0.00     0.054 A 
BRANCH  77  78
ATOM     78  S   UNL A   1      45.230  37.892  35.740  1.00  0.00     0.124 S 
ATOM     79  O   UNL A   1      46.632  37.524  35.918  1.00  0.00    -0.237 OA
ATOM     80  O   UNL A   1      44.982  38.994  34.815  1.00  0.00    -0.237 OA
ATOM     81  O   UNL A   1      44.435  37.920  36.966  1.00  0.00    -0.744 OA
ENDBRANCH  77  78
ENDBRANCH  58  72
BRANCH  59  82
ATOM     82  C   UNL A   1      39.760  26.605  28.209  1.00  0.00    -0.014 A 
ATOM     83  C   UNL A   1      38.980  25.644  28.876  1.00  0.00     0.010 A 
ATOM     84  C   UNL A   1      40.009  26.444  26.833  1.00  0.00     0.010 A 
ATOM     85  C   UNL A   1      38.506  24.518  28.196  1.00  0.00     0.020 A 
ATOM     86  C   UNL A   1      39.505  25.340  26.141  1.00  0.00     0.020 A 
ATOM     87  C   UNL A   1      38.777  24.371  26.834  1.00  0.00     0.054 A 
BRANCH  87  88
ATOM     88  S   UNL A   1      38.155  22.902  25.970  1.00  0.00     0.124 S 
ATOM     89  O   UNL A   1      37.926  23.416  24.624  1.00  0.00    -0.237 OA
ATOM     90  O   UNL A   1      39.262  21.960  26.111  1.00  0.00    -0.237 OA
ATOM     91  O   UNL A   1      36.949  22.551  26.720  1.00  0.00    -0.744 OA
ENDBRANCH  87  88
ENDBRANCH  59  82
BRANCH  71  92
ATOM     92  C   UNL A   1      37.255  32.814  30.171  1.00  0.00    -0.014 A 
ATOM     93  C   UNL A   1      36.173  32.710  31.062  1.00  0.00     0.010 A 
ATOM     94  C   UNL A   1      37.129  33.630  29.031  1.00  0.00     0.010 A 
ATOM     95  C   UNL A   1      34.972  33.372  30.792  1.00  0.00     0.020 A 
ATOM     96  C   UNL A   1      35.944  34.322  28.777  1.00  0.00     0.020 A 
ATOM     97  C   UNL A   1      34.866  34.175  29.651  1.00  0.00     0.054 A 
BRANCH  97  98
ATOM     98  S   UNL A   1      33.308  35.047  29.341  1.00  0.00     0.124 S 
ATOM     99  O   UNL A   1      32.684  34.205  28.324  1.00  0.00    -0.237 OA
ATOM    100  O   UNL A   1      32.665  35.029  30.653  1.00  0.00    -0.237 OA
ATOM    101  O   UNL A   1      33.734  36.367  28.881  1.00  0.00    -0.744 OA
ENDBRANCH  97  98
ENDBRANCH  71  92
ENDBRANCH  45  46
ENDBRANCH  37  40
ENDBRANCH  35  36
ENDBRANCH  34  35
ENDBRANCH  33  34
ENDBRANCH   1  33
TORSDOF 21
ENDMDL
MODEL 2
REMARK VINA RESULT:      -8.3      5.047     11.143
REMARK SMILES C/C=C(\C)[C@H]1C(C)=C[C@H]2CC[C@@H](OS(=O)(=O)[O-])[C@@H](C)[C@H]2[C@H]1/C=C/C=C/C(=O)NCCCCCCNC(=O)c1ccc(-c2c3nc(c(-c4ccc(S(=O)(=O)[O-])cc4)c4ccc([nH]4)c(-c4ccc(S(=O)(=O)[O-])cc4)c4nc(c(-c5ccc(S(=O)(=O)[O-])cc5)c5ccc2[nH]5)C=C4)C=C3)cc1
REMARK SMILES IDX 31 1 30 2 29 3 28 4 26 5 27 6 25 8 24 9 23 10 22 11 21 12
REMARK SMILES IDX 5 13 6 14 7 15 8 16 20 17 9 18 18 19 10 20 12 21 19 22 11 23
REMARK SMILES IDX 3 24 1 25 2 26 4 27 13 28 14 29 15 30 16 31 17 32 32 33
REMARK SMILES IDX 33 34 34 35 35 36 36 37 37 39 38 40 39 41 97 42 40 43 96 44
REMARK SMILES IDX 41 45 42 46 43 47 90 48 44 49 95 50 89 51 91 52 45 53 94 54
REMARK SMILES IDX 88 55 87 56 46 58 76 59 57 60 75 61 58 62 61 63 74 64 92 65
REMARK SMILES IDX 59 66 60 67 73 69 93 70 62 71 47 72 48 73 56 74 49 75 55 76
REMARK SMILES IDX 50 77 51 78 52 79 53 80 54 81 77 82 78 83 86 84 79 85 85 86
REMARK SMILES IDX 80 87 81 88 82 89 83 90 84 91 63 92 64 93 72 94 65 95 71 96
REMARK SMILES IDX 66 97 67 98 68 99 69 100 70 101
REMARK H PARENT 28 7 35 38 91 57 61 68
REMARK Flexibility Score: inf
ROOT
ATOM      1  C   UNL A   1      36.858  31.839  32.970  1.00  0.00     0.002 C 
ENDROOT
BRANCH   1   2
ATOM      2  C   UNL A   1      36.178  30.582  32.432  1.00  0.00     0.021 C 
BRANCH   2   3
ATOM      3  C   UNL A   1      36.969  29.948  31.289  1.00  0.00     0.116 C 
BRANCH   3   4
ATOM      4  N   UNL A   1      36.095  29.797  30.147  1.00  0.00    -0.353 N 
ATOM      5  C   UNL A   1      36.425  29.441  28.881  1.00  0.00     0.243 C 
ATOM      6  O   UNL A   1      35.579  29.425  27.992  1.00  0.00    -0.270 OA
ATOM      7  H   UNL A   1      35.140  29.976  30.309  1.00  0.00     0.163 HD
BRANCH   5   8
ATOM      8  C   UNL A   1      37.760  28.866  28.633  1.00  0.00     0.071 C 
ATOM      9  C   UNL A   1      38.815  29.377  27.970  1.00  0.00     0.005 C 
BRANCH   9  10
ATOM     10  C   UNL A   1      40.075  28.734  28.172  1.00  0.00    -0.004 C 
ATOM     11  C   UNL A   1      40.678  28.180  29.225  1.00  0.00    -0.022 C 
BRANCH  11  12
ATOM     12  C   UNL A   1      42.082  27.561  29.125  1.00  0.00     0.027 C 
ATOM     13  C   UNL A   1      42.383  26.352  28.101  1.00  0.00     0.047 C 
ATOM     14  C   UNL A   1      43.719  26.496  27.349  1.00  0.00    -0.069 C 
ATOM     15  C   UNL A   1      43.932  25.935  25.968  1.00  0.00     0.040 C 
ATOM     16  C   UNL A   1      44.754  27.151  27.920  1.00  0.00    -0.024 C 
ATOM     17  C   UNL A   1      43.250  28.630  29.231  1.00  0.00     0.009 C 
ATOM     18  C   UNL A   1      44.621  27.921  29.204  1.00  0.00     0.016 C 
ATOM     19  C   UNL A   1      43.222  29.856  28.249  1.00  0.00     0.021 C 
ATOM     20  C   UNL A   1      45.761  28.938  29.426  1.00  0.00     0.011 C 
ATOM     21  C   UNL A   1      44.383  30.836  28.508  1.00  0.00     0.141 C 
ATOM     22  C   UNL A   1      43.126  29.510  26.752  1.00  0.00     0.011 C 
ATOM     23  C   UNL A   1      45.740  30.140  28.476  1.00  0.00     0.034 C 
BRANCH  13  24
ATOM     24  C   UNL A   1      41.218  25.720  27.293  1.00  0.00    -0.070 C 
ATOM     25  C   UNL A   1      39.357  23.955  27.071  1.00  0.00     0.035 C 
ATOM     26  C   UNL A   1      40.375  24.790  27.783  1.00  0.00    -0.031 C 
ATOM     27  C   UNL A   1      41.121  26.208  25.860  1.00  0.00     0.040 C 
ENDBRANCH  13  24
BRANCH  21  28
ATOM     28  O   UNL A   1      44.202  31.994  27.692  1.00  0.00    -0.276 OA
BRANCH  28  29
ATOM     29  S   UNL A   1      45.326  32.603  26.696  1.00  0.00     0.217 S 
ATOM     30  O   UNL A   1      46.469  33.018  27.478  1.00  0.00    -0.213 OA
ATOM     31  O   UNL A   1      45.461  31.762  25.533  1.00  0.00    -0.213 OA
ATOM     32  O   UNL A   1      44.600  33.931  26.146  1.00  0.00    -0.726 OA
ENDBRANCH  28  29
ENDBRANCH  21  28
ENDBRANCH  11  12
ENDBRANCH   9  10
ENDBRANCH   5   8
ENDBRANCH   3   4
ENDBRANCH   2   3
ENDBRANCH   1   2
BRANCH   1  33
ATOM     33  C   UNL A   1      35.871  32.939  33.367  1.00  0.00     0.002 C 
BRANCH  33  34
ATOM     34  C   UNL A   1      34.621  32.995  32.486  1.00  0.00     0.021 C 
BRANCH  34  35
ATOM     35  C   UNL A   1      34.503  34.292  31.696  1.00  0.00     0.116 C 
BRANCH  35  36
ATOM     36  N   UNL A   1      34.259  34.013  30.290  1.00  0.00    -0.352 N 
ATOM     37  C   UNL A   1      35.162  33.957  29.264  1.00  0.00     0.251 C 
ATOM     38  H   UNL A   1      33.321  33.842  30.044  1.00  0.00     0.163 HD
ATOM     39  O   UNL A   1      34.784  34.054  28.101  1.00  0.00    -0.269 OA
BRANCH  37  40
ATOM     40  C   UNL A   1      36.592  33.769  29.580  1.00  0.00     0.039 A 
ATOM     41  C   UNL A   1      37.190  34.581  30.543  1.00  0.00     0.014 A 
ATOM     42  C   UNL A   1      37.341  32.806  28.896  1.00  0.00     0.014 A 
ATOM     43  C   UNL A   1      38.542  34.412  30.835  1.00  0.00     0.010 A 
ATOM     44  C   UNL A   1      38.663  32.579  29.250  1.00  0.00     0.010 A 
ATOM     45  C   UNL A   1      39.285  33.402  30.199  1.00  0.00    -0.014 A 
BRANCH  45  46
ATOM     46  C   UNL A   1      40.734  33.233  30.465  1.00  0.00     0.031 A 
ATOM     47  C   UNL A   1      41.709  34.255  29.942  1.00  0.00     0.074 A 
ATOM     48  C   UNL A   1      41.170  32.152  31.140  1.00  0.00     0.049 A 
ATOM     49  N   UNL A   1      43.015  34.259  30.014  1.00  0.00    -0.248 NA
ATOM     50  C   UNL A   1      41.147  35.411  29.221  1.00  0.00     0.031 C 
ATOM     51  C   UNL A   1      40.321  31.079  31.665  1.00  0.00     0.029 A 
ATOM     52  N   UNL A   1      42.439  31.776  31.499  1.00  0.00    -0.354 N 
ATOM     53  C   UNL A   1      43.426  35.408  29.348  1.00  0.00     0.074 A 
ATOM     54  C   UNL A   1      42.241  36.040  28.816  1.00  0.00     0.031 C 
ATOM     55  C   UNL A   1      41.091  30.181  32.301  1.00  0.00     0.029 A 
ATOM     56  C   UNL A   1      42.489  30.589  32.191  1.00  0.00     0.049 A 
ATOM     57  H   UNL A   1      43.240  32.306  31.282  1.00  0.00     0.167 HD
ATOM     58  C   UNL A   1      44.675  35.912  29.218  1.00  0.00     0.031 A 
ATOM     59  C   UNL A   1      43.542  29.902  32.673  1.00  0.00     0.031 A 
ATOM     60  C   UNL A   1      45.850  35.286  29.761  1.00  0.00     0.049 A 
ATOM     61  C   UNL A   1      44.926  30.473  32.491  1.00  0.00     0.074 A 
ATOM     62  C   UNL A   1      47.161  35.726  29.709  1.00  0.00     0.029 A 
ATOM     63  N   UNL A   1      45.856  34.093  30.467  1.00  0.00    -0.354 N 
ATOM     64  N   UNL A   1      45.288  31.584  31.894  1.00  0.00    -0.248 NA
ATOM     65  C   UNL A   1      46.040  29.706  33.066  1.00  0.00     0.031 C 
ATOM     66  C   UNL A   1      47.966  34.773  30.338  1.00  0.00     0.029 A 
ATOM     67  C   UNL A   1      47.149  33.777  30.846  1.00  0.00     0.049 A 
ATOM     68  H   UNL A   1      45.060  33.550  30.667  1.00  0.00     0.167 HD
ATOM     69  C   UNL A   1      46.667  31.670  32.062  1.00  0.00     0.074 A 
ATOM     70  C   UNL A   1      47.067  30.507  32.827  1.00  0.00     0.031 C 
ATOM     71  C   UNL A   1      47.525  32.624  31.625  1.00  0.00     0.031 A 
BRANCH  58  72
ATOM     72  C   UNL A   1      44.835  37.212  28.476  1.00  0.00    -0.014 A 
ATOM     73  C   UNL A   1      45.162  37.226  27.108  1.00  0.00     0.010 A 
ATOM     74  C   UNL A   1      44.589  38.432  29.133  1.00  0.00     0.010 A 
ATOM     75  C   UNL A   1      45.262  38.435  26.415  1.00  0.00     0.020 A 
ATOM     76  C   UNL A   1      44.657  39.642  28.436  1.00  0.00     0.020 A 
ATOM     77  C   UNL A   1      45.002  39.636  27.083  1.00  0.00     0.054 A 
BRANCH  77  78
ATOM     78  S   UNL A   1      45.080  41.183  26.140  1.00  0.00     0.124 S 
ATOM     79  O   UNL A   1      44.906  42.185  27.188  1.00  0.00    -0.237 OA
ATOM     80  O   UNL A   1      46.410  41.124  25.542  1.00  0.00    -0.237 OA
ATOM     81  O   UNL A   1      43.969  41.071  25.197  1.00  0.00    -0.744 OA
ENDBRANCH  77  78
ENDBRANCH  58  72
BRANCH  59  82
ATOM     82  C   UNL A   1      43.342  28.600  33.368  1.00  0.00    -0.014 A 
ATOM     83  C   UNL A   1      43.066  28.550  34.746  1.00  0.00     0.010 A 
ATOM     84  C   UNL A   1      43.460  27.393  32.654  1.00  0.00     0.010 A 
ATOM     85  C   UNL A   1      42.966  27.321  35.406  1.00  0.00     0.020 A 
ATOM     86  C   UNL A   1      43.324  26.163  33.302  1.00  0.00     0.020 A 
ATOM     87  C   UNL A   1      43.102  26.135  34.680  1.00  0.00     0.054 A 
BRANCH  87  88
ATOM     88  S   UNL A   1      42.971  24.552  35.555  1.00  0.00     0.124 S 
ATOM     89  O   UNL A   1      43.715  23.658  34.674  1.00  0.00    -0.237 OA
ATOM     90  O   UNL A   1      43.602  24.848  36.838  1.00  0.00    -0.237 OA
ATOM     91  O   UNL A   1      41.530  24.315  35.617  1.00  0.00    -0.744 OA
ENDBRANCH  87  88
ENDBRANCH  59  82
BRANCH  71  92
ATOM     92  C   UNL A   1      48.972  32.496  32.027  1.00  0.00    -0.014 A 
ATOM     93  C   UNL A   1      49.907  31.829  31.217  1.00  0.00     0.010 A 
ATOM     94  C   UNL A   1      49.406  33.101  33.221  1.00  0.00     0.010 A 
ATOM     95  C   UNL A   1      51.242  31.729  31.619  1.00  0.00     0.020 A 
ATOM     96  C   UNL A   1      50.745  33.036  33.607  1.00  0.00     0.020 A 
ATOM     97  C   UNL A   1      51.653  32.335  32.812  1.00  0.00     0.054 A 
BRANCH  97  98
ATOM     98  S   UNL A   1      53.396  32.217  33.294  1.00  0.00     0.124 S 
ATOM     99  O   UNL A   1      53.413  30.988  34.081  1.00  0.00    -0.237 OA
ATOM    100  O   UNL A   1      54.080  32.149  32.004  1.00  0.00    -0.237 OA
ATOM    101  O   UNL A   1      53.630  33.445  34.052  1.00  0.00    -0.744 OA
ENDBRANCH  97  98
ENDBRANCH  71  92
ENDBRANCH  45  46
ENDBRANCH  37  40
ENDBRANCH  35  36
ENDBRANCH  34  35
ENDBRANCH  33  34
ENDBRANCH   1  33
TORSDOF 21
ENDMDL
MODEL 3
REMARK VINA RESULT:      -8.3      5.241     11.240
REMARK SMILES C/C=C(\C)[C@H]1C(C)=C[C@H]2CC[C@@H](OS(=O)(=O)[O-])[C@@H](C)[C@H]2[C@H]1/C=C/C=C/C(=O)NCCCCCCNC(=O)c1ccc(-c2c3nc(c(-c4ccc(S(=O)(=O)[O-])cc4)c4ccc([nH]4)c(-c4ccc(S(=O)(=O)[O-])cc4)c4nc(c(-c5ccc(S(=O)(=O)[O-])cc5)c5ccc2[nH]5)C=C4)C=C3)cc1
REMARK SMILES IDX 31 1 30 2 29 3 28 4 26 5 27 6 25 8 24 9 23 10 22 11 21 12
REMARK SMILES IDX 5 13 6 14 7 15 8 16 20 17 9 18 18 19 10 20 12 21 19 22 11 23
REMARK SMILES IDX 3 24 1 25 2 26 4 27 13 28 14 29 15 30 16 31 17 32 32 33
REMARK SMILES IDX 33 34 34 35 35 36 36 37 37 39 38 40 39 41 97 42 40 43 96 44
REMARK SMILES IDX 41 45 42 46 43 47 90 48 44 49 95 50 89 51 91 52 45 53 94 54
REMARK SMILES IDX 88 55 87 56 46 58 76 59 57 60 75 61 58 62 61 63 74 64 92 65
REMARK SMILES IDX 59 66 60 67 73 69 93 70 62 71 47 72 48 73 56 74 49 75 55 76
REMARK SMILES IDX 50 77 51 78 52 79 53 80 54 81 77 82 78 83 86 84 79 85 85 86
REMARK SMILES IDX 80 87 81 88 82 89 83 90 84 91 63 92 64 93 72 94 65 95 71 96
REMARK SMILES IDX 66 97 67 98 68 99 69 100 70 101
REMARK H PARENT 28 7 35 38 91 57 61 68
REMARK Flexibility Score: inf
ROOT
ATOM      1  C   UNL A   1      38.155  28.636  28.449  1.00  0.00     0.002 C 
ENDROOT
BRANCH   1   2
ATOM      2  C   UNL A   1      37.570  30.046  28.395  1.00  0.00     0.021 C 
BRANCH   2   3
ATOM      3  C   UNL A   1      36.410  30.146  27.406  1.00  0.00     0.116 C 
BRANCH   3   4
ATOM      4  N   UNL A   1      35.647  31.338  27.704  1.00  0.00    -0.353 N 
ATOM      5  C   UNL A   1      34.307  31.521  27.608  1.00  0.00     0.243 C 
ATOM      6  O   UNL A   1      33.805  32.620  27.826  1.00  0.00    -0.270 OA
ATOM      7  H   UNL A   1      36.167  32.114  28.015  1.00  0.00     0.163 HD
BRANCH   5   8
ATOM      8  C   UNL A   1      33.441  30.338  27.450  1.00  0.00     0.071 C 
ATOM      9  C   UNL A   1      32.591  30.011  26.458  1.00  0.00     0.005 C 
BRANCH   9  10
ATOM     10  C   UNL A   1      32.136  28.658  26.420  1.00  0.00    -0.004 C 
ATOM     11  C   UNL A   1      32.654  27.515  25.966  1.00  0.00    -0.022 C 
BRANCH  11  12
ATOM     12  C   UNL A   1      31.892  26.183  26.062  1.00  0.00     0.027 C 
ATOM     13  C   UNL A   1      30.787  25.778  24.959  1.00  0.00     0.047 C 
ATOM     14  C   UNL A   1      30.864  24.305  24.518  1.00  0.00    -0.069 C 
ATOM     15  C   UNL A   1      30.452  23.851  23.143  1.00  0.00     0.040 C 
ATOM     16  C   UNL A   1      31.320  23.361  25.372  1.00  0.00    -0.024 C 
ATOM     17  C   UNL A   1      32.796  24.975  26.551  1.00  0.00     0.009 C 
ATOM     18  C   UNL A   1      31.941  23.698  26.699  1.00  0.00     0.016 C 
ATOM     19  C   UNL A   1      34.126  24.682  25.768  1.00  0.00     0.021 C 
ATOM     20  C   UNL A   1      32.784  22.546  27.287  1.00  0.00     0.011 C 
ATOM     21  C   UNL A   1      34.927  23.521  26.390  1.00  0.00     0.141 C 
ATOM     22  C   UNL A   1      33.976  24.485  24.248  1.00  0.00     0.011 C 
ATOM     23  C   UNL A   1      34.086  22.256  26.532  1.00  0.00     0.034 C 
BRANCH  13  24
ATOM     24  C   UNL A   1      30.397  26.794  23.853  1.00  0.00    -0.070 C 
ATOM     25  C   UNL A   1      28.630  28.276  22.707  1.00  0.00     0.035 C 
ATOM     26  C   UNL A   1      29.216  27.443  23.804  1.00  0.00    -0.031 C 
ATOM     27  C   UNL A   1      31.452  26.978  22.778  1.00  0.00     0.040 C 
ENDBRANCH  13  24
BRANCH  21  28
ATOM     28  O   UNL A   1      36.187  23.419  25.727  1.00  0.00    -0.276 OA
BRANCH  28  29
ATOM     29  S   UNL A   1      36.801  22.047  25.122  1.00  0.00     0.217 S 
ATOM     30  O   UNL A   1      36.018  20.932  25.604  1.00  0.00    -0.213 OA
ATOM     31  O   UNL A   1      37.106  22.219  23.723  1.00  0.00    -0.213 OA
ATOM     32  O   UNL A   1      38.241  21.982  25.839  1.00  0.00    -0.726 OA
ENDBRANCH  28  29
ENDBRANCH  21  28
ENDBRANCH  11  12
ENDBRANCH   9  10
ENDBRANCH   5   8
ENDBRANCH   3   4
ENDBRANCH   2   3
ENDBRANCH   1   2
BRANCH   1  33
ATOM     33  C   UNL A   1      39.671  28.601  28.238  1.00  0.00     0.002 C 
BRANCH  33  34
ATOM     34  C   UNL A   1      40.130  27.544  27.230  1.00  0.00     0.021 C 
BRANCH  34  35
ATOM     35  C   UNL A   1      41.304  28.003  26.375  1.00  0.00     0.116 C 
BRANCH  35  36
ATOM     36  N   UNL A   1      42.455  27.139  26.583  1.00  0.00    -0.352 N 
ATOM     37  C   UNL A   1      43.389  27.190  27.582  1.00  0.00     0.251 C 
ATOM     38  H   UNL A   1      42.580  26.424  25.917  1.00  0.00     0.163 HD
ATOM     39  O   UNL A   1      44.473  26.634  27.444  1.00  0.00    -0.269 OA
BRANCH  37  40
ATOM     40  C   UNL A   1      43.065  27.915  28.826  1.00  0.00     0.039 A 
ATOM     41  C   UNL A   1      43.338  29.280  28.912  1.00  0.00     0.014 A 
ATOM     42  C   UNL A   1      42.516  27.230  29.915  1.00  0.00     0.014 A 
ATOM     43  C   UNL A   1      43.043  29.963  30.091  1.00  0.00     0.010 A 
ATOM     44  C   UNL A   1      42.141  27.928  31.054  1.00  0.00     0.010 A 
ATOM     45  C   UNL A   1      42.431  29.294  31.165  1.00  0.00    -0.014 A 
BRANCH  45  46
ATOM     46  C   UNL A   1      42.146  29.993  32.441  1.00  0.00     0.031 A 
ATOM     47  C   UNL A   1      43.090  29.830  33.604  1.00  0.00     0.074 A 
ATOM     48  C   UNL A   1      41.031  30.739  32.563  1.00  0.00     0.049 A 
ATOM     49  N   UNL A   1      42.990  30.305  34.818  1.00  0.00    -0.248 NA
ATOM     50  C   UNL A   1      44.290  29.003  33.383  1.00  0.00     0.031 C 
ATOM     51  C   UNL A   1      40.026  30.942  31.516  1.00  0.00     0.029 A 
ATOM     52  N   UNL A   1      40.554  31.464  33.624  1.00  0.00    -0.354 N 
ATOM     53  C   UNL A   1      44.105  29.834  35.501  1.00  0.00     0.074 A 
ATOM     54  C   UNL A   1      44.832  28.978  34.591  1.00  0.00     0.031 C 
ATOM     55  C   UNL A   1      39.067  31.760  31.979  1.00  0.00     0.029 A 
ATOM     56  C   UNL A   1      39.364  32.102  33.367  1.00  0.00     0.049 A 
ATOM     57  H   UNL A   1      41.020  31.523  34.490  1.00  0.00     0.167 HD
ATOM     58  C   UNL A   1      44.509  30.114  36.761  1.00  0.00     0.031 A 
ATOM     59  C   UNL A   1      38.593  32.868  34.164  1.00  0.00     0.031 A 
ATOM     60  C   UNL A   1      43.790  30.978  37.658  1.00  0.00     0.049 A 
ATOM     61  C   UNL A   1      39.053  33.142  35.573  1.00  0.00     0.074 A 
ATOM     62  C   UNL A   1      44.124  31.349  38.949  1.00  0.00     0.029 A 
ATOM     63  N   UNL A   1      42.596  31.615  37.355  1.00  0.00    -0.354 N 
ATOM     64  N   UNL A   1      40.134  32.720  36.185  1.00  0.00    -0.248 NA
ATOM     65  C   UNL A   1      38.198  34.013  36.391  1.00  0.00     0.031 C 
ATOM     66  C   UNL A   1      43.108  32.169  39.444  1.00  0.00     0.029 A 
ATOM     67  C   UNL A   1      42.177  32.368  38.437  1.00  0.00     0.049 A 
ATOM     68  H   UNL A   1      42.118  31.542  36.498  1.00  0.00     0.167 HD
ATOM     69  C   UNL A   1      40.109  33.312  37.445  1.00  0.00     0.074 A 
ATOM     70  C   UNL A   1      38.915  34.129  37.498  1.00  0.00     0.031 C 
ATOM     71  C   UNL A   1      40.994  33.192  38.464  1.00  0.00     0.031 A 
BRANCH  58  72
ATOM     72  C   UNL A   1      45.796  29.497  37.241  1.00  0.00    -0.014 A 
ATOM     73  C   UNL A   1      45.804  28.230  37.853  1.00  0.00     0.010 A 
ATOM     74  C   UNL A   1      47.019  30.156  37.018  1.00  0.00     0.010 A 
ATOM     75  C   UNL A   1      47.007  27.643  38.253  1.00  0.00     0.020 A 
ATOM     76  C   UNL A   1      48.227  29.559  37.388  1.00  0.00     0.020 A 
ATOM     77  C   UNL A   1      48.213  28.309  38.011  1.00  0.00     0.054 A 
BRANCH  77  78
ATOM     78  S   UNL A   1      49.760  27.493  38.485  1.00  0.00     0.124 S 
ATOM     79  O   UNL A   1      49.408  26.080  38.363  1.00  0.00    -0.237 OA
ATOM     80  O   UNL A   1      50.702  27.993  37.489  1.00  0.00    -0.237 OA
ATOM     81  O   UNL A   1      49.994  27.958  39.851  1.00  0.00    -0.744 OA
ENDBRANCH  77  78
ENDBRANCH  58  72
BRANCH  59  82
ATOM     82  C   UNL A   1      37.308  33.427  33.660  1.00  0.00    -0.014 A 
ATOM     83  C   UNL A   1      36.123  32.672  33.704  1.00  0.00     0.010 A 
ATOM     84  C   UNL A   1      37.271  34.717  33.097  1.00  0.00     0.010 A 
ATOM     85  C   UNL A   1      34.940  33.172  33.150  1.00  0.00     0.020 A 
ATOM     86  C   UNL A   1      36.084  35.236  32.575  1.00  0.00     0.020 A 
ATOM     87  C   UNL A   1      34.930  34.449  32.583  1.00  0.00     0.054 A 
BRANCH  87  88
ATOM     88  S   UNL A   1      33.388  35.078  31.866  1.00  0.00     0.124 S 
ATOM     89  O   UNL A   1      32.390  34.565  32.798  1.00  0.00    -0.237 OA
ATOM     90  O   UNL A   1      33.595  36.523  31.889  1.00  0.00    -0.237 OA
ATOM     91  O   UNL A   1      33.364  34.480  30.532  1.00  0.00    -0.744 OA
ENDBRANCH  87  88
ENDBRANCH  59  82
BRANCH  71  92
ATOM     92  C   UNL A   1      40.750  34.020  39.699  1.00  0.00    -0.014 A 
ATOM     93  C   UNL A   1      41.196  35.349  39.798  1.00  0.00     0.010 A 
ATOM     94  C   UNL A   1      40.014  33.463  40.761  1.00  0.00     0.010 A 
ATOM     95  C   UNL A   1      40.951  36.090  40.957  1.00  0.00     0.020 A 
ATOM     96  C   UNL A   1      39.736  34.211  41.906  1.00  0.00     0.020 A 
ATOM     97  C   UNL A   1      40.222  35.516  42.004  1.00  0.00     0.054 A 
BRANCH  97  98
ATOM     98  S   UNL A   1      39.891  36.510  43.483  1.00  0.00     0.124 S 
ATOM     99  O   UNL A   1      38.611  35.971  43.933  1.00  0.00    -0.237 OA
ATOM    100  O   UNL A   1      41.037  36.204  44.336  1.00  0.00    -0.237 OA
ATOM    101  O   UNL A   1      39.847  37.880  42.978  1.00  0.00    -0.744 OA
ENDBRANCH  97  98
ENDBRANCH  71  92
ENDBRANCH  45  46
ENDBRANCH  37  40
ENDBRANCH  35  36
ENDBRANCH  34  35
ENDBRANCH  33  34
ENDBRANCH   1  33
TORSDOF 21
ENDMDL
