MODEL 1
REMARK VINA RESULT:     -12.3      0.000      0.000
REMARK SMILES CC[C@H](C)N1C(=O)c2ccccc2[C@@H](C(=O)NCCCCCCNC(=O)c2ccc(-c3c4nc(c(-c5ccc(S(=O)(=O)[O-])cc5)c5ccc([nH]5)c(-c5ccc(S(=O)(=O)[O-])cc5)c5nc(c(-c6ccc(S(=O)(=O)[O-])cc6)c6ccc3[nH]6)C=C5)C=C4)cc2)C12CCCCC2
REMARK SMILES IDX 21 1 20 2 19 3 18 4 17 5 15 6 16 7 14 9 5 10 6 11 87 12 7 13
REMARK SMILES IDX 8 14 88 15 92 16 9 17 13 18 89 19 91 20 10 21 12 22 90 23
REMARK SMILES IDX 11 24 3 25 4 26 2 27 1 28 22 29 23 30 24 31 25 32 26 34
REMARK SMILES IDX 27 35 28 36 86 37 29 38 85 39 30 40 31 41 32 42 79 43 33 44
REMARK SMILES IDX 84 45 78 46 80 47 34 48 83 49 77 50 76 51 35 53 65 54 46 55
REMARK SMILES IDX 64 56 47 57 50 58 63 59 81 60 48 61 49 62 62 64 82 65 51 66
REMARK SMILES IDX 36 67 37 68 45 69 38 70 44 71 39 72 40 73 41 74 42 75 43 76
REMARK SMILES IDX 66 77 67 78 75 79 68 80 74 81 69 82 70 83 71 84 72 85 73 86
REMARK SMILES IDX 52 87 53 88 61 89 54 90 60 91 55 92 56 93 57 94 58 95 59 96
REMARK H PARENT 17 8 24 33 80 52 50 63
REMARK Flexibility Score: inf
ROOT
ATOM      1  C   UNL A   1      37.675  23.186  26.091  1.00  0.00     0.002 C 
ENDROOT
BRANCH   1   2
ATOM      2  C   UNL A   1      36.828  22.216  25.272  1.00  0.00     0.002 C 
BRANCH   2   3
ATOM      3  C   UNL A   1      35.318  22.412  25.426  1.00  0.00     0.021 C 
BRANCH   3   4
ATOM      4  C   UNL A   1      34.870  23.855  25.654  1.00  0.00     0.116 C 
BRANCH   4   5
ATOM      5  N   UNL A   1      33.745  23.950  26.574  1.00  0.00    -0.355 N 
ATOM      6  C   UNL A   1      32.450  24.346  26.424  1.00  0.00     0.229 C 
ATOM      7  O   UNL A   1      31.738  24.258  27.432  1.00  0.00    -0.274 OA
ATOM      8  H   UNL A   1      33.965  23.670  27.492  1.00  0.00     0.163 HD
BRANCH   6   9
ATOM      9  C   UNL A   1      31.842  24.811  25.085  1.00  0.00     0.135 C 
ATOM     10  N   UNL A   1      32.031  26.393  23.074  1.00  0.00    -0.329 N 
ATOM     11  C   UNL A   1      32.740  25.402  22.366  1.00  0.00     0.254 C 
ATOM     12  C   UNL A   1      32.131  26.313  24.617  1.00  0.00     0.059 C 
ATOM     13  O   UNL A   1      33.463  25.588  21.396  1.00  0.00    -0.269 OA
ATOM     14  C   UNL A   1      32.546  24.006  22.797  1.00  0.00     0.044 A 
ATOM     15  C   UNL A   1      33.539  26.877  24.972  1.00  0.00     0.030 C 
ATOM     16  C   UNL A   1      31.106  27.259  25.329  1.00  0.00     0.030 C 
ATOM     17  C   UNL A   1      32.875  22.968  21.911  1.00  0.00     0.014 A 
ATOM     18  C   UNL A   1      32.013  23.718  24.046  1.00  0.00    -0.020 A 
ATOM     19  C   UNL A   1      33.808  27.225  26.441  1.00  0.00     0.002 C 
ATOM     20  C   UNL A   1      31.340  27.512  26.817  1.00  0.00     0.002 C 
ATOM     21  C   UNL A   1      32.622  21.640  22.249  1.00  0.00     0.001 A 
ATOM     22  C   UNL A   1      31.704  22.377  24.353  1.00  0.00     0.005 A 
ATOM     23  C   UNL A   1      32.725  28.082  27.068  1.00  0.00     0.000 C 
ATOM     24  C   UNL A   1      32.012  21.347  23.463  1.00  0.00     0.000 A 
BRANCH  10  25
ATOM     25  C   UNL A   1      31.683  27.685  22.367  1.00  0.00     0.082 C 
ATOM     26  C   UNL A   1      30.201  28.118  22.455  1.00  0.00     0.031 C 
BRANCH  25  27
ATOM     27  C   UNL A   1      32.523  28.885  22.885  1.00  0.00     0.021 C 
ATOM     28  C   UNL A   1      33.981  28.835  22.427  1.00  0.00     0.006 C 
ENDBRANCH  25  27
ENDBRANCH  10  25
ENDBRANCH   6   9
ENDBRANCH   4   5
ENDBRANCH   3   4
ENDBRANCH   2   3
ENDBRANCH   1   2
BRANCH   1  29
ATOM     29  C   UNL A   1      39.064  22.664  26.463  1.00  0.00     0.021 C 
BRANCH  29  30
ATOM     30  C   UNL A   1      40.009  23.714  27.038  1.00  0.00     0.116 C 
BRANCH  30  31
ATOM     31  N   UNL A   1      40.917  24.248  26.035  1.00  0.00    -0.352 N 
ATOM     32  C   UNL A   1      41.353  25.547  25.911  1.00  0.00     0.251 C 
ATOM     33  H   UNL A   1      41.260  23.608  25.370  1.00  0.00     0.163 HD
ATOM     34  O   UNL A   1      41.990  25.914  24.929  1.00  0.00    -0.269 OA
BRANCH  32  35
ATOM     35  C   UNL A   1      41.004  26.493  26.986  1.00  0.00     0.039 A 
ATOM     36  C   UNL A   1      41.568  27.771  26.985  1.00  0.00     0.014 A 
ATOM     37  C   UNL A   1      40.213  26.059  28.052  1.00  0.00     0.014 A 
ATOM     38  C   UNL A   1      41.453  28.567  28.118  1.00  0.00     0.010 A 
ATOM     39  C   UNL A   1      40.037  26.894  29.157  1.00  0.00     0.010 A 
ATOM     40  C   UNL A   1      40.686  28.138  29.214  1.00  0.00    -0.014 A 
BRANCH  40  41
ATOM     41  C   UNL A   1      40.554  29.018  30.403  1.00  0.00     0.031 A 
ATOM     42  C   UNL A   1      39.476  30.066  30.479  1.00  0.00     0.074 A 
ATOM     43  C   UNL A   1      41.394  28.835  31.440  1.00  0.00     0.049 A 
ATOM     44  N   UNL A   1      39.230  30.919  31.440  1.00  0.00    -0.248 NA
ATOM     45  C   UNL A   1      38.554  30.172  29.335  1.00  0.00     0.031 C 
ATOM     46  C   UNL A   1      42.458  27.828  31.489  1.00  0.00     0.029 A 
ATOM     47  N   UNL A   1      41.475  29.462  32.657  1.00  0.00    -0.354 N 
ATOM     48  C   UNL A   1      38.141  31.670  31.015  1.00  0.00     0.074 A 
ATOM     49  C   UNL A   1      37.784  31.190  29.698  1.00  0.00     0.031 C 
ATOM     50  C   UNL A   1      43.041  27.865  32.694  1.00  0.00     0.029 A 
ATOM     51  C   UNL A   1      42.452  28.947  33.476  1.00  0.00     0.049 A 
ATOM     52  H   UNL A   1      40.890  30.210  32.919  1.00  0.00     0.167 HD
ATOM     53  C   UNL A   1      37.494  32.662  31.673  1.00  0.00     0.031 A 
ATOM     54  C   UNL A   1      42.848  29.308  34.712  1.00  0.00     0.031 A 
ATOM     55  C   UNL A   1      37.851  33.121  32.991  1.00  0.00     0.049 A 
ATOM     56  C   UNL A   1      42.154  30.450  35.395  1.00  0.00     0.074 A 
ATOM     57  C   UNL A   1      37.247  34.116  33.742  1.00  0.00     0.029 A 
ATOM     58  N   UNL A   1      38.894  32.621  33.755  1.00  0.00    -0.354 N 
ATOM     59  N   UNL A   1      41.134  31.156  34.971  1.00  0.00    -0.248 NA
ATOM     60  C   UNL A   1      42.664  30.851  36.713  1.00  0.00     0.031 C 
ATOM     61  C   UNL A   1      37.962  34.258  34.933  1.00  0.00     0.029 A 
ATOM     62  C   UNL A   1      38.969  33.306  34.957  1.00  0.00     0.049 A 
ATOM     63  H   UNL A   1      39.493  31.889  33.483  1.00  0.00     0.167 HD
ATOM     64  C   UNL A   1      40.875  32.084  35.971  1.00  0.00     0.074 A 
ATOM     65  C   UNL A   1      41.832  31.836  37.031  1.00  0.00     0.031 C 
ATOM     66  C   UNL A   1      39.931  33.055  36.002  1.00  0.00     0.031 A 
BRANCH  53  67
ATOM     67  C   UNL A   1      36.328  33.336  30.994  1.00  0.00    -0.014 A 
ATOM     68  C   UNL A   1      36.483  33.858  29.696  1.00  0.00     0.010 A 
ATOM     69  C   UNL A   1      35.125  33.568  31.685  1.00  0.00     0.010 A 
ATOM     70  C   UNL A   1      35.472  34.624  29.111  1.00  0.00     0.020 A 
ATOM     71  C   UNL A   1      34.100  34.313  31.092  1.00  0.00     0.020 A 
ATOM     72  C   UNL A   1      34.289  34.855  29.818  1.00  0.00     0.054 A 
BRANCH  72  73
ATOM     73  S   UNL A   1      32.994  35.871  29.053  1.00  0.00     0.124 S 
ATOM     74  O   UNL A   1      32.353  34.923  28.146  1.00  0.00    -0.237 OA
ATOM     75  O   UNL A   1      32.193  36.288  30.202  1.00  0.00    -0.237 OA
ATOM     76  O   UNL A   1      33.744  36.947  28.407  1.00  0.00    -0.744 OA
ENDBRANCH  72  73
ENDBRANCH  53  67
BRANCH  54  77
ATOM     77  C   UNL A   1      43.954  28.554  35.361  1.00  0.00    -0.014 A 
ATOM     78  C   UNL A   1      43.669  27.520  36.274  1.00  0.00     0.010 A 
ATOM     79  C   UNL A   1      45.290  28.941  35.161  1.00  0.00     0.010 A 
ATOM     80  C   UNL A   1      44.690  26.936  37.026  1.00  0.00     0.020 A 
ATOM     81  C   UNL A   1      46.319  28.337  35.891  1.00  0.00     0.020 A 
ATOM     82  C   UNL A   1      46.008  27.363  36.843  1.00  0.00     0.054 A 
BRANCH  82  83
ATOM     83  S   UNL A   1      47.310  26.643  37.881  1.00  0.00     0.124 S 
ATOM     84  O   UNL A   1      47.438  25.304  37.314  1.00  0.00    -0.237 OA
ATOM     85  O   UNL A   1      48.440  27.539  37.645  1.00  0.00    -0.237 OA
ATOM     86  O   UNL A   1      46.743  26.702  39.227  1.00  0.00    -0.744 OA
ENDBRANCH  82  83
ENDBRANCH  54  77
BRANCH  66  87
ATOM     87  C   UNL A   1      39.869  33.948  37.213  1.00  0.00    -0.014 A 
ATOM     88  C   UNL A   1      39.086  33.569  38.319  1.00  0.00     0.010 A 
ATOM     89  C   UNL A   1      40.463  35.222  37.193  1.00  0.00     0.010 A 
ATOM     90  C   UNL A   1      38.862  34.466  39.366  1.00  0.00     0.020 A 
ATOM     91  C   UNL A   1      40.261  36.112  38.251  1.00  0.00     0.020 A 
ATOM     92  C   UNL A   1      39.439  35.738  39.317  1.00  0.00     0.054 A 
BRANCH  92  93
ATOM     93  S   UNL A   1      39.091  36.908  40.659  1.00  0.00     0.124 S 
ATOM     94  O   UNL A   1      38.370  36.072  41.615  1.00  0.00    -0.237 OA
ATOM     95  O   UNL A   1      40.428  37.329  41.072  1.00  0.00    -0.237 OA
ATOM     96  O   UNL A   1      38.294  37.946  40.009  1.00  0.00    -0.744 OA
ENDBRANCH  92  93
ENDBRANCH  66  87
ENDBRANCH  40  41
ENDBRANCH  32  35
ENDBRANCH  30  31
ENDBRANCH  29  30
ENDBRANCH   1  29
TORSDOF 18
ENDMDL
MODEL 2
REMARK VINA RESULT:     -12.3      2.089      8.396
REMARK SMILES CC[C@H](C)N1C(=O)c2ccccc2[C@@H](C(=O)NCCCCCCNC(=O)c2ccc(-c3c4nc(c(-c5ccc(S(=O)(=O)[O-])cc5)c5ccc([nH]5)c(-c5ccc(S(=O)(=O)[O-])cc5)c5nc(c(-c6ccc(S(=O)(=O)[O-])cc6)c6ccc3[nH]6)C=C5)C=C4)cc2)C12CCCCC2
REMARK SMILES IDX 21 1 20 2 19 3 18 4 17 5 15 6 16 7 14 9 5 10 6 11 87 12 7 13
REMARK SMILES IDX 8 14 88 15 92 16 9 17 13 18 89 19 91 20 10 21 12 22 90 23
REMARK SMILES IDX 11 24 3 25 4 26 2 27 1 28 22 29 23 30 24 31 25 32 26 34
REMARK SMILES IDX 27 35 28 36 86 37 29 38 85 39 30 40 31 41 32 42 79 43 33 44
REMARK SMILES IDX 84 45 78 46 80 47 34 48 83 49 77 50 76 51 35 53 65 54 46 55
REMARK SMILES IDX 64 56 47 57 50 58 63 59 81 60 48 61 49 62 62 64 82 65 51 66
REMARK SMILES IDX 36 67 37 68 45 69 38 70 44 71 39 72 40 73 41 74 42 75 43 76
REMARK SMILES IDX 66 77 67 78 75 79 68 80 74 81 69 82 70 83 71 84 72 85 73 86
REMARK SMILES IDX 52 87 53 88 61 89 54 90 60 91 55 92 56 93 57 94 58 95 59 96
REMARK H PARENT 17 8 24 33 80 52 50 63
REMARK Flexibility Score: inf
ROOT
ATOM      1  C   UNL A   1      32.234  30.250  26.897  1.00  0.00     0.002 C 
ENDROOT
BRANCH   1   2
ATOM      2  C   UNL A   1      32.716  29.677  25.568  1.00  0.00     0.002 C 
BRANCH   2   3
ATOM      3  C   UNL A   1      32.366  28.203  25.353  1.00  0.00     0.021 C 
BRANCH   3   4
ATOM      4  C   UNL A   1      33.560  27.249  25.320  1.00  0.00     0.116 C 
BRANCH   4   5
ATOM      5  N   UNL A   1      33.949  26.890  23.963  1.00  0.00    -0.355 N 
ATOM      6  C   UNL A   1      33.659  25.827  23.161  1.00  0.00     0.229 C 
ATOM      7  O   UNL A   1      34.137  25.864  22.021  1.00  0.00    -0.274 OA
ATOM      8  H   UNL A   1      34.542  27.550  23.538  1.00  0.00     0.163 HD
BRANCH   6   9
ATOM      9  C   UNL A   1      32.736  24.662  23.577  1.00  0.00     0.135 C 
ATOM     10  N   UNL A   1      32.181  22.887  25.343  1.00  0.00    -0.329 N 
ATOM     11  C   UNL A   1      31.268  23.777  25.945  1.00  0.00     0.254 C 
ATOM     12  C   UNL A   1      33.337  23.548  24.554  1.00  0.00     0.059 C 
ATOM     13  O   UNL A   1      30.846  23.708  27.092  1.00  0.00    -0.269 OA
ATOM     14  C   UNL A   1      30.729  24.854  25.097  1.00  0.00     0.044 A 
ATOM     15  C   UNL A   1      34.339  24.057  25.633  1.00  0.00     0.030 C 
ATOM     16  C   UNL A   1      34.136  22.513  23.691  1.00  0.00     0.030 C 
ATOM     17  C   UNL A   1      29.544  25.498  25.487  1.00  0.00     0.014 A 
ATOM     18  C   UNL A   1      31.359  25.204  23.911  1.00  0.00    -0.020 A 
ATOM     19  C   UNL A   1      35.737  24.471  25.156  1.00  0.00     0.002 C 
ATOM     20  C   UNL A   1      35.483  22.984  23.146  1.00  0.00     0.002 C 
ATOM     21  C   UNL A   1      28.956  26.459  24.666  1.00  0.00     0.001 A 
ATOM     22  C   UNL A   1      30.723  26.132  23.059  1.00  0.00     0.005 A 
ATOM     23  C   UNL A   1      36.403  23.439  24.265  1.00  0.00     0.000 C 
ATOM     24  C   UNL A   1      29.534  26.758  23.438  1.00  0.00     0.000 A 
BRANCH  10  25
ATOM     25  C   UNL A   1      32.295  21.480  25.890  1.00  0.00     0.082 C 
ATOM     26  C   UNL A   1      32.176  20.345  24.847  1.00  0.00     0.031 C 
BRANCH  25  27
ATOM     27  C   UNL A   1      33.635  21.247  26.641  1.00  0.00     0.021 C 
ATOM     28  C   UNL A   1      33.701  21.975  27.984  1.00  0.00     0.006 C 
ENDBRANCH  25  27
ENDBRANCH  10  25
ENDBRANCH   6   9
ENDBRANCH   4   5
ENDBRANCH   3   4
ENDBRANCH   2   3
ENDBRANCH   1   2
BRANCH   1  29
ATOM     29  C   UNL A   1      31.952  31.753  26.880  1.00  0.00     0.021 C 
BRANCH  29  30
ATOM     30  C   UNL A   1      33.060  32.620  27.470  1.00  0.00     0.116 C 
BRANCH  30  31
ATOM     31  N   UNL A   1      32.640  33.999  27.662  1.00  0.00    -0.352 N 
ATOM     32  C   UNL A   1      33.078  34.879  28.624  1.00  0.00     0.251 C 
ATOM     33  H   UNL A   1      31.967  34.343  27.031  1.00  0.00     0.163 HD
ATOM     34  O   UNL A   1      32.534  35.965  28.790  1.00  0.00    -0.269 OA
BRANCH  32  35
ATOM     35  C   UNL A   1      34.209  34.459  29.473  1.00  0.00     0.039 A 
ATOM     36  C   UNL A   1      35.511  34.553  28.977  1.00  0.00     0.014 A 
ATOM     37  C   UNL A   1      33.953  33.862  30.709  1.00  0.00     0.014 A 
ATOM     38  C   UNL A   1      36.546  33.925  29.658  1.00  0.00     0.010 A 
ATOM     39  C   UNL A   1      35.009  33.298  31.427  1.00  0.00     0.010 A 
ATOM     40  C   UNL A   1      36.307  33.292  30.890  1.00  0.00    -0.014 A 
BRANCH  40  41
ATOM     41  C   UNL A   1      37.434  32.652  31.614  1.00  0.00     0.031 A 
ATOM     42  C   UNL A   1      37.879  33.155  32.961  1.00  0.00     0.074 A 
ATOM     43  C   UNL A   1      38.032  31.579  31.060  1.00  0.00     0.049 A 
ATOM     44  N   UNL A   1      38.849  32.713  33.719  1.00  0.00    -0.248 NA
ATOM     45  C   UNL A   1      37.143  34.294  33.534  1.00  0.00     0.031 C 
ATOM     46  C   UNL A   1      37.662  30.985  29.772  1.00  0.00     0.029 A 
ATOM     47  N   UNL A   1      39.050  30.780  31.514  1.00  0.00    -0.354 N 
ATOM     48  C   UNL A   1      38.852  33.525  34.848  1.00  0.00     0.074 A 
ATOM     49  C   UNL A   1      37.802  34.503  34.667  1.00  0.00     0.031 C 
ATOM     50  C   UNL A   1      38.399  29.885  29.569  1.00  0.00     0.029 A 
ATOM     51  C   UNL A   1      39.346  29.736  30.669  1.00  0.00     0.049 A 
ATOM     52  H   UNL A   1      39.524  30.938  32.362  1.00  0.00     0.167 HD
ATOM     53  C   UNL A   1      39.653  33.450  35.937  1.00  0.00     0.031 A 
ATOM     54  C   UNL A   1      40.284  28.772  30.753  1.00  0.00     0.031 A 
ATOM     55  C   UNL A   1      40.687  32.462  36.110  1.00  0.00     0.049 A 
ATOM     56  C   UNL A   1      41.199  28.747  31.942  1.00  0.00     0.074 A 
ATOM     57  C   UNL A   1      41.545  32.301  37.186  1.00  0.00     0.029 A 
ATOM     58  N   UNL A   1      41.003  31.467  35.197  1.00  0.00    -0.354 N 
ATOM     59  N   UNL A   1      41.194  29.532  32.993  1.00  0.00    -0.248 NA
ATOM     60  C   UNL A   1      42.248  27.719  31.957  1.00  0.00     0.031 C 
ATOM     61  C   UNL A   1      42.417  31.250  36.896  1.00  0.00     0.029 A 
ATOM     62  C   UNL A   1      42.060  30.709  35.671  1.00  0.00     0.049 A 
ATOM     63  H   UNL A   1      40.544  31.323  34.337  1.00  0.00     0.167 HD
ATOM     64  C   UNL A   1      42.236  29.090  33.798  1.00  0.00     0.074 A 
ATOM     65  C   UNL A   1      42.837  27.957  33.124  1.00  0.00     0.031 C 
ATOM     66  C   UNL A   1      42.655  29.587  34.987  1.00  0.00     0.031 A 
BRANCH  53  67
ATOM     67  C   UNL A   1      39.464  34.457  37.042  1.00  0.00    -0.014 A 
ATOM     68  C   UNL A   1      40.128  35.697  36.978  1.00  0.00     0.010 A 
ATOM     69  C   UNL A   1      38.737  34.131  38.201  1.00  0.00     0.010 A 
ATOM     70  C   UNL A   1      40.095  36.580  38.061  1.00  0.00     0.020 A 
ATOM     71  C   UNL A   1      38.680  35.023  39.278  1.00  0.00     0.020 A 
ATOM     72  C   UNL A   1      39.379  36.231  39.209  1.00  0.00     0.054 A 
BRANCH  72  73
ATOM     73  S   UNL A   1      39.365  37.379  40.615  1.00  0.00     0.124 S 
ATOM     74  O   UNL A   1      38.435  38.410  40.164  1.00  0.00    -0.237 OA
ATOM     75  O   UNL A   1      38.892  36.537  41.711  1.00  0.00    -0.237 OA
ATOM     76  O   UNL A   1      40.761  37.799  40.725  1.00  0.00    -0.744 OA
ENDBRANCH  72  73
ENDBRANCH  53  67
BRANCH  54  77
ATOM     77  C   UNL A   1      40.372  27.759  29.667  1.00  0.00    -0.014 A 
ATOM     78  C   UNL A   1      39.389  26.757  29.548  1.00  0.00     0.010 A 
ATOM     79  C   UNL A   1      41.494  27.719  28.822  1.00  0.00     0.010 A 
ATOM     80  C   UNL A   1      39.560  25.698  28.656  1.00  0.00     0.020 A 
ATOM     81  C   UNL A   1      41.654  26.675  27.906  1.00  0.00     0.020 A 
ATOM     82  C   UNL A   1      40.702  25.653  27.853  1.00  0.00     0.054 A 
BRANCH  82  83
ATOM     83  S   UNL A   1      40.941  24.230  26.754  1.00  0.00     0.124 S 
ATOM     84  O   UNL A   1      41.491  23.234  27.669  1.00  0.00    -0.237 OA
ATOM     85  O   UNL A   1      39.587  23.965  26.273  1.00  0.00    -0.237 OA
ATOM     86  O   UNL A   1      41.869  24.733  25.744  1.00  0.00    -0.744 OA
ENDBRANCH  82  83
ENDBRANCH  54  77
BRANCH  66  87
ATOM     87  C   UNL A   1      43.831  28.927  35.656  1.00  0.00    -0.014 A 
ATOM     88  C   UNL A   1      45.138  29.322  35.318  1.00  0.00     0.010 A 
ATOM     89  C   UNL A   1      43.643  27.820  36.503  1.00  0.00     0.010 A 
ATOM     90  C   UNL A   1      46.238  28.596  35.779  1.00  0.00     0.020 A 
ATOM     91  C   UNL A   1      44.744  27.107  36.987  1.00  0.00     0.020 A 
ATOM     92  C   UNL A   1      46.032  27.483  36.598  1.00  0.00     0.054 A 
BRANCH  92  93
ATOM     93  S   UNL A   1      47.470  26.519  37.143  1.00  0.00     0.124 S 
ATOM     94  O   UNL A   1      47.274  26.466  38.588  1.00  0.00    -0.237 OA
ATOM     95  O   UNL A   1      47.294  25.252  36.435  1.00  0.00    -0.237 OA
ATOM     96  O   UNL A   1      48.607  27.321  36.694  1.00  0.00    -0.744 OA
ENDBRANCH  92  93
ENDBRANCH  66  87
ENDBRANCH  40  41
ENDBRANCH  32  35
ENDBRANCH  30  31
ENDBRANCH  29  30
ENDBRANCH   1  29
TORSDOF 18
ENDMDL
MODEL 3
REMARK VINA RESULT:     -12.2      2.096      8.580
REMARK SMILES CC[C@H](C)N1C(=O)c2ccccc2[C@@H](C(=O)NCCCCCCNC(=O)c2ccc(-c3c4nc(c(-c5ccc(S(=O)(=O)[O-])cc5)c5ccc([nH]5)c(-c5ccc(S(=O)(=O)[O-])cc5)c5nc(c(-c6ccc(S(=O)(=O)[O-])cc6)c6ccc3[nH]6)C=C5)C=C4)cc2)C12CCCCC2
REMARK SMILES IDX 21 1 20 2 19 3 18 4 17 5 15 6 16 7 14 9 5 10 6 11 87 12 7 13
REMARK SMILES IDX 8 14 88 15 92 16 9 17 13 18 89 19 91 20 10 21 12 22 90 23
REMARK SMILES IDX 11 24 3 25 4 26 2 27 1 28 22 29 23 30 24 31 25 32 26 34
REMARK SMILES IDX 27 35 28 36 86 37 29 38 85 39 30 40 31 41 32 42 79 43 33 44
REMARK SMILES IDX 84 45 78 46 80 47 34 48 83 49 77 50 76 51 35 53 65 54 46 55
REMARK SMILES IDX 64 56 47 57 50 58 63 59 81 60 48 61 49 62 62 64 82 65 51 66
REMARK SMILES IDX 36 67 37 68 45 69 38 70 44 71 39 72 40 73 41 74 42 75 43 76
REMARK SMILES IDX 66 77 67 78 75 79 68 80 74 81 69 82 70 83 71 84 72 85 73 86
REMARK SMILES IDX 52 87 53 88 61 89 54 90 60 91 55 92 56 93 57 94 58 95 59 96
REMARK H PARENT 17 8 24 33 80 52 50 63
REMARK Flexibility Score: inf
ROOT
ATOM      1  C   UNL A   1      32.577  30.317  27.021  1.00  0.00     0.002 C 
ENDROOT
BRANCH   1   2
ATOM      2  C   UNL A   1      31.801  29.547  25.957  1.00  0.00     0.002 C 
BRANCH   2   3
ATOM      3  C   UNL A   1      32.643  29.100  24.761  1.00  0.00     0.021 C 
BRANCH   3   4
ATOM      4  C   UNL A   1      33.393  27.782  24.949  1.00  0.00     0.116 C 
BRANCH   4   5
ATOM      5  N   UNL A   1      33.913  27.253  23.695  1.00  0.00    -0.355 N 
ATOM      6  C   UNL A   1      33.645  26.127  22.977  1.00  0.00     0.229 C 
ATOM      7  O   UNL A   1      34.257  26.010  21.907  1.00  0.00    -0.274 OA
ATOM      8  H   UNL A   1      34.598  27.827  23.283  1.00  0.00     0.163 HD
BRANCH   6   9
ATOM      9  C   UNL A   1      32.599  25.071  23.390  1.00  0.00     0.135 C 
ATOM     10  N   UNL A   1      31.757  23.483  25.220  1.00  0.00    -0.329 N 
ATOM     11  C   UNL A   1      30.875  24.483  25.677  1.00  0.00     0.254 C 
ATOM     12  C   UNL A   1      33.024  23.992  24.491  1.00  0.00     0.059 C 
ATOM     13  O   UNL A   1      30.356  24.534  26.785  1.00  0.00    -0.269 OA
ATOM     14  C   UNL A   1      30.497  25.531  24.712  1.00  0.00     0.044 A 
ATOM     15  C   UNL A   1      33.973  24.504  25.615  1.00  0.00     0.030 C 
ATOM     16  C   UNL A   1      33.802  22.837  23.775  1.00  0.00     0.030 C 
ATOM     17  C   UNL A   1      29.341  26.292  24.952  1.00  0.00     0.014 A 
ATOM     18  C   UNL A   1      31.248  25.741  23.564  1.00  0.00    -0.020 A 
ATOM     19  C   UNL A   1      35.435  24.772  25.234  1.00  0.00     0.002 C 
ATOM     20  C   UNL A   1      35.223  23.160  23.318  1.00  0.00     0.002 C 
ATOM     21  C   UNL A   1      28.904  27.229  24.019  1.00  0.00     0.001 A 
ATOM     22  C   UNL A   1      30.762  26.646  22.598  1.00  0.00     0.005 A 
ATOM     23  C   UNL A   1      36.083  23.628  24.479  1.00  0.00     0.000 C 
ATOM     24  C   UNL A   1      29.603  27.389  22.828  1.00  0.00     0.000 A 
BRANCH  10  25
ATOM     25  C   UNL A   1      31.709  22.118  25.871  1.00  0.00     0.082 C 
ATOM     26  C   UNL A   1      32.084  20.927  24.958  1.00  0.00     0.031 C 
BRANCH  25  27
ATOM     27  C   UNL A   1      32.636  22.025  27.114  1.00  0.00     0.021 C 
ATOM     28  C   UNL A   1      33.816  21.074  26.911  1.00  0.00     0.006 C 
ENDBRANCH  25  27
ENDBRANCH  10  25
ENDBRANCH   6   9
ENDBRANCH   4   5
ENDBRANCH   3   4
ENDBRANCH   2   3
ENDBRANCH   1   2
BRANCH   1  29
ATOM     29  C   UNL A   1      32.357  31.831  27.003  1.00  0.00     0.021 C 
BRANCH  29  30
ATOM     30  C   UNL A   1      33.382  32.637  27.793  1.00  0.00     0.116 C 
BRANCH  30  31
ATOM     31  N   UNL A   1      32.935  33.997  28.053  1.00  0.00    -0.352 N 
ATOM     32  C   UNL A   1      33.336  34.826  29.074  1.00  0.00     0.251 C 
ATOM     33  H   UNL A   1      32.272  34.366  27.426  1.00  0.00     0.163 HD
ATOM     34  O   UNL A   1      32.770  35.893  29.288  1.00  0.00    -0.269 OA
BRANCH  32  35
ATOM     35  C   UNL A   1      34.453  34.375  29.926  1.00  0.00     0.039 A 
ATOM     36  C   UNL A   1      35.766  34.536  29.476  1.00  0.00     0.014 A 
ATOM     37  C   UNL A   1      34.178  33.686  31.109  1.00  0.00     0.014 A 
ATOM     38  C   UNL A   1      36.797  33.887  30.142  1.00  0.00     0.010 A 
ATOM     39  C   UNL A   1      35.229  33.099  31.816  1.00  0.00     0.010 A 
ATOM     40  C   UNL A   1      36.541  33.163  31.319  1.00  0.00    -0.014 A 
BRANCH  40  41
ATOM     41  C   UNL A   1      37.664  32.501  32.030  1.00  0.00     0.031 A 
ATOM     42  C   UNL A   1      38.357  31.302  31.443  1.00  0.00     0.074 A 
ATOM     43  C   UNL A   1      38.084  33.020  33.200  1.00  0.00     0.049 A 
ATOM     44  N   UNL A   1      39.346  30.604  31.939  1.00  0.00    -0.248 NA
ATOM     45  C   UNL A   1      37.885  30.823  30.133  1.00  0.00     0.031 C 
ATOM     46  C   UNL A   1      37.506  34.200  33.849  1.00  0.00     0.029 A 
ATOM     47  N   UNL A   1      39.104  32.648  34.038  1.00  0.00    -0.354 N 
ATOM     48  C   UNL A   1      39.607  29.599  31.015  1.00  0.00     0.074 A 
ATOM     49  C   UNL A   1      38.656  29.760  29.936  1.00  0.00     0.031 C 
ATOM     50  C   UNL A   1      38.217  34.490  34.947  1.00  0.00     0.029 A 
ATOM     51  C   UNL A   1      39.250  33.475  35.127  1.00  0.00     0.049 A 
ATOM     52  H   UNL A   1      39.677  31.863  33.876  1.00  0.00     0.167 HD
ATOM     53  C   UNL A   1      40.560  28.638  31.062  1.00  0.00     0.031 A 
ATOM     54  C   UNL A   1      40.105  33.421  36.167  1.00  0.00     0.031 A 
ATOM     55  C   UNL A   1      41.509  28.496  32.135  1.00  0.00     0.049 A 
ATOM     56  C   UNL A   1      41.112  32.311  36.225  1.00  0.00     0.074 A 
ATOM     57  C   UNL A   1      42.519  27.558  32.265  1.00  0.00     0.029 A 
ATOM     58  N   UNL A   1      41.575  29.311  33.256  1.00  0.00    -0.354 N 
ATOM     59  N   UNL A   1      41.334  31.362  35.347  1.00  0.00    -0.248 NA
ATOM     60  C   UNL A   1      41.978  32.254  37.411  1.00  0.00     0.031 C 
ATOM     61  C   UNL A   1      43.154  27.767  33.491  1.00  0.00     0.029 A 
ATOM     62  C   UNL A   1      42.588  28.879  34.095  1.00  0.00     0.049 A 
ATOM     63  H   UNL A   1      40.987  30.082  33.429  1.00  0.00     0.167 HD
ATOM     64  C   UNL A   1      42.368  30.597  35.872  1.00  0.00     0.074 A 
ATOM     65  C   UNL A   1      42.742  31.205  37.133  1.00  0.00     0.031 C 
ATOM     66  C   UNL A   1      42.947  29.488  35.352  1.00  0.00     0.031 A 
BRANCH  53  67
ATOM     67  C   UNL A   1      40.641  27.648  29.927  1.00  0.00    -0.014 A 
ATOM     68  C   UNL A   1      41.709  27.721  29.014  1.00  0.00     0.010 A 
ATOM     69  C   UNL A   1      39.600  26.733  29.690  1.00  0.00     0.010 A 
ATOM     70  C   UNL A   1      41.723  26.920  27.868  1.00  0.00     0.020 A 
ATOM     71  C   UNL A   1      39.622  25.911  28.557  1.00  0.00     0.020 A 
ATOM     72  C   UNL A   1      40.672  26.027  27.642  1.00  0.00     0.054 A 
BRANCH  72  73
ATOM     73  S   UNL A   1      40.693  25.010  26.139  1.00  0.00     0.124 S 
ATOM     74  O   UNL A   1      39.303  24.576  26.039  1.00  0.00    -0.237 OA
ATOM     75  O   UNL A   1      41.135  25.957  25.118  1.00  0.00    -0.237 OA
ATOM     76  O   UNL A   1      41.657  23.957  26.455  1.00  0.00    -0.744 OA
ENDBRANCH  72  73
ENDBRANCH  53  67
BRANCH  54  77
ATOM     77  C   UNL A   1      40.025  34.472  37.217  1.00  0.00    -0.014 A 
ATOM     78  C   UNL A   1      39.050  34.390  38.230  1.00  0.00     0.010 A 
ATOM     79  C   UNL A   1      40.841  35.613  37.144  1.00  0.00     0.010 A 
ATOM     80  C   UNL A   1      38.845  35.458  39.105  1.00  0.00     0.020 A 
ATOM     81  C   UNL A   1      40.659  36.673  38.038  1.00  0.00     0.020 A 
ATOM     82  C   UNL A   1      39.639  36.602  38.991  1.00  0.00     0.054 A 
BRANCH  82  83
ATOM     83  S   UNL A   1      39.309  38.007  40.090  1.00  0.00     0.124 S 
ATOM     84  O   UNL A   1      38.046  38.511  39.558  1.00  0.00    -0.237 OA
ATOM     85  O   UNL A   1      39.232  37.375  41.405  1.00  0.00    -0.237 OA
ATOM     86  O   UNL A   1      40.465  38.877  39.886  1.00  0.00    -0.744 OA
ENDBRANCH  82  83
ENDBRANCH  54  77
BRANCH  66  87
ATOM     87  C   UNL A   1      44.052  28.831  36.136  1.00  0.00    -0.014 A 
ATOM     88  C   UNL A   1      45.387  29.214  35.914  1.00  0.00     0.010 A 
ATOM     89  C   UNL A   1      43.780  27.737  36.977  1.00  0.00     0.010 A 
ATOM     90  C   UNL A   1      46.436  28.489  36.485  1.00  0.00     0.020 A 
ATOM     91  C   UNL A   1      44.826  27.025  37.570  1.00  0.00     0.020 A 
ATOM     92  C   UNL A   1      46.147  27.389  37.297  1.00  0.00     0.054 A 
BRANCH  92  93
ATOM     93  S   UNL A   1      47.522  26.425  37.985  1.00  0.00     0.124 S 
ATOM     94  O   UNL A   1      48.317  26.133  36.796  1.00  0.00    -0.237 OA
ATOM     95  O   UNL A   1      48.125  27.358  38.934  1.00  0.00    -0.237 OA
ATOM     96  O   UNL A   1      46.860  25.273  38.593  1.00  0.00    -0.744 OA
ENDBRANCH  92  93
ENDBRANCH  66  87
ENDBRANCH  40  41
ENDBRANCH  32  35
ENDBRANCH  30  31
ENDBRANCH  29  30
ENDBRANCH   1  29
TORSDOF 18
ENDMDL
