MODEL 1
REMARK VINA RESULT:     -13.2      0.000      0.000
REMARK SMILES O=C(C[C@]12CSc3[nH]c(=O)sc3[C@H]1c1cc(Cl)ccc1OC2=O)NCCCCCCNC(=O)c1ccc(-c2c3nc(c(-c4ccc(S(=O)(=O)[O-])cc4)c4ccc([nH]4)c(-c4ccc(S(=O)(=O)[O-])cc4)c4nc(c(-c5ccc(S(=O)(=O)[O-])cc5)c5ccc2[nH]5)C=C4)C=C3)cc1
REMARK SMILES IDX 28 1 27 2 26 3 25 4 24 5 1 6 2 7 3 9 4 10 5 11 13 12 22 13
REMARK SMILES IDX 6 14 12 15 14 16 21 17 23 18 7 19 11 20 15 21 20 22 8 23
REMARK SMILES IDX 9 24 16 25 19 26 10 28 17 29 18 30 29 31 30 32 31 33 32 34
REMARK SMILES IDX 33 36 34 37 35 38 93 39 36 40 92 41 37 42 38 43 39 44 86 45
REMARK SMILES IDX 40 46 91 47 85 48 87 49 41 50 90 51 84 52 83 53 42 55 72 56
REMARK SMILES IDX 53 57 71 58 54 59 57 60 70 61 88 62 55 63 56 64 69 66 89 67
REMARK SMILES IDX 58 68 43 69 44 70 52 71 45 72 51 73 46 74 47 75 48 76 49 77
REMARK SMILES IDX 50 78 73 79 74 80 82 81 75 82 81 83 76 84 77 85 78 86 79 87
REMARK SMILES IDX 80 88 59 89 60 90 68 91 61 92 67 93 62 94 63 95 64 96 65 97
REMARK SMILES IDX 66 98
REMARK H PARENT 24 8 8 27 31 35 87 54 57 65
REMARK Flexibility Score: inf
ROOT
ATOM      1  C   UNL A   1      39.021  23.414  26.196  1.00  0.00     0.002 C 
ENDROOT
BRANCH   1   2
ATOM      2  C   UNL A   1      37.506  23.500  25.971  1.00  0.00     0.002 C 
BRANCH   2   3
ATOM      3  C   UNL A   1      37.071  23.311  24.508  1.00  0.00     0.021 C 
BRANCH   3   4
ATOM      4  C   UNL A   1      35.560  23.217  24.326  1.00  0.00     0.116 C 
BRANCH   4   5
ATOM      5  N   UNL A   1      34.999  24.506  24.591  1.00  0.00    -0.356 N 
ATOM      6  O   UNL A   1      33.986  23.914  26.567  1.00  0.00    -0.275 OA
ATOM      7  C   UNL A   1      34.140  24.678  25.625  1.00  0.00     0.221 C 
ATOM      8  H   UNL A   1      35.238  25.272  24.019  1.00  0.00     0.163 HD
BRANCH   7   9
ATOM      9  C   UNL A   1      33.214  25.807  25.372  1.00  0.00     0.120 C 
BRANCH   9  10
ATOM     10  C   UNL A   1      33.006  26.374  23.934  1.00  0.00     0.098 C 
ATOM     11  C   UNL A   1      33.947  27.589  23.813  1.00  0.00     0.097 C 
ATOM     12  C   UNL A   1      31.457  26.589  23.913  1.00  0.00     0.085 C 
ATOM     13  C   UNL A   1      33.270  25.550  22.633  1.00  0.00     0.319 C 
ATOM     14  S   UNL A   1      33.471  28.893  22.679  1.00  0.00    -0.106 SA
ATOM     15  C   UNL A   1      31.001  27.690  23.001  1.00  0.00     0.049 A 
ATOM     16  C   UNL A   1      30.881  25.120  23.999  1.00  0.00     0.006 A 
ATOM     17  O   UNL A   1      32.563  24.398  22.417  1.00  0.00    -0.426 OA
ATOM     18  O   UNL A   1      34.012  25.926  21.730  1.00  0.00    -0.251 OA
ATOM     19  C   UNL A   1      31.790  28.698  22.584  1.00  0.00     0.090 A 
ATOM     20  S   UNL A   1      29.316  28.186  22.878  1.00  0.00    -0.077 S 
ATOM     21  C   UNL A   1      30.168  24.724  25.151  1.00  0.00     0.028 A 
ATOM     22  C   UNL A   1      31.624  24.092  23.383  1.00  0.00     0.134 A 
ATOM     23  N   UNL A   1      31.131  29.824  22.198  1.00  0.00    -0.307 N 
ATOM     24  C   UNL A   1      29.784  29.812  22.341  1.00  0.00     0.305 A 
ATOM     25  C   UNL A   1      30.369  23.441  25.718  1.00  0.00     0.041 A 
ATOM     26  C   UNL A   1      31.746  22.784  23.879  1.00  0.00     0.049 A 
ATOM     27  H   UNL A   1      31.608  30.605  21.836  1.00  0.00     0.171 HD
ATOM     28  O   UNL A   1      29.017  30.759  22.189  1.00  0.00    -0.257 OA
ATOM     29  Cl  UNL A   1      29.805  23.119  27.316  1.00  0.00    -0.084 Cl
ATOM     30  C   UNL A   1      31.167  22.478  25.097  1.00  0.00     0.024 A 
ENDBRANCH   9  10
ENDBRANCH   7   9
ENDBRANCH   4   5
ENDBRANCH   3   4
ENDBRANCH   2   3
ENDBRANCH   1   2
BRANCH   1  31
ATOM     31  C   UNL A   1      39.564  21.983  26.295  1.00  0.00     0.021 C 
BRANCH  31  32
ATOM     32  C   UNL A   1      41.036  21.921  26.697  1.00  0.00     0.116 C 
BRANCH  32  33
ATOM     33  N   UNL A   1      41.915  22.350  25.640  1.00  0.00    -0.352 N 
ATOM     34  C   UNL A   1      42.652  23.474  25.422  1.00  0.00     0.251 C 
ATOM     35  H   UNL A   1      42.001  21.686  24.916  1.00  0.00     0.163 HD
ATOM     36  O   UNL A   1      43.385  23.449  24.429  1.00  0.00    -0.269 OA
BRANCH  34  37
ATOM     37  C   UNL A   1      42.571  24.716  26.236  1.00  0.00     0.039 A 
ATOM     38  C   UNL A   1      43.123  24.916  27.504  1.00  0.00     0.014 A 
ATOM     39  C   UNL A   1      41.795  25.745  25.673  1.00  0.00     0.014 A 
ATOM     40  C   UNL A   1      42.797  26.049  28.240  1.00  0.00     0.010 A 
ATOM     41  C   UNL A   1      41.486  26.887  26.393  1.00  0.00     0.010 A 
ATOM     42  C   UNL A   1      41.935  27.005  27.701  1.00  0.00    -0.014 A 
BRANCH  42  43
ATOM     43  C   UNL A   1      41.624  28.187  28.496  1.00  0.00     0.031 A 
ATOM     44  C   UNL A   1      42.678  29.238  28.444  1.00  0.00     0.074 A 
ATOM     45  C   UNL A   1      40.450  28.361  29.139  1.00  0.00     0.049 A 
ATOM     46  N   UNL A   1      43.423  29.654  29.413  1.00  0.00    -0.248 NA
ATOM     47  C   UNL A   1      43.058  29.777  27.127  1.00  0.00     0.031 C 
ATOM     48  C   UNL A   1      39.245  27.527  29.077  1.00  0.00     0.029 A 
ATOM     49  N   UNL A   1      40.050  29.396  29.927  1.00  0.00    -0.354 N 
ATOM     50  C   UNL A   1      44.230  30.656  28.879  1.00  0.00     0.074 A 
ATOM     51  C   UNL A   1      44.073  30.578  27.449  1.00  0.00     0.031 C 
ATOM     52  C   UNL A   1      38.193  28.217  29.579  1.00  0.00     0.029 A 
ATOM     53  C   UNL A   1      38.677  29.464  30.144  1.00  0.00     0.049 A 
ATOM     54  H   UNL A   1      40.683  30.045  30.312  1.00  0.00     0.167 HD
ATOM     55  C   UNL A   1      44.802  31.606  29.669  1.00  0.00     0.031 A 
ATOM     56  C   UNL A   1      37.988  30.488  30.717  1.00  0.00     0.031 A 
ATOM     57  C   UNL A   1      44.791  31.216  31.053  1.00  0.00     0.049 A 
ATOM     58  C   UNL A   1      38.967  31.262  31.520  1.00  0.00     0.074 A 
ATOM     59  C   UNL A   1      45.377  30.202  31.781  1.00  0.00     0.029 A 
ATOM     60  N   UNL A   1      43.772  31.710  31.831  1.00  0.00    -0.354 N 
ATOM     61  N   UNL A   1      39.567  30.785  32.574  1.00  0.00    -0.248 NA
ATOM     62  C   UNL A   1      39.621  32.388  30.875  1.00  0.00     0.031 C 
ATOM     63  C   UNL A   1      44.390  29.823  32.734  1.00  0.00     0.029 A 
ATOM     64  C   UNL A   1      43.295  30.679  32.594  1.00  0.00     0.049 A 
ATOM     65  H   UNL A   1      43.444  32.638  31.837  1.00  0.00     0.167 HD
ATOM     66  C   UNL A   1      40.871  31.241  32.468  1.00  0.00     0.074 A 
ATOM     67  C   UNL A   1      40.826  32.283  31.441  1.00  0.00     0.031 C 
ATOM     68  C   UNL A   1      41.913  30.549  33.016  1.00  0.00     0.031 A 
BRANCH  55  69
ATOM     69  C   UNL A   1      45.028  33.036  29.244  1.00  0.00    -0.014 A 
ATOM     70  C   UNL A   1      46.283  33.540  28.851  1.00  0.00     0.010 A 
ATOM     71  C   UNL A   1      43.905  33.847  28.974  1.00  0.00     0.010 A 
ATOM     72  C   UNL A   1      46.419  34.780  28.221  1.00  0.00     0.020 A 
ATOM     73  C   UNL A   1      44.024  35.073  28.307  1.00  0.00     0.020 A 
ATOM     74  C   UNL A   1      45.286  35.533  27.940  1.00  0.00     0.054 A 
BRANCH  74  75
ATOM     75  S   UNL A   1      45.495  37.091  27.046  1.00  0.00     0.124 S 
ATOM     76  O   UNL A   1      46.120  37.936  28.062  1.00  0.00    -0.237 OA
ATOM     77  O   UNL A   1      46.356  36.700  25.935  1.00  0.00    -0.237 OA
ATOM     78  O   UNL A   1      44.131  37.462  26.679  1.00  0.00    -0.744 OA
ENDBRANCH  74  75
ENDBRANCH  55  69
BRANCH  56  79
ATOM     79  C   UNL A   1      36.719  31.112  30.242  1.00  0.00    -0.014 A 
ATOM     80  C   UNL A   1      36.600  31.516  28.897  1.00  0.00     0.010 A 
ATOM     81  C   UNL A   1      35.777  31.622  31.161  1.00  0.00     0.010 A 
ATOM     82  C   UNL A   1      35.643  32.459  28.500  1.00  0.00     0.020 A 
ATOM     83  C   UNL A   1      34.810  32.568  30.768  1.00  0.00     0.020 A 
ATOM     84  C   UNL A   1      34.779  33.010  29.445  1.00  0.00     0.054 A 
BRANCH  84  85
ATOM     85  S   UNL A   1      33.694  34.375  28.927  1.00  0.00     0.124 S 
ATOM     86  O   UNL A   1      33.104  34.793  30.196  1.00  0.00    -0.237 OA
ATOM     87  O   UNL A   1      34.637  35.322  28.335  1.00  0.00    -0.237 OA
ATOM     88  O   UNL A   1      32.771  33.749  27.984  1.00  0.00    -0.744 OA
ENDBRANCH  84  85
ENDBRANCH  56  79
BRANCH  68  89
ATOM     89  C   UNL A   1      41.626  29.406  33.967  1.00  0.00    -0.014 A 
ATOM     90  C   UNL A   1      41.843  29.653  35.335  1.00  0.00     0.010 A 
ATOM     91  C   UNL A   1      41.376  28.079  33.558  1.00  0.00     0.010 A 
ATOM     92  C   UNL A   1      41.873  28.611  36.261  1.00  0.00     0.020 A 
ATOM     93  C   UNL A   1      41.375  27.028  34.493  1.00  0.00     0.020 A 
ATOM     94  C   UNL A   1      41.653  27.302  35.835  1.00  0.00     0.054 A 
BRANCH  94  95
ATOM     95  S   UNL A   1      41.778  25.978  37.068  1.00  0.00     0.124 S 
ATOM     96  O   UNL A   1      40.419  25.923  37.603  1.00  0.00    -0.237 OA
ATOM     97  O   UNL A   1      42.177  24.825  36.265  1.00  0.00    -0.237 OA
ATOM     98  O   UNL A   1      42.791  26.459  38.005  1.00  0.00    -0.744 OA
ENDBRANCH  94  95
ENDBRANCH  68  89
ENDBRANCH  42  43
ENDBRANCH  34  37
ENDBRANCH  32  33
ENDBRANCH  31  32
ENDBRANCH   1  31
TORSDOF 17
ENDMDL
MODEL 2
REMARK VINA RESULT:     -13.0      1.700      2.304
REMARK SMILES O=C(C[C@]12CSc3[nH]c(=O)sc3[C@H]1c1cc(Cl)ccc1OC2=O)NCCCCCCNC(=O)c1ccc(-c2c3nc(c(-c4ccc(S(=O)(=O)[O-])cc4)c4ccc([nH]4)c(-c4ccc(S(=O)(=O)[O-])cc4)c4nc(c(-c5ccc(S(=O)(=O)[O-])cc5)c5ccc2[nH]5)C=C4)C=C3)cc1
REMARK SMILES IDX 28 1 27 2 26 3 25 4 24 5 1 6 2 7 3 9 4 10 5 11 13 12 22 13
REMARK SMILES IDX 6 14 12 15 14 16 21 17 23 18 7 19 11 20 15 21 20 22 8 23
REMARK SMILES IDX 9 24 16 25 19 26 10 28 17 29 18 30 29 31 30 32 31 33 32 34
REMARK SMILES IDX 33 36 34 37 35 38 93 39 36 40 92 41 37 42 38 43 39 44 86 45
REMARK SMILES IDX 40 46 91 47 85 48 87 49 41 50 90 51 84 52 83 53 42 55 72 56
REMARK SMILES IDX 53 57 71 58 54 59 57 60 70 61 88 62 55 63 56 64 69 66 89 67
REMARK SMILES IDX 58 68 43 69 44 70 52 71 45 72 51 73 46 74 47 75 48 76 49 77
REMARK SMILES IDX 50 78 73 79 74 80 82 81 75 82 81 83 76 84 77 85 78 86 79 87
REMARK SMILES IDX 80 88 59 89 60 90 68 91 61 92 67 93 62 94 63 95 64 96 65 97
REMARK SMILES IDX 66 98
REMARK H PARENT 24 8 8 27 31 35 87 54 57 65
REMARK Flexibility Score: inf
ROOT
ATOM      1  C   UNL A   1      40.248  22.431  27.607  1.00  0.00     0.002 C 
ENDROOT
BRANCH   1   2
ATOM      2  C   UNL A   1      39.620  23.822  27.452  1.00  0.00     0.002 C 
BRANCH   2   3
ATOM      3  C   UNL A   1      38.547  23.913  26.353  1.00  0.00     0.021 C 
BRANCH   3   4
ATOM      4  C   UNL A   1      38.043  22.555  25.876  1.00  0.00     0.116 C 
BRANCH   4   5
ATOM      5  N   UNL A   1      36.878  22.768  25.075  1.00  0.00    -0.356 N 
ATOM      6  O   UNL A   1      35.465  21.515  26.384  1.00  0.00    -0.275 OA
ATOM      7  C   UNL A   1      35.732  22.097  25.342  1.00  0.00     0.221 C 
ATOM      8  H   UNL A   1      36.909  23.407  24.326  1.00  0.00     0.163 HD
BRANCH   7   9
ATOM      9  C   UNL A   1      34.905  21.939  24.122  1.00  0.00     0.120 C 
BRANCH   9  10
ATOM     10  C   UNL A   1      33.982  23.090  23.617  1.00  0.00     0.098 C 
ATOM     11  C   UNL A   1      34.860  24.356  23.579  1.00  0.00     0.097 C 
ATOM     12  C   UNL A   1      32.798  22.999  24.634  1.00  0.00     0.085 C 
ATOM     13  C   UNL A   1      33.264  23.076  22.230  1.00  0.00     0.319 C 
ATOM     14  S   UNL A   1      34.041  25.936  23.790  1.00  0.00    -0.106 SA
ATOM     15  C   UNL A   1      32.091  24.300  24.873  1.00  0.00     0.049 A 
ATOM     16  C   UNL A   1      32.139  21.601  24.306  1.00  0.00     0.006 A 
ATOM     17  O   UNL A   1      32.378  22.072  21.946  1.00  0.00    -0.426 OA
ATOM     18  O   UNL A   1      33.370  23.977  21.402  1.00  0.00    -0.251 OA
ATOM     19  C   UNL A   1      32.636  25.509  24.636  1.00  0.00     0.090 A 
ATOM     20  S   UNL A   1      30.789  24.474  26.046  1.00  0.00    -0.077 S 
ATOM     21  C   UNL A   1      32.201  20.566  25.266  1.00  0.00     0.028 A 
ATOM     22  C   UNL A   1      32.169  21.165  22.966  1.00  0.00     0.134 A 
ATOM     23  N   UNL A   1      32.090  26.536  25.342  1.00  0.00    -0.307 N 
ATOM     24  C   UNL A   1      31.120  26.208  26.230  1.00  0.00     0.305 A 
ATOM     25  C   UNL A   1      32.471  19.232  24.870  1.00  0.00     0.041 A 
ATOM     26  C   UNL A   1      32.329  19.829  22.560  1.00  0.00     0.049 A 
ATOM     27  H   UNL A   1      32.385  27.466  25.214  1.00  0.00     0.171 HD
ATOM     28  O   UNL A   1      30.599  26.948  27.059  1.00  0.00    -0.257 OA
ATOM     29  Cl  UNL A   1      32.930  18.069  26.058  1.00  0.00    -0.084 Cl
ATOM     30  C   UNL A   1      32.552  18.864  23.526  1.00  0.00     0.024 A 
ENDBRANCH   9  10
ENDBRANCH   7   9
ENDBRANCH   4   5
ENDBRANCH   3   4
ENDBRANCH   2   3
ENDBRANCH   1   2
BRANCH   1  31
ATOM     31  C   UNL A   1      41.692  22.331  27.097  1.00  0.00     0.021 C 
BRANCH  31  32
ATOM     32  C   UNL A   1      41.785  21.988  25.612  1.00  0.00     0.116 C 
BRANCH  32  33
ATOM     33  N   UNL A   1      42.848  22.697  24.948  1.00  0.00    -0.352 N 
ATOM     34  C   UNL A   1      43.369  23.949  25.071  1.00  0.00     0.251 C 
ATOM     35  H   UNL A   1      43.296  22.160  24.254  1.00  0.00     0.163 HD
ATOM     36  O   UNL A   1      44.369  24.182  24.386  1.00  0.00    -0.269 OA
BRANCH  34  37
ATOM     37  C   UNL A   1      42.779  25.041  25.891  1.00  0.00     0.039 A 
ATOM     38  C   UNL A   1      41.840  25.985  25.467  1.00  0.00     0.014 A 
ATOM     39  C   UNL A   1      43.293  25.146  27.196  1.00  0.00     0.014 A 
ATOM     40  C   UNL A   1      41.529  27.074  26.271  1.00  0.00     0.010 A 
ATOM     41  C   UNL A   1      42.969  26.218  28.011  1.00  0.00     0.010 A 
ATOM     42  C   UNL A   1      42.137  27.214  27.520  1.00  0.00    -0.014 A 
BRANCH  42  43
ATOM     43  C   UNL A   1      41.779  28.364  28.342  1.00  0.00     0.031 A 
ATOM     44  C   UNL A   1      42.803  29.445  28.339  1.00  0.00     0.074 A 
ATOM     45  C   UNL A   1      40.589  28.486  28.968  1.00  0.00     0.049 A 
ATOM     46  N   UNL A   1      43.519  29.854  29.332  1.00  0.00    -0.248 NA
ATOM     47  C   UNL A   1      43.190  30.032  27.044  1.00  0.00     0.031 C 
ATOM     48  C   UNL A   1      39.410  27.621  28.861  1.00  0.00     0.029 A 
ATOM     49  N   UNL A   1      40.146  29.487  29.777  1.00  0.00    -0.354 N 
ATOM     50  C   UNL A   1      44.306  30.893  28.841  1.00  0.00     0.074 A 
ATOM     51  C   UNL A   1      44.177  30.851  27.407  1.00  0.00     0.031 C 
ATOM     52  C   UNL A   1      38.330  28.267  29.362  1.00  0.00     0.029 A 
ATOM     53  C   UNL A   1      38.768  29.511  29.970  1.00  0.00     0.049 A 
ATOM     54  H   UNL A   1      40.753  30.143  30.192  1.00  0.00     0.167 HD
ATOM     55  C   UNL A   1      44.836  31.836  29.668  1.00  0.00     0.031 A 
ATOM     56  C   UNL A   1      38.040  30.499  30.559  1.00  0.00     0.031 A 
ATOM     57  C   UNL A   1      44.812  31.407  31.040  1.00  0.00     0.049 A 
ATOM     58  C   UNL A   1      38.982  31.276  31.401  1.00  0.00     0.074 A 
ATOM     59  C   UNL A   1      45.415  30.390  31.750  1.00  0.00     0.029 A 
ATOM     60  N   UNL A   1      43.767  31.849  31.813  1.00  0.00    -0.354 N 
ATOM     61  N   UNL A   1      39.577  30.787  32.452  1.00  0.00    -0.248 NA
ATOM     62  C   UNL A   1      39.615  32.438  30.799  1.00  0.00     0.031 C 
ATOM     63  C   UNL A   1      44.421  29.956  32.675  1.00  0.00     0.029 A 
ATOM     64  C   UNL A   1      43.305  30.784  32.538  1.00  0.00     0.049 A 
ATOM     65  H   UNL A   1      43.412  32.768  31.839  1.00  0.00     0.167 HD
ATOM     66  C   UNL A   1      40.870  31.282  32.383  1.00  0.00     0.074 A 
ATOM     67  C   UNL A   1      40.813  32.351  31.384  1.00  0.00     0.031 C 
ATOM     68  C   UNL A   1      41.921  30.604  32.930  1.00  0.00     0.031 A 
BRANCH  55  69
ATOM     69  C   UNL A   1      45.030  33.283  29.287  1.00  0.00    -0.014 A 
ATOM     70  C   UNL A   1      46.211  33.782  28.704  1.00  0.00     0.010 A 
ATOM     71  C   UNL A   1      43.902  34.133  29.266  1.00  0.00     0.010 A 
ATOM     72  C   UNL A   1      46.273  35.053  28.129  1.00  0.00     0.020 A 
ATOM     73  C   UNL A   1      43.941  35.393  28.655  1.00  0.00     0.020 A 
ATOM     74  C   UNL A   1      45.132  35.847  28.095  1.00  0.00     0.054 A 
BRANCH  74  75
ATOM     75  S   UNL A   1      45.229  37.450  27.263  1.00  0.00     0.124 S 
ATOM     76  O   UNL A   1      43.857  37.623  26.790  1.00  0.00    -0.237 OA
ATOM     77  O   UNL A   1      45.639  38.339  28.346  1.00  0.00    -0.237 OA
ATOM     78  O   UNL A   1      46.227  37.235  26.219  1.00  0.00    -0.744 OA
ENDBRANCH  74  75
ENDBRANCH  55  69
BRANCH  56  79
ATOM     79  C   UNL A   1      36.762  31.100  30.078  1.00  0.00    -0.014 A 
ATOM     80  C   UNL A   1      36.637  31.486  28.728  1.00  0.00     0.010 A 
ATOM     81  C   UNL A   1      35.815  31.609  30.992  1.00  0.00     0.010 A 
ATOM     82  C   UNL A   1      35.667  32.412  28.321  1.00  0.00     0.020 A 
ATOM     83  C   UNL A   1      34.835  32.537  30.589  1.00  0.00     0.020 A 
ATOM     84  C   UNL A   1      34.797  32.962  29.261  1.00  0.00     0.054 A 
BRANCH  84  85
ATOM     85  S   UNL A   1      33.693  34.307  28.728  1.00  0.00     0.124 S 
ATOM     86  O   UNL A   1      32.826  33.627  27.770  1.00  0.00    -0.237 OA
ATOM     87  O   UNL A   1      33.051  34.704  29.980  1.00  0.00    -0.237 OA
ATOM     88  O   UNL A   1      34.600  35.298  28.157  1.00  0.00    -0.744 OA
ENDBRANCH  84  85
ENDBRANCH  56  79
BRANCH  68  89
ATOM     89  C   UNL A   1      41.649  29.427  33.844  1.00  0.00    -0.014 A 
ATOM     90  C   UNL A   1      41.575  29.701  35.222  1.00  0.00     0.010 A 
ATOM     91  C   UNL A   1      41.689  28.079  33.431  1.00  0.00     0.010 A 
ATOM     92  C   UNL A   1      41.600  28.675  36.165  1.00  0.00     0.020 A 
ATOM     93  C   UNL A   1      41.683  27.038  34.377  1.00  0.00     0.020 A 
ATOM     94  C   UNL A   1      41.668  27.348  35.740  1.00  0.00     0.054 A 
BRANCH  94  95
ATOM     95  S   UNL A   1      41.775  26.057  37.010  1.00  0.00     0.124 S 
ATOM     96  O   UNL A   1      40.457  26.130  37.637  1.00  0.00    -0.237 OA
ATOM     97  O   UNL A   1      42.022  24.851  36.223  1.00  0.00    -0.237 OA
ATOM     98  O   UNL A   1      42.887  26.482  37.856  1.00  0.00    -0.744 OA
ENDBRANCH  94  95
ENDBRANCH  68  89
ENDBRANCH  42  43
ENDBRANCH  34  37
ENDBRANCH  32  33
ENDBRANCH  31  32
ENDBRANCH   1  31
TORSDOF 17
ENDMDL
MODEL 3
REMARK VINA RESULT:     -13.0      2.554      3.443
REMARK SMILES O=C(C[C@]12CSc3[nH]c(=O)sc3[C@H]1c1cc(Cl)ccc1OC2=O)NCCCCCCNC(=O)c1ccc(-c2c3nc(c(-c4ccc(S(=O)(=O)[O-])cc4)c4ccc([nH]4)c(-c4ccc(S(=O)(=O)[O-])cc4)c4nc(c(-c5ccc(S(=O)(=O)[O-])cc5)c5ccc2[nH]5)C=C4)C=C3)cc1
REMARK SMILES IDX 28 1 27 2 26 3 25 4 24 5 1 6 2 7 3 9 4 10 5 11 13 12 22 13
REMARK SMILES IDX 6 14 12 15 14 16 21 17 23 18 7 19 11 20 15 21 20 22 8 23
REMARK SMILES IDX 9 24 16 25 19 26 10 28 17 29 18 30 29 31 30 32 31 33 32 34
REMARK SMILES IDX 33 36 34 37 35 38 93 39 36 40 92 41 37 42 38 43 39 44 86 45
REMARK SMILES IDX 40 46 91 47 85 48 87 49 41 50 90 51 84 52 83 53 42 55 72 56
REMARK SMILES IDX 53 57 71 58 54 59 57 60 70 61 88 62 55 63 56 64 69 66 89 67
REMARK SMILES IDX 58 68 43 69 44 70 52 71 45 72 51 73 46 74 47 75 48 76 49 77
REMARK SMILES IDX 50 78 73 79 74 80 82 81 75 82 81 83 76 84 77 85 78 86 79 87
REMARK SMILES IDX 80 88 59 89 60 90 68 91 61 92 67 93 62 94 63 95 64 96 65 97
REMARK SMILES IDX 66 98
REMARK H PARENT 24 8 8 27 31 35 87 54 57 65
REMARK Flexibility Score: inf
ROOT
ATOM      1  C   UNL A   1      41.058  21.211  27.508  1.00  0.00     0.002 C 
ENDROOT
BRANCH   1   2
ATOM      2  C   UNL A   1      40.077  22.313  27.088  1.00  0.00     0.002 C 
BRANCH   2   3
ATOM      3  C   UNL A   1      39.037  21.871  26.044  1.00  0.00     0.021 C 
BRANCH   3   4
ATOM      4  C   UNL A   1      37.928  22.893  25.814  1.00  0.00     0.116 C 
BRANCH   4   5
ATOM      5  N   UNL A   1      36.731  22.184  25.483  1.00  0.00    -0.356 N 
ATOM      6  O   UNL A   1      37.046  22.250  23.207  1.00  0.00    -0.275 OA
ATOM      7  C   UNL A   1      36.343  22.064  24.190  1.00  0.00     0.221 C 
ATOM      8  H   UNL A   1      36.187  21.779  26.198  1.00  0.00     0.163 HD
BRANCH   7   9
ATOM      9  C   UNL A   1      34.873  21.905  24.084  1.00  0.00     0.120 C 
BRANCH   9  10
ATOM     10  C   UNL A   1      33.966  23.078  23.599  1.00  0.00     0.098 C 
ATOM     11  C   UNL A   1      34.860  24.334  23.593  1.00  0.00     0.097 C 
ATOM     12  C   UNL A   1      32.776  22.980  24.608  1.00  0.00     0.085 C 
ATOM     13  C   UNL A   1      33.255  23.103  22.208  1.00  0.00     0.319 C 
ATOM     14  S   UNL A   1      34.058  25.919  23.834  1.00  0.00    -0.106 SA
ATOM     15  C   UNL A   1      32.083  24.284  24.872  1.00  0.00     0.049 A 
ATOM     16  C   UNL A   1      32.102  21.597  24.247  1.00  0.00     0.006 A 
ATOM     17  O   UNL A   1      32.359  22.116  21.898  1.00  0.00    -0.426 OA
ATOM     18  O   UNL A   1      33.377  24.020  21.401  1.00  0.00    -0.251 OA
ATOM     19  C   UNL A   1      32.644  25.490  24.664  1.00  0.00     0.090 A 
ATOM     20  S   UNL A   1      30.778  24.448  26.041  1.00  0.00    -0.077 S 
ATOM     21  C   UNL A   1      32.147  20.542  25.184  1.00  0.00     0.028 A 
ATOM     22  C   UNL A   1      32.134  21.190  22.898  1.00  0.00     0.134 A 
ATOM     23  N   UNL A   1      32.107  26.509  25.388  1.00  0.00    -0.307 N 
ATOM     24  C   UNL A   1      31.129  26.174  26.264  1.00  0.00     0.305 A 
ATOM     25  C   UNL A   1      32.402  19.213  24.761  1.00  0.00     0.041 A 
ATOM     26  C   UNL A   1      32.280  19.861  22.464  1.00  0.00     0.049 A 
ATOM     27  H   UNL A   1      32.414  27.438  25.283  1.00  0.00     0.171 HD
ATOM     28  O   UNL A   1      30.612  26.902  27.107  1.00  0.00    -0.257 OA
ATOM     29  Cl  UNL A   1      32.841  18.019  25.926  1.00  0.00    -0.084 Cl
ATOM     30  C   UNL A   1      32.486  18.873  23.410  1.00  0.00     0.024 A 
ENDBRANCH   9  10
ENDBRANCH   7   9
ENDBRANCH   4   5
ENDBRANCH   3   4
ENDBRANCH   2   3
ENDBRANCH   1   2
BRANCH   1  31
ATOM     31  C   UNL A   1      41.156  20.043  26.518  1.00  0.00     0.021 C 
BRANCH  31  32
ATOM     32  C   UNL A   1      42.519  19.355  26.529  1.00  0.00     0.116 C 
BRANCH  32  33
ATOM     33  N   UNL A   1      43.290  19.640  25.346  1.00  0.00    -0.352 N 
ATOM     34  C   UNL A   1      43.995  20.722  24.916  1.00  0.00     0.251 C 
ATOM     35  H   UNL A   1      43.312  18.888  24.710  1.00  0.00     0.163 HD
ATOM     36  O   UNL A   1      44.630  20.566  23.869  1.00  0.00    -0.269 OA
BRANCH  34  37
ATOM     37  C   UNL A   1      43.983  22.060  25.567  1.00  0.00     0.039 A 
ATOM     38  C   UNL A   1      44.667  22.423  26.730  1.00  0.00     0.014 A 
ATOM     39  C   UNL A   1      43.132  23.005  24.966  1.00  0.00     0.014 A 
ATOM     40  C   UNL A   1      44.405  23.642  27.345  1.00  0.00     0.010 A 
ATOM     41  C   UNL A   1      42.885  24.230  25.562  1.00  0.00     0.010 A 
ATOM     42  C   UNL A   1      43.473  24.518  26.786  1.00  0.00    -0.014 A 
BRANCH  42  43
ATOM     43  C   UNL A   1      43.231  25.792  27.452  1.00  0.00     0.031 A 
ATOM     44  C   UNL A   1      44.238  26.839  27.124  1.00  0.00     0.074 A 
ATOM     45  C   UNL A   1      42.144  26.036  28.214  1.00  0.00     0.049 A 
ATOM     46  N   UNL A   1      45.088  27.392  27.924  1.00  0.00    -0.248 NA
ATOM     47  C   UNL A   1      44.430  27.201  25.709  1.00  0.00     0.031 C 
ATOM     48  C   UNL A   1      40.966  25.187  28.421  1.00  0.00     0.029 A 
ATOM     49  N   UNL A   1      41.818  27.163  28.904  1.00  0.00    -0.354 N 
ATOM     50  C   UNL A   1      45.790  28.322  27.161  1.00  0.00     0.074 A 
ATOM     51  C   UNL A   1      45.454  28.050  25.787  1.00  0.00     0.031 C 
ATOM     52  C   UNL A   1      39.967  25.925  28.961  1.00  0.00     0.029 A 
ATOM     53  C   UNL A   1      40.482  27.243  29.288  1.00  0.00     0.049 A 
ATOM     54  H   UNL A   1      42.475  27.866  29.114  1.00  0.00     0.167 HD
ATOM     55  C   UNL A   1      46.429  29.377  27.738  1.00  0.00     0.031 A 
ATOM     56  C   UNL A   1      39.842  28.327  29.806  1.00  0.00     0.031 A 
ATOM     57  C   UNL A   1      46.607  29.177  29.151  1.00  0.00     0.049 A 
ATOM     58  C   UNL A   1      40.892  29.214  30.364  1.00  0.00     0.074 A 
ATOM     59  C   UNL A   1      47.312  28.278  29.923  1.00  0.00     0.029 A 
ATOM     60  N   UNL A   1      45.682  29.758  29.983  1.00  0.00    -0.354 N 
ATOM     61  N   UNL A   1      41.635  28.891  31.385  1.00  0.00    -0.248 NA
ATOM     62  C   UNL A   1      41.425  30.250  29.496  1.00  0.00     0.031 C 
ATOM     63  C   UNL A   1      46.466  28.019  31.039  1.00  0.00     0.029 A 
ATOM     64  C   UNL A   1      45.337  28.834  30.932  1.00  0.00     0.049 A 
ATOM     65  H   UNL A   1      45.330  30.675  29.909  1.00  0.00     0.167 HD
ATOM     66  C   UNL A   1      42.902  29.345  31.049  1.00  0.00     0.074 A 
ATOM     67  C   UNL A   1      42.695  30.238  29.909  1.00  0.00     0.031 C 
ATOM     68  C   UNL A   1      44.025  28.746  31.543  1.00  0.00     0.031 A 
BRANCH  55  69
ATOM     69  C   UNL A   1      46.557  30.739  27.101  1.00  0.00    -0.014 A 
ATOM     70  C   UNL A   1      45.456  31.567  26.810  1.00  0.00     0.010 A 
ATOM     71  C   UNL A   1      47.836  31.332  27.026  1.00  0.00     0.010 A 
ATOM     72  C   UNL A   1      45.611  32.912  26.465  1.00  0.00     0.020 A 
ATOM     73  C   UNL A   1      48.001  32.690  26.721  1.00  0.00     0.020 A 
ATOM     74  C   UNL A   1      46.884  33.469  26.437  1.00  0.00     0.054 A 
BRANCH  74  75
ATOM     75  S   UNL A   1      47.037  35.234  26.072  1.00  0.00     0.124 S 
ATOM     76  O   UNL A   1      47.442  35.772  27.370  1.00  0.00    -0.237 OA
ATOM     77  O   UNL A   1      48.064  35.251  25.035  1.00  0.00    -0.237 OA
ATOM     78  O   UNL A   1      45.697  35.611  25.631  1.00  0.00    -0.744 OA
ENDBRANCH  74  75
ENDBRANCH  55  69
BRANCH  56  79
ATOM     79  C   UNL A   1      38.505  28.865  29.422  1.00  0.00    -0.014 A 
ATOM     80  C   UNL A   1      38.294  29.344  28.113  1.00  0.00     0.010 A 
ATOM     81  C   UNL A   1      37.563  29.229  30.409  1.00  0.00     0.010 A 
ATOM     82  C   UNL A   1      37.242  30.223  27.818  1.00  0.00     0.020 A 
ATOM     83  C   UNL A   1      36.502  30.108  30.118  1.00  0.00     0.020 A 
ATOM     84  C   UNL A   1      36.376  30.631  28.831  1.00  0.00     0.054 A 
BRANCH  84  85
ATOM     85  S   UNL A   1      35.156  31.925  28.449  1.00  0.00     0.124 S 
ATOM     86  O   UNL A   1      34.784  32.396  29.781  1.00  0.00    -0.237 OA
ATOM     87  O   UNL A   1      35.934  32.868  27.647  1.00  0.00    -0.237 OA
ATOM     88  O   UNL A   1      34.107  31.214  27.722  1.00  0.00    -0.744 OA
ENDBRANCH  84  85
ENDBRANCH  56  79
BRANCH  68  89
ATOM     89  C   UNL A   1      43.896  27.738  32.667  1.00  0.00    -0.014 A 
ATOM     90  C   UNL A   1      43.923  26.379  32.301  1.00  0.00     0.010 A 
ATOM     91  C   UNL A   1      43.535  28.068  33.989  1.00  0.00     0.010 A 
ATOM     92  C   UNL A   1      43.547  25.382  33.200  1.00  0.00     0.020 A 
ATOM     93  C   UNL A   1      43.184  27.064  34.909  1.00  0.00     0.020 A 
ATOM     94  C   UNL A   1      43.165  25.729  34.496  1.00  0.00     0.054 A 
BRANCH  94  95
ATOM     95  S   UNL A   1      42.612  24.400  35.599  1.00  0.00     0.124 S 
ATOM     96  O   UNL A   1      43.042  23.202  34.881  1.00  0.00    -0.237 OA
ATOM     97  O   UNL A   1      43.343  24.680  36.833  1.00  0.00    -0.237 OA
ATOM     98  O   UNL A   1      41.166  24.584  35.683  1.00  0.00    -0.744 OA
ENDBRANCH  94  95
ENDBRANCH  68  89
ENDBRANCH  42  43
ENDBRANCH  34  37
ENDBRANCH  32  33
ENDBRANCH  31  32
ENDBRANCH   1  31
TORSDOF 17
ENDMDL
