MODEL 1
REMARK VINA RESULT:     -12.1      0.000      0.000
REMARK SMILES Cc1nc2cc(S(=O)(=O)N3CCC(C(=O)NCCCCCCNC(=O)c4ccc(-c5c6nc(c(-c7ccc(S(=O)(=O)[O-])cc7)c7ccc([nH]7)c(-c7ccc(S(=O)(=O)[O-])cc7)c7nc(c(-c8ccc(S(=O)(=O)[O-])cc8)c8ccc5[nH]8)C=C7)C=C6)cc4)CC3)ccc2n1C1CCCC1
REMARK SMILES IDX 19 1 18 2 17 3 16 4 14 5 15 6 13 8 10 9 11 10 87 11 12 12
REMARK SMILES IDX 86 13 7 14 8 15 9 16 6 17 1 18 2 19 3 20 91 21 4 22 90 23
REMARK SMILES IDX 5 24 89 25 88 26 92 27 93 28 96 29 94 30 95 31 20 32 21 33
REMARK SMILES IDX 22 34 23 35 24 36 25 38 26 39 27 40 85 41 28 42 84 43 29 44
REMARK SMILES IDX 30 45 31 46 78 47 32 48 83 49 77 50 79 51 33 52 82 53 76 54
REMARK SMILES IDX 75 55 34 57 64 58 45 59 63 60 46 61 49 62 62 63 80 64 47 65
REMARK SMILES IDX 48 66 61 68 81 69 50 70 35 71 36 72 44 73 37 74 43 75 38 76
REMARK SMILES IDX 39 77 40 78 41 79 42 80 65 81 66 82 74 83 67 84 73 85 68 86
REMARK SMILES IDX 69 87 70 88 71 89 72 90 51 91 52 92 60 93 53 94 59 95 54 96
REMARK SMILES IDX 55 97 56 98 57 99 58 100
REMARK H PARENT 16 7 23 37 79 56 49 67
REMARK Flexibility Score: inf
ROOT
ATOM      1  C   UNL A   1      37.448  30.830  28.776  1.00  0.00     0.002 C 
ENDROOT
BRANCH   1   2
ATOM      2  C   UNL A   1      36.514  29.621  28.778  1.00  0.00     0.021 C 
BRANCH   2   3
ATOM      3  C   UNL A   1      35.724  29.469  27.484  1.00  0.00     0.116 C 
BRANCH   3   4
ATOM      4  N   UNL A   1      34.311  29.755  27.694  1.00  0.00    -0.356 N 
ATOM      5  C   UNL A   1      33.204  29.212  27.114  1.00  0.00     0.223 C 
ATOM      6  O   UNL A   1      32.095  29.664  27.404  1.00  0.00    -0.275 OA
ATOM      7  H   UNL A   1      34.126  30.453  28.364  1.00  0.00     0.163 HD
BRANCH   5   8
ATOM      8  C   UNL A   1      33.332  28.066  26.123  1.00  0.00     0.081 C 
ATOM      9  N   UNL A   1      32.560  26.811  23.619  1.00  0.00    -0.198 NA
ATOM     10  C   UNL A   1      31.952  26.321  24.878  1.00  0.00     0.103 C 
ATOM     11  C   UNL A   1      33.814  27.602  23.654  1.00  0.00     0.103 C 
ATOM     12  C   UNL A   1      32.016  27.307  26.019  1.00  0.00     0.030 C 
ATOM     13  C   UNL A   1      33.907  28.576  24.805  1.00  0.00     0.030 C 
BRANCH   9  14
ATOM     14  S   UNL A   1      32.481  25.678  22.319  1.00  0.00     0.243 S 
ATOM     15  O   UNL A   1      33.465  26.067  21.330  1.00  0.00    -0.207 OA
ATOM     16  O   UNL A   1      31.086  25.500  21.982  1.00  0.00    -0.207 OA
BRANCH  14  17
ATOM     17  C   UNL A   1      33.035  24.121  22.997  1.00  0.00     0.085 A 
ATOM     18  C   UNL A   1      37.124  20.340  25.164  1.00  0.00     0.088 C 
ATOM     19  C   UNL A   1      35.999  21.149  24.635  1.00  0.00     0.106 A 
ATOM     20  N   UNL A   1      36.104  22.396  24.217  1.00  0.00    -0.233 NA
ATOM     21  N   UNL A   1      34.704  20.692  24.510  1.00  0.00    -0.325 N 
ATOM     22  C   UNL A   1      34.848  22.775  23.826  1.00  0.00     0.090 A 
ATOM     23  C   UNL A   1      33.952  21.725  23.995  1.00  0.00     0.068 A 
ATOM     24  C   UNL A   1      34.397  24.000  23.311  1.00  0.00     0.052 A 
ATOM     25  C   UNL A   1      32.602  21.829  23.674  1.00  0.00     0.030 A 
ATOM     26  C   UNL A   1      32.163  23.048  23.190  1.00  0.00     0.024 A 
BRANCH  21  27
ATOM     27  C   UNL A   1      34.199  19.375  24.849  1.00  0.00     0.089 C 
ATOM     28  C   UNL A   1      33.027  19.379  25.836  1.00  0.00     0.025 C 
ATOM     29  C   UNL A   1      33.688  18.572  23.647  1.00  0.00     0.025 C 
ATOM     30  C   UNL A   1      32.356  18.029  25.638  1.00  0.00     0.002 C 
ATOM     31  C   UNL A   1      32.658  17.596  24.207  1.00  0.00     0.002 C 
ENDBRANCH  21  27
ENDBRANCH  14  17
ENDBRANCH   9  14
ENDBRANCH   5   8
ENDBRANCH   3   4
ENDBRANCH   2   3
ENDBRANCH   1   2
BRANCH   1  32
ATOM     32  C   UNL A   1      36.762  32.159  28.444  1.00  0.00     0.002 C 
BRANCH  32  33
ATOM     33  C   UNL A   1      36.158  32.900  29.646  1.00  0.00     0.021 C 
BRANCH  33  34
ATOM     34  C   UNL A   1      35.112  32.090  30.413  1.00  0.00     0.116 C 
BRANCH  34  35
ATOM     35  N   UNL A   1      35.221  32.236  31.848  1.00  0.00    -0.352 N 
ATOM     36  C   UNL A   1      36.166  31.923  32.781  1.00  0.00     0.251 C 
ATOM     37  H   UNL A   1      34.426  32.661  32.243  1.00  0.00     0.163 HD
ATOM     38  O   UNL A   1      35.928  32.302  33.931  1.00  0.00    -0.269 OA
BRANCH  36  39
ATOM     39  C   UNL A   1      37.394  31.119  32.529  1.00  0.00     0.039 A 
ATOM     40  C   UNL A   1      38.667  31.628  32.277  1.00  0.00     0.014 A 
ATOM     41  C   UNL A   1      37.207  29.723  32.466  1.00  0.00     0.014 A 
ATOM     42  C   UNL A   1      39.687  30.782  31.852  1.00  0.00     0.010 A 
ATOM     43  C   UNL A   1      38.227  28.871  32.063  1.00  0.00     0.010 A 
ATOM     44  C   UNL A   1      39.452  29.411  31.694  1.00  0.00    -0.014 A 
BRANCH  44  45
ATOM     45  C   UNL A   1      40.551  28.587  31.204  1.00  0.00     0.031 A 
ATOM     46  C   UNL A   1      41.607  28.294  32.212  1.00  0.00     0.074 A 
ATOM     47  C   UNL A   1      40.631  28.077  29.959  1.00  0.00     0.049 A 
ATOM     48  N   UNL A   1      42.826  28.725  32.219  1.00  0.00    -0.248 NA
ATOM     49  C   UNL A   1      41.228  27.544  33.417  1.00  0.00     0.031 C 
ATOM     50  C   UNL A   1      39.611  28.034  28.908  1.00  0.00     0.029 A 
ATOM     51  N   UNL A   1      41.670  27.401  29.397  1.00  0.00    -0.354 N 
ATOM     52  C   UNL A   1      43.429  28.172  33.344  1.00  0.00     0.074 A 
ATOM     53  C   UNL A   1      42.370  27.558  34.107  1.00  0.00     0.031 C 
ATOM     54  C   UNL A   1      40.000  27.162  27.945  1.00  0.00     0.029 A 
ATOM     55  C   UNL A   1      41.354  26.720  28.229  1.00  0.00     0.049 A 
ATOM     56  H   UNL A   1      42.574  27.395  29.788  1.00  0.00     0.167 HD
ATOM     57  C   UNL A   1      44.783  28.122  33.487  1.00  0.00     0.031 A 
ATOM     58  C   UNL A   1      42.137  25.821  27.576  1.00  0.00     0.031 A 
ATOM     59  C   UNL A   1      45.450  29.017  32.580  1.00  0.00     0.049 A 
ATOM     60  C   UNL A   1      43.540  26.109  27.972  1.00  0.00     0.074 A 
ATOM     61  C   UNL A   1      45.443  30.386  32.402  1.00  0.00     0.029 A 
ATOM     62  N   UNL A   1      45.972  28.490  31.423  1.00  0.00    -0.354 N 
ATOM     63  N   UNL A   1      44.166  27.208  27.649  1.00  0.00    -0.248 NA
ATOM     64  C   UNL A   1      44.082  25.389  29.114  1.00  0.00     0.031 C 
ATOM     65  C   UNL A   1      45.461  30.566  30.989  1.00  0.00     0.029 A 
ATOM     66  C   UNL A   1      45.563  29.305  30.397  1.00  0.00     0.049 A 
ATOM     67  H   UNL A   1      46.531  27.683  31.344  1.00  0.00     0.167 HD
ATOM     68  C   UNL A   1      44.891  27.545  28.783  1.00  0.00     0.074 A 
ATOM     69  C   UNL A   1      44.851  26.351  29.628  1.00  0.00     0.031 C 
ATOM     70  C   UNL A   1      45.230  28.838  29.066  1.00  0.00     0.031 A 
BRANCH  57  71
ATOM     71  C   UNL A   1      45.515  27.046  34.244  1.00  0.00    -0.014 A 
ATOM     72  C   UNL A   1      45.703  27.085  35.641  1.00  0.00     0.010 A 
ATOM     73  C   UNL A   1      45.816  25.832  33.593  1.00  0.00     0.010 A 
ATOM     74  C   UNL A   1      46.179  25.983  36.354  1.00  0.00     0.020 A 
ATOM     75  C   UNL A   1      46.254  24.706  34.306  1.00  0.00     0.020 A 
ATOM     76  C   UNL A   1      46.439  24.794  35.683  1.00  0.00     0.054 A 
BRANCH  76  77
ATOM     77  S   UNL A   1      46.957  23.361  36.659  1.00  0.00     0.124 S 
ATOM     78  O   UNL A   1      46.002  22.345  36.228  1.00  0.00    -0.237 OA
ATOM     79  O   UNL A   1      48.334  23.163  36.214  1.00  0.00    -0.237 OA
ATOM     80  O   UNL A   1      46.807  23.814  38.039  1.00  0.00    -0.744 OA
ENDBRANCH  76  77
ENDBRANCH  57  71
BRANCH  58  81
ATOM     81  C   UNL A   1      41.709  24.466  27.122  1.00  0.00    -0.014 A 
ATOM     82  C   UNL A   1      41.056  23.598  28.020  1.00  0.00     0.010 A 
ATOM     83  C   UNL A   1      42.217  23.910  25.930  1.00  0.00     0.010 A 
ATOM     84  C   UNL A   1      40.986  22.220  27.785  1.00  0.00     0.020 A 
ATOM     85  C   UNL A   1      42.150  22.524  25.687  1.00  0.00     0.020 A 
ATOM     86  C   UNL A   1      41.570  21.685  26.638  1.00  0.00     0.054 A 
BRANCH  86  87
ATOM     87  S   UNL A   1      41.634  19.877  26.477  1.00  0.00     0.124 S 
ATOM     88  O   UNL A   1      42.626  19.701  25.420  1.00  0.00    -0.237 OA
ATOM     89  O   UNL A   1      42.058  19.456  27.810  1.00  0.00    -0.237 OA
ATOM     90  O   UNL A   1      40.266  19.511  26.119  1.00  0.00    -0.744 OA
ENDBRANCH  86  87
ENDBRANCH  58  81
BRANCH  70  91
ATOM     91  C   UNL A   1      45.009  29.921  28.028  1.00  0.00    -0.014 A 
ATOM     92  C   UNL A   1      46.134  30.349  27.299  1.00  0.00     0.010 A 
ATOM     93  C   UNL A   1      43.820  30.670  27.917  1.00  0.00     0.010 A 
ATOM     94  C   UNL A   1      46.099  31.512  26.528  1.00  0.00     0.020 A 
ATOM     95  C   UNL A   1      43.769  31.827  27.119  1.00  0.00     0.020 A 
ATOM     96  C   UNL A   1      44.920  32.255  26.454  1.00  0.00     0.054 A 
BRANCH  96  97
ATOM     97  S   UNL A   1      44.948  33.799  25.502  1.00  0.00     0.124 S 
ATOM     98  O   UNL A   1      44.093  34.675  26.302  1.00  0.00    -0.237 OA
ATOM     99  O   UNL A   1      46.367  34.151  25.498  1.00  0.00    -0.237 OA
ATOM    100  O   UNL A   1      44.402  33.424  24.200  1.00  0.00    -0.744 OA
ENDBRANCH  96  97
ENDBRANCH  70  91
ENDBRANCH  44  45
ENDBRANCH  36  39
ENDBRANCH  34  35
ENDBRANCH  33  34
ENDBRANCH  32  33
ENDBRANCH   1  32
TORSDOF 19
ENDMDL
MODEL 2
REMARK VINA RESULT:     -12.0      3.365     10.000
REMARK SMILES Cc1nc2cc(S(=O)(=O)N3CCC(C(=O)NCCCCCCNC(=O)c4ccc(-c5c6nc(c(-c7ccc(S(=O)(=O)[O-])cc7)c7ccc([nH]7)c(-c7ccc(S(=O)(=O)[O-])cc7)c7nc(c(-c8ccc(S(=O)(=O)[O-])cc8)c8ccc5[nH]8)C=C7)C=C6)cc4)CC3)ccc2n1C1CCCC1
REMARK SMILES IDX 19 1 18 2 17 3 16 4 14 5 15 6 13 8 10 9 11 10 87 11 12 12
REMARK SMILES IDX 86 13 7 14 8 15 9 16 6 17 1 18 2 19 3 20 91 21 4 22 90 23
REMARK SMILES IDX 5 24 89 25 88 26 92 27 93 28 96 29 94 30 95 31 20 32 21 33
REMARK SMILES IDX 22 34 23 35 24 36 25 38 26 39 27 40 85 41 28 42 84 43 29 44
REMARK SMILES IDX 30 45 31 46 78 47 32 48 83 49 77 50 79 51 33 52 82 53 76 54
REMARK SMILES IDX 75 55 34 57 64 58 45 59 63 60 46 61 49 62 62 63 80 64 47 65
REMARK SMILES IDX 48 66 61 68 81 69 50 70 35 71 36 72 44 73 37 74 43 75 38 76
REMARK SMILES IDX 39 77 40 78 41 79 42 80 65 81 66 82 74 83 67 84 73 85 68 86
REMARK SMILES IDX 69 87 70 88 71 89 72 90 51 91 52 92 60 93 53 94 59 95 54 96
REMARK SMILES IDX 55 97 56 98 57 99 58 100
REMARK H PARENT 16 7 23 37 79 56 49 67
REMARK Flexibility Score: inf
ROOT
ATOM      1  C   UNL A   1      39.117  21.492  25.919  1.00  0.00     0.002 C 
ENDROOT
BRANCH   1   2
ATOM      2  C   UNL A   1      37.735  22.122  25.756  1.00  0.00     0.021 C 
BRANCH   2   3
ATOM      3  C   UNL A   1      36.605  21.101  25.746  1.00  0.00     0.116 C 
BRANCH   3   4
ATOM      4  N   UNL A   1      35.496  21.534  26.585  1.00  0.00    -0.356 N 
ATOM      5  C   UNL A   1      34.700  22.636  26.497  1.00  0.00     0.223 C 
ATOM      6  O   UNL A   1      33.854  22.833  27.372  1.00  0.00    -0.275 OA
ATOM      7  H   UNL A   1      35.288  20.934  27.338  1.00  0.00     0.163 HD
BRANCH   5   8
ATOM      8  C   UNL A   1      34.850  23.610  25.339  1.00  0.00     0.081 C 
ATOM      9  N   UNL A   1      33.651  25.251  23.264  1.00  0.00    -0.198 NA
ATOM     10  C   UNL A   1      34.218  23.934  22.891  1.00  0.00     0.103 C 
ATOM     11  C   UNL A   1      34.048  25.902  24.536  1.00  0.00     0.103 C 
ATOM     12  C   UNL A   1      34.358  22.973  24.045  1.00  0.00     0.030 C 
ATOM     13  C   UNL A   1      34.218  24.951  25.697  1.00  0.00     0.030 C 
BRANCH   9  14
ATOM     14  S   UNL A   1      33.492  26.344  21.936  1.00  0.00     0.243 S 
ATOM     15  O   UNL A   1      33.227  25.562  20.746  1.00  0.00    -0.207 OA
ATOM     16  O   UNL A   1      34.593  27.278  22.009  1.00  0.00    -0.207 OA
BRANCH  14  17
ATOM     17  C   UNL A   1      32.011  27.288  22.260  1.00  0.00     0.085 A 
ATOM     18  C   UNL A   1      26.325  27.972  23.968  1.00  0.00     0.088 C 
ATOM     19  C   UNL A   1      27.733  27.967  23.502  1.00  0.00     0.106 A 
ATOM     20  N   UNL A   1      28.501  26.895  23.447  1.00  0.00    -0.233 NA
ATOM     21  N   UNL A   1      28.410  29.084  23.060  1.00  0.00    -0.325 N 
ATOM     22  C   UNL A   1      29.715  27.319  22.978  1.00  0.00     0.090 A 
ATOM     23  C   UNL A   1      29.685  28.685  22.724  1.00  0.00     0.068 A 
ATOM     24  C   UNL A   1      30.891  26.591  22.739  1.00  0.00     0.052 A 
ATOM     25  C   UNL A   1      30.784  29.385  22.235  1.00  0.00     0.030 A 
ATOM     26  C   UNL A   1      31.946  28.662  22.025  1.00  0.00     0.024 A 
BRANCH  21  27
ATOM     27  C   UNL A   1      27.900  30.439  22.958  1.00  0.00     0.089 C 
ATOM     28  C   UNL A   1      28.696  31.478  23.757  1.00  0.00     0.025 C 
ATOM     29  C   UNL A   1      27.872  30.991  21.529  1.00  0.00     0.025 C 
ATOM     30  C   UNL A   1      28.339  32.809  23.113  1.00  0.00     0.002 C 
ATOM     31  C   UNL A   1      27.960  32.508  21.667  1.00  0.00     0.002 C 
ENDBRANCH  21  27
ENDBRANCH  14  17
ENDBRANCH   9  14
ENDBRANCH   5   8
ENDBRANCH   3   4
ENDBRANCH   2   3
ENDBRANCH   1   2
BRANCH   1  32
ATOM     32  C   UNL A   1      40.012  22.185  26.952  1.00  0.00     0.002 C 
BRANCH  32  33
ATOM     33  C   UNL A   1      41.040  21.275  27.640  1.00  0.00     0.021 C 
BRANCH  33  34
ATOM     34  C   UNL A   1      42.476  21.795  27.568  1.00  0.00     0.116 C 
BRANCH  34  35
ATOM     35  N   UNL A   1      42.850  22.248  26.246  1.00  0.00    -0.352 N 
ATOM     36  C   UNL A   1      43.117  23.461  25.680  1.00  0.00     0.251 C 
ATOM     37  H   UNL A   1      42.932  21.506  25.603  1.00  0.00     0.163 HD
ATOM     38  O   UNL A   1      43.506  23.432  24.509  1.00  0.00    -0.269 OA
BRANCH  36  39
ATOM     39  C   UNL A   1      42.910  24.782  26.336  1.00  0.00     0.039 A 
ATOM     40  C   UNL A   1      43.595  25.256  27.454  1.00  0.00     0.014 A 
ATOM     41  C   UNL A   1      41.868  25.570  25.806  1.00  0.00     0.014 A 
ATOM     42  C   UNL A   1      43.168  26.415  28.096  1.00  0.00     0.010 A 
ATOM     43  C   UNL A   1      41.452  26.739  26.430  1.00  0.00     0.010 A 
ATOM     44  C   UNL A   1      42.064  27.127  27.615  1.00  0.00    -0.014 A 
BRANCH  44  45
ATOM     45  C   UNL A   1      41.643  28.308  28.358  1.00  0.00     0.031 A 
ATOM     46  C   UNL A   1      42.613  29.437  28.337  1.00  0.00     0.074 A 
ATOM     47  C   UNL A   1      40.463  28.430  29.000  1.00  0.00     0.049 A 
ATOM     48  N   UNL A   1      43.309  29.892  29.326  1.00  0.00    -0.248 NA
ATOM     49  C   UNL A   1      42.945  30.043  27.040  1.00  0.00     0.031 C 
ATOM     50  C   UNL A   1      39.285  27.562  28.946  1.00  0.00     0.029 A 
ATOM     51  N   UNL A   1      40.049  29.447  29.804  1.00  0.00    -0.354 N 
ATOM     52  C   UNL A   1      44.054  30.954  28.824  1.00  0.00     0.074 A 
ATOM     53  C   UNL A   1      43.885  30.922  27.392  1.00  0.00     0.031 C 
ATOM     54  C   UNL A   1      38.225  28.213  29.484  1.00  0.00     0.029 A 
ATOM     55  C   UNL A   1      38.685  29.464  30.062  1.00  0.00     0.049 A 
ATOM     56  H   UNL A   1      40.668  30.119  30.173  1.00  0.00     0.167 HD
ATOM     57  C   UNL A   1      44.631  31.882  29.639  1.00  0.00     0.031 A 
ATOM     58  C   UNL A   1      37.984  30.461  30.664  1.00  0.00     0.031 A 
ATOM     59  C   UNL A   1      44.707  31.425  31.000  1.00  0.00     0.049 A 
ATOM     60  C   UNL A   1      38.956  31.233  31.482  1.00  0.00     0.074 A 
ATOM     61  C   UNL A   1      45.342  30.370  31.625  1.00  0.00     0.029 A 
ATOM     62  N   UNL A   1      43.745  31.860  31.881  1.00  0.00    -0.354 N 
ATOM     63  N   UNL A   1      39.565  30.742  32.526  1.00  0.00    -0.248 NA
ATOM     64  C   UNL A   1      39.597  32.384  30.863  1.00  0.00     0.031 C 
ATOM     65  C   UNL A   1      44.403  29.905  32.590  1.00  0.00     0.029 A 
ATOM     66  C   UNL A   1      43.293  30.752  32.553  1.00  0.00     0.049 A 
ATOM     67  H   UNL A   1      43.439  32.788  32.006  1.00  0.00     0.167 HD
ATOM     68  C   UNL A   1      40.861  31.229  32.439  1.00  0.00     0.074 A 
ATOM     69  C   UNL A   1      40.802  32.287  31.431  1.00  0.00     0.031 C 
ATOM     70  C   UNL A   1      41.922  30.561  32.982  1.00  0.00     0.031 A 
BRANCH  57  71
ATOM     71  C   UNL A   1      44.856  33.321  29.256  1.00  0.00    -0.014 A 
ATOM     72  C   UNL A   1      46.005  33.759  28.568  1.00  0.00     0.010 A 
ATOM     73  C   UNL A   1      43.787  34.235  29.362  1.00  0.00     0.010 A 
ATOM     74  C   UNL A   1      46.097  35.042  28.024  1.00  0.00     0.020 A 
ATOM     75  C   UNL A   1      43.853  35.511  28.783  1.00  0.00     0.020 A 
ATOM     76  C   UNL A   1      45.014  35.906  28.123  1.00  0.00     0.054 A 
BRANCH  76  77
ATOM     77  S   UNL A   1      45.137  37.522  27.318  1.00  0.00     0.124 S 
ATOM     78  O   UNL A   1      43.769  37.729  26.852  1.00  0.00    -0.237 OA
ATOM     79  O   UNL A   1      45.568  38.385  28.414  1.00  0.00    -0.237 OA
ATOM     80  O   UNL A   1      46.129  37.307  26.267  1.00  0.00    -0.744 OA
ENDBRANCH  76  77
ENDBRANCH  57  71
BRANCH  58  81
ATOM     81  C   UNL A   1      36.729  31.076  30.144  1.00  0.00    -0.014 A 
ATOM     82  C   UNL A   1      36.614  31.386  28.773  1.00  0.00     0.010 A 
ATOM     83  C   UNL A   1      35.786  31.647  31.023  1.00  0.00     0.010 A 
ATOM     84  C   UNL A   1      35.656  32.294  28.306  1.00  0.00     0.020 A 
ATOM     85  C   UNL A   1      34.820  32.561  30.560  1.00  0.00     0.020 A 
ATOM     86  C   UNL A   1      34.790  32.907  29.209  1.00  0.00     0.054 A 
BRANCH  86  87
ATOM     87  S   UNL A   1      33.705  34.226  28.589  1.00  0.00     0.124 S 
ATOM     88  O   UNL A   1      34.648  35.088  27.883  1.00  0.00    -0.237 OA
ATOM     89  O   UNL A   1      32.770  33.491  27.738  1.00  0.00    -0.237 OA
ATOM     90  O   UNL A   1      33.122  34.795  29.801  1.00  0.00    -0.744 OA
ENDBRANCH  86  87
ENDBRANCH  58  81
BRANCH  70  91
ATOM     91  C   UNL A   1      41.681  29.371  33.891  1.00  0.00    -0.014 A 
ATOM     92  C   UNL A   1      41.886  29.566  35.270  1.00  0.00     0.010 A 
ATOM     93  C   UNL A   1      41.495  28.054  33.426  1.00  0.00     0.010 A 
ATOM     94  C   UNL A   1      41.960  28.487  36.152  1.00  0.00     0.020 A 
ATOM     95  C   UNL A   1      41.539  26.964  34.313  1.00  0.00     0.020 A 
ATOM     96  C   UNL A   1      41.801  27.188  35.667  1.00  0.00     0.054 A 
BRANCH  96  97
ATOM     97  S   UNL A   1      41.983  25.816  36.840  1.00  0.00     0.124 S 
ATOM     98  O   UNL A   1      40.594  25.438  37.096  1.00  0.00    -0.237 OA
ATOM     99  O   UNL A   1      42.761  24.841  36.078  1.00  0.00    -0.237 OA
ATOM    100  O   UNL A   1      42.681  26.410  37.977  1.00  0.00    -0.744 OA
ENDBRANCH  96  97
ENDBRANCH  70  91
ENDBRANCH  44  45
ENDBRANCH  36  39
ENDBRANCH  34  35
ENDBRANCH  33  34
ENDBRANCH  32  33
ENDBRANCH   1  32
TORSDOF 19
ENDMDL
MODEL 3
REMARK VINA RESULT:     -11.9      2.443     10.098
REMARK SMILES Cc1nc2cc(S(=O)(=O)N3CCC(C(=O)NCCCCCCNC(=O)c4ccc(-c5c6nc(c(-c7ccc(S(=O)(=O)[O-])cc7)c7ccc([nH]7)c(-c7ccc(S(=O)(=O)[O-])cc7)c7nc(c(-c8ccc(S(=O)(=O)[O-])cc8)c8ccc5[nH]8)C=C7)C=C6)cc4)CC3)ccc2n1C1CCCC1
REMARK SMILES IDX 19 1 18 2 17 3 16 4 14 5 15 6 13 8 10 9 11 10 87 11 12 12
REMARK SMILES IDX 86 13 7 14 8 15 9 16 6 17 1 18 2 19 3 20 91 21 4 22 90 23
REMARK SMILES IDX 5 24 89 25 88 26 92 27 93 28 96 29 94 30 95 31 20 32 21 33
REMARK SMILES IDX 22 34 23 35 24 36 25 38 26 39 27 40 85 41 28 42 84 43 29 44
REMARK SMILES IDX 30 45 31 46 78 47 32 48 83 49 77 50 79 51 33 52 82 53 76 54
REMARK SMILES IDX 75 55 34 57 64 58 45 59 63 60 46 61 49 62 62 63 80 64 47 65
REMARK SMILES IDX 48 66 61 68 81 69 50 70 35 71 36 72 44 73 37 74 43 75 38 76
REMARK SMILES IDX 39 77 40 78 41 79 42 80 65 81 66 82 74 83 67 84 73 85 68 86
REMARK SMILES IDX 69 87 70 88 71 89 72 90 51 91 52 92 60 93 53 94 59 95 54 96
REMARK SMILES IDX 55 97 56 98 57 99 58 100
REMARK H PARENT 16 7 23 37 79 56 49 67
REMARK Flexibility Score: inf
ROOT
ATOM      1  C   UNL A   1      35.065  20.956  24.841  1.00  0.00     0.002 C 
ENDROOT
BRANCH   1   2
ATOM      2  C   UNL A   1      33.847  20.713  25.731  1.00  0.00     0.021 C 
BRANCH   2   3
ATOM      3  C   UNL A   1      32.567  21.328  25.179  1.00  0.00     0.116 C 
BRANCH   3   4
ATOM      4  N   UNL A   1      31.656  21.700  26.253  1.00  0.00    -0.356 N 
ATOM      5  C   UNL A   1      31.109  22.907  26.568  1.00  0.00     0.223 C 
ATOM      6  O   UNL A   1      30.407  23.000  27.577  1.00  0.00    -0.275 OA
ATOM      7  H   UNL A   1      31.394  20.960  26.848  1.00  0.00     0.163 HD
BRANCH   5   8
ATOM      8  C   UNL A   1      31.358  24.124  25.690  1.00  0.00     0.081 C 
ATOM      9  N   UNL A   1      31.934  26.959  25.430  1.00  0.00    -0.198 NA
ATOM     10  C   UNL A   1      30.536  26.499  25.267  1.00  0.00     0.103 C 
ATOM     11  C   UNL A   1      33.057  25.997  25.304  1.00  0.00     0.103 C 
ATOM     12  C   UNL A   1      30.252  25.153  25.886  1.00  0.00     0.030 C 
ATOM     13  C   UNL A   1      32.780  24.635  25.896  1.00  0.00     0.030 C 
BRANCH   9  14
ATOM     14  S   UNL A   1      32.250  28.501  24.720  1.00  0.00     0.243 S 
ATOM     15  O   UNL A   1      30.985  29.196  24.588  1.00  0.00    -0.207 OA
ATOM     16  O   UNL A   1      33.128  28.288  23.591  1.00  0.00    -0.207 OA
BRANCH  14  17
ATOM     17  C   UNL A   1      33.200  29.407  25.931  1.00  0.00     0.085 A 
ATOM     18  C   UNL A   1      34.298  34.028  29.557  1.00  0.00     0.088 C 
ATOM     19  C   UNL A   1      34.179  32.822  28.702  1.00  0.00     0.106 A 
ATOM     20  N   UNL A   1      33.168  32.576  27.890  1.00  0.00    -0.233 NA
ATOM     21  N   UNL A   1      35.115  31.812  28.647  1.00  0.00    -0.325 N 
ATOM     22  C   UNL A   1      33.436  31.369  27.301  1.00  0.00     0.090 A 
ATOM     23  C   UNL A   1      34.652  30.870  27.755  1.00  0.00     0.068 A 
ATOM     24  C   UNL A   1      32.689  30.639  26.365  1.00  0.00     0.052 A 
ATOM     25  C   UNL A   1      35.177  29.657  27.321  1.00  0.00     0.030 A 
ATOM     26  C   UNL A   1      34.420  28.933  26.416  1.00  0.00     0.024 A 
BRANCH  21  27
ATOM     27  C   UNL A   1      36.365  31.730  29.381  1.00  0.00     0.089 C 
ATOM     28  C   UNL A   1      37.267  30.561  28.969  1.00  0.00     0.025 C 
ATOM     29  C   UNL A   1      37.255  32.970  29.242  1.00  0.00     0.025 C 
ATOM     30  C   UNL A   1      38.654  30.962  29.447  1.00  0.00     0.002 C 
ATOM     31  C   UNL A   1      38.682  32.487  29.477  1.00  0.00     0.002 C 
ENDBRANCH  21  27
ENDBRANCH  14  17
ENDBRANCH   9  14
ENDBRANCH   5   8
ENDBRANCH   3   4
ENDBRANCH   2   3
ENDBRANCH   1   2
BRANCH   1  32
ATOM     32  C   UNL A   1      35.160  22.374  24.270  1.00  0.00     0.002 C 
BRANCH  32  33
ATOM     33  C   UNL A   1      36.577  22.834  23.898  1.00  0.00     0.021 C 
BRANCH  33  34
ATOM     34  C   UNL A   1      37.360  23.439  25.064  1.00  0.00     0.116 C 
BRANCH  34  35
ATOM     35  N   UNL A   1      38.384  22.556  25.579  1.00  0.00    -0.352 N 
ATOM     36  C   UNL A   1      39.391  22.675  26.492  1.00  0.00     0.251 C 
ATOM     37  H   UNL A   1      38.345  21.659  25.175  1.00  0.00     0.163 HD
ATOM     38  O   UNL A   1      40.015  21.638  26.738  1.00  0.00    -0.269 OA
BRANCH  36  39
ATOM     39  C   UNL A   1      39.820  23.944  27.142  1.00  0.00     0.039 A 
ATOM     40  C   UNL A   1      41.075  24.197  27.692  1.00  0.00     0.014 A 
ATOM     41  C   UNL A   1      38.823  24.932  27.267  1.00  0.00     0.014 A 
ATOM     42  C   UNL A   1      41.288  25.343  28.453  1.00  0.00     0.010 A 
ATOM     43  C   UNL A   1      39.036  26.088  28.008  1.00  0.00     0.010 A 
ATOM     44  C   UNL A   1      40.252  26.262  28.655  1.00  0.00    -0.014 A 
BRANCH  44  45
ATOM     45  C   UNL A   1      40.528  27.420  29.497  1.00  0.00     0.031 A 
ATOM     46  C   UNL A   1      41.516  28.380  28.934  1.00  0.00     0.074 A 
ATOM     47  C   UNL A   1      39.934  27.664  30.683  1.00  0.00     0.049 A 
ATOM     48  N   UNL A   1      42.708  28.626  29.369  1.00  0.00    -0.248 NA
ATOM     49  C   UNL A   1      41.191  29.045  27.664  1.00  0.00     0.031 C 
ATOM     50  C   UNL A   1      38.782  27.000  31.297  1.00  0.00     0.029 A 
ATOM     51  N   UNL A   1      40.218  28.654  31.573  1.00  0.00    -0.354 N 
ATOM     52  C   UNL A   1      43.237  29.600  28.530  1.00  0.00     0.074 A 
ATOM     53  C   UNL A   1      42.312  29.730  27.430  1.00  0.00     0.031 C 
ATOM     54  C   UNL A   1      38.326  27.756  32.325  1.00  0.00     0.029 A 
ATOM     55  C   UNL A   1      39.245  28.859  32.541  1.00  0.00     0.049 A 
ATOM     56  H   UNL A   1      41.048  29.183  31.533  1.00  0.00     0.167 HD
ATOM     57  C   UNL A   1      44.322  30.346  28.882  1.00  0.00     0.031 A 
ATOM     58  C   UNL A   1      39.182  29.892  33.423  1.00  0.00     0.031 A 
ATOM     59  C   UNL A   1      45.043  29.757  29.978  1.00  0.00     0.049 A 
ATOM     60  C   UNL A   1      40.563  30.423  33.560  1.00  0.00     0.074 A 
ATOM     61  C   UNL A   1      45.711  28.562  30.158  1.00  0.00     0.029 A 
ATOM     62  N   UNL A   1      44.815  30.253  31.240  1.00  0.00    -0.354 N 
ATOM     63  N   UNL A   1      41.541  29.747  34.098  1.00  0.00    -0.248 NA
ATOM     64  C   UNL A   1      40.960  31.512  32.681  1.00  0.00     0.031 C 
ATOM     65  C   UNL A   1      45.383  28.161  31.484  1.00  0.00     0.029 A 
ATOM     66  C   UNL A   1      44.609  29.171  32.060  1.00  0.00     0.049 A 
ATOM     67  H   UNL A   1      44.802  31.201  31.505  1.00  0.00     0.167 HD
ATOM     68  C   UNL A   1      42.643  30.031  33.305  1.00  0.00     0.074 A 
ATOM     69  C   UNL A   1      42.238  31.176  32.489  1.00  0.00     0.031 C 
ATOM     70  C   UNL A   1      43.686  29.157  33.177  1.00  0.00     0.031 A 
BRANCH  57  71
ATOM     71  C   UNL A   1      44.560  31.761  28.427  1.00  0.00    -0.014 A 
ATOM     72  C   UNL A   1      44.503  32.149  27.073  1.00  0.00     0.010 A 
ATOM     73  C   UNL A   1      44.601  32.794  29.386  1.00  0.00     0.010 A 
ATOM     74  C   UNL A   1      44.502  33.491  26.688  1.00  0.00     0.020 A 
ATOM     75  C   UNL A   1      44.556  34.145  29.012  1.00  0.00     0.020 A 
ATOM     76  C   UNL A   1      44.514  34.483  27.662  1.00  0.00     0.054 A 
BRANCH  76  77
ATOM     77  S   UNL A   1      44.409  36.207  27.123  1.00  0.00     0.124 S 
ATOM     78  O   UNL A   1      43.134  36.221  26.412  1.00  0.00    -0.237 OA
ATOM     79  O   UNL A   1      44.434  36.932  28.390  1.00  0.00    -0.237 OA
ATOM     80  O   UNL A   1      45.593  36.377  26.285  1.00  0.00    -0.744 OA
ENDBRANCH  76  77
ENDBRANCH  57  71
BRANCH  58  81
ATOM     81  C   UNL A   1      37.983  30.743  33.677  1.00  0.00    -0.014 A 
ATOM     82  C   UNL A   1      36.949  30.805  32.721  1.00  0.00     0.010 A 
ATOM     83  C   UNL A   1      37.996  31.725  34.688  1.00  0.00     0.010 A 
ATOM     84  C   UNL A   1      36.018  31.850  32.717  1.00  0.00     0.020 A 
ATOM     85  C   UNL A   1      37.063  32.780  34.691  1.00  0.00     0.020 A 
ATOM     86  C   UNL A   1      36.105  32.855  33.679  1.00  0.00     0.054 A 
BRANCH  86  87
ATOM     87  S   UNL A   1      35.007  34.293  33.512  1.00  0.00     0.124 S 
ATOM     88  O   UNL A   1      34.993  34.823  34.872  1.00  0.00    -0.237 OA
ATOM     89  O   UNL A   1      35.710  35.114  32.528  1.00  0.00    -0.237 OA
ATOM     90  O   UNL A   1      33.747  33.717  33.051  1.00  0.00    -0.744 OA
ENDBRANCH  86  87
ENDBRANCH  58  81
BRANCH  70  91
ATOM     91  C   UNL A   1      43.766  27.940  34.078  1.00  0.00    -0.014 A 
ATOM     92  C   UNL A   1      44.705  27.980  35.126  1.00  0.00     0.010 A 
ATOM     93  C   UNL A   1      43.139  26.710  33.793  1.00  0.00     0.010 A 
ATOM     94  C   UNL A   1      45.051  26.828  35.834  1.00  0.00     0.020 A 
ATOM     95  C   UNL A   1      43.462  25.551  34.521  1.00  0.00     0.020 A 
ATOM     96  C   UNL A   1      44.439  25.615  35.518  1.00  0.00     0.054 A 
BRANCH  96  97
ATOM     97  S   UNL A   1      44.980  24.132  36.413  1.00  0.00     0.124 S 
ATOM     98  O   UNL A   1      44.641  24.462  37.796  1.00  0.00    -0.237 OA
ATOM     99  O   UNL A   1      44.169  23.077  35.809  1.00  0.00    -0.237 OA
ATOM    100  O   UNL A   1      46.411  24.049  36.131  1.00  0.00    -0.744 OA
ENDBRANCH  96  97
ENDBRANCH  70  91
ENDBRANCH  44  45
ENDBRANCH  36  39
ENDBRANCH  34  35
ENDBRANCH  33  34
ENDBRANCH  32  33
ENDBRANCH   1  32
TORSDOF 19
ENDMDL
