MODEL 1
REMARK VINA RESULT:     -11.5      0.000      0.000
REMARK SMILES O=C(NCCCCCCNC(=O)[C@@H]1CCn2c(C(=O)c3ccccc3)ccc21)c1ccc(-c2c3nc(c(-c4ccc(S(=O)(=O)[O-])cc4)c4ccc([nH]4)c(-c4ccc(S(=O)(=O)[O-])cc4)c4nc(c(-c5ccc(S(=O)(=O)[O-])cc5)c5ccc2[nH]5)C=C4)C=C3)cc1
REMARK SMILES IDX 6 1 5 2 4 3 3 4 1 5 2 6 29 8 30 9 88 10 31 11 87 12 32 13
REMARK SMILES IDX 33 14 34 15 81 16 35 17 86 18 80 19 82 20 36 21 85 22 79 23
REMARK SMILES IDX 78 24 37 26 67 27 48 28 66 29 49 30 52 31 65 32 83 33 50 34
REMARK SMILES IDX 51 35 64 37 84 38 53 39 38 40 39 41 47 42 40 43 46 44 41 45
REMARK SMILES IDX 42 46 43 47 44 48 45 49 68 50 69 51 77 52 70 53 76 54 71 55
REMARK SMILES IDX 72 56 73 57 74 58 75 59 54 60 55 61 63 62 56 63 62 64 57 65
REMARK SMILES IDX 58 66 59 67 60 68 61 69 7 70 8 71 9 72 10 73 11 74 12 76
REMARK SMILES IDX 13 77 14 78 28 79 15 80 16 81 27 82 17 83 26 84 18 85 19 86
REMARK SMILES IDX 20 87 21 88 25 89 22 90 24 91 23 92
REMARK H PARENT 3 7 82 25 52 36 10 75
REMARK Flexibility Score: inf
ROOT
ATOM      1  C   UNL A   1      32.365  28.992  25.179  1.00  0.00     0.002 C 
ENDROOT
BRANCH   1   2
ATOM      2  C   UNL A   1      32.806  27.947  26.205  1.00  0.00     0.021 C 
BRANCH   2   3
ATOM      3  C   UNL A   1      33.876  28.429  27.177  1.00  0.00     0.116 C 
BRANCH   3   4
ATOM      4  N   UNL A   1      33.721  29.836  27.505  1.00  0.00    -0.352 N 
ATOM      5  O   UNL A   1      34.249  31.780  28.521  1.00  0.00    -0.269 OA
ATOM      6  C   UNL A   1      34.607  30.666  28.148  1.00  0.00     0.251 C 
ATOM      7  H   UNL A   1      32.871  30.249  27.231  1.00  0.00     0.163 HD
BRANCH   6   8
ATOM      8  C   UNL A   1      35.989  30.202  28.398  1.00  0.00     0.039 A 
ATOM      9  C   UNL A   1      36.967  30.328  27.407  1.00  0.00     0.014 A 
ATOM     10  C   UNL A   1      36.313  29.654  29.642  1.00  0.00     0.014 A 
ATOM     11  C   UNL A   1      38.240  29.814  27.623  1.00  0.00     0.010 A 
ATOM     12  C   UNL A   1      37.615  29.207  29.884  1.00  0.00     0.010 A 
ATOM     13  C   UNL A   1      38.585  29.274  28.873  1.00  0.00    -0.014 A 
BRANCH  13  14
ATOM     14  C   UNL A   1      39.999  28.905  29.133  1.00  0.00     0.031 A 
ATOM     15  C   UNL A   1      40.553  27.571  28.722  1.00  0.00     0.074 A 
ATOM     16  C   UNL A   1      40.786  29.811  29.748  1.00  0.00     0.049 A 
ATOM     17  N   UNL A   1      41.770  27.111  28.868  1.00  0.00    -0.248 NA
ATOM     18  C   UNL A   1      39.631  26.627  28.070  1.00  0.00     0.031 C 
ATOM     19  C   UNL A   1      40.347  31.133  30.210  1.00  0.00     0.029 A 
ATOM     20  N   UNL A   1      42.114  29.771  30.081  1.00  0.00    -0.354 N 
ATOM     21  C   UNL A   1      41.759  25.823  28.346  1.00  0.00     0.074 A 
ATOM     22  C   UNL A   1      40.410  25.567  27.890  1.00  0.00     0.031 C 
ATOM     23  C   UNL A   1      41.393  31.789  30.731  1.00  0.00     0.029 A 
ATOM     24  C   UNL A   1      42.560  30.916  30.698  1.00  0.00     0.049 A 
ATOM     25  H   UNL A   1      42.694  28.997  29.897  1.00  0.00     0.167 HD
ATOM     26  C   UNL A   1      42.783  24.940  28.261  1.00  0.00     0.031 A 
ATOM     27  C   UNL A   1      43.766  31.226  31.207  1.00  0.00     0.031 A 
ATOM     28  C   UNL A   1      44.123  25.209  28.715  1.00  0.00     0.049 A 
ATOM     29  C   UNL A   1      44.872  30.216  31.117  1.00  0.00     0.074 A 
ATOM     30  C   UNL A   1      45.241  24.396  28.619  1.00  0.00     0.029 A 
ATOM     31  N   UNL A   1      44.529  26.369  29.357  1.00  0.00    -0.354 N 
ATOM     32  N   UNL A   1      44.854  29.027  30.563  1.00  0.00    -0.248 NA
ATOM     33  C   UNL A   1      46.158  30.586  31.719  1.00  0.00     0.031 C 
ATOM     34  C   UNL A   1      46.308  25.042  29.253  1.00  0.00     0.029 A 
ATOM     35  C   UNL A   1      45.869  26.280  29.694  1.00  0.00     0.049 A 
ATOM     36  H   UNL A   1      43.949  27.142  29.546  1.00  0.00     0.167 HD
ATOM     37  C   UNL A   1      46.130  28.509  30.746  1.00  0.00     0.074 A 
ATOM     38  C   UNL A   1      46.901  29.526  31.433  1.00  0.00     0.031 C 
ATOM     39  C   UNL A   1      46.617  27.297  30.385  1.00  0.00     0.031 A 
BRANCH  26  40
ATOM     40  C   UNL A   1      42.506  23.583  27.672  1.00  0.00    -0.014 A 
ATOM     41  C   UNL A   1      42.740  23.320  26.311  1.00  0.00     0.010 A 
ATOM     42  C   UNL A   1      42.109  22.528  28.515  1.00  0.00     0.010 A 
ATOM     43  C   UNL A   1      42.572  22.028  25.803  1.00  0.00     0.020 A 
ATOM     44  C   UNL A   1      41.957  21.232  28.015  1.00  0.00     0.020 A 
ATOM     45  C   UNL A   1      42.184  20.992  26.658  1.00  0.00     0.054 A 
BRANCH  45  46
ATOM     46  S   UNL A   1      42.037  19.314  25.982  1.00  0.00     0.124 S 
ATOM     47  O   UNL A   1      42.868  19.399  24.784  1.00  0.00    -0.237 OA
ATOM     48  O   UNL A   1      42.573  18.486  27.059  1.00  0.00    -0.237 OA
ATOM     49  O   UNL A   1      40.605  19.162  25.737  1.00  0.00    -0.744 OA
ENDBRANCH  45  46
ENDBRANCH  26  40
BRANCH  27  50
ATOM     50  C   UNL A   1      43.974  32.533  31.884  1.00  0.00    -0.014 A 
ATOM     51  C   UNL A   1      43.672  32.697  33.246  1.00  0.00     0.010 A 
ATOM     52  C   UNL A   1      44.483  33.628  31.159  1.00  0.00     0.010 A 
ATOM     53  C   UNL A   1      43.846  33.938  33.864  1.00  0.00     0.020 A 
ATOM     54  C   UNL A   1      44.688  34.861  31.780  1.00  0.00     0.020 A 
ATOM     55  C   UNL A   1      44.351  35.013  33.125  1.00  0.00     0.054 A 
BRANCH  55  56
ATOM     56  S   UNL A   1      44.598  36.610  33.950  1.00  0.00     0.124 S 
ATOM     57  O   UNL A   1      46.049  36.751  33.905  1.00  0.00    -0.237 OA
ATOM     58  O   UNL A   1      43.845  37.527  33.097  1.00  0.00    -0.237 OA
ATOM     59  O   UNL A   1      44.027  36.397  35.278  1.00  0.00    -0.744 OA
ENDBRANCH  55  56
ENDBRANCH  27  50
BRANCH  39  60
ATOM     60  C   UNL A   1      48.057  27.016  30.717  1.00  0.00    -0.014 A 
ATOM     61  C   UNL A   1      48.403  26.268  31.857  1.00  0.00     0.010 A 
ATOM     62  C   UNL A   1      49.073  27.476  29.860  1.00  0.00     0.010 A 
ATOM     63  C   UNL A   1      49.743  26.017  32.153  1.00  0.00     0.020 A 
ATOM     64  C   UNL A   1      50.413  27.203  30.141  1.00  0.00     0.020 A 
ATOM     65  C   UNL A   1      50.741  26.488  31.294  1.00  0.00     0.054 A 
BRANCH  65  66
ATOM     66  S   UNL A   1      52.473  26.121  31.681  1.00  0.00     0.124 S 
ATOM     67  O   UNL A   1      53.132  26.383  30.405  1.00  0.00    -0.237 OA
ATOM     68  O   UNL A   1      52.774  27.071  32.750  1.00  0.00    -0.237 OA
ATOM     69  O   UNL A   1      52.446  24.720  32.093  1.00  0.00    -0.744 OA
ENDBRANCH  65  66
ENDBRANCH  39  60
ENDBRANCH  13  14
ENDBRANCH   6   8
ENDBRANCH   3   4
ENDBRANCH   2   3
ENDBRANCH   1   2
BRANCH   1  70
ATOM     70  C   UNL A   1      31.086  28.646  24.409  1.00  0.00     0.002 C 
BRANCH  70  71
ATOM     71  C   UNL A   1      31.266  28.429  22.900  1.00  0.00     0.021 C 
BRANCH  71  72
ATOM     72  C   UNL A   1      30.706  27.104  22.385  1.00  0.00     0.116 C 
BRANCH  72  73
ATOM     73  N   UNL A   1      31.655  26.441  21.513  1.00  0.00    -0.356 N 
ATOM     74  C   UNL A   1      32.573  25.471  21.802  1.00  0.00     0.229 C 
ATOM     75  H   UNL A   1      31.635  26.735  20.574  1.00  0.00     0.163 HD
ATOM     76  O   UNL A   1      33.329  25.124  20.893  1.00  0.00    -0.274 OA
BRANCH  74  77
ATOM     77  C   UNL A   1      32.588  24.881  23.210  1.00  0.00     0.127 C 
ATOM     78  C   UNL A   1      33.930  25.145  23.938  1.00  0.00     0.042 C 
ATOM     79  C   UNL A   1      32.530  23.393  23.225  1.00  0.00     0.031 A 
ATOM     80  C   UNL A   1      34.213  23.887  24.773  1.00  0.00     0.124 C 
ATOM     81  N   UNL A   1      33.426  22.862  24.111  1.00  0.00    -0.341 N 
ATOM     82  C   UNL A   1      31.871  22.366  22.610  1.00  0.00     0.025 A 
ATOM     83  C   UNL A   1      33.393  21.500  24.106  1.00  0.00     0.090 A 
ATOM     84  C   UNL A   1      32.420  21.176  23.155  1.00  0.00     0.032 A 
BRANCH  83  85
ATOM     85  C   UNL A   1      34.200  20.542  24.844  1.00  0.00     0.209 C 
ATOM     86  O   UNL A   1      35.167  20.872  25.530  1.00  0.00    -0.287 OA
BRANCH  85  87
ATOM     87  C   UNL A   1      33.880  19.098  24.824  1.00  0.00     0.024 A 
ATOM     88  C   UNL A   1      32.770  18.653  25.551  1.00  0.00     0.012 A 
ATOM     89  C   UNL A   1      34.690  18.184  24.143  1.00  0.00     0.012 A 
ATOM     90  C   UNL A   1      32.442  17.297  25.556  1.00  0.00     0.001 A 
ATOM     91  C   UNL A   1      34.352  16.830  24.143  1.00  0.00     0.001 A 
ATOM     92  C   UNL A   1      33.228  16.390  24.845  1.00  0.00     0.000 A 
ENDBRANCH  85  87
ENDBRANCH  83  85
ENDBRANCH  74  77
ENDBRANCH  72  73
ENDBRANCH  71  72
ENDBRANCH  70  71
ENDBRANCH   1  70
TORSDOF 18
ENDMDL
MODEL 2
REMARK VINA RESULT:     -10.8      2.731      9.577
REMARK SMILES O=C(NCCCCCCNC(=O)[C@@H]1CCn2c(C(=O)c3ccccc3)ccc21)c1ccc(-c2c3nc(c(-c4ccc(S(=O)(=O)[O-])cc4)c4ccc([nH]4)c(-c4ccc(S(=O)(=O)[O-])cc4)c4nc(c(-c5ccc(S(=O)(=O)[O-])cc5)c5ccc2[nH]5)C=C4)C=C3)cc1
REMARK SMILES IDX 6 1 5 2 4 3 3 4 1 5 2 6 29 8 30 9 88 10 31 11 87 12 32 13
REMARK SMILES IDX 33 14 34 15 81 16 35 17 86 18 80 19 82 20 36 21 85 22 79 23
REMARK SMILES IDX 78 24 37 26 67 27 48 28 66 29 49 30 52 31 65 32 83 33 50 34
REMARK SMILES IDX 51 35 64 37 84 38 53 39 38 40 39 41 47 42 40 43 46 44 41 45
REMARK SMILES IDX 42 46 43 47 44 48 45 49 68 50 69 51 77 52 70 53 76 54 71 55
REMARK SMILES IDX 72 56 73 57 74 58 75 59 54 60 55 61 63 62 56 63 62 64 57 65
REMARK SMILES IDX 58 66 59 67 60 68 61 69 7 70 8 71 9 72 10 73 11 74 12 76
REMARK SMILES IDX 13 77 14 78 28 79 15 80 16 81 27 82 17 83 26 84 18 85 19 86
REMARK SMILES IDX 20 87 21 88 25 89 22 90 24 91 23 92
REMARK H PARENT 3 7 82 25 52 36 10 75
REMARK Flexibility Score: inf
ROOT
ATOM      1  C   UNL A   1      35.724  21.509  25.644  1.00  0.00     0.002 C 
ENDROOT
BRANCH   1   2
ATOM      2  C   UNL A   1      35.691  23.002  25.972  1.00  0.00     0.021 C 
BRANCH   2   3
ATOM      3  C   UNL A   1      37.006  23.731  25.729  1.00  0.00     0.116 C 
BRANCH   3   4
ATOM      4  N   UNL A   1      38.140  22.823  25.725  1.00  0.00    -0.352 N 
ATOM      5  O   UNL A   1      40.315  22.250  25.899  1.00  0.00    -0.269 OA
ATOM      6  C   UNL A   1      39.425  23.059  26.148  1.00  0.00     0.251 C 
ATOM      7  H   UNL A   1      37.965  21.921  25.374  1.00  0.00     0.163 HD
BRANCH   6   8
ATOM      8  C   UNL A   1      39.731  24.301  26.891  1.00  0.00     0.039 A 
ATOM      9  C   UNL A   1      39.297  24.460  28.210  1.00  0.00     0.014 A 
ATOM     10  C   UNL A   1      40.474  25.308  26.268  1.00  0.00     0.014 A 
ATOM     11  C   UNL A   1      39.518  25.662  28.871  1.00  0.00     0.010 A 
ATOM     12  C   UNL A   1      40.760  26.487  26.961  1.00  0.00     0.010 A 
ATOM     13  C   UNL A   1      40.276  26.677  28.264  1.00  0.00    -0.014 A 
BRANCH  13  14
ATOM     14  C   UNL A   1      40.651  27.871  29.061  1.00  0.00     0.031 A 
ATOM     15  C   UNL A   1      39.711  29.029  29.235  1.00  0.00     0.074 A 
ATOM     16  C   UNL A   1      41.870  27.888  29.639  1.00  0.00     0.049 A 
ATOM     17  N   UNL A   1      39.891  30.133  29.914  1.00  0.00    -0.248 NA
ATOM     18  C   UNL A   1      38.405  28.947  28.563  1.00  0.00     0.031 C 
ATOM     19  C   UNL A   1      42.874  26.824  29.519  1.00  0.00     0.029 A 
ATOM     20  N   UNL A   1      42.470  28.817  30.447  1.00  0.00    -0.354 N 
ATOM     21  C   UNL A   1      38.736  30.886  29.738  1.00  0.00     0.074 A 
ATOM     22  C   UNL A   1      37.863  30.118  28.877  1.00  0.00     0.031 C 
ATOM     23  C   UNL A   1      43.946  27.144  30.257  1.00  0.00     0.029 A 
ATOM     24  C   UNL A   1      43.735  28.458  30.850  1.00  0.00     0.049 A 
ATOM     25  H   UNL A   1      42.037  29.660  30.714  1.00  0.00     0.167 HD
ATOM     26  C   UNL A   1      38.439  32.105  30.249  1.00  0.00     0.031 A 
ATOM     27  C   UNL A   1      44.640  29.121  31.593  1.00  0.00     0.031 A 
ATOM     28  C   UNL A   1      39.316  32.858  31.109  1.00  0.00     0.049 A 
ATOM     29  C   UNL A   1      44.287  30.480  32.124  1.00  0.00     0.074 A 
ATOM     30  C   UNL A   1      39.078  34.077  31.721  1.00  0.00     0.029 A 
ATOM     31  N   UNL A   1      40.597  32.474  31.473  1.00  0.00    -0.354 N 
ATOM     32  N   UNL A   1      43.163  31.144  31.994  1.00  0.00    -0.248 NA
ATOM     33  C   UNL A   1      45.321  31.177  32.897  1.00  0.00     0.031 C 
ATOM     34  C   UNL A   1      40.235  34.456  32.409  1.00  0.00     0.029 A 
ATOM     35  C   UNL A   1      41.175  33.447  32.271  1.00  0.00     0.049 A 
ATOM     36  H   UNL A   1      41.032  31.632  31.202  1.00  0.00     0.167 HD
ATOM     37  C   UNL A   1      43.355  32.339  32.677  1.00  0.00     0.074 A 
ATOM     38  C   UNL A   1      44.688  32.290  33.242  1.00  0.00     0.031 C 
ATOM     39  C   UNL A   1      42.506  33.386  32.817  1.00  0.00     0.031 A 
BRANCH  26  40
ATOM     40  C   UNL A   1      37.118  32.728  29.883  1.00  0.00    -0.014 A 
ATOM     41  C   UNL A   1      35.938  32.379  30.563  1.00  0.00     0.010 A 
ATOM     42  C   UNL A   1      37.077  33.754  28.921  1.00  0.00     0.010 A 
ATOM     43  C   UNL A   1      34.738  33.038  30.278  1.00  0.00     0.020 A 
ATOM     44  C   UNL A   1      35.883  34.429  28.647  1.00  0.00     0.020 A 
ATOM     45  C   UNL A   1      34.719  34.061  29.324  1.00  0.00     0.054 A 
BRANCH  45  46
ATOM     46  S   UNL A   1      33.161  34.942  29.023  1.00  0.00     0.124 S 
ATOM     47  O   UNL A   1      32.596  35.019  30.368  1.00  0.00    -0.237 OA
ATOM     48  O   UNL A   1      33.614  36.211  28.459  1.00  0.00    -0.237 OA
ATOM     49  O   UNL A   1      32.443  34.072  28.095  1.00  0.00    -0.744 OA
ENDBRANCH  45  46
ENDBRANCH  26  40
BRANCH  27  50
ATOM     50  C   UNL A   1      45.979  28.525  31.840  1.00  0.00    -0.014 A 
ATOM     51  C   UNL A   1      47.046  28.756  30.956  1.00  0.00     0.010 A 
ATOM     52  C   UNL A   1      46.191  27.718  32.974  1.00  0.00     0.010 A 
ATOM     53  C   UNL A   1      48.293  28.167  31.185  1.00  0.00     0.020 A 
ATOM     54  C   UNL A   1      47.443  27.154  33.223  1.00  0.00     0.020 A 
ATOM     55  C   UNL A   1      48.482  27.367  32.317  1.00  0.00     0.054 A 
BRANCH  55  56
ATOM     56  S   UNL A   1      50.114  26.634  32.613  1.00  0.00     0.124 S 
ATOM     57  O   UNL A   1      50.654  26.544  31.261  1.00  0.00    -0.237 OA
ATOM     58  O   UNL A   1      50.750  27.619  33.486  1.00  0.00    -0.237 OA
ATOM     59  O   UNL A   1      49.802  25.358  33.252  1.00  0.00    -0.744 OA
ENDBRANCH  55  56
ENDBRANCH  27  50
BRANCH  39  60
ATOM     60  C   UNL A   1      42.994  34.556  33.625  1.00  0.00    -0.014 A 
ATOM     61  C   UNL A   1      42.825  34.590  35.021  1.00  0.00     0.010 A 
ATOM     62  C   UNL A   1      43.660  35.616  32.985  1.00  0.00     0.010 A 
ATOM     63  C   UNL A   1      43.282  35.684  35.759  1.00  0.00     0.020 A 
ATOM     64  C   UNL A   1      44.141  36.699  33.724  1.00  0.00     0.020 A 
ATOM     65  C   UNL A   1      43.935  36.734  35.105  1.00  0.00     0.054 A 
BRANCH  65  66
ATOM     66  S   UNL A   1      44.550  38.127  36.087  1.00  0.00     0.124 S 
ATOM     67  O   UNL A   1      43.814  37.965  37.338  1.00  0.00    -0.237 OA
ATOM     68  O   UNL A   1      45.984  37.860  36.163  1.00  0.00    -0.237 OA
ATOM     69  O   UNL A   1      44.182  39.298  35.294  1.00  0.00    -0.744 OA
ENDBRANCH  65  66
ENDBRANCH  39  60
ENDBRANCH  13  14
ENDBRANCH   6   8
ENDBRANCH   3   4
ENDBRANCH   2   3
ENDBRANCH   1   2
BRANCH   1  70
ATOM     70  C   UNL A   1      34.418  20.755  25.920  1.00  0.00     0.002 C 
BRANCH  70  71
ATOM     71  C   UNL A   1      33.688  20.229  24.676  1.00  0.00     0.021 C 
BRANCH  71  72
ATOM     72  C   UNL A   1      32.222  20.649  24.584  1.00  0.00     0.116 C 
BRANCH  72  73
ATOM     73  N   UNL A   1      31.792  21.307  25.800  1.00  0.00    -0.356 N 
ATOM     74  C   UNL A   1      31.526  22.628  26.030  1.00  0.00     0.229 C 
ATOM     75  H   UNL A   1      31.675  20.715  26.578  1.00  0.00     0.163 HD
ATOM     76  O   UNL A   1      31.250  22.954  27.185  1.00  0.00    -0.274 OA
BRANCH  74  77
ATOM     77  C   UNL A   1      31.572  23.594  24.848  1.00  0.00     0.127 C 
ATOM     78  C   UNL A   1      33.023  23.881  24.387  1.00  0.00     0.042 C 
ATOM     79  C   UNL A   1      31.092  24.962  25.186  1.00  0.00     0.031 A 
ATOM     80  C   UNL A   1      33.050  25.359  23.968  1.00  0.00     0.124 C 
ATOM     81  N   UNL A   1      31.915  25.927  24.675  1.00  0.00    -0.341 N 
ATOM     82  C   UNL A   1      30.084  25.576  25.877  1.00  0.00     0.025 A 
ATOM     83  C   UNL A   1      31.492  27.179  25.007  1.00  0.00     0.090 A 
ATOM     84  C   UNL A   1      30.341  26.968  25.774  1.00  0.00     0.032 A 
BRANCH  83  85
ATOM     85  C   UNL A   1      32.086  28.474  24.720  1.00  0.00     0.209 C 
ATOM     86  O   UNL A   1      31.919  29.063  23.653  1.00  0.00    -0.287 OA
BRANCH  85  87
ATOM     87  C   UNL A   1      32.920  29.170  25.724  1.00  0.00     0.024 A 
ATOM     88  C   UNL A   1      34.129  28.579  26.110  1.00  0.00     0.012 A 
ATOM     89  C   UNL A   1      32.496  30.363  26.319  1.00  0.00     0.012 A 
ATOM     90  C   UNL A   1      34.938  29.208  27.056  1.00  0.00     0.001 A 
ATOM     91  C   UNL A   1      33.314  30.993  27.258  1.00  0.00     0.001 A 
ATOM     92  C   UNL A   1      34.533  30.417  27.622  1.00  0.00     0.000 A 
ENDBRANCH  85  87
ENDBRANCH  83  85
ENDBRANCH  74  77
ENDBRANCH  72  73
ENDBRANCH  71  72
ENDBRANCH  70  71
ENDBRANCH   1  70
TORSDOF 18
ENDMDL
MODEL 3
REMARK VINA RESULT:     -10.8      3.041      8.622
REMARK SMILES O=C(NCCCCCCNC(=O)[C@@H]1CCn2c(C(=O)c3ccccc3)ccc21)c1ccc(-c2c3nc(c(-c4ccc(S(=O)(=O)[O-])cc4)c4ccc([nH]4)c(-c4ccc(S(=O)(=O)[O-])cc4)c4nc(c(-c5ccc(S(=O)(=O)[O-])cc5)c5ccc2[nH]5)C=C4)C=C3)cc1
REMARK SMILES IDX 6 1 5 2 4 3 3 4 1 5 2 6 29 8 30 9 88 10 31 11 87 12 32 13
REMARK SMILES IDX 33 14 34 15 81 16 35 17 86 18 80 19 82 20 36 21 85 22 79 23
REMARK SMILES IDX 78 24 37 26 67 27 48 28 66 29 49 30 52 31 65 32 83 33 50 34
REMARK SMILES IDX 51 35 64 37 84 38 53 39 38 40 39 41 47 42 40 43 46 44 41 45
REMARK SMILES IDX 42 46 43 47 44 48 45 49 68 50 69 51 77 52 70 53 76 54 71 55
REMARK SMILES IDX 72 56 73 57 74 58 75 59 54 60 55 61 63 62 56 63 62 64 57 65
REMARK SMILES IDX 58 66 59 67 60 68 61 69 7 70 8 71 9 72 10 73 11 74 12 76
REMARK SMILES IDX 13 77 14 78 28 79 15 80 16 81 27 82 17 83 26 84 18 85 19 86
REMARK SMILES IDX 20 87 21 88 25 89 22 90 24 91 23 92
REMARK H PARENT 3 7 82 25 52 36 10 75
REMARK Flexibility Score: inf
ROOT
ATOM      1  C   UNL A   1      32.235  28.166  25.854  1.00  0.00     0.002 C 
ENDROOT
BRANCH   1   2
ATOM      2  C   UNL A   1      33.666  27.656  25.677  1.00  0.00     0.021 C 
BRANCH   2   3
ATOM      3  C   UNL A   1      34.743  28.622  26.153  1.00  0.00     0.116 C 
BRANCH   3   4
ATOM      4  N   UNL A   1      34.195  29.922  26.504  1.00  0.00    -0.352 N 
ATOM      5  O   UNL A   1      33.877  31.735  27.809  1.00  0.00    -0.269 OA
ATOM      6  C   UNL A   1      34.567  30.758  27.527  1.00  0.00     0.251 C 
ATOM      7  H   UNL A   1      33.461  30.245  25.934  1.00  0.00     0.163 HD
BRANCH   6   8
ATOM      8  C   UNL A   1      35.797  30.465  28.296  1.00  0.00     0.039 A 
ATOM      9  C   UNL A   1      35.771  29.540  29.344  1.00  0.00     0.014 A 
ATOM     10  C   UNL A   1      36.990  31.108  27.953  1.00  0.00     0.014 A 
ATOM     11  C   UNL A   1      36.911  29.334  30.112  1.00  0.00     0.010 A 
ATOM     12  C   UNL A   1      38.153  30.841  28.679  1.00  0.00     0.010 A 
ATOM     13  C   UNL A   1      38.120  29.960  29.770  1.00  0.00    -0.014 A 
BRANCH  13  14
ATOM     14  C   UNL A   1      39.359  29.579  30.492  1.00  0.00     0.031 A 
ATOM     15  C   UNL A   1      39.783  30.278  31.752  1.00  0.00     0.074 A 
ATOM     16  C   UNL A   1      40.101  28.571  29.988  1.00  0.00     0.049 A 
ATOM     17  N   UNL A   1      40.830  30.046  32.502  1.00  0.00    -0.248 NA
ATOM     18  C   UNL A   1      38.933  31.378  32.235  1.00  0.00     0.031 C 
ATOM     19  C   UNL A   1      39.793  27.834  28.757  1.00  0.00     0.029 A 
ATOM     20  N   UNL A   1      41.251  27.984  30.445  1.00  0.00    -0.354 N 
ATOM     21  C   UNL A   1      40.780  30.979  33.531  1.00  0.00     0.074 A 
ATOM     22  C   UNL A   1      39.603  31.790  33.305  1.00  0.00     0.031 C 
ATOM     23  C   UNL A   1      40.708  26.871  28.578  1.00  0.00     0.029 A 
ATOM     24  C   UNL A   1      41.700  26.961  29.642  1.00  0.00     0.049 A 
ATOM     25  H   UNL A   1      41.711  28.266  31.268  1.00  0.00     0.167 HD
ATOM     26  C   UNL A   1      41.640  31.139  34.566  1.00  0.00     0.031 A 
ATOM     27  C   UNL A   1      42.801  26.194  29.734  1.00  0.00     0.031 A 
ATOM     28  C   UNL A   1      42.806  30.322  34.784  1.00  0.00     0.049 A 
ATOM     29  C   UNL A   1      43.745  26.414  30.880  1.00  0.00     0.074 A 
ATOM     30  C   UNL A   1      43.705  30.374  35.835  1.00  0.00     0.029 A 
ATOM     31  N   UNL A   1      43.242  29.314  33.937  1.00  0.00    -0.354 N 
ATOM     32  N   UNL A   1      43.643  27.262  31.875  1.00  0.00    -0.248 NA
ATOM     33  C   UNL A   1      44.951  25.577  30.915  1.00  0.00     0.031 C 
ATOM     34  C   UNL A   1      44.715  29.435  35.595  1.00  0.00     0.029 A 
ATOM     35  C   UNL A   1      44.414  28.761  34.422  1.00  0.00     0.049 A 
ATOM     36  H   UNL A   1      42.784  29.035  33.110  1.00  0.00     0.167 HD
ATOM     37  C   UNL A   1      44.771  27.056  32.659  1.00  0.00     0.074 A 
ATOM     38  C   UNL A   1      45.523  25.983  32.040  1.00  0.00     0.031 C 
ATOM     39  C   UNL A   1      45.153  27.702  33.788  1.00  0.00     0.031 A 
BRANCH  26  40
ATOM     40  C   UNL A   1      41.377  32.253  35.545  1.00  0.00    -0.014 A 
ATOM     41  C   UNL A   1      41.833  33.559  35.299  1.00  0.00     0.010 A 
ATOM     42  C   UNL A   1      40.569  32.009  36.672  1.00  0.00     0.010 A 
ATOM     43  C   UNL A   1      41.495  34.600  36.169  1.00  0.00     0.020 A 
ATOM     44  C   UNL A   1      40.213  33.051  37.534  1.00  0.00     0.020 A 
ATOM     45  C   UNL A   1      40.685  34.340  37.280  1.00  0.00     0.054 A 
BRANCH  45  46
ATOM     46  S   UNL A   1      40.210  35.723  38.355  1.00  0.00     0.124 S 
ATOM     47  O   UNL A   1      40.132  36.829  37.403  1.00  0.00    -0.237 OA
ATOM     48  O   UNL A   1      38.933  35.278  38.905  1.00  0.00    -0.237 OA
ATOM     49  O   UNL A   1      41.305  35.807  39.318  1.00  0.00    -0.744 OA
ENDBRANCH  45  46
ENDBRANCH  26  40
BRANCH  27  50
ATOM     50  C   UNL A   1      43.089  25.179  28.686  1.00  0.00    -0.014 A 
ATOM     51  C   UNL A   1      43.634  25.555  27.447  1.00  0.00     0.010 A 
ATOM     52  C   UNL A   1      42.818  23.819  28.931  1.00  0.00     0.010 A 
ATOM     53  C   UNL A   1      43.874  24.594  26.461  1.00  0.00     0.020 A 
ATOM     54  C   UNL A   1      43.087  22.853  27.961  1.00  0.00     0.020 A 
ATOM     55  C   UNL A   1      43.596  23.249  26.724  1.00  0.00     0.054 A 
BRANCH  55  56
ATOM     56  S   UNL A   1      43.941  22.012  25.443  1.00  0.00     0.124 S 
ATOM     57  O   UNL A   1      43.404  22.656  24.250  1.00  0.00    -0.237 OA
ATOM     58  O   UNL A   1      45.396  21.894  25.500  1.00  0.00    -0.237 OA
ATOM     59  O   UNL A   1      43.211  20.834  25.904  1.00  0.00    -0.744 OA
ENDBRANCH  55  56
ENDBRANCH  27  50
BRANCH  39  60
ATOM     60  C   UNL A   1      46.437  27.252  34.428  1.00  0.00    -0.014 A 
ATOM     61  C   UNL A   1      47.663  27.852  34.088  1.00  0.00     0.010 A 
ATOM     62  C   UNL A   1      46.413  26.240  35.405  1.00  0.00     0.010 A 
ATOM     63  C   UNL A   1      48.848  27.423  34.689  1.00  0.00     0.020 A 
ATOM     64  C   UNL A   1      47.593  25.828  36.026  1.00  0.00     0.020 A 
ATOM     65  C   UNL A   1      48.806  26.410  35.653  1.00  0.00     0.054 A 
BRANCH  65  66
ATOM     66  S   UNL A   1      50.352  25.892  36.444  1.00  0.00     0.124 S 
ATOM     67  O   UNL A   1      51.151  25.465  35.299  1.00  0.00    -0.237 OA
ATOM     68  O   UNL A   1      50.803  27.116  37.103  1.00  0.00    -0.237 OA
ATOM     69  O   UNL A   1      49.936  24.823  37.348  1.00  0.00    -0.744 OA
ENDBRANCH  65  66
ENDBRANCH  39  60
ENDBRANCH  13  14
ENDBRANCH   6   8
ENDBRANCH   3   4
ENDBRANCH   2   3
ENDBRANCH   1   2
BRANCH   1  70
ATOM     70  C   UNL A   1      31.389  27.386  26.867  1.00  0.00     0.002 C 
BRANCH  70  71
ATOM     71  C   UNL A   1      30.532  26.257  26.276  1.00  0.00     0.021 C 
BRANCH  71  72
ATOM     72  C   UNL A   1      30.288  26.376  24.772  1.00  0.00     0.116 C 
BRANCH  72  73
ATOM     73  N   UNL A   1      30.076  25.073  24.175  1.00  0.00    -0.356 N 
ATOM     74  C   UNL A   1      30.985  24.193  23.657  1.00  0.00     0.229 C 
ATOM     75  H   UNL A   1      29.138  24.779  24.136  1.00  0.00     0.163 HD
ATOM     76  O   UNL A   1      30.541  23.173  23.128  1.00  0.00    -0.274 OA
BRANCH  74  77
ATOM     77  C   UNL A   1      32.470  24.524  23.784  1.00  0.00     0.127 C 
ATOM     78  C   UNL A   1      33.276  24.070  22.541  1.00  0.00     0.042 C 
ATOM     79  C   UNL A   1      33.151  23.768  24.871  1.00  0.00     0.031 A 
ATOM     80  C   UNL A   1      34.633  23.584  23.071  1.00  0.00     0.124 C 
ATOM     81  N   UNL A   1      34.356  23.270  24.462  1.00  0.00    -0.341 N 
ATOM     82  C   UNL A   1      32.943  23.386  26.167  1.00  0.00     0.025 A 
ATOM     83  C   UNL A   1      34.968  22.555  25.447  1.00  0.00     0.090 A 
ATOM     84  C   UNL A   1      34.080  22.614  26.526  1.00  0.00     0.032 A 
BRANCH  83  85
ATOM     85  C   UNL A   1      36.222  21.820  25.429  1.00  0.00     0.209 C 
ATOM     86  O   UNL A   1      36.311  20.662  25.022  1.00  0.00    -0.287 OA
BRANCH  85  87
ATOM     87  C   UNL A   1      37.480  22.445  25.890  1.00  0.00     0.024 A 
ATOM     88  C   UNL A   1      37.497  23.828  26.103  1.00  0.00     0.012 A 
ATOM     89  C   UNL A   1      38.646  21.691  26.060  1.00  0.00     0.012 A 
ATOM     90  C   UNL A   1      38.668  24.451  26.534  1.00  0.00     0.001 A 
ATOM     91  C   UNL A   1      39.813  22.317  26.502  1.00  0.00     0.001 A 
ATOM     92  C   UNL A   1      39.821  23.692  26.741  1.00  0.00     0.000 A 
ENDBRANCH  85  87
ENDBRANCH  83  85
ENDBRANCH  74  77
ENDBRANCH  72  73
ENDBRANCH  71  72
ENDBRANCH  70  71
ENDBRANCH   1  70
TORSDOF 18
ENDMDL
