MODEL 1
REMARK VINA RESULT:     -10.4      0.000      0.000
REMARK SMILES CC[C@@H](C)SCc1cc(F)cc(/C=C/C(=O)NCCCCCCNC(=O)c2ccc(-c3c4nc(c(-c5ccc(S(=O)(=O)[O-])cc5)c5ccc([nH]5)c(-c5ccc(S(=O)(=O)[O-])cc5)c5nc(c(-c6ccc(S(=O)(=O)[O-])cc6)c6ccc3[nH]6)C=C5)C=C4)cc2)c1
REMARK SMILES IDX 19 1 18 2 17 3 15 4 16 5 14 7 13 8 12 9 7 10 8 11 87 12 9 13
REMARK SMILES IDX 10 14 11 15 6 16 5 17 3 18 4 19 2 20 1 21 20 22 21 23 22 24
REMARK SMILES IDX 23 25 24 26 25 27 26 29 27 30 28 31 86 32 29 33 85 34 30 35
REMARK SMILES IDX 31 36 32 37 79 38 33 39 84 40 78 41 80 42 34 43 83 44 77 45
REMARK SMILES IDX 76 46 35 48 65 49 46 50 64 51 47 52 50 53 63 54 81 55 48 56
REMARK SMILES IDX 49 57 62 59 82 60 51 61 36 62 37 63 45 64 38 65 44 66 39 67
REMARK SMILES IDX 40 68 41 69 42 70 43 71 66 72 67 73 75 74 68 75 74 76 69 77
REMARK SMILES IDX 70 78 71 79 72 80 73 81 52 82 53 83 61 84 54 85 60 86 55 87
REMARK SMILES IDX 56 88 57 89 58 90 59 91
REMARK H PARENT 17 6 24 28 80 47 50 58
REMARK Flexibility Score: inf
ROOT
ATOM      1  C   UNL A   1      34.767  21.437  25.297  1.00  0.00     0.021 C 
ENDROOT
BRANCH   1   2
ATOM      2  C   UNL A   1      33.387  21.607  24.659  1.00  0.00     0.116 C 
BRANCH   2   3
ATOM      3  N   UNL A   1      33.505  22.159  23.319  1.00  0.00    -0.353 N 
ATOM      4  C   UNL A   1      33.371  23.429  22.854  1.00  0.00     0.243 C 
ATOM      5  O   UNL A   1      33.611  23.674  21.674  1.00  0.00    -0.270 OA
ATOM      6  H   UNL A   1      33.720  21.494  22.625  1.00  0.00     0.163 HD
BRANCH   4   7
ATOM      7  C   UNL A   1      33.017  24.541  23.762  1.00  0.00     0.072 C 
ATOM      8  C   UNL A   1      33.718  25.678  23.843  1.00  0.00     0.014 C 
BRANCH   8   9
ATOM      9  C   UNL A   1      33.399  26.790  24.743  1.00  0.00    -0.022 A 
ATOM     10  C   UNL A   1      32.087  28.831  25.069  1.00  0.00    -0.035 A 
ATOM     11  C   UNL A   1      32.893  29.150  26.168  1.00  0.00     0.043 A 
ATOM     12  C   UNL A   1      32.312  27.611  24.409  1.00  0.00     0.013 A 
ATOM     13  C   UNL A   1      33.933  28.302  26.537  1.00  0.00     0.124 A 
ATOM     14  F   UNL A   1      34.717  28.639  27.570  1.00  0.00    -0.207 F 
ATOM     15  C   UNL A   1      34.208  27.140  25.824  1.00  0.00     0.047 A 
BRANCH  10  16
ATOM     16  C   UNL A   1      31.019  29.790  24.605  1.00  0.00     0.105 C 
BRANCH  16  17
ATOM     17  S   UNL A   1      29.941  29.173  23.261  1.00  0.00    -0.154 SA
BRANCH  17  18
ATOM     18  C   UNL A   1      28.801  30.583  22.909  1.00  0.00     0.043 C 
ATOM     19  C   UNL A   1      27.330  30.233  23.124  1.00  0.00     0.019 C 
BRANCH  18  20
ATOM     20  C   UNL A   1      29.082  31.236  21.549  1.00  0.00     0.011 C 
ATOM     21  C   UNL A   1      28.017  32.252  21.153  1.00  0.00     0.005 C 
ENDBRANCH  18  20
ENDBRANCH  17  18
ENDBRANCH  16  17
ENDBRANCH  10  16
ENDBRANCH   8   9
ENDBRANCH   4   7
ENDBRANCH   2   3
ENDBRANCH   1   2
BRANCH   1  22
ATOM     22  C   UNL A   1      35.121  22.541  26.301  1.00  0.00     0.002 C 
BRANCH  22  23
ATOM     23  C   UNL A   1      36.037  23.644  25.755  1.00  0.00     0.002 C 
BRANCH  23  24
ATOM     24  C   UNL A   1      37.528  23.297  25.723  1.00  0.00     0.021 C 
BRANCH  24  25
ATOM     25  C   UNL A   1      38.416  24.219  26.555  1.00  0.00     0.116 C 
BRANCH  25  26
ATOM     26  N   UNL A   1      39.816  24.110  26.173  1.00  0.00    -0.352 N 
ATOM     27  C   UNL A   1      40.877  24.912  26.508  1.00  0.00     0.251 C 
ATOM     28  H   UNL A   1      40.033  23.349  25.588  1.00  0.00     0.163 HD
ATOM     29  O   UNL A   1      41.944  24.789  25.915  1.00  0.00    -0.269 OA
BRANCH  27  30
ATOM     30  C   UNL A   1      40.733  25.929  27.574  1.00  0.00     0.039 A 
ATOM     31  C   UNL A   1      39.759  25.742  28.558  1.00  0.00     0.014 A 
ATOM     32  C   UNL A   1      41.531  27.077  27.587  1.00  0.00     0.014 A 
ATOM     33  C   UNL A   1      39.621  26.680  29.582  1.00  0.00     0.010 A 
ATOM     34  C   UNL A   1      41.437  27.978  28.646  1.00  0.00     0.010 A 
ATOM     35  C   UNL A   1      40.477  27.792  29.651  1.00  0.00    -0.014 A 
BRANCH  35  36
ATOM     36  C   UNL A   1      40.381  28.758  30.776  1.00  0.00     0.031 A 
ATOM     37  C   UNL A   1      41.278  28.624  31.977  1.00  0.00     0.074 A 
ATOM     38  C   UNL A   1      39.450  29.732  30.733  1.00  0.00     0.049 A 
ATOM     39  N   UNL A   1      41.332  29.371  33.051  1.00  0.00    -0.248 NA
ATOM     40  C   UNL A   1      42.223  27.495  31.983  1.00  0.00     0.031 C 
ATOM     41  C   UNL A   1      38.488  29.935  29.647  1.00  0.00     0.029 A 
ATOM     42  N   UNL A   1      39.162  30.735  31.623  1.00  0.00    -0.354 N 
ATOM     43  C   UNL A   1      42.303  28.796  33.864  1.00  0.00     0.074 A 
ATOM     44  C   UNL A   1      42.777  27.612  33.181  1.00  0.00     0.031 C 
ATOM     45  C   UNL A   1      37.739  31.016  29.920  1.00  0.00     0.029 A 
ATOM     46  C   UNL A   1      38.142  31.561  31.212  1.00  0.00     0.049 A 
ATOM     47  H   UNL A   1      39.640  30.853  32.476  1.00  0.00     0.167 HD
ATOM     48  C   UNL A   1      42.771  29.226  35.061  1.00  0.00     0.031 A 
ATOM     49  C   UNL A   1      37.593  32.637  31.806  1.00  0.00     0.031 A 
ATOM     50  C   UNL A   1      42.302  30.409  35.734  1.00  0.00     0.049 A 
ATOM     51  C   UNL A   1      38.137  33.101  33.129  1.00  0.00     0.074 A 
ATOM     52  C   UNL A   1      42.750  30.957  36.924  1.00  0.00     0.029 A 
ATOM     53  N   UNL A   1      41.277  31.224  35.278  1.00  0.00    -0.354 N 
ATOM     54  N   UNL A   1      39.103  32.582  33.850  1.00  0.00    -0.248 NA
ATOM     55  C   UNL A   1      37.528  34.305  33.708  1.00  0.00     0.031 C 
ATOM     56  C   UNL A   1      41.963  32.079  37.211  1.00  0.00     0.029 A 
ATOM     57  C   UNL A   1      41.065  32.262  36.172  1.00  0.00     0.049 A 
ATOM     58  H   UNL A   1      40.775  31.087  34.443  1.00  0.00     0.167 HD
ATOM     59  C   UNL A   1      39.236  33.414  34.956  1.00  0.00     0.074 A 
ATOM     60  C   UNL A   1      38.264  34.477  34.799  1.00  0.00     0.031 C 
ATOM     61  C   UNL A   1      40.087  33.308  36.006  1.00  0.00     0.031 A 
BRANCH  48  62
ATOM     62  C   UNL A   1      43.848  28.405  35.721  1.00  0.00    -0.014 A 
ATOM     63  C   UNL A   1      45.211  28.669  35.487  1.00  0.00     0.010 A 
ATOM     64  C   UNL A   1      43.498  27.381  36.620  1.00  0.00     0.010 A 
ATOM     65  C   UNL A   1      46.200  27.897  36.102  1.00  0.00     0.020 A 
ATOM     66  C   UNL A   1      44.485  26.625  37.261  1.00  0.00     0.020 A 
ATOM     67  C   UNL A   1      45.830  26.876  36.983  1.00  0.00     0.054 A 
BRANCH  67  68
ATOM     68  S   UNL A   1      47.135  25.904  37.783  1.00  0.00     0.124 S 
ATOM     69  O   UNL A   1      46.529  24.575  37.837  1.00  0.00    -0.237 OA
ATOM     70  O   UNL A   1      48.255  26.046  36.858  1.00  0.00    -0.237 OA
ATOM     71  O   UNL A   1      47.312  26.559  39.078  1.00  0.00    -0.744 OA
ENDBRANCH  67  68
ENDBRANCH  48  62
BRANCH  49  72
ATOM     72  C   UNL A   1      36.482  33.368  31.137  1.00  0.00    -0.014 A 
ATOM     73  C   UNL A   1      35.229  33.490  31.762  1.00  0.00     0.010 A 
ATOM     74  C   UNL A   1      36.679  33.962  29.876  1.00  0.00     0.010 A 
ATOM     75  C   UNL A   1      34.187  34.177  31.131  1.00  0.00     0.020 A 
ATOM     76  C   UNL A   1      35.649  34.674  29.255  1.00  0.00     0.020 A 
ATOM     77  C   UNL A   1      34.405  34.766  29.882  1.00  0.00     0.054 A 
BRANCH  77  78
ATOM     78  S   UNL A   1      33.055  35.699  29.107  1.00  0.00     0.124 S 
ATOM     79  O   UNL A   1      32.396  34.672  28.308  1.00  0.00    -0.237 OA
ATOM     80  O   UNL A   1      32.303  36.186  30.261  1.00  0.00    -0.237 OA
ATOM     81  O   UNL A   1      33.752  36.735  28.346  1.00  0.00    -0.744 OA
ENDBRANCH  77  78
ENDBRANCH  49  72
BRANCH  61  82
ATOM     82  C   UNL A   1      40.026  34.390  37.051  1.00  0.00    -0.014 A 
ATOM     83  C   UNL A   1      40.857  35.522  36.982  1.00  0.00     0.010 A 
ATOM     84  C   UNL A   1      39.098  34.284  38.104  1.00  0.00     0.010 A 
ATOM     85  C   UNL A   1      40.797  36.504  37.973  1.00  0.00     0.020 A 
ATOM     86  C   UNL A   1      39.015  35.279  39.082  1.00  0.00     0.020 A 
ATOM     87  C   UNL A   1      39.879  36.374  39.020  1.00  0.00     0.054 A 
BRANCH  87  88
ATOM     88  S   UNL A   1      39.806  37.670  40.287  1.00  0.00     0.124 S 
ATOM     89  O   UNL A   1      40.350  36.983  41.455  1.00  0.00    -0.237 OA
ATOM     90  O   UNL A   1      40.652  38.719  39.723  1.00  0.00    -0.237 OA
ATOM     91  O   UNL A   1      38.384  37.999  40.364  1.00  0.00    -0.744 OA
ENDBRANCH  87  88
ENDBRANCH  61  82
ENDBRANCH  35  36
ENDBRANCH  27  30
ENDBRANCH  25  26
ENDBRANCH  24  25
ENDBRANCH  23  24
ENDBRANCH  22  23
ENDBRANCH   1  22
TORSDOF 21
ENDMDL
MODEL 2
REMARK VINA RESULT:     -10.3      4.991      6.062
REMARK SMILES CC[C@@H](C)SCc1cc(F)cc(/C=C/C(=O)NCCCCCCNC(=O)c2ccc(-c3c4nc(c(-c5ccc(S(=O)(=O)[O-])cc5)c5ccc([nH]5)c(-c5ccc(S(=O)(=O)[O-])cc5)c5nc(c(-c6ccc(S(=O)(=O)[O-])cc6)c6ccc3[nH]6)C=C5)C=C4)cc2)c1
REMARK SMILES IDX 19 1 18 2 17 3 15 4 16 5 14 7 13 8 12 9 7 10 8 11 87 12 9 13
REMARK SMILES IDX 10 14 11 15 6 16 5 17 3 18 4 19 2 20 1 21 20 22 21 23 22 24
REMARK SMILES IDX 23 25 24 26 25 27 26 29 27 30 28 31 86 32 29 33 85 34 30 35
REMARK SMILES IDX 31 36 32 37 79 38 33 39 84 40 78 41 80 42 34 43 83 44 77 45
REMARK SMILES IDX 76 46 35 48 65 49 46 50 64 51 47 52 50 53 63 54 81 55 48 56
REMARK SMILES IDX 49 57 62 59 82 60 51 61 36 62 37 63 45 64 38 65 44 66 39 67
REMARK SMILES IDX 40 68 41 69 42 70 43 71 66 72 67 73 75 74 68 75 74 76 69 77
REMARK SMILES IDX 70 78 71 79 72 80 73 81 52 82 53 83 61 84 54 85 60 86 55 87
REMARK SMILES IDX 56 88 57 89 58 90 59 91
REMARK H PARENT 17 6 24 28 80 47 50 58
REMARK Flexibility Score: inf
ROOT
ATOM      1  C   UNL A   1      32.566  22.000  24.234  1.00  0.00     0.021 C 
ENDROOT
BRANCH   1   2
ATOM      2  C   UNL A   1      32.860  21.658  25.696  1.00  0.00     0.116 C 
BRANCH   2   3
ATOM      3  N   UNL A   1      31.781  22.113  26.557  1.00  0.00    -0.353 N 
ATOM      4  C   UNL A   1      31.055  23.262  26.559  1.00  0.00     0.243 C 
ATOM      5  O   UNL A   1      30.114  23.387  27.341  1.00  0.00    -0.270 OA
ATOM      6  H   UNL A   1      31.531  21.475  27.265  1.00  0.00     0.163 HD
BRANCH   4   7
ATOM      7  C   UNL A   1      31.325  24.337  25.582  1.00  0.00     0.072 C 
ATOM      8  C   UNL A   1      31.928  25.489  25.901  1.00  0.00     0.014 C 
BRANCH   8   9
ATOM      9  C   UNL A   1      32.196  26.578  24.956  1.00  0.00    -0.022 A 
ATOM     10  C   UNL A   1      31.301  28.557  23.826  1.00  0.00    -0.035 A 
ATOM     11  C   UNL A   1      32.396  28.530  22.955  1.00  0.00     0.043 A 
ATOM     12  C   UNL A   1      31.253  27.612  24.865  1.00  0.00     0.013 A 
ATOM     13  C   UNL A   1      33.365  27.539  23.086  1.00  0.00     0.124 A 
ATOM     14  F   UNL A   1      34.390  27.507  22.222  1.00  0.00    -0.207 F 
ATOM     15  C   UNL A   1      33.265  26.552  24.061  1.00  0.00     0.047 A 
BRANCH  10  16
ATOM     16  C   UNL A   1      30.200  29.569  23.632  1.00  0.00     0.105 C 
BRANCH  16  17
ATOM     17  S   UNL A   1      28.606  28.890  23.044  1.00  0.00    -0.154 SA
BRANCH  17  18
ATOM     18  C   UNL A   1      27.692  30.362  22.404  1.00  0.00     0.043 C 
ATOM     19  C   UNL A   1      28.169  30.810  21.023  1.00  0.00     0.019 C 
BRANCH  18  20
ATOM     20  C   UNL A   1      27.629  31.503  23.428  1.00  0.00     0.011 C 
ATOM     21  C   UNL A   1      28.602  32.633  23.111  1.00  0.00     0.005 C 
ENDBRANCH  18  20
ENDBRANCH  17  18
ENDBRANCH  16  17
ENDBRANCH  10  16
ENDBRANCH   8   9
ENDBRANCH   4   7
ENDBRANCH   2   3
ENDBRANCH   1   2
BRANCH   1  22
ATOM     22  C   UNL A   1      33.800  22.463  23.450  1.00  0.00     0.002 C 
BRANCH  22  23
ATOM     23  C   UNL A   1      35.125  22.380  24.219  1.00  0.00     0.002 C 
BRANCH  23  24
ATOM     24  C   UNL A   1      35.733  23.728  24.616  1.00  0.00     0.021 C 
BRANCH  24  25
ATOM     25  C   UNL A   1      36.428  23.740  25.975  1.00  0.00     0.116 C 
BRANCH  25  26
ATOM     26  N   UNL A   1      37.438  22.698  26.074  1.00  0.00    -0.352 N 
ATOM     27  C   UNL A   1      38.784  22.807  26.315  1.00  0.00     0.251 C 
ATOM     28  H   UNL A   1      37.106  21.779  25.951  1.00  0.00     0.163 HD
ATOM     29  O   UNL A   1      39.514  21.834  26.146  1.00  0.00    -0.269 OA
BRANCH  27  30
ATOM     30  C   UNL A   1      39.358  24.095  26.764  1.00  0.00     0.039 A 
ATOM     31  C   UNL A   1      39.302  24.422  28.121  1.00  0.00     0.014 A 
ATOM     32  C   UNL A   1      39.920  24.991  25.850  1.00  0.00     0.014 A 
ATOM     33  C   UNL A   1      39.855  25.623  28.568  1.00  0.00     0.010 A 
ATOM     34  C   UNL A   1      40.531  26.159  26.305  1.00  0.00     0.010 A 
ATOM     35  C   UNL A   1      40.498  26.489  27.668  1.00  0.00    -0.014 A 
BRANCH  35  36
ATOM     36  C   UNL A   1      41.149  27.736  28.146  1.00  0.00     0.031 A 
ATOM     37  C   UNL A   1      42.645  27.895  28.072  1.00  0.00     0.074 A 
ATOM     38  C   UNL A   1      40.393  28.710  28.689  1.00  0.00     0.049 A 
ATOM     39  N   UNL A   1      43.384  28.909  28.445  1.00  0.00    -0.248 NA
ATOM     40  C   UNL A   1      43.411  26.761  27.530  1.00  0.00     0.031 C 
ATOM     41  C   UNL A   1      38.939  28.655  28.863  1.00  0.00     0.029 A 
ATOM     42  N   UNL A   1      40.739  29.938  29.193  1.00  0.00    -0.354 N 
ATOM     43  C   UNL A   1      44.699  28.532  28.196  1.00  0.00     0.074 A 
ATOM     44  C   UNL A   1      44.659  27.179  27.686  1.00  0.00     0.031 C 
ATOM     45  C   UNL A   1      38.516  29.809  29.403  1.00  0.00     0.029 A 
ATOM     46  C   UNL A   1      39.668  30.672  29.645  1.00  0.00     0.049 A 
ATOM     47  H   UNL A   1      41.668  30.264  29.228  1.00  0.00     0.167 HD
ATOM     48  C   UNL A   1      45.834  29.254  28.357  1.00  0.00     0.031 A 
ATOM     49  C   UNL A   1      39.615  31.901  30.191  1.00  0.00     0.031 A 
ATOM     50  C   UNL A   1      45.869  30.602  28.859  1.00  0.00     0.049 A 
ATOM     51  C   UNL A   1      40.888  32.687  30.351  1.00  0.00     0.074 A 
ATOM     52  C   UNL A   1      46.963  31.437  29.009  1.00  0.00     0.029 A 
ATOM     53  N   UNL A   1      44.761  31.314  29.293  1.00  0.00    -0.354 N 
ATOM     54  N   UNL A   1      42.115  32.337  30.045  1.00  0.00    -0.248 NA
ATOM     55  C   UNL A   1      40.765  34.038  30.912  1.00  0.00     0.031 C 
ATOM     56  C   UNL A   1      46.523  32.637  29.579  1.00  0.00     0.029 A 
ATOM     57  C   UNL A   1      45.147  32.571  29.729  1.00  0.00     0.049 A 
ATOM     58  H   UNL A   1      43.836  30.977  29.290  1.00  0.00     0.167 HD
ATOM     59  C   UNL A   1      42.908  33.437  30.352  1.00  0.00     0.074 A 
ATOM     60  C   UNL A   1      42.018  34.467  30.850  1.00  0.00     0.031 C 
ATOM     61  C   UNL A   1      44.251  33.582  30.231  1.00  0.00     0.031 A 
BRANCH  48  62
ATOM     62  C   UNL A   1      47.137  28.592  27.990  1.00  0.00    -0.014 A 
ATOM     63  C   UNL A   1      47.661  28.690  26.687  1.00  0.00     0.010 A 
ATOM     64  C   UNL A   1      47.870  27.894  28.967  1.00  0.00     0.010 A 
ATOM     65  C   UNL A   1      48.867  28.067  26.359  1.00  0.00     0.020 A 
ATOM     66  C   UNL A   1      49.092  27.294  28.651  1.00  0.00     0.020 A 
ATOM     67  C   UNL A   1      49.575  27.369  27.342  1.00  0.00     0.054 A 
BRANCH  67  68
ATOM     68  S   UNL A   1      51.148  26.588  26.893  1.00  0.00     0.124 S 
ATOM     69  O   UNL A   1      52.033  27.744  26.764  1.00  0.00    -0.237 OA
ATOM     70  O   UNL A   1      51.413  25.718  28.035  1.00  0.00    -0.237 OA
ATOM     71  O   UNL A   1      50.847  25.893  25.642  1.00  0.00    -0.744 OA
ENDBRANCH  67  68
ENDBRANCH  48  62
BRANCH  49  72
ATOM     72  C   UNL A   1      38.305  32.476  30.600  1.00  0.00    -0.014 A 
ATOM     73  C   UNL A   1      37.838  32.325  31.918  1.00  0.00     0.010 A 
ATOM     74  C   UNL A   1      37.525  33.196  29.676  1.00  0.00     0.010 A 
ATOM     75  C   UNL A   1      36.607  32.866  32.300  1.00  0.00     0.020 A 
ATOM     76  C   UNL A   1      36.307  33.763  30.062  1.00  0.00     0.020 A 
ATOM     77  C   UNL A   1      35.850  33.583  31.369  1.00  0.00     0.054 A 
BRANCH  77  78
ATOM     78  S   UNL A   1      34.281  34.324  31.901  1.00  0.00     0.124 S 
ATOM     79  O   UNL A   1      33.734  33.286  32.767  1.00  0.00    -0.237 OA
ATOM     80  O   UNL A   1      34.718  35.545  32.572  1.00  0.00    -0.237 OA
ATOM     81  O   UNL A   1      33.562  34.536  30.645  1.00  0.00    -0.744 OA
ENDBRANCH  77  78
ENDBRANCH  49  72
BRANCH  61  82
ATOM     82  C   UNL A   1      44.834  34.917  30.615  1.00  0.00    -0.014 A 
ATOM     83  C   UNL A   1      44.934  35.966  29.684  1.00  0.00     0.010 A 
ATOM     84  C   UNL A   1      45.262  35.131  31.938  1.00  0.00     0.010 A 
ATOM     85  C   UNL A   1      45.497  37.189  30.056  1.00  0.00     0.020 A 
ATOM     86  C   UNL A   1      45.798  36.362  32.322  1.00  0.00     0.020 A 
ATOM     87  C   UNL A   1      45.930  37.378  31.373  1.00  0.00     0.054 A 
BRANCH  87  88
ATOM     88  S   UNL A   1      46.641  38.980  31.839  1.00  0.00     0.124 S 
ATOM     89  O   UNL A   1      45.670  39.471  32.813  1.00  0.00    -0.237 OA
ATOM     90  O   UNL A   1      47.945  38.608  32.383  1.00  0.00    -0.237 OA
ATOM     91  O   UNL A   1      46.687  39.717  30.578  1.00  0.00    -0.744 OA
ENDBRANCH  87  88
ENDBRANCH  61  82
ENDBRANCH  35  36
ENDBRANCH  27  30
ENDBRANCH  25  26
ENDBRANCH  24  25
ENDBRANCH  23  24
ENDBRANCH  22  23
ENDBRANCH   1  22
TORSDOF 21
ENDMDL
MODEL 3
REMARK VINA RESULT:     -10.2      3.514      8.864
REMARK SMILES CC[C@@H](C)SCc1cc(F)cc(/C=C/C(=O)NCCCCCCNC(=O)c2ccc(-c3c4nc(c(-c5ccc(S(=O)(=O)[O-])cc5)c5ccc([nH]5)c(-c5ccc(S(=O)(=O)[O-])cc5)c5nc(c(-c6ccc(S(=O)(=O)[O-])cc6)c6ccc3[nH]6)C=C5)C=C4)cc2)c1
REMARK SMILES IDX 19 1 18 2 17 3 15 4 16 5 14 7 13 8 12 9 7 10 8 11 87 12 9 13
REMARK SMILES IDX 10 14 11 15 6 16 5 17 3 18 4 19 2 20 1 21 20 22 21 23 22 24
REMARK SMILES IDX 23 25 24 26 25 27 26 29 27 30 28 31 86 32 29 33 85 34 30 35
REMARK SMILES IDX 31 36 32 37 79 38 33 39 84 40 78 41 80 42 34 43 83 44 77 45
REMARK SMILES IDX 76 46 35 48 65 49 46 50 64 51 47 52 50 53 63 54 81 55 48 56
REMARK SMILES IDX 49 57 62 59 82 60 51 61 36 62 37 63 45 64 38 65 44 66 39 67
REMARK SMILES IDX 40 68 41 69 42 70 43 71 66 72 67 73 75 74 68 75 74 76 69 77
REMARK SMILES IDX 70 78 71 79 72 80 73 81 52 82 53 83 61 84 54 85 60 86 55 87
REMARK SMILES IDX 56 88 57 89 58 90 59 91
REMARK H PARENT 17 6 24 28 80 47 50 58
REMARK Flexibility Score: inf
ROOT
ATOM      1  C   UNL A   1      32.537  21.979  24.382  1.00  0.00     0.021 C 
ENDROOT
BRANCH   1   2
ATOM      2  C   UNL A   1      32.855  21.991  25.878  1.00  0.00     0.116 C 
BRANCH   2   3
ATOM      3  N   UNL A   1      31.666  22.306  26.654  1.00  0.00    -0.353 N 
ATOM      4  C   UNL A   1      30.885  23.418  26.692  1.00  0.00     0.243 C 
ATOM      5  O   UNL A   1      29.860  23.420  27.370  1.00  0.00    -0.270 OA
ATOM      6  H   UNL A   1      31.374  21.586  27.259  1.00  0.00     0.163 HD
BRANCH   4   7
ATOM      7  C   UNL A   1      31.204  24.603  25.868  1.00  0.00     0.072 C 
ATOM      8  C   UNL A   1      31.899  25.652  26.323  1.00  0.00     0.014 C 
BRANCH   8   9
ATOM      9  C   UNL A   1      32.218  26.846  25.534  1.00  0.00    -0.022 A 
ATOM     10  C   UNL A   1      31.334  28.811  24.370  1.00  0.00    -0.035 A 
ATOM     11  C   UNL A   1      32.581  28.984  23.758  1.00  0.00     0.043 A 
ATOM     12  C   UNL A   1      31.192  27.775  25.309  1.00  0.00     0.013 A 
ATOM     13  C   UNL A   1      33.619  28.097  24.031  1.00  0.00     0.124 A 
ATOM     14  F   UNL A   1      34.797  28.257  23.411  1.00  0.00    -0.207 F 
ATOM     15  C   UNL A   1      33.444  27.020  24.894  1.00  0.00     0.047 A 
BRANCH  10  16
ATOM     16  C   UNL A   1      30.179  29.710  24.009  1.00  0.00     0.105 C 
BRANCH  16  17
ATOM     17  S   UNL A   1      29.798  29.816  22.222  1.00  0.00    -0.154 SA
BRANCH  17  18
ATOM     18  C   UNL A   1      28.213  30.762  22.150  1.00  0.00     0.043 C 
ATOM     19  C   UNL A   1      27.882  31.271  20.749  1.00  0.00     0.019 C 
BRANCH  18  20
ATOM     20  C   UNL A   1      28.130  31.847  23.231  1.00  0.00     0.011 C 
ATOM     21  C   UNL A   1      28.794  33.152  22.806  1.00  0.00     0.005 C 
ENDBRANCH  18  20
ENDBRANCH  17  18
ENDBRANCH  16  17
ENDBRANCH  10  16
ENDBRANCH   8   9
ENDBRANCH   4   7
ENDBRANCH   2   3
ENDBRANCH   1   2
BRANCH   1  22
ATOM     22  C   UNL A   1      33.666  22.540  23.508  1.00  0.00     0.002 C 
BRANCH  22  23
ATOM     23  C   UNL A   1      35.071  22.430  24.116  1.00  0.00     0.002 C 
BRANCH  23  24
ATOM     24  C   UNL A   1      35.772  23.766  24.381  1.00  0.00     0.021 C 
BRANCH  24  25
ATOM     25  C   UNL A   1      36.514  23.844  25.713  1.00  0.00     0.116 C 
BRANCH  25  26
ATOM     26  N   UNL A   1      37.545  22.823  25.817  1.00  0.00    -0.352 N 
ATOM     27  C   UNL A   1      38.848  22.937  26.230  1.00  0.00     0.251 C 
ATOM     28  H   UNL A   1      37.265  21.916  25.554  1.00  0.00     0.163 HD
ATOM     29  O   UNL A   1      39.629  22.009  26.044  1.00  0.00    -0.269 OA
BRANCH  27  30
ATOM     30  C   UNL A   1      39.315  24.179  26.885  1.00  0.00     0.039 A 
ATOM     31  C   UNL A   1      38.974  24.405  28.221  1.00  0.00     0.014 A 
ATOM     32  C   UNL A   1      40.058  25.130  26.180  1.00  0.00     0.014 A 
ATOM     33  C   UNL A   1      39.421  25.561  28.863  1.00  0.00     0.010 A 
ATOM     34  C   UNL A   1      40.559  26.251  26.841  1.00  0.00     0.010 A 
ATOM     35  C   UNL A   1      40.240  26.481  28.187  1.00  0.00    -0.014 A 
BRANCH  35  36
ATOM     36  C   UNL A   1      40.777  27.678  28.884  1.00  0.00     0.031 A 
ATOM     37  C   UNL A   1      39.911  28.892  29.094  1.00  0.00     0.074 A 
ATOM     38  C   UNL A   1      42.063  27.687  29.287  1.00  0.00     0.049 A 
ATOM     39  N   UNL A   1      40.211  30.026  29.676  1.00  0.00    -0.248 NA
ATOM     40  C   UNL A   1      38.539  28.834  28.566  1.00  0.00     0.031 C 
ATOM     41  C   UNL A   1      43.017  26.593  29.096  1.00  0.00     0.029 A 
ATOM     42  N   UNL A   1      42.789  28.648  29.944  1.00  0.00    -0.354 N 
ATOM     43  C   UNL A   1      39.074  30.819  29.572  1.00  0.00     0.074 A 
ATOM     44  C   UNL A   1      38.096  30.055  28.829  1.00  0.00     0.031 C 
ATOM     45  C   UNL A   1      44.192  26.931  29.652  1.00  0.00     0.029 A 
ATOM     46  C   UNL A   1      44.086  28.276  30.207  1.00  0.00     0.049 A 
ATOM     47  H   UNL A   1      42.416  29.523  30.202  1.00  0.00     0.167 HD
ATOM     48  C   UNL A   1      38.856  32.061  30.068  1.00  0.00     0.031 A 
ATOM     49  C   UNL A   1      45.079  28.939  30.828  1.00  0.00     0.031 A 
ATOM     50  C   UNL A   1      39.831  32.815  30.812  1.00  0.00     0.049 A 
ATOM     51  C   UNL A   1      44.811  30.313  31.379  1.00  0.00     0.074 A 
ATOM     52  C   UNL A   1      39.689  34.060  31.402  1.00  0.00     0.029 A 
ATOM     53  N   UNL A   1      41.127  32.397  31.069  1.00  0.00    -0.354 N 
ATOM     54  N   UNL A   1      43.705  31.018  31.329  1.00  0.00    -0.248 NA
ATOM     55  C   UNL A   1      45.918  30.971  32.083  1.00  0.00     0.031 C 
ATOM     56  C   UNL A   1      40.916  34.414  31.974  1.00  0.00     0.029 A 
ATOM     57  C   UNL A   1      41.803  33.366  31.792  1.00  0.00     0.049 A 
ATOM     58  H   UNL A   1      41.511  31.537  30.781  1.00  0.00     0.167 HD
ATOM     59  C   UNL A   1      43.977  32.193  32.021  1.00  0.00     0.074 A 
ATOM     60  C   UNL A   1      45.343  32.094  32.492  1.00  0.00     0.031 C 
ATOM     61  C   UNL A   1      43.167  33.258  32.246  1.00  0.00     0.031 A 
BRANCH  48  62
ATOM     62  C   UNL A   1      37.508  32.685  29.814  1.00  0.00    -0.014 A 
ATOM     63  C   UNL A   1      36.353  32.208  30.461  1.00  0.00     0.010 A 
ATOM     64  C   UNL A   1      37.398  33.787  28.947  1.00  0.00     0.010 A 
ATOM     65  C   UNL A   1      35.108  32.792  30.213  1.00  0.00     0.020 A 
ATOM     66  C   UNL A   1      36.159  34.394  28.718  1.00  0.00     0.020 A 
ATOM     67  C   UNL A   1      35.018  33.880  29.340  1.00  0.00     0.054 A 
BRANCH  67  68
ATOM     68  S   UNL A   1      33.393  34.632  29.052  1.00  0.00     0.124 S 
ATOM     69  O   UNL A   1      32.852  34.708  30.408  1.00  0.00    -0.237 OA
ATOM     70  O   UNL A   1      33.735  35.913  28.440  1.00  0.00    -0.237 OA
ATOM     71  O   UNL A   1      32.722  33.682  28.167  1.00  0.00    -0.744 OA
ENDBRANCH  67  68
ENDBRANCH  48  62
BRANCH  49  72
ATOM     72  C   UNL A   1      46.413  28.299  30.988  1.00  0.00    -0.014 A 
ATOM     73  C   UNL A   1      46.683  27.477  32.096  1.00  0.00     0.010 A 
ATOM     74  C   UNL A   1      47.416  28.492  30.019  1.00  0.00     0.010 A 
ATOM     75  C   UNL A   1      47.937  26.876  32.245  1.00  0.00     0.020 A 
ATOM     76  C   UNL A   1      48.661  27.871  30.149  1.00  0.00     0.020 A 
ATOM     77  C   UNL A   1      48.917  27.076  31.268  1.00  0.00     0.054 A 
BRANCH  77  78
ATOM     78  S   UNL A   1      50.519  26.243  31.452  1.00  0.00     0.124 S 
ATOM     79  O   UNL A   1      50.255  24.941  30.849  1.00  0.00    -0.237 OA
ATOM     80  O   UNL A   1      51.419  27.117  30.705  1.00  0.00    -0.237 OA
ATOM     81  O   UNL A   1      50.732  26.232  32.898  1.00  0.00    -0.744 OA
ENDBRANCH  77  78
ENDBRANCH  49  72
BRANCH  61  82
ATOM     82  C   UNL A   1      43.731  34.387  33.068  1.00  0.00    -0.014 A 
ATOM     83  C   UNL A   1      44.381  35.477  32.464  1.00  0.00     0.010 A 
ATOM     84  C   UNL A   1      43.581  34.367  34.467  1.00  0.00     0.010 A 
ATOM     85  C   UNL A   1      44.914  36.504  33.246  1.00  0.00     0.020 A 
ATOM     86  C   UNL A   1      44.087  35.406  35.251  1.00  0.00     0.020 A 
ATOM     87  C   UNL A   1      44.768  36.459  34.637  1.00  0.00     0.054 A 
BRANCH  87  88
ATOM     88  S   UNL A   1      45.453  37.811  35.633  1.00  0.00     0.124 S 
ATOM     89  O   UNL A   1      44.440  38.850  35.470  1.00  0.00    -0.237 OA
ATOM     90  O   UNL A   1      45.538  37.219  36.965  1.00  0.00    -0.237 OA
ATOM     91  O   UNL A   1      46.739  38.090  34.999  1.00  0.00    -0.744 OA
ENDBRANCH  87  88
ENDBRANCH  61  82
ENDBRANCH  35  36
ENDBRANCH  27  30
ENDBRANCH  25  26
ENDBRANCH  24  25
ENDBRANCH  23  24
ENDBRANCH  22  23
ENDBRANCH   1  22
TORSDOF 21
ENDMDL
