MODEL 1
REMARK VINA RESULT:     -10.0      0.000      0.000
REMARK SMILES COc1ncccc1COc1cc(C)sc1C(=O)NCCCCCCNC(=O)c1ccc(-c2c3nc(c(-c4ccc(S(=O)(=O)[O-])cc4)c4ccc([nH]4)c(-c4ccc(S(=O)(=O)[O-])cc4)c4nc(c(-c5ccc(S(=O)(=O)[O-])cc5)c5ccc2[nH]5)C=C4)C=C3)cc1
REMARK SMILES IDX 22 1 21 2 20 3 19 4 17 5 18 6 16 8 11 9 12 10 13 11 15 12
REMARK SMILES IDX 14 13 10 14 9 15 8 16 3 17 4 18 5 19 7 20 6 21 2 22 1 23
REMARK SMILES IDX 23 24 24 25 25 26 26 27 27 28 28 30 29 31 30 32 88 33 31 34
REMARK SMILES IDX 87 35 32 36 33 37 34 38 81 39 35 40 86 41 80 42 82 43 36 44
REMARK SMILES IDX 85 45 79 46 78 47 37 49 67 50 48 51 66 52 49 53 52 54 65 55
REMARK SMILES IDX 83 56 50 57 51 58 64 60 84 61 53 62 38 63 39 64 47 65 40 66
REMARK SMILES IDX 46 67 41 68 42 69 43 70 44 71 45 72 68 73 69 74 77 75 70 76
REMARK SMILES IDX 76 77 71 78 72 79 73 80 74 81 75 82 54 83 55 84 63 85 56 86
REMARK SMILES IDX 62 87 57 88 58 89 59 90 60 91 61 92
REMARK H PARENT 19 7 26 29 82 48 52 59
REMARK Flexibility Score: inf
ROOT
ATOM      1  C   UNL A   1      32.259  29.451  24.369  1.00  0.00     0.002 C 
ENDROOT
BRANCH   1   2
ATOM      2  C   UNL A   1      32.243  28.914  22.933  1.00  0.00     0.021 C 
BRANCH   2   3
ATOM      3  C   UNL A   1      33.591  28.339  22.490  1.00  0.00     0.116 C 
BRANCH   3   4
ATOM      4  N   UNL A   1      33.402  27.305  21.502  1.00  0.00    -0.351 N 
ATOM      5  C   UNL A   1      33.144  25.960  21.587  1.00  0.00     0.265 C 
ATOM      6  O   UNL A   1      33.024  25.429  20.474  1.00  0.00    -0.268 OA
ATOM      7  H   UNL A   1      33.472  27.630  20.576  1.00  0.00     0.163 HD
BRANCH   5   8
ATOM      8  C   UNL A   1      32.989  25.211  22.836  1.00  0.00     0.134 A 
ATOM      9  C   UNL A   1      33.768  24.354  23.607  1.00  0.00     0.143 A 
ATOM     10  C   UNL A   1      33.111  23.975  24.821  1.00  0.00     0.062 A 
ATOM     11  C   UNL A   1      31.824  24.441  24.918  1.00  0.00     0.006 A 
ATOM     12  S   UNL A   1      31.411  25.373  23.566  1.00  0.00    -0.132 S 
ATOM     13  C   UNL A   1      30.851  24.235  26.026  1.00  0.00     0.056 C 
BRANCH   9  14
ATOM     14  O   UNL A   1      35.054  24.050  23.289  1.00  0.00    -0.487 OA
BRANCH  14  15
ATOM     15  C   UNL A   1      35.540  22.749  23.655  1.00  0.00     0.271 C 
BRANCH  15  16
ATOM     16  C   UNL A   1      36.660  22.731  24.657  1.00  0.00     0.052 A 
ATOM     17  C   UNL A   1      37.455  21.607  24.857  1.00  0.00     0.219 A 
ATOM     18  N   UNL A   1      38.548  21.588  25.648  1.00  0.00    -0.222 NA
ATOM     19  C   UNL A   1      38.844  22.731  26.305  1.00  0.00     0.115 A 
ATOM     20  C   UNL A   1      36.974  23.882  25.389  1.00  0.00     0.014 A 
ATOM     21  C   UNL A   1      38.085  23.887  26.224  1.00  0.00     0.021 A 
BRANCH  17  22
ATOM     22  O   UNL A   1      37.039  20.401  24.352  1.00  0.00    -0.481 OA
ATOM     23  C   UNL A   1      37.665  19.315  25.026  1.00  0.00     0.280 C 
ENDBRANCH  17  22
ENDBRANCH  15  16
ENDBRANCH  14  15
ENDBRANCH   9  14
ENDBRANCH   5   8
ENDBRANCH   3   4
ENDBRANCH   2   3
ENDBRANCH   1   2
BRANCH   1  24
ATOM     24  C   UNL A   1      31.883  28.410  25.432  1.00  0.00     0.002 C 
BRANCH  24  25
ATOM     25  C   UNL A   1      33.068  27.768  26.161  1.00  0.00     0.021 C 
BRANCH  25  26
ATOM     26  C   UNL A   1      33.365  28.367  27.534  1.00  0.00     0.116 C 
BRANCH  26  27
ATOM     27  N   UNL A   1      33.429  29.821  27.481  1.00  0.00    -0.352 N 
ATOM     28  C   UNL A   1      34.420  30.669  27.911  1.00  0.00     0.251 C 
ATOM     29  H   UNL A   1      32.646  30.262  27.078  1.00  0.00     0.163 HD
ATOM     30  O   UNL A   1      34.194  31.868  28.033  1.00  0.00    -0.269 OA
BRANCH  28  31
ATOM     31  C   UNL A   1      35.758  30.129  28.234  1.00  0.00     0.039 A 
ATOM     32  C   UNL A   1      36.748  30.125  27.250  1.00  0.00     0.014 A 
ATOM     33  C   UNL A   1      36.029  29.624  29.509  1.00  0.00     0.014 A 
ATOM     34  C   UNL A   1      38.035  29.689  27.569  1.00  0.00     0.010 A 
ATOM     35  C   UNL A   1      37.327  29.253  29.844  1.00  0.00     0.010 A 
ATOM     36  C   UNL A   1      38.347  29.294  28.881  1.00  0.00    -0.014 A 
BRANCH  36  37
ATOM     37  C   UNL A   1      39.741  28.977  29.280  1.00  0.00     0.031 A 
ATOM     38  C   UNL A   1      40.604  30.015  29.941  1.00  0.00     0.074 A 
ATOM     39  C   UNL A   1      40.254  27.769  28.964  1.00  0.00     0.049 A 
ATOM     40  N   UNL A   1      41.864  29.937  30.288  1.00  0.00    -0.248 NA
ATOM     41  C   UNL A   1      39.980  31.316  30.233  1.00  0.00     0.031 C 
ATOM     42  C   UNL A   1      39.529  26.694  28.282  1.00  0.00     0.029 A 
ATOM     43  N   UNL A   1      41.508  27.248  29.160  1.00  0.00    -0.354 N 
ATOM     44  C   UNL A   1      42.187  31.178  30.823  1.00  0.00     0.074 A 
ATOM     45  C   UNL A   1      41.003  32.004  30.719  1.00  0.00     0.031 C 
ATOM     46  C   UNL A   1      40.342  25.638  28.132  1.00  0.00     0.029 A 
ATOM     47  C   UNL A   1      41.660  25.974  28.661  1.00  0.00     0.049 A 
ATOM     48  H   UNL A   1      42.231  27.738  29.614  1.00  0.00     0.167 HD
ATOM     49  C   UNL A   1      43.361  31.588  31.362  1.00  0.00     0.031 A 
ATOM     50  C   UNL A   1      42.741  25.172  28.614  1.00  0.00     0.031 A 
ATOM     51  C   UNL A   1      44.534  30.759  31.462  1.00  0.00     0.049 A 
ATOM     52  C   UNL A   1      44.039  25.662  29.195  1.00  0.00     0.074 A 
ATOM     53  C   UNL A   1      45.750  31.060  32.053  1.00  0.00     0.029 A 
ATOM     54  N   UNL A   1      44.646  29.475  30.949  1.00  0.00    -0.354 N 
ATOM     55  N   UNL A   1      44.301  26.808  29.777  1.00  0.00    -0.248 NA
ATOM     56  C   UNL A   1      45.188  24.748  29.118  1.00  0.00     0.031 C 
ATOM     57  C   UNL A   1      46.618  29.984  31.838  1.00  0.00     0.029 A 
ATOM     58  C   UNL A   1      45.922  28.986  31.174  1.00  0.00     0.049 A 
ATOM     59  H   UNL A   1      43.925  28.983  30.495  1.00  0.00     0.167 HD
ATOM     60  C   UNL A   1      45.638  26.746  30.150  1.00  0.00     0.074 A 
ATOM     61  C   UNL A   1      46.124  25.441  29.751  1.00  0.00     0.031 C 
ATOM     62  C   UNL A   1      46.396  27.687  30.764  1.00  0.00     0.031 A 
BRANCH  49  63
ATOM     63  C   UNL A   1      43.445  33.002  31.875  1.00  0.00    -0.014 A 
ATOM     64  C   UNL A   1      43.288  33.293  33.242  1.00  0.00     0.010 A 
ATOM     65  C   UNL A   1      43.752  34.049  30.985  1.00  0.00     0.010 A 
ATOM     66  C   UNL A   1      43.404  34.607  33.704  1.00  0.00     0.020 A 
ATOM     67  C   UNL A   1      43.898  35.360  31.448  1.00  0.00     0.020 A 
ATOM     68  C   UNL A   1      43.709  35.633  32.803  1.00  0.00     0.054 A 
BRANCH  68  69
ATOM     69  S   UNL A   1      43.889  37.321  33.440  1.00  0.00     0.124 S 
ATOM     70  O   UNL A   1      44.947  37.157  34.434  1.00  0.00    -0.237 OA
ATOM     71  O   UNL A   1      44.263  38.075  32.246  1.00  0.00    -0.237 OA
ATOM     72  O   UNL A   1      42.569  37.632  33.983  1.00  0.00    -0.744 OA
ENDBRANCH  68  69
ENDBRANCH  49  63
BRANCH  50  73
ATOM     73  C   UNL A   1      42.643  23.828  27.981  1.00  0.00    -0.014 A 
ATOM     74  C   UNL A   1      43.018  23.638  26.639  1.00  0.00     0.010 A 
ATOM     75  C   UNL A   1      42.181  22.725  28.722  1.00  0.00     0.010 A 
ATOM     76  C   UNL A   1      42.914  22.376  26.046  1.00  0.00     0.020 A 
ATOM     77  C   UNL A   1      42.105  21.455  28.142  1.00  0.00     0.020 A 
ATOM     78  C   UNL A   1      42.460  21.292  26.803  1.00  0.00     0.054 A 
BRANCH  78  79
ATOM     79  S   UNL A   1      42.379  19.655  26.024  1.00  0.00     0.124 S 
ATOM     80  O   UNL A   1      43.201  19.845  24.833  1.00  0.00    -0.237 OA
ATOM     81  O   UNL A   1      42.945  18.788  27.053  1.00  0.00    -0.237 OA
ATOM     82  O   UNL A   1      40.951  19.465  25.775  1.00  0.00    -0.744 OA
ENDBRANCH  78  79
ENDBRANCH  50  73
BRANCH  62  83
ATOM     83  C   UNL A   1      47.832  27.339  31.058  1.00  0.00    -0.014 A 
ATOM     84  C   UNL A   1      48.200  26.755  32.284  1.00  0.00     0.010 A 
ATOM     85  C   UNL A   1      48.814  27.538  30.071  1.00  0.00     0.010 A 
ATOM     86  C   UNL A   1      49.530  26.400  32.525  1.00  0.00     0.020 A 
ATOM     87  C   UNL A   1      50.139  27.155  30.297  1.00  0.00     0.020 A 
ATOM     88  C   UNL A   1      50.490  26.599  31.528  1.00  0.00     0.054 A 
BRANCH  88  89
ATOM     89  S   UNL A   1      52.197  26.074  31.847  1.00  0.00     0.124 S 
ATOM     90  O   UNL A   1      52.506  26.781  33.087  1.00  0.00    -0.237 OA
ATOM     91  O   UNL A   1      52.068  24.623  31.966  1.00  0.00    -0.237 OA
ATOM     92  O   UNL A   1      52.928  26.534  30.668  1.00  0.00    -0.744 OA
ENDBRANCH  88  89
ENDBRANCH  62  83
ENDBRANCH  36  37
ENDBRANCH  28  31
ENDBRANCH  26  27
ENDBRANCH  25  26
ENDBRANCH  24  25
ENDBRANCH   1  24
TORSDOF 20
ENDMDL
MODEL 2
REMARK VINA RESULT:      -9.6      4.458      5.994
REMARK SMILES COc1ncccc1COc1cc(C)sc1C(=O)NCCCCCCNC(=O)c1ccc(-c2c3nc(c(-c4ccc(S(=O)(=O)[O-])cc4)c4ccc([nH]4)c(-c4ccc(S(=O)(=O)[O-])cc4)c4nc(c(-c5ccc(S(=O)(=O)[O-])cc5)c5ccc2[nH]5)C=C4)C=C3)cc1
REMARK SMILES IDX 22 1 21 2 20 3 19 4 17 5 18 6 16 8 11 9 12 10 13 11 15 12
REMARK SMILES IDX 14 13 10 14 9 15 8 16 3 17 4 18 5 19 7 20 6 21 2 22 1 23
REMARK SMILES IDX 23 24 24 25 25 26 26 27 27 28 28 30 29 31 30 32 88 33 31 34
REMARK SMILES IDX 87 35 32 36 33 37 34 38 81 39 35 40 86 41 80 42 82 43 36 44
REMARK SMILES IDX 85 45 79 46 78 47 37 49 67 50 48 51 66 52 49 53 52 54 65 55
REMARK SMILES IDX 83 56 50 57 51 58 64 60 84 61 53 62 38 63 39 64 47 65 40 66
REMARK SMILES IDX 46 67 41 68 42 69 43 70 44 71 45 72 68 73 69 74 77 75 70 76
REMARK SMILES IDX 76 77 71 78 72 79 73 80 74 81 75 82 54 83 55 84 63 85 56 86
REMARK SMILES IDX 62 87 57 88 58 89 59 90 60 91 61 92
REMARK H PARENT 19 7 26 29 82 48 52 59
REMARK Flexibility Score: inf
ROOT
ATOM      1  C   UNL A   1      32.623  30.070  27.138  1.00  0.00     0.002 C 
ENDROOT
BRANCH   1   2
ATOM      2  C   UNL A   1      32.376  28.562  27.002  1.00  0.00     0.021 C 
BRANCH   2   3
ATOM      3  C   UNL A   1      33.551  27.816  26.362  1.00  0.00     0.116 C 
BRANCH   3   4
ATOM      4  N   UNL A   1      33.864  28.376  25.070  1.00  0.00    -0.351 N 
ATOM      5  C   UNL A   1      33.131  28.570  23.927  1.00  0.00     0.265 C 
ATOM      6  O   UNL A   1      33.785  29.120  23.030  1.00  0.00    -0.268 OA
ATOM      7  H   UNL A   1      34.795  28.684  24.992  1.00  0.00     0.163 HD
BRANCH   5   8
ATOM      8  C   UNL A   1      31.721  28.209  23.762  1.00  0.00     0.134 A 
ATOM      9  C   UNL A   1      30.922  27.099  24.019  1.00  0.00     0.143 A 
ATOM     10  C   UNL A   1      29.544  27.349  23.726  1.00  0.00     0.062 A 
ATOM     11  C   UNL A   1      29.317  28.576  23.156  1.00  0.00     0.006 A 
ATOM     12  S   UNL A   1      30.756  29.454  23.007  1.00  0.00    -0.132 S 
ATOM     13  C   UNL A   1      28.019  29.162  22.716  1.00  0.00     0.056 C 
BRANCH   9  14
ATOM     14  O   UNL A   1      31.401  25.977  24.618  1.00  0.00    -0.487 OA
BRANCH  14  15
ATOM     15  C   UNL A   1      30.515  24.852  24.727  1.00  0.00     0.271 C 
BRANCH  15  16
ATOM     16  C   UNL A   1      31.174  23.501  24.718  1.00  0.00     0.052 A 
ATOM     17  C   UNL A   1      31.054  22.613  25.782  1.00  0.00     0.219 A 
ATOM     18  N   UNL A   1      31.517  21.345  25.762  1.00  0.00    -0.222 NA
ATOM     19  C   UNL A   1      32.167  20.953  24.644  1.00  0.00     0.115 A 
ATOM     20  C   UNL A   1      31.892  23.071  23.596  1.00  0.00     0.014 A 
ATOM     21  C   UNL A   1      32.394  21.776  23.554  1.00  0.00     0.021 A 
BRANCH  17  22
ATOM     22  O   UNL A   1      30.577  23.075  26.982  1.00  0.00    -0.481 OA
ATOM     23  C   UNL A   1      29.323  22.484  27.302  1.00  0.00     0.280 C 
ENDBRANCH  17  22
ENDBRANCH  15  16
ENDBRANCH  14  15
ENDBRANCH   9  14
ENDBRANCH   5   8
ENDBRANCH   3   4
ENDBRANCH   2   3
ENDBRANCH   1   2
BRANCH   1  24
ATOM     24  C   UNL A   1      31.452  30.942  26.668  1.00  0.00     0.002 C 
BRANCH  24  25
ATOM     25  C   UNL A   1      31.756  32.441  26.568  1.00  0.00     0.021 C 
BRANCH  25  26
ATOM     26  C   UNL A   1      32.782  32.945  27.581  1.00  0.00     0.116 C 
BRANCH  26  27
ATOM     27  N   UNL A   1      32.630  34.371  27.834  1.00  0.00    -0.352 N 
ATOM     28  C   UNL A   1      33.159  35.142  28.840  1.00  0.00     0.251 C 
ATOM     29  H   UNL A   1      32.064  34.853  27.189  1.00  0.00     0.163 HD
ATOM     30  O   UNL A   1      32.714  36.264  29.054  1.00  0.00    -0.269 OA
BRANCH  28  31
ATOM     31  C   UNL A   1      34.262  34.609  29.669  1.00  0.00     0.039 A 
ATOM     32  C   UNL A   1      33.975  34.085  30.930  1.00  0.00     0.014 A 
ATOM     33  C   UNL A   1      35.577  34.632  29.197  1.00  0.00     0.014 A 
ATOM     34  C   UNL A   1      34.998  33.509  31.686  1.00  0.00     0.010 A 
ATOM     35  C   UNL A   1      36.583  33.998  29.921  1.00  0.00     0.010 A 
ATOM     36  C   UNL A   1      36.300  33.419  31.167  1.00  0.00    -0.014 A 
BRANCH  36  37
ATOM     37  C   UNL A   1      37.366  32.674  31.884  1.00  0.00     0.031 A 
ATOM     38  C   UNL A   1      37.900  33.174  33.197  1.00  0.00     0.074 A 
ATOM     39  C   UNL A   1      37.910  31.586  31.300  1.00  0.00     0.049 A 
ATOM     40  N   UNL A   1      38.879  32.696  33.923  1.00  0.00    -0.248 NA
ATOM     41  C   UNL A   1      37.270  34.380  33.759  1.00  0.00     0.031 C 
ATOM     42  C   UNL A   1      37.507  31.030  30.006  1.00  0.00     0.029 A 
ATOM     43  N   UNL A   1      38.930  30.763  31.710  1.00  0.00    -0.354 N 
ATOM     44  C   UNL A   1      38.992  33.546  35.015  1.00  0.00     0.074 A 
ATOM     45  C   UNL A   1      38.009  34.594  34.839  1.00  0.00     0.031 C 
ATOM     46  C   UNL A   1      38.257  29.951  29.737  1.00  0.00     0.029 A 
ATOM     47  C   UNL A   1      39.227  29.764  30.811  1.00  0.00     0.049 A 
ATOM     48  H   UNL A   1      39.404  30.877  32.564  1.00  0.00     0.167 HD
ATOM     49  C   UNL A   1      39.831  33.455  36.075  1.00  0.00     0.031 A 
ATOM     50  C   UNL A   1      40.184  28.817  30.835  1.00  0.00     0.031 A 
ATOM     51  C   UNL A   1      40.806  32.409  36.244  1.00  0.00     0.049 A 
ATOM     52  C   UNL A   1      41.120  28.754  32.011  1.00  0.00     0.074 A 
ATOM     53  C   UNL A   1      41.655  32.191  37.316  1.00  0.00     0.029 A 
ATOM     54  N   UNL A   1      41.072  31.413  35.315  1.00  0.00    -0.354 N 
ATOM     55  N   UNL A   1      41.153  29.516  33.078  1.00  0.00    -0.248 NA
ATOM     56  C   UNL A   1      42.145  27.702  31.988  1.00  0.00     0.031 C 
ATOM     57  C   UNL A   1      42.481  31.106  37.005  1.00  0.00     0.029 A 
ATOM     58  C   UNL A   1      42.100  30.605  35.770  1.00  0.00     0.049 A 
ATOM     59  H   UNL A   1      40.599  31.298  34.459  1.00  0.00     0.167 HD
ATOM     60  C   UNL A   1      42.190  29.024  33.862  1.00  0.00     0.074 A 
ATOM     61  C   UNL A   1      42.743  27.885  33.158  1.00  0.00     0.031 C 
ATOM     62  C   UNL A   1      42.647  29.478  35.055  1.00  0.00     0.031 A 
BRANCH  49  63
ATOM     63  C   UNL A   1      39.747  34.523  37.134  1.00  0.00    -0.014 A 
ATOM     64  C   UNL A   1      40.458  35.730  37.011  1.00  0.00     0.010 A 
ATOM     65  C   UNL A   1      38.892  34.344  38.238  1.00  0.00     0.010 A 
ATOM     66  C   UNL A   1      40.341  36.724  37.987  1.00  0.00     0.020 A 
ATOM     67  C   UNL A   1      38.749  35.347  39.201  1.00  0.00     0.020 A 
ATOM     68  C   UNL A   1      39.486  36.526  39.077  1.00  0.00     0.054 A 
BRANCH  68  69
ATOM     69  S   UNL A   1      39.327  37.849  40.306  1.00  0.00     0.124 S 
ATOM     70  O   UNL A   1      40.566  38.598  40.106  1.00  0.00    -0.237 OA
ATOM     71  O   UNL A   1      38.107  38.533  39.885  1.00  0.00    -0.237 OA
ATOM     72  O   UNL A   1      39.232  37.135  41.577  1.00  0.00    -0.744 OA
ENDBRANCH  68  69
ENDBRANCH  49  63
BRANCH  50  73
ATOM     73  C   UNL A   1      40.311  27.859  29.702  1.00  0.00    -0.014 A 
ATOM     74  C   UNL A   1      39.438  26.763  29.589  1.00  0.00     0.010 A 
ATOM     75  C   UNL A   1      41.303  28.045  28.722  1.00  0.00     0.010 A 
ATOM     76  C   UNL A   1      39.567  25.860  28.529  1.00  0.00     0.020 A 
ATOM     77  C   UNL A   1      41.416  27.162  27.643  1.00  0.00     0.020 A 
ATOM     78  C   UNL A   1      40.555  26.068  27.561  1.00  0.00     0.054 A 
BRANCH  78  79
ATOM     79  S   UNL A   1      40.672  24.909  26.170  1.00  0.00     0.124 S 
ATOM     80  O   UNL A   1      41.128  25.776  25.089  1.00  0.00    -0.237 OA
ATOM     81  O   UNL A   1      41.646  23.934  26.654  1.00  0.00    -0.237 OA
ATOM     82  O   UNL A   1      39.309  24.400  26.032  1.00  0.00    -0.744 OA
ENDBRANCH  78  79
ENDBRANCH  50  73
BRANCH  62  83
ATOM     83  C   UNL A   1      43.794  28.735  35.687  1.00  0.00    -0.014 A 
ATOM     84  C   UNL A   1      45.126  29.127  35.459  1.00  0.00     0.010 A 
ATOM     85  C   UNL A   1      43.534  27.673  36.572  1.00  0.00     0.010 A 
ATOM     86  C   UNL A   1      46.177  28.453  36.085  1.00  0.00     0.020 A 
ATOM     87  C   UNL A   1      44.582  27.018  37.225  1.00  0.00     0.020 A 
ATOM     88  C   UNL A   1      45.898  27.405  36.968  1.00  0.00     0.054 A 
BRANCH  88  89
ATOM     89  S   UNL A   1      47.279  26.587  37.812  1.00  0.00     0.124 S 
ATOM     90  O   UNL A   1      47.155  27.105  39.172  1.00  0.00    -0.237 OA
ATOM     91  O   UNL A   1      46.960  25.170  37.648  1.00  0.00    -0.237 OA
ATOM     92  O   UNL A   1      48.456  27.044  37.076  1.00  0.00    -0.744 OA
ENDBRANCH  88  89
ENDBRANCH  62  83
ENDBRANCH  36  37
ENDBRANCH  28  31
ENDBRANCH  26  27
ENDBRANCH  25  26
ENDBRANCH  24  25
ENDBRANCH   1  24
TORSDOF 20
ENDMDL
MODEL 3
REMARK VINA RESULT:      -9.5      2.135      2.999
REMARK SMILES COc1ncccc1COc1cc(C)sc1C(=O)NCCCCCCNC(=O)c1ccc(-c2c3nc(c(-c4ccc(S(=O)(=O)[O-])cc4)c4ccc([nH]4)c(-c4ccc(S(=O)(=O)[O-])cc4)c4nc(c(-c5ccc(S(=O)(=O)[O-])cc5)c5ccc2[nH]5)C=C4)C=C3)cc1
REMARK SMILES IDX 22 1 21 2 20 3 19 4 17 5 18 6 16 8 11 9 12 10 13 11 15 12
REMARK SMILES IDX 14 13 10 14 9 15 8 16 3 17 4 18 5 19 7 20 6 21 2 22 1 23
REMARK SMILES IDX 23 24 24 25 25 26 26 27 27 28 28 30 29 31 30 32 88 33 31 34
REMARK SMILES IDX 87 35 32 36 33 37 34 38 81 39 35 40 86 41 80 42 82 43 36 44
REMARK SMILES IDX 85 45 79 46 78 47 37 49 67 50 48 51 66 52 49 53 52 54 65 55
REMARK SMILES IDX 83 56 50 57 51 58 64 60 84 61 53 62 38 63 39 64 47 65 40 66
REMARK SMILES IDX 46 67 41 68 42 69 43 70 44 71 45 72 68 73 69 74 77 75 70 76
REMARK SMILES IDX 76 77 71 78 72 79 73 80 74 81 75 82 54 83 55 84 63 85 56 86
REMARK SMILES IDX 62 87 57 88 58 89 59 90 60 91 61 92
REMARK H PARENT 19 7 26 29 82 48 52 59
REMARK Flexibility Score: inf
ROOT
ATOM      1  C   UNL A   1      30.885  26.700  25.624  1.00  0.00     0.002 C 
ENDROOT
BRANCH   1   2
ATOM      2  C   UNL A   1      30.235  25.971  24.442  1.00  0.00     0.021 C 
BRANCH   2   3
ATOM      3  C   UNL A   1      30.598  24.485  24.379  1.00  0.00     0.116 C 
BRANCH   3   4
ATOM      4  N   UNL A   1      30.544  23.894  25.694  1.00  0.00    -0.351 N 
ATOM      5  C   UNL A   1      31.412  23.107  26.407  1.00  0.00     0.265 C 
ATOM      6  O   UNL A   1      30.985  22.831  27.537  1.00  0.00    -0.268 OA
ATOM      7  H   UNL A   1      29.714  24.099  26.181  1.00  0.00     0.163 HD
BRANCH   5   8
ATOM      8  C   UNL A   1      32.719  22.651  25.928  1.00  0.00     0.134 A 
ATOM      9  C   UNL A   1      33.212  21.577  25.194  1.00  0.00     0.143 A 
ATOM     10  C   UNL A   1      34.616  21.696  24.943  1.00  0.00     0.062 A 
ATOM     11  C   UNL A   1      35.197  22.772  25.565  1.00  0.00     0.006 A 
ATOM     12  S   UNL A   1      34.048  23.672  26.423  1.00  0.00    -0.132 S 
ATOM     13  C   UNL A   1      36.625  23.194  25.534  1.00  0.00     0.056 C 
BRANCH   9  14
ATOM     14  O   UNL A   1      32.403  20.622  24.665  1.00  0.00    -0.487 OA
BRANCH  14  15
ATOM     15  C   UNL A   1      32.353  19.351  25.331  1.00  0.00     0.271 C 
BRANCH  15  16
ATOM     16  C   UNL A   1      33.037  18.216  24.621  1.00  0.00     0.052 A 
ATOM     17  C   UNL A   1      32.888  18.000  23.255  1.00  0.00     0.219 A 
ATOM     18  N   UNL A   1      33.583  17.078  22.556  1.00  0.00    -0.222 NA
ATOM     19  C   UNL A   1      34.440  16.304  23.257  1.00  0.00     0.115 A 
ATOM     20  C   UNL A   1      33.901  17.363  25.319  1.00  0.00     0.014 A 
ATOM     21  C   UNL A   1      34.618  16.394  24.628  1.00  0.00     0.021 A 
BRANCH  17  22
ATOM     22  O   UNL A   1      31.878  18.645  22.587  1.00  0.00    -0.481 OA
ATOM     23  C   UNL A   1      32.145  18.718  21.191  1.00  0.00     0.280 C 
ENDBRANCH  17  22
ENDBRANCH  15  16
ENDBRANCH  14  15
ENDBRANCH   9  14
ENDBRANCH   5   8
ENDBRANCH   3   4
ENDBRANCH   2   3
ENDBRANCH   1   2
BRANCH   1  24
ATOM     24  C   UNL A   1      32.395  26.926  25.470  1.00  0.00     0.002 C 
BRANCH  24  25
ATOM     25  C   UNL A   1      32.860  28.372  25.671  1.00  0.00     0.021 C 
BRANCH  25  26
ATOM     26  C   UNL A   1      33.623  28.614  26.971  1.00  0.00     0.116 C 
BRANCH  26  27
ATOM     27  N   UNL A   1      33.585  30.016  27.362  1.00  0.00    -0.352 N 
ATOM     28  C   UNL A   1      34.476  30.739  28.118  1.00  0.00     0.251 C 
ATOM     29  H   UNL A   1      32.805  30.522  27.037  1.00  0.00     0.163 HD
ATOM     30  O   UNL A   1      34.154  31.831  28.571  1.00  0.00    -0.269 OA
BRANCH  28  31
ATOM     31  C   UNL A   1      35.821  30.188  28.390  1.00  0.00     0.039 A 
ATOM     32  C   UNL A   1      36.789  30.225  27.385  1.00  0.00     0.014 A 
ATOM     33  C   UNL A   1      36.120  29.634  29.638  1.00  0.00     0.014 A 
ATOM     34  C   UNL A   1      38.084  29.779  27.659  1.00  0.00     0.010 A 
ATOM     35  C   UNL A   1      37.426  29.252  29.930  1.00  0.00     0.010 A 
ATOM     36  C   UNL A   1      38.424  29.333  28.947  1.00  0.00    -0.014 A 
BRANCH  36  37
ATOM     37  C   UNL A   1      39.827  29.002  29.303  1.00  0.00     0.031 A 
ATOM     38  C   UNL A   1      40.724  30.036  29.925  1.00  0.00     0.074 A 
ATOM     39  C   UNL A   1      40.315  27.786  28.982  1.00  0.00     0.049 A 
ATOM     40  N   UNL A   1      41.993  29.947  30.231  1.00  0.00    -0.248 NA
ATOM     41  C   UNL A   1      40.124  31.347  30.225  1.00  0.00     0.031 C 
ATOM     42  C   UNL A   1      39.555  26.714  28.334  1.00  0.00     0.029 A 
ATOM     43  N   UNL A   1      41.569  27.251  29.141  1.00  0.00    -0.354 N 
ATOM     44  C   UNL A   1      42.348  31.188  30.743  1.00  0.00     0.074 A 
ATOM     45  C   UNL A   1      41.171  32.027  30.671  1.00  0.00     0.031 C 
ATOM     46  C   UNL A   1      40.351  25.647  28.167  1.00  0.00     0.029 A 
ATOM     47  C   UNL A   1      41.689  25.972  28.649  1.00  0.00     0.049 A 
ATOM     48  H   UNL A   1      42.312  27.736  29.566  1.00  0.00     0.167 HD
ATOM     49  C   UNL A   1      43.544  31.588  31.239  1.00  0.00     0.031 A 
ATOM     50  C   UNL A   1      42.759  25.156  28.573  1.00  0.00     0.031 A 
ATOM     51  C   UNL A   1      44.710  30.747  31.308  1.00  0.00     0.049 A 
ATOM     52  C   UNL A   1      44.081  25.635  29.107  1.00  0.00     0.074 A 
ATOM     53  C   UNL A   1      45.948  31.038  31.855  1.00  0.00     0.029 A 
ATOM     54  N   UNL A   1      44.790  29.457  30.804  1.00  0.00    -0.354 N 
ATOM     55  N   UNL A   1      44.375  26.783  29.669  1.00  0.00    -0.248 NA
ATOM     56  C   UNL A   1      45.215  24.707  29.000  1.00  0.00     0.031 C 
ATOM     57  C   UNL A   1      46.796  29.950  31.622  1.00  0.00     0.029 A 
ATOM     58  C   UNL A   1      46.068  28.954  30.991  1.00  0.00     0.049 A 
ATOM     59  H   UNL A   1      44.049  28.970  30.379  1.00  0.00     0.167 HD
ATOM     60  C   UNL A   1      45.723  26.709  29.998  1.00  0.00     0.074 A 
ATOM     61  C   UNL A   1      46.180  25.394  29.596  1.00  0.00     0.031 C 
ATOM     62  C   UNL A   1      46.512  27.647  30.578  1.00  0.00     0.031 A 
BRANCH  49  63
ATOM     63  C   UNL A   1      43.662  33.006  31.735  1.00  0.00    -0.014 A 
ATOM     64  C   UNL A   1      43.393  33.334  33.076  1.00  0.00     0.010 A 
ATOM     65  C   UNL A   1      44.113  34.015  30.863  1.00  0.00     0.010 A 
ATOM     66  C   UNL A   1      43.541  34.649  33.527  1.00  0.00     0.020 A 
ATOM     67  C   UNL A   1      44.290  35.325  31.317  1.00  0.00     0.020 A 
ATOM     68  C   UNL A   1      43.990  35.637  32.644  1.00  0.00     0.054 A 
BRANCH  68  69
ATOM     69  S   UNL A   1      44.207  37.325  33.268  1.00  0.00     0.124 S 
ATOM     70  O   UNL A   1      43.051  37.472  34.150  1.00  0.00    -0.237 OA
ATOM     71  O   UNL A   1      45.503  37.254  33.940  1.00  0.00    -0.237 OA
ATOM     72  O   UNL A   1      44.177  38.149  32.062  1.00  0.00    -0.744 OA
ENDBRANCH  68  69
ENDBRANCH  49  63
BRANCH  50  73
ATOM     73  C   UNL A   1      42.624  23.808  27.957  1.00  0.00    -0.014 A 
ATOM     74  C   UNL A   1      42.141  22.721  28.707  1.00  0.00     0.010 A 
ATOM     75  C   UNL A   1      42.969  23.604  26.608  1.00  0.00     0.010 A 
ATOM     76  C   UNL A   1      42.026  21.454  28.127  1.00  0.00     0.020 A 
ATOM     77  C   UNL A   1      42.825  22.346  26.015  1.00  0.00     0.020 A 
ATOM     78  C   UNL A   1      42.366  21.276  26.783  1.00  0.00     0.054 A 
BRANCH  78  79
ATOM     79  S   UNL A   1      42.163  19.633  26.041  1.00  0.00     0.124 S 
ATOM     80  O   UNL A   1      40.734  19.607  25.747  1.00  0.00    -0.237 OA
ATOM     81  O   UNL A   1      43.047  19.700  24.881  1.00  0.00    -0.237 OA
ATOM     82  O   UNL A   1      42.602  18.723  27.097  1.00  0.00    -0.744 OA
ENDBRANCH  78  79
ENDBRANCH  50  73
BRANCH  62  83
ATOM     83  C   UNL A   1      47.952  27.284  30.827  1.00  0.00    -0.014 A 
ATOM     84  C   UNL A   1      48.348  26.670  32.030  1.00  0.00     0.010 A 
ATOM     85  C   UNL A   1      48.911  27.500  29.820  1.00  0.00     0.010 A 
ATOM     86  C   UNL A   1      49.681  26.302  32.229  1.00  0.00     0.020 A 
ATOM     87  C   UNL A   1      50.239  27.104  30.004  1.00  0.00     0.020 A 
ATOM     88  C   UNL A   1      50.617  26.518  31.213  1.00  0.00     0.054 A 
BRANCH  88  89
ATOM     89  S   UNL A   1      52.328  25.977  31.477  1.00  0.00     0.124 S 
ATOM     90  O   UNL A   1      52.788  26.910  32.502  1.00  0.00    -0.237 OA
ATOM     91  O   UNL A   1      52.162  24.593  31.915  1.00  0.00    -0.237 OA
ATOM     92  O   UNL A   1      52.950  26.138  30.164  1.00  0.00    -0.744 OA
ENDBRANCH  88  89
ENDBRANCH  62  83
ENDBRANCH  36  37
ENDBRANCH  28  31
ENDBRANCH  26  27
ENDBRANCH  25  26
ENDBRANCH  24  25
ENDBRANCH   1  24
TORSDOF 20
ENDMDL
