MODEL 1
REMARK VINA RESULT:     -11.0      0.000      0.000
REMARK SMILES O=C(NCCCCCCNC(=O)c1nccnc1C(=O)Nc1ccc2c(c1)OCO2)c1ccc(-c2c3nc(c(-c4ccc(S(=O)(=O)[O-])cc4)c4ccc([nH]4)c(-c4ccc(S(=O)(=O)[O-])cc4)c4nc(c(-c5ccc(S(=O)(=O)[O-])cc5)c5ccc2[nH]5)C=C4)C=C3)cc1
REMARK SMILES IDX 6 1 5 2 4 3 3 4 1 5 2 6 31 8 32 9 90 10 33 11 89 12 34 13
REMARK SMILES IDX 35 14 36 15 83 16 37 17 88 18 82 19 84 20 38 21 87 22 81 23
REMARK SMILES IDX 80 24 39 26 69 27 50 28 68 29 51 30 54 31 67 32 85 33 52 34
REMARK SMILES IDX 53 35 66 37 86 38 55 39 40 40 41 41 49 42 42 43 48 44 43 45
REMARK SMILES IDX 44 46 45 47 46 48 47 49 70 50 71 51 79 52 72 53 78 54 73 55
REMARK SMILES IDX 74 56 75 57 76 58 77 59 56 60 57 61 65 62 58 63 64 64 59 65
REMARK SMILES IDX 60 66 61 67 62 68 63 69 7 70 8 71 9 72 10 73 11 74 12 76
REMARK SMILES IDX 13 77 14 78 18 79 15 80 17 81 16 82 19 83 20 84 21 85 22 87
REMARK SMILES IDX 23 88 27 89 24 90 26 91 25 92 28 93 30 94 29 95
REMARK H PARENT 3 7 84 25 54 36 10 75 21 86
REMARK Flexibility Score: inf
ROOT
ATOM      1  C   UNL A   1      34.028  23.716  25.919  1.00  0.00     0.002 C 
ENDROOT
BRANCH   1   2
ATOM      2  C   UNL A   1      35.214  23.976  24.992  1.00  0.00     0.021 C 
BRANCH   2   3
ATOM      3  C   UNL A   1      36.537  24.198  25.712  1.00  0.00     0.116 C 
BRANCH   3   4
ATOM      4  N   UNL A   1      37.385  23.015  25.730  1.00  0.00    -0.352 N 
ATOM      5  O   UNL A   1      39.324  21.885  26.026  1.00  0.00    -0.269 OA
ATOM      6  C   UNL A   1      38.681  22.918  26.176  1.00  0.00     0.251 C 
ATOM      7  H   UNL A   1      36.982  22.188  25.380  1.00  0.00     0.163 HD
BRANCH   6   8
ATOM      8  C   UNL A   1      39.293  24.102  26.809  1.00  0.00     0.039 A 
ATOM      9  C   UNL A   1      39.060  24.371  28.161  1.00  0.00     0.014 A 
ATOM     10  C   UNL A   1      40.037  24.983  26.023  1.00  0.00     0.014 A 
ATOM     11  C   UNL A   1      39.462  25.587  28.698  1.00  0.00     0.010 A 
ATOM     12  C   UNL A   1      40.505  26.170  26.587  1.00  0.00     0.010 A 
ATOM     13  C   UNL A   1      40.197  26.494  27.919  1.00  0.00    -0.014 A 
BRANCH  13  14
ATOM     14  C   UNL A   1      40.693  27.756  28.515  1.00  0.00     0.031 A 
ATOM     15  C   UNL A   1      42.098  27.863  29.038  1.00  0.00     0.074 A 
ATOM     16  C   UNL A   1      39.847  28.799  28.615  1.00  0.00     0.049 A 
ATOM     17  N   UNL A   1      42.662  28.852  29.683  1.00  0.00    -0.248 NA
ATOM     18  C   UNL A   1      42.980  26.707  28.816  1.00  0.00     0.031 C 
ATOM     19  C   UNL A   1      38.465  28.812  28.130  1.00  0.00     0.029 A 
ATOM     20  N   UNL A   1      40.018  30.041  29.167  1.00  0.00    -0.354 N 
ATOM     21  C   UNL A   1      43.954  28.428  29.972  1.00  0.00     0.074 A 
ATOM     22  C   UNL A   1      44.084  27.085  29.446  1.00  0.00     0.031 C 
ATOM     23  C   UNL A   1      37.917  30.005  28.396  1.00  0.00     0.029 A 
ATOM     24  C   UNL A   1      38.882  30.813  29.132  1.00  0.00     0.049 A 
ATOM     25  H   UNL A   1      40.871  30.351  29.550  1.00  0.00     0.167 HD
ATOM     26  C   UNL A   1      44.936  29.097  30.625  1.00  0.00     0.031 A 
ATOM     27  C   UNL A   1      38.624  32.019  29.670  1.00  0.00     0.031 A 
ATOM     28  C   UNL A   1      44.784  30.427  31.156  1.00  0.00     0.049 A 
ATOM     29  C   UNL A   1      39.708  32.724  30.429  1.00  0.00     0.074 A 
ATOM     30  C   UNL A   1      45.723  31.206  31.811  1.00  0.00     0.029 A 
ATOM     31  N   UNL A   1      43.613  31.173  31.105  1.00  0.00    -0.354 N 
ATOM     32  N   UNL A   1      40.931  32.319  30.676  1.00  0.00    -0.248 NA
ATOM     33  C   UNL A   1      39.384  34.048  30.975  1.00  0.00     0.031 C 
ATOM     34  C   UNL A   1      45.103  32.396  32.206  1.00  0.00     0.029 A 
ATOM     35  C   UNL A   1      43.799  32.391  31.737  1.00  0.00     0.049 A 
ATOM     36  H   UNL A   1      42.775  30.878  30.682  1.00  0.00     0.167 HD
ATOM     37  C   UNL A   1      41.535  33.351  31.384  1.00  0.00     0.074 A 
ATOM     38  C   UNL A   1      40.542  34.399  31.521  1.00  0.00     0.031 C 
ATOM     39  C   UNL A   1      42.800  33.426  31.863  1.00  0.00     0.031 A 
BRANCH  26  40
ATOM     40  C   UNL A   1      46.243  28.377  30.843  1.00  0.00    -0.014 A 
ATOM     41  C   UNL A   1      47.318  28.514  29.947  1.00  0.00     0.010 A 
ATOM     42  C   UNL A   1      46.399  27.552  31.972  1.00  0.00     0.010 A 
ATOM     43  C   UNL A   1      48.499  27.793  30.142  1.00  0.00     0.020 A 
ATOM     44  C   UNL A   1      47.589  26.852  32.189  1.00  0.00     0.020 A 
ATOM     45  C   UNL A   1      48.623  26.956  31.256  1.00  0.00     0.054 A 
BRANCH  45  46
ATOM     46  S   UNL A   1      50.156  26.008  31.470  1.00  0.00     0.124 S 
ATOM     47  O   UNL A   1      49.934  25.372  32.766  1.00  0.00    -0.237 OA
ATOM     48  O   UNL A   1      50.140  25.108  30.319  1.00  0.00    -0.237 OA
ATOM     49  O   UNL A   1      51.202  27.027  31.447  1.00  0.00    -0.744 OA
ENDBRANCH  45  46
ENDBRANCH  26  40
BRANCH  27  50
ATOM     50  C   UNL A   1      37.267  32.605  29.508  1.00  0.00    -0.014 A 
ATOM     51  C   UNL A   1      36.430  32.786  30.620  1.00  0.00     0.010 A 
ATOM     52  C   UNL A   1      36.846  33.070  28.247  1.00  0.00     0.010 A 
ATOM     53  C   UNL A   1      35.198  33.430  30.478  1.00  0.00     0.020 A 
ATOM     54  C   UNL A   1      35.627  33.739  28.106  1.00  0.00     0.020 A 
ATOM     55  C   UNL A   1      34.809  33.912  29.223  1.00  0.00     0.054 A 
BRANCH  55  56
ATOM     56  S   UNL A   1      33.251  34.830  29.085  1.00  0.00     0.124 S 
ATOM     57  O   UNL A   1      33.710  36.145  28.654  1.00  0.00    -0.237 OA
ATOM     58  O   UNL A   1      32.518  34.056  28.086  1.00  0.00    -0.237 OA
ATOM     59  O   UNL A   1      32.697  34.770  30.437  1.00  0.00    -0.744 OA
ENDBRANCH  55  56
ENDBRANCH  27  50
BRANCH  39  60
ATOM     60  C   UNL A   1      43.213  34.703  32.543  1.00  0.00    -0.014 A 
ATOM     61  C   UNL A   1      43.600  35.835  31.806  1.00  0.00     0.010 A 
ATOM     62  C   UNL A   1      43.123  34.792  33.945  1.00  0.00     0.010 A 
ATOM     63  C   UNL A   1      43.900  37.033  32.462  1.00  0.00     0.020 A 
ATOM     64  C   UNL A   1      43.396  35.994  34.600  1.00  0.00     0.020 A 
ATOM     65  C   UNL A   1      43.789  37.106  33.854  1.00  0.00     0.054 A 
BRANCH  65  66
ATOM     66  S   UNL A   1      44.101  38.693  34.674  1.00  0.00     0.124 S 
ATOM     67  O   UNL A   1      43.124  39.566  34.028  1.00  0.00    -0.237 OA
ATOM     68  O   UNL A   1      43.839  38.386  36.078  1.00  0.00    -0.237 OA
ATOM     69  O   UNL A   1      45.499  38.979  34.356  1.00  0.00    -0.744 OA
ENDBRANCH  65  66
ENDBRANCH  39  60
ENDBRANCH  13  14
ENDBRANCH   6   8
ENDBRANCH   3   4
ENDBRANCH   2   3
ENDBRANCH   1   2
BRANCH   1  70
ATOM     70  C   UNL A   1      33.105  24.920  26.121  1.00  0.00     0.002 C 
BRANCH  70  71
ATOM     71  C   UNL A   1      31.799  24.698  26.896  1.00  0.00     0.021 C 
BRANCH  71  72
ATOM     72  C   UNL A   1      30.530  24.349  26.117  1.00  0.00     0.116 C 
BRANCH  72  73
ATOM     73  N   UNL A   1      30.085  25.348  25.154  1.00  0.00    -0.351 N 
ATOM     74  C   UNL A   1      30.356  25.432  23.801  1.00  0.00     0.272 C 
ATOM     75  H   UNL A   1      29.511  26.062  25.518  1.00  0.00     0.163 HD
ATOM     76  O   UNL A   1      29.678  26.141  23.063  1.00  0.00    -0.267 OA
BRANCH  74  77
ATOM     77  C   UNL A   1      31.397  24.574  23.218  1.00  0.00     0.159 A 
ATOM     78  N   UNL A   1      31.148  23.246  23.506  1.00  0.00    -0.247 NA
ATOM     79  C   UNL A   1      32.461  24.991  22.428  1.00  0.00     0.159 A 
ATOM     80  C   UNL A   1      31.990  22.339  22.989  1.00  0.00     0.132 A 
ATOM     81  N   UNL A   1      33.323  24.019  21.955  1.00  0.00    -0.247 NA
ATOM     82  C   UNL A   1      33.067  22.721  22.230  1.00  0.00     0.132 A 
BRANCH  79  83
ATOM     83  C   UNL A   1      32.840  26.342  21.839  1.00  0.00     0.276 C 
ATOM     84  O   UNL A   1      33.340  26.353  20.704  1.00  0.00    -0.267 OA
ATOM     85  N   UNL A   1      32.499  27.588  22.306  1.00  0.00    -0.320 N 
ATOM     86  H   UNL A   1      32.225  28.204  21.589  1.00  0.00     0.170 HD
BRANCH  85  87
ATOM     87  C   UNL A   1      32.453  28.171  23.567  1.00  0.00     0.045 A 
ATOM     88  C   UNL A   1      31.359  28.927  24.014  1.00  0.00     0.030 A 
ATOM     89  C   UNL A   1      33.557  27.950  24.401  1.00  0.00     0.076 A 
ATOM     90  C   UNL A   1      31.420  29.564  25.261  1.00  0.00     0.053 A 
ATOM     91  C   UNL A   1      33.630  28.684  25.563  1.00  0.00     0.167 A 
ATOM     92  C   UNL A   1      32.596  29.488  25.970  1.00  0.00     0.165 A 
ATOM     93  O   UNL A   1      34.708  28.779  26.386  1.00  0.00    -0.454 OA
ATOM     94  O   UNL A   1      32.901  30.203  27.085  1.00  0.00    -0.454 OA
ATOM     95  C   UNL A   1      34.312  29.913  27.187  1.00  0.00     0.468 C 
ENDBRANCH  85  87
ENDBRANCH  79  83
ENDBRANCH  74  77
ENDBRANCH  72  73
ENDBRANCH  71  72
ENDBRANCH  70  71
ENDBRANCH   1  70
TORSDOF 18
ENDMDL
MODEL 2
REMARK VINA RESULT:     -11.0      3.691      9.390
REMARK SMILES O=C(NCCCCCCNC(=O)c1nccnc1C(=O)Nc1ccc2c(c1)OCO2)c1ccc(-c2c3nc(c(-c4ccc(S(=O)(=O)[O-])cc4)c4ccc([nH]4)c(-c4ccc(S(=O)(=O)[O-])cc4)c4nc(c(-c5ccc(S(=O)(=O)[O-])cc5)c5ccc2[nH]5)C=C4)C=C3)cc1
REMARK SMILES IDX 6 1 5 2 4 3 3 4 1 5 2 6 31 8 32 9 90 10 33 11 89 12 34 13
REMARK SMILES IDX 35 14 36 15 83 16 37 17 88 18 82 19 84 20 38 21 87 22 81 23
REMARK SMILES IDX 80 24 39 26 69 27 50 28 68 29 51 30 54 31 67 32 85 33 52 34
REMARK SMILES IDX 53 35 66 37 86 38 55 39 40 40 41 41 49 42 42 43 48 44 43 45
REMARK SMILES IDX 44 46 45 47 46 48 47 49 70 50 71 51 79 52 72 53 78 54 73 55
REMARK SMILES IDX 74 56 75 57 76 58 77 59 56 60 57 61 65 62 58 63 64 64 59 65
REMARK SMILES IDX 60 66 61 67 62 68 63 69 7 70 8 71 9 72 10 73 11 74 12 76
REMARK SMILES IDX 13 77 14 78 18 79 15 80 17 81 16 82 19 83 20 84 21 85 22 87
REMARK SMILES IDX 23 88 27 89 24 90 26 91 25 92 28 93 30 94 29 95
REMARK H PARENT 3 7 84 25 54 36 10 75 21 86
REMARK Flexibility Score: inf
ROOT
ATOM      1  C   UNL A   1      36.969  22.569  24.701  1.00  0.00     0.002 C 
ENDROOT
BRANCH   1   2
ATOM      2  C   UNL A   1      37.654  21.237  24.999  1.00  0.00     0.021 C 
BRANCH   2   3
ATOM      3  C   UNL A   1      38.880  21.348  25.896  1.00  0.00     0.116 C 
BRANCH   3   4
ATOM      4  N   UNL A   1      39.677  20.131  25.929  1.00  0.00    -0.352 N 
ATOM      5  O   UNL A   1      41.599  18.939  26.038  1.00  0.00    -0.269 OA
ATOM      6  C   UNL A   1      41.028  20.018  26.155  1.00  0.00     0.251 C 
ATOM      7  H   UNL A   1      39.191  19.289  25.770  1.00  0.00     0.163 HD
BRANCH   6   8
ATOM      8  C   UNL A   1      41.782  21.237  26.505  1.00  0.00     0.039 A 
ATOM      9  C   UNL A   1      42.066  21.522  27.844  1.00  0.00     0.014 A 
ATOM     10  C   UNL A   1      42.136  22.130  25.493  1.00  0.00     0.014 A 
ATOM     11  C   UNL A   1      42.588  22.763  28.184  1.00  0.00     0.010 A 
ATOM     12  C   UNL A   1      42.731  23.345  25.834  1.00  0.00     0.010 A 
ATOM     13  C   UNL A   1      42.936  23.682  27.182  1.00  0.00    -0.014 A 
BRANCH  13  14
ATOM     14  C   UNL A   1      43.566  24.974  27.542  1.00  0.00     0.031 A 
ATOM     15  C   UNL A   1      42.744  26.106  28.090  1.00  0.00     0.074 A 
ATOM     16  C   UNL A   1      44.886  25.129  27.333  1.00  0.00     0.049 A 
ATOM     17  N   UNL A   1      43.111  27.333  28.358  1.00  0.00    -0.248 NA
ATOM     18  C   UNL A   1      41.326  25.828  28.365  1.00  0.00     0.031 C 
ATOM     19  C   UNL A   1      45.784  24.092  26.817  1.00  0.00     0.029 A 
ATOM     20  N   UNL A   1      45.701  26.215  27.515  1.00  0.00    -0.354 N 
ATOM     21  C   UNL A   1      41.966  27.984  28.802  1.00  0.00     0.074 A 
ATOM     22  C   UNL A   1      40.888  27.018  28.752  1.00  0.00     0.031 C 
ATOM     23  C   UNL A   1      47.026  24.589  26.733  1.00  0.00     0.029 A 
ATOM     24  C   UNL A   1      46.998  25.995  27.118  1.00  0.00     0.049 A 
ATOM     25  H   UNL A   1      45.388  27.069  27.892  1.00  0.00     0.167 HD
ATOM     26  C   UNL A   1      41.827  29.271  29.206  1.00  0.00     0.031 A 
ATOM     27  C   UNL A   1      48.044  26.838  27.031  1.00  0.00     0.031 A 
ATOM     28  C   UNL A   1      42.908  30.223  29.233  1.00  0.00     0.049 A 
ATOM     29  C   UNL A   1      47.860  28.269  27.437  1.00  0.00     0.074 A 
ATOM     30  C   UNL A   1      42.883  31.543  29.649  1.00  0.00     0.029 A 
ATOM     31  N   UNL A   1      44.207  29.960  28.818  1.00  0.00    -0.354 N 
ATOM     32  N   UNL A   1      46.776  28.864  27.875  1.00  0.00    -0.248 NA
ATOM     33  C   UNL A   1      49.037  29.142  27.346  1.00  0.00     0.031 C 
ATOM     34  C   UNL A   1      44.149  32.093  29.430  1.00  0.00     0.029 A 
ATOM     35  C   UNL A   1      44.984  31.099  28.944  1.00  0.00     0.049 A 
ATOM     36  H   UNL A   1      44.528  29.092  28.483  1.00  0.00     0.167 HD
ATOM     37  C   UNL A   1      47.146  30.176  28.139  1.00  0.00     0.074 A 
ATOM     38  C   UNL A   1      48.554  30.286  27.815  1.00  0.00     0.031 C 
ATOM     39  C   UNL A   1      46.388  31.192  28.619  1.00  0.00     0.031 A 
BRANCH  26  40
ATOM     40  C   UNL A   1      40.447  29.733  29.599  1.00  0.00    -0.014 A 
ATOM     41  C   UNL A   1      39.471  30.041  28.635  1.00  0.00     0.010 A 
ATOM     42  C   UNL A   1      40.119  29.853  30.963  1.00  0.00     0.010 A 
ATOM     43  C   UNL A   1      38.216  30.519  29.025  1.00  0.00     0.020 A 
ATOM     44  C   UNL A   1      38.856  30.302  31.359  1.00  0.00     0.020 A 
ATOM     45  C   UNL A   1      37.921  30.659  30.385  1.00  0.00     0.054 A 
BRANCH  45  46
ATOM     46  S   UNL A   1      36.296  31.310  30.863  1.00  0.00     0.124 S 
ATOM     47  O   UNL A   1      35.543  31.173  29.620  1.00  0.00    -0.237 OA
ATOM     48  O   UNL A   1      35.894  30.410  31.942  1.00  0.00    -0.237 OA
ATOM     49  O   UNL A   1      36.578  32.683  31.273  1.00  0.00    -0.744 OA
ENDBRANCH  45  46
ENDBRANCH  26  40
BRANCH  27  50
ATOM     50  C   UNL A   1      49.341  26.324  26.518  1.00  0.00    -0.014 A 
ATOM     51  C   UNL A   1      49.757  26.615  25.209  1.00  0.00     0.010 A 
ATOM     52  C   UNL A   1      50.209  25.619  27.374  1.00  0.00     0.010 A 
ATOM     53  C   UNL A   1      51.021  26.217  24.766  1.00  0.00     0.020 A 
ATOM     54  C   UNL A   1      51.485  25.244  26.944  1.00  0.00     0.020 A 
ATOM     55  C   UNL A   1      51.881  25.544  25.640  1.00  0.00     0.054 A 
BRANCH  55  56
ATOM     56  S   UNL A   1      53.552  25.125  25.071  1.00  0.00     0.124 S 
ATOM     57  O   UNL A   1      53.515  25.556  23.678  1.00  0.00    -0.237 OA
ATOM     58  O   UNL A   1      54.395  25.923  25.959  1.00  0.00    -0.237 OA
ATOM     59  O   UNL A   1      53.634  23.681  25.279  1.00  0.00    -0.744 OA
ENDBRANCH  55  56
ENDBRANCH  27  50
BRANCH  39  60
ATOM     60  C   UNL A   1      47.070  32.509  28.875  1.00  0.00    -0.014 A 
ATOM     61  C   UNL A   1      47.099  33.522  27.902  1.00  0.00     0.010 A 
ATOM     62  C   UNL A   1      47.613  32.762  30.149  1.00  0.00     0.010 A 
ATOM     63  C   UNL A   1      47.669  34.764  28.197  1.00  0.00     0.020 A 
ATOM     64  C   UNL A   1      48.158  34.010  30.455  1.00  0.00     0.020 A 
ATOM     65  C   UNL A   1      48.189  35.002  29.474  1.00  0.00     0.054 A 
BRANCH  65  66
ATOM     66  S   UNL A   1      48.846  36.648  29.858  1.00  0.00     0.124 S 
ATOM     67  O   UNL A   1      49.631  36.948  28.663  1.00  0.00    -0.237 OA
ATOM     68  O   UNL A   1      47.633  37.444  30.030  1.00  0.00    -0.237 OA
ATOM     69  O   UNL A   1      49.623  36.435  31.077  1.00  0.00    -0.744 OA
ENDBRANCH  65  66
ENDBRANCH  39  60
ENDBRANCH  13  14
ENDBRANCH   6   8
ENDBRANCH   3   4
ENDBRANCH   2   3
ENDBRANCH   1   2
BRANCH   1  70
ATOM     70  C   UNL A   1      35.961  22.521  23.551  1.00  0.00     0.002 C 
BRANCH  70  71
ATOM     71  C   UNL A   1      34.755  23.467  23.617  1.00  0.00     0.021 C 
BRANCH  71  72
ATOM     72  C   UNL A   1      33.803  23.533  22.422  1.00  0.00     0.116 C 
BRANCH  72  73
ATOM     73  N   UNL A   1      32.384  23.579  22.748  1.00  0.00    -0.351 N 
ATOM     74  C   UNL A   1      31.637  24.637  23.233  1.00  0.00     0.272 C 
ATOM     75  H   UNL A   1      31.887  22.741  22.600  1.00  0.00     0.163 HD
ATOM     76  O   UNL A   1      30.411  24.627  23.173  1.00  0.00    -0.267 OA
BRANCH  74  77
ATOM     77  C   UNL A   1      32.323  25.840  23.723  1.00  0.00     0.159 A 
ATOM     78  N   UNL A   1      32.843  26.566  22.669  1.00  0.00    -0.247 NA
ATOM     79  C   UNL A   1      32.406  26.260  25.045  1.00  0.00     0.159 A 
ATOM     80  C   UNL A   1      33.452  27.724  22.963  1.00  0.00     0.132 A 
ATOM     81  N   UNL A   1      33.081  27.441  25.298  1.00  0.00    -0.247 NA
ATOM     82  C   UNL A   1      33.576  28.151  24.260  1.00  0.00     0.132 A 
BRANCH  79  83
ATOM     83  C   UNL A   1      31.782  25.742  26.332  1.00  0.00     0.276 C 
ATOM     84  O   UNL A   1      31.268  26.574  27.096  1.00  0.00    -0.267 OA
ATOM     85  N   UNL A   1      31.510  24.438  26.669  1.00  0.00    -0.320 N 
ATOM     86  H   UNL A   1      30.628  24.327  27.091  1.00  0.00     0.170 HD
BRANCH  85  87
ATOM     87  C   UNL A   1      32.205  23.240  26.545  1.00  0.00     0.045 A 
ATOM     88  C   UNL A   1      33.460  23.028  27.133  1.00  0.00     0.030 A 
ATOM     89  C   UNL A   1      31.578  22.224  25.812  1.00  0.00     0.076 A 
ATOM     90  C   UNL A   1      34.146  21.830  26.890  1.00  0.00     0.053 A 
ATOM     91  C   UNL A   1      32.329  21.115  25.499  1.00  0.00     0.167 A 
ATOM     92  C   UNL A   1      33.589  20.934  26.007  1.00  0.00     0.165 A 
ATOM     93  O   UNL A   1      31.983  20.132  24.623  1.00  0.00    -0.454 OA
ATOM     94  O   UNL A   1      34.201  19.830  25.501  1.00  0.00    -0.454 OA
ATOM     95  C   UNL A   1      33.261  19.480  24.463  1.00  0.00     0.468 C 
ENDBRANCH  85  87
ENDBRANCH  79  83
ENDBRANCH  74  77
ENDBRANCH  72  73
ENDBRANCH  71  72
ENDBRANCH  70  71
ENDBRANCH   1  70
TORSDOF 18
ENDMDL
MODEL 3
REMARK VINA RESULT:     -11.0      3.865      9.561
REMARK SMILES O=C(NCCCCCCNC(=O)c1nccnc1C(=O)Nc1ccc2c(c1)OCO2)c1ccc(-c2c3nc(c(-c4ccc(S(=O)(=O)[O-])cc4)c4ccc([nH]4)c(-c4ccc(S(=O)(=O)[O-])cc4)c4nc(c(-c5ccc(S(=O)(=O)[O-])cc5)c5ccc2[nH]5)C=C4)C=C3)cc1
REMARK SMILES IDX 6 1 5 2 4 3 3 4 1 5 2 6 31 8 32 9 90 10 33 11 89 12 34 13
REMARK SMILES IDX 35 14 36 15 83 16 37 17 88 18 82 19 84 20 38 21 87 22 81 23
REMARK SMILES IDX 80 24 39 26 69 27 50 28 68 29 51 30 54 31 67 32 85 33 52 34
REMARK SMILES IDX 53 35 66 37 86 38 55 39 40 40 41 41 49 42 42 43 48 44 43 45
REMARK SMILES IDX 44 46 45 47 46 48 47 49 70 50 71 51 79 52 72 53 78 54 73 55
REMARK SMILES IDX 74 56 75 57 76 58 77 59 56 60 57 61 65 62 58 63 64 64 59 65
REMARK SMILES IDX 60 66 61 67 62 68 63 69 7 70 8 71 9 72 10 73 11 74 12 76
REMARK SMILES IDX 13 77 14 78 18 79 15 80 17 81 16 82 19 83 20 84 21 85 22 87
REMARK SMILES IDX 23 88 27 89 24 90 26 91 25 92 28 93 30 94 29 95
REMARK H PARENT 3 7 84 25 54 36 10 75 21 86
REMARK Flexibility Score: inf
ROOT
ATOM      1  C   UNL A   1      34.561  29.146  27.459  1.00  0.00     0.002 C 
ENDROOT
BRANCH   1   2
ATOM      2  C   UNL A   1      34.733  30.657  27.320  1.00  0.00     0.021 C 
BRANCH   2   3
ATOM      3  C   UNL A   1      35.780  31.258  28.249  1.00  0.00     0.116 C 
BRANCH   3   4
ATOM      4  N   UNL A   1      35.517  30.994  29.656  1.00  0.00    -0.352 N 
ATOM      5  O   UNL A   1      35.992  30.185  31.716  1.00  0.00    -0.269 OA
ATOM      6  C   UNL A   1      36.378  30.466  30.587  1.00  0.00     0.251 C 
ATOM      7  H   UNL A   1      34.614  31.221  29.977  1.00  0.00     0.163 HD
BRANCH   6   8
ATOM      8  C   UNL A   1      37.774  30.212  30.182  1.00  0.00     0.039 A 
ATOM      9  C   UNL A   1      38.097  30.085  28.827  1.00  0.00     0.014 A 
ATOM     10  C   UNL A   1      38.744  30.023  31.168  1.00  0.00     0.014 A 
ATOM     11  C   UNL A   1      39.361  29.643  28.462  1.00  0.00     0.010 A 
ATOM     12  C   UNL A   1      40.035  29.652  30.792  1.00  0.00     0.010 A 
ATOM     13  C   UNL A   1      40.345  29.432  29.440  1.00  0.00    -0.014 A 
BRANCH  13  14
ATOM     14  C   UNL A   1      41.717  29.035  29.043  1.00  0.00     0.031 A 
ATOM     15  C   UNL A   1      42.830  30.042  29.005  1.00  0.00     0.074 A 
ATOM     16  C   UNL A   1      41.939  27.758  28.680  1.00  0.00     0.049 A 
ATOM     17  N   UNL A   1      44.060  29.893  28.583  1.00  0.00    -0.248 NA
ATOM     18  C   UNL A   1      42.522  31.395  29.494  1.00  0.00     0.031 C 
ATOM     19  C   UNL A   1      40.935  26.692  28.691  1.00  0.00     0.029 A 
ATOM     20  N   UNL A   1      43.074  27.142  28.220  1.00  0.00    -0.354 N 
ATOM     21  C   UNL A   1      44.664  31.137  28.725  1.00  0.00     0.074 A 
ATOM     22  C   UNL A   1      43.660  32.033  29.258  1.00  0.00     0.031 C 
ATOM     23  C   UNL A   1      41.499  25.552  28.268  1.00  0.00     0.029 A 
ATOM     24  C   UNL A   1      42.880  25.823  27.888  1.00  0.00     0.049 A 
ATOM     25  H   UNL A   1      43.942  27.600  28.135  1.00  0.00     0.167 HD
ATOM     26  C   UNL A   1      45.938  31.496  28.430  1.00  0.00     0.031 A 
ATOM     27  C   UNL A   1      43.705  24.936  27.302  1.00  0.00     0.031 A 
ATOM     28  C   UNL A   1      46.919  30.594  27.884  1.00  0.00     0.049 A 
ATOM     29  C   UNL A   1      45.095  25.365  26.939  1.00  0.00     0.074 A 
ATOM     30  C   UNL A   1      48.244  30.848  27.573  1.00  0.00     0.029 A 
ATOM     31  N   UNL A   1      46.680  29.265  27.557  1.00  0.00    -0.354 N 
ATOM     32  N   UNL A   1      45.658  26.538  27.100  1.00  0.00    -0.248 NA
ATOM     33  C   UNL A   1      45.964  24.353  26.324  1.00  0.00     0.031 C 
ATOM     34  C   UNL A   1      48.788  29.692  27.005  1.00  0.00     0.029 A 
ATOM     35  C   UNL A   1      47.825  28.695  27.026  1.00  0.00     0.049 A 
ATOM     36  H   UNL A   1      45.824  28.798  27.684  1.00  0.00     0.167 HD
ATOM     37  C   UNL A   1      46.959  26.400  26.631  1.00  0.00     0.074 A 
ATOM     38  C   UNL A   1      47.098  25.028  26.185  1.00  0.00     0.031 C 
ATOM     39  C   UNL A   1      47.949  27.325  26.588  1.00  0.00     0.031 A 
BRANCH  26  40
ATOM     40  C   UNL A   1      46.321  32.939  28.643  1.00  0.00    -0.014 A 
ATOM     41  C   UNL A   1      46.853  33.387  29.866  1.00  0.00     0.010 A 
ATOM     42  C   UNL A   1      46.153  33.863  27.595  1.00  0.00     0.010 A 
ATOM     43  C   UNL A   1      47.148  34.740  30.056  1.00  0.00     0.020 A 
ATOM     44  C   UNL A   1      46.476  35.211  27.770  1.00  0.00     0.020 A 
ATOM     45  C   UNL A   1      46.947  35.646  29.010  1.00  0.00     0.054 A 
BRANCH  45  46
ATOM     46  S   UNL A   1      47.311  37.401  29.294  1.00  0.00     0.124 S 
ATOM     47  O   UNL A   1      48.672  37.341  29.820  1.00  0.00    -0.237 OA
ATOM     48  O   UNL A   1      47.180  37.976  27.957  1.00  0.00    -0.237 OA
ATOM     49  O   UNL A   1      46.291  37.818  30.252  1.00  0.00    -0.744 OA
ENDBRANCH  45  46
ENDBRANCH  26  40
BRANCH  27  50
ATOM     50  C   UNL A   1      43.204  23.565  27.019  1.00  0.00    -0.014 A 
ATOM     51  C   UNL A   1      42.905  23.171  25.705  1.00  0.00     0.010 A 
ATOM     52  C   UNL A   1      43.115  22.618  28.058  1.00  0.00     0.010 A 
ATOM     53  C   UNL A   1      42.533  21.852  25.432  1.00  0.00     0.020 A 
ATOM     54  C   UNL A   1      42.771  21.292  27.784  1.00  0.00     0.020 A 
ATOM     55  C   UNL A   1      42.479  20.919  26.472  1.00  0.00     0.054 A 
BRANCH  55  56
ATOM     56  S   UNL A   1      42.088  19.192  26.075  1.00  0.00     0.124 S 
ATOM     57  O   UNL A   1      42.504  18.499  27.290  1.00  0.00    -0.237 OA
ATOM     58  O   UNL A   1      40.648  19.242  25.836  1.00  0.00    -0.237 OA
ATOM     59  O   UNL A   1      42.899  18.921  24.890  1.00  0.00    -0.744 OA
ENDBRANCH  55  56
ENDBRANCH  27  50
BRANCH  39  60
ATOM     60  C   UNL A   1      49.295  26.880  26.086  1.00  0.00    -0.014 A 
ATOM     61  C   UNL A   1      49.675  27.060  24.745  1.00  0.00     0.010 A 
ATOM     62  C   UNL A   1      50.227  26.353  27.000  1.00  0.00     0.010 A 
ATOM     63  C   UNL A   1      50.962  26.711  24.325  1.00  0.00     0.020 A 
ATOM     64  C   UNL A   1      51.521  26.029  26.589  1.00  0.00     0.020 A 
ATOM     65  C   UNL A   1      51.879  26.204  25.252  1.00  0.00     0.054 A 
BRANCH  65  66
ATOM     66  S   UNL A   1      53.567  25.838  24.702  1.00  0.00     0.124 S 
ATOM     67  O   UNL A   1      53.573  26.392  23.350  1.00  0.00    -0.237 OA
ATOM     68  O   UNL A   1      54.385  26.554  25.678  1.00  0.00    -0.237 OA
ATOM     69  O   UNL A   1      53.649  24.381  24.779  1.00  0.00    -0.744 OA
ENDBRANCH  65  66
ENDBRANCH  39  60
ENDBRANCH  13  14
ENDBRANCH   6   8
ENDBRANCH   3   4
ENDBRANCH   2   3
ENDBRANCH   1   2
BRANCH   1  70
ATOM     70  C   UNL A   1      33.988  28.456  26.219  1.00  0.00     0.002 C 
BRANCH  70  71
ATOM     71  C   UNL A   1      32.846  27.452  26.423  1.00  0.00     0.021 C 
BRANCH  71  72
ATOM     72  C   UNL A   1      33.078  25.986  26.056  1.00  0.00     0.116 C 
BRANCH  72  73
ATOM     73  N   UNL A   1      32.024  25.061  26.450  1.00  0.00    -0.351 N 
ATOM     74  C   UNL A   1      32.059  23.681  26.519  1.00  0.00     0.272 C 
ATOM     75  H   UNL A   1      31.167  25.478  26.704  1.00  0.00     0.163 HD
ATOM     76  O   UNL A   1      31.211  23.057  27.151  1.00  0.00    -0.267 OA
BRANCH  74  77
ATOM     77  C   UNL A   1      33.190  22.957  25.924  1.00  0.00     0.159 A 
ATOM     78  N   UNL A   1      34.155  22.696  26.878  1.00  0.00    -0.247 NA
ATOM     79  C   UNL A   1      33.288  22.519  24.609  1.00  0.00     0.159 A 
ATOM     80  C   UNL A   1      35.227  21.989  26.489  1.00  0.00     0.132 A 
ATOM     81  N   UNL A   1      34.433  21.831  24.250  1.00  0.00    -0.247 NA
ATOM     82  C   UNL A   1      35.367  21.569  25.191  1.00  0.00     0.132 A 
BRANCH  79  83
ATOM     83  C   UNL A   1      32.309  22.528  23.445  1.00  0.00     0.276 C 
ATOM     84  O   UNL A   1      32.025  21.436  22.926  1.00  0.00    -0.267 OA
ATOM     85  N   UNL A   1      31.516  23.565  23.022  1.00  0.00    -0.320 N 
ATOM     86  H   UNL A   1      30.599  23.282  22.802  1.00  0.00     0.170 HD
BRANCH  85  87
ATOM     87  C   UNL A   1      31.720  24.928  22.836  1.00  0.00     0.045 A 
ATOM     88  C   UNL A   1      32.917  25.452  22.325  1.00  0.00     0.030 A 
ATOM     89  C   UNL A   1      30.651  25.773  23.163  1.00  0.00     0.076 A 
ATOM     90  C   UNL A   1      33.088  26.841  22.252  1.00  0.00     0.053 A 
ATOM     91  C   UNL A   1      30.900  27.126  23.189  1.00  0.00     0.167 A 
ATOM     92  C   UNL A   1      32.097  27.644  22.765  1.00  0.00     0.165 A 
ATOM     93  O   UNL A   1      30.074  28.085  23.687  1.00  0.00    -0.454 OA
ATOM     94  O   UNL A   1      32.181  28.987  22.962  1.00  0.00    -0.454 OA
ATOM     95  C   UNL A   1      30.993  29.196  23.755  1.00  0.00     0.468 C 
ENDBRANCH  85  87
ENDBRANCH  79  83
ENDBRANCH  74  77
ENDBRANCH  72  73
ENDBRANCH  71  72
ENDBRANCH  70  71
ENDBRANCH   1  70
TORSDOF 18
ENDMDL
