MODEL 1
REMARK VINA RESULT:     -10.1      0.000      0.000
REMARK SMILES C[NH2+][C@@]1(C(=O)NCCCCCCNC(=O)c2ccc(-c3c4nc(c(-c5ccc(S(=O)(=O)[O-])cc5)c5ccc([nH]5)c(-c5ccc(S(=O)(=O)[O-])cc5)c5nc(c(-c6ccc(S(=O)(=O)[O-])cc6)c6ccc3[nH]6)C=C5)C=C4)cc2)CC[C@H](SC2CCOCC2)C1
REMARK SMILES IDX 10 1 9 2 8 3 7 4 6 5 4 6 5 7 3 9 76 10 86 11 77 12 78 13
REMARK SMILES IDX 2 14 1 15 79 18 80 19 81 20 85 21 82 22 84 23 83 24 11 25
REMARK SMILES IDX 12 26 13 27 14 28 15 30 16 31 17 32 75 33 18 34 74 35 19 36
REMARK SMILES IDX 20 37 21 38 68 39 22 40 73 41 67 42 69 43 23 44 72 45 66 46
REMARK SMILES IDX 65 47 24 49 54 50 35 51 53 52 36 53 39 54 52 55 70 56 37 57
REMARK SMILES IDX 38 58 51 60 71 61 40 62 25 63 26 64 34 65 27 66 33 67 28 68
REMARK SMILES IDX 29 69 30 70 31 71 32 72 55 73 56 74 64 75 57 76 63 77 58 78
REMARK SMILES IDX 59 79 60 80 61 81 62 82 41 83 42 84 50 85 43 86 49 87 44 88
REMARK SMILES IDX 45 89 46 90 47 91 48 92
REMARK H PARENT 6 8 2 16 2 17 13 29 69 48 39 59
REMARK Flexibility Score: inf
ROOT
ATOM      1  C   UNL A   1      33.795  28.546  24.929  1.00  0.00     0.002 C 
ENDROOT
BRANCH   1   2
ATOM      2  C   UNL A   1      32.777  27.999  23.920  1.00  0.00     0.002 C 
BRANCH   2   3
ATOM      3  C   UNL A   1      31.301  28.153  24.288  1.00  0.00     0.021 C 
BRANCH   3   4
ATOM      4  C   UNL A   1      30.623  26.899  24.828  1.00  0.00     0.116 C 
BRANCH   4   5
ATOM      5  N   UNL A   1      30.761  25.720  24.009  1.00  0.00    -0.351 N 
ATOM      6  C   UNL A   1      30.699  24.396  24.330  1.00  0.00     0.281 C 
ATOM      7  O   UNL A   1      30.428  23.648  23.377  1.00  0.00    -0.268 OA
ATOM      8  H   UNL A   1      30.926  25.902  23.055  1.00  0.00     0.163 HD
BRANCH   6   9
ATOM      9  C   UNL A   1      30.915  23.785  25.782  1.00  0.00     0.176 C 
ATOM     10  C   UNL A   1      32.015  24.546  26.543  1.00  0.00     0.080 C 
ATOM     11  C   UNL A   1      31.346  22.306  25.875  1.00  0.00     0.093 C 
ATOM     12  C   UNL A   1      33.280  23.723  26.367  1.00  0.00     0.022 C 
ATOM     13  C   UNL A   1      32.811  22.275  26.407  1.00  0.00     0.054 C 
BRANCH   9  14
ATOM     14  N   UNL A   1      29.665  24.008  26.580  1.00  0.00    -0.336 N 
ATOM     15  C   UNL A   1      29.197  22.842  27.324  1.00  0.00     0.331 C 
ATOM     16  H   UNL A   1      29.844  24.760  27.245  1.00  0.00     0.346 HD
ATOM     17  H   UNL A   1      28.932  24.231  25.906  1.00  0.00     0.346 HD
ENDBRANCH   9  14
BRANCH  13  18
ATOM     18  S   UNL A   1      33.685  20.867  25.589  1.00  0.00    -0.155 SA
BRANCH  18  19
ATOM     19  C   UNL A   1      35.238  21.421  24.747  1.00  0.00     0.051 C 
ATOM     20  C   UNL A   1      36.321  21.631  25.814  1.00  0.00     0.043 C 
ATOM     21  C   UNL A   1      35.251  22.570  23.748  1.00  0.00     0.043 C 
ATOM     22  C   UNL A   1      37.666  21.927  25.157  1.00  0.00     0.161 C 
ATOM     23  C   UNL A   1      36.659  22.809  23.212  1.00  0.00     0.161 C 
ATOM     24  O   UNL A   1      37.560  23.047  24.286  1.00  0.00    -0.381 OA
ENDBRANCH  18  19
ENDBRANCH  13  18
ENDBRANCH   6   9
ENDBRANCH   4   5
ENDBRANCH   3   4
ENDBRANCH   2   3
ENDBRANCH   1   2
BRANCH   1  25
ATOM     25  C   UNL A   1      34.036  27.714  26.194  1.00  0.00     0.021 C 
BRANCH  25  26
ATOM     26  C   UNL A   1      33.380  28.225  27.474  1.00  0.00     0.116 C 
BRANCH  26  27
ATOM     27  N   UNL A   1      33.303  29.674  27.515  1.00  0.00    -0.352 N 
ATOM     28  C   UNL A   1      34.210  30.606  27.954  1.00  0.00     0.251 C 
ATOM     29  H   UNL A   1      32.461  30.050  27.170  1.00  0.00     0.163 HD
ATOM     30  O   UNL A   1      33.853  31.777  28.064  1.00  0.00    -0.269 OA
BRANCH  28  31
ATOM     31  C   UNL A   1      35.599  30.228  28.310  1.00  0.00     0.039 A 
ATOM     32  C   UNL A   1      36.585  30.309  27.320  1.00  0.00     0.014 A 
ATOM     33  C   UNL A   1      35.930  29.731  29.574  1.00  0.00     0.014 A 
ATOM     34  C   UNL A   1      37.902  29.937  27.608  1.00  0.00     0.010 A 
ATOM     35  C   UNL A   1      37.258  29.417  29.878  1.00  0.00     0.010 A 
ATOM     36  C   UNL A   1      38.257  29.509  28.896  1.00  0.00    -0.014 A 
BRANCH  36  37
ATOM     37  C   UNL A   1      39.663  29.149  29.224  1.00  0.00     0.031 A 
ATOM     38  C   UNL A   1      40.579  30.155  29.869  1.00  0.00     0.074 A 
ATOM     39  C   UNL A   1      40.133  27.930  28.897  1.00  0.00     0.049 A 
ATOM     40  N   UNL A   1      41.845  30.035  30.184  1.00  0.00    -0.248 NA
ATOM     41  C   UNL A   1      40.007  31.474  30.181  1.00  0.00     0.031 C 
ATOM     42  C   UNL A   1      39.362  26.874  28.236  1.00  0.00     0.029 A 
ATOM     43  N   UNL A   1      41.378  27.374  29.065  1.00  0.00    -0.354 N 
ATOM     44  C   UNL A   1      42.225  31.263  30.712  1.00  0.00     0.074 A 
ATOM     45  C   UNL A   1      41.066  32.128  30.638  1.00  0.00     0.031 C 
ATOM     46  C   UNL A   1      40.144  25.796  28.070  1.00  0.00     0.029 A 
ATOM     47  C   UNL A   1      41.480  26.092  28.580  1.00  0.00     0.049 A 
ATOM     48  H   UNL A   1      42.126  27.848  29.495  1.00  0.00     0.167 HD
ATOM     49  C   UNL A   1      43.422  31.637  31.225  1.00  0.00     0.031 A 
ATOM     50  C   UNL A   1      42.531  25.248  28.538  1.00  0.00     0.031 A 
ATOM     51  C   UNL A   1      44.572  30.775  31.311  1.00  0.00     0.049 A 
ATOM     52  C   UNL A   1      43.849  25.683  29.115  1.00  0.00     0.074 A 
ATOM     53  C   UNL A   1      45.810  31.044  31.869  1.00  0.00     0.029 A 
ATOM     54  N   UNL A   1      44.628  29.477  30.825  1.00  0.00    -0.354 N 
ATOM     55  N   UNL A   1      44.168  26.827  29.671  1.00  0.00    -0.248 NA
ATOM     56  C   UNL A   1      44.947  24.706  29.073  1.00  0.00     0.031 C 
ATOM     57  C   UNL A   1      46.629  29.926  31.678  1.00  0.00     0.029 A 
ATOM     58  C   UNL A   1      45.886  28.942  31.048  1.00  0.00     0.049 A 
ATOM     59  H   UNL A   1      43.883  29.007  30.385  1.00  0.00     0.167 HD
ATOM     60  C   UNL A   1      45.496  26.701  30.063  1.00  0.00     0.074 A 
ATOM     61  C   UNL A   1      45.917  25.364  29.695  1.00  0.00     0.031 C 
ATOM     62  C   UNL A   1      46.294  27.611  30.674  1.00  0.00     0.031 A 
BRANCH  49  63
ATOM     63  C   UNL A   1      43.553  33.052  31.725  1.00  0.00    -0.014 A 
ATOM     64  C   UNL A   1      43.372  33.362  33.086  1.00  0.00     0.010 A 
ATOM     65  C   UNL A   1      43.889  34.082  30.828  1.00  0.00     0.010 A 
ATOM     66  C   UNL A   1      43.476  34.684  33.530  1.00  0.00     0.020 A 
ATOM     67  C   UNL A   1      44.020  35.401  31.273  1.00  0.00     0.020 A 
ATOM     68  C   UNL A   1      43.791  35.696  32.618  1.00  0.00     0.054 A 
BRANCH  68  69
ATOM     69  S   UNL A   1      43.922  37.402  33.222  1.00  0.00     0.124 S 
ATOM     70  O   UNL A   1      45.096  37.324  34.087  1.00  0.00    -0.237 OA
ATOM     71  O   UNL A   1      44.099  38.166  31.990  1.00  0.00    -0.237 OA
ATOM     72  O   UNL A   1      42.652  37.623  33.911  1.00  0.00    -0.744 OA
ENDBRANCH  68  69
ENDBRANCH  49  63
BRANCH  50  73
ATOM     73  C   UNL A   1      42.369  23.899  27.932  1.00  0.00    -0.014 A 
ATOM     74  C   UNL A   1      42.637  23.692  26.568  1.00  0.00     0.010 A 
ATOM     75  C   UNL A   1      41.973  22.807  28.726  1.00  0.00     0.010 A 
ATOM     76  C   UNL A   1      42.500  22.420  26.005  1.00  0.00     0.020 A 
ATOM     77  C   UNL A   1      41.859  21.529  28.172  1.00  0.00     0.020 A 
ATOM     78  C   UNL A   1      42.114  21.345  26.812  1.00  0.00     0.054 A 
BRANCH  78  79
ATOM     79  S   UNL A   1      42.008  19.690  26.074  1.00  0.00     0.124 S 
ATOM     80  O   UNL A   1      40.596  19.609  25.714  1.00  0.00    -0.237 OA
ATOM     81  O   UNL A   1      42.944  19.781  24.956  1.00  0.00    -0.237 OA
ATOM     82  O   UNL A   1      42.431  18.806  27.158  1.00  0.00    -0.744 OA
ENDBRANCH  78  79
ENDBRANCH  50  73
BRANCH  62  83
ATOM     83  C   UNL A   1      47.698  27.187  31.010  1.00  0.00    -0.014 A 
ATOM     84  C   UNL A   1      47.974  26.428  32.161  1.00  0.00     0.010 A 
ATOM     85  C   UNL A   1      48.750  27.507  30.131  1.00  0.00     0.010 A 
ATOM     86  C   UNL A   1      49.281  26.020  32.442  1.00  0.00     0.020 A 
ATOM     87  C   UNL A   1      50.054  27.079  30.396  1.00  0.00     0.020 A 
ATOM     88  C   UNL A   1      50.314  26.350  31.558  1.00  0.00     0.054 A 
BRANCH  88  89
ATOM     89  S   UNL A   1      51.995  25.771  31.920  1.00  0.00     0.124 S 
ATOM     90  O   UNL A   1      51.762  24.377  32.290  1.00  0.00    -0.237 OA
ATOM     91  O   UNL A   1      52.686  25.977  30.649  1.00  0.00    -0.237 OA
ATOM     92  O   UNL A   1      52.433  26.641  33.008  1.00  0.00    -0.744 OA
ENDBRANCH  88  89
ENDBRANCH  62  83
ENDBRANCH  36  37
ENDBRANCH  28  31
ENDBRANCH  26  27
ENDBRANCH  25  26
ENDBRANCH   1  25
TORSDOF 19
ENDMDL
MODEL 2
REMARK VINA RESULT:      -9.7      1.485      1.803
REMARK SMILES C[NH2+][C@@]1(C(=O)NCCCCCCNC(=O)c2ccc(-c3c4nc(c(-c5ccc(S(=O)(=O)[O-])cc5)c5ccc([nH]5)c(-c5ccc(S(=O)(=O)[O-])cc5)c5nc(c(-c6ccc(S(=O)(=O)[O-])cc6)c6ccc3[nH]6)C=C5)C=C4)cc2)CC[C@H](SC2CCOCC2)C1
REMARK SMILES IDX 10 1 9 2 8 3 7 4 6 5 4 6 5 7 3 9 76 10 86 11 77 12 78 13
REMARK SMILES IDX 2 14 1 15 79 18 80 19 81 20 85 21 82 22 84 23 83 24 11 25
REMARK SMILES IDX 12 26 13 27 14 28 15 30 16 31 17 32 75 33 18 34 74 35 19 36
REMARK SMILES IDX 20 37 21 38 68 39 22 40 73 41 67 42 69 43 23 44 72 45 66 46
REMARK SMILES IDX 65 47 24 49 54 50 35 51 53 52 36 53 39 54 52 55 70 56 37 57
REMARK SMILES IDX 38 58 51 60 71 61 40 62 25 63 26 64 34 65 27 66 33 67 28 68
REMARK SMILES IDX 29 69 30 70 31 71 32 72 55 73 56 74 64 75 57 76 63 77 58 78
REMARK SMILES IDX 59 79 60 80 61 81 62 82 41 83 42 84 50 85 43 86 49 87 44 88
REMARK SMILES IDX 45 89 46 90 47 91 48 92
REMARK H PARENT 6 8 2 16 2 17 13 29 69 48 39 59
REMARK Flexibility Score: inf
ROOT
ATOM      1  C   UNL A   1      33.353  28.898  24.372  1.00  0.00     0.002 C 
ENDROOT
BRANCH   1   2
ATOM      2  C   UNL A   1      32.580  28.301  23.189  1.00  0.00     0.002 C 
BRANCH   2   3
ATOM      3  C   UNL A   1      31.175  27.777  23.488  1.00  0.00     0.021 C 
BRANCH   3   4
ATOM      4  C   UNL A   1      31.092  26.310  23.894  1.00  0.00     0.116 C 
BRANCH   4   5
ATOM      5  N   UNL A   1      31.971  25.419  23.176  1.00  0.00    -0.351 N 
ATOM      6  C   UNL A   1      32.254  24.098  23.365  1.00  0.00     0.281 C 
ATOM      7  O   UNL A   1      32.694  23.518  22.360  1.00  0.00    -0.268 OA
ATOM      8  H   UNL A   1      32.446  25.834  22.420  1.00  0.00     0.163 HD
BRANCH   6   9
ATOM      9  C   UNL A   1      32.040  23.291  24.718  1.00  0.00     0.176 C 
ATOM     10  C   UNL A   1      32.795  23.955  25.883  1.00  0.00     0.080 C 
ATOM     11  C   UNL A   1      32.513  21.822  24.752  1.00  0.00     0.093 C 
ATOM     12  C   UNL A   1      34.101  23.190  26.017  1.00  0.00     0.022 C 
ATOM     13  C   UNL A   1      33.735  21.743  25.716  1.00  0.00     0.054 C 
BRANCH   9  14
ATOM     14  N   UNL A   1      30.591  23.374  25.095  1.00  0.00    -0.336 N 
ATOM     15  C   UNL A   1      30.272  22.850  26.420  1.00  0.00     0.331 C 
ATOM     16  H   UNL A   1      30.313  24.354  25.065  1.00  0.00     0.346 HD
ATOM     17  H   UNL A   1      30.088  22.791  24.427  1.00  0.00     0.346 HD
ENDBRANCH   9  14
BRANCH  13  18
ATOM     18  S   UNL A   1      34.910  20.483  25.046  1.00  0.00    -0.155 SA
BRANCH  18  19
ATOM     19  C   UNL A   1      34.040  18.920  24.569  1.00  0.00     0.051 C 
ATOM     20  C   UNL A   1      33.071  18.540  25.697  1.00  0.00     0.043 C 
ATOM     21  C   UNL A   1      34.794  17.690  24.084  1.00  0.00     0.043 C 
ATOM     22  C   UNL A   1      32.209  17.352  25.281  1.00  0.00     0.161 C 
ATOM     23  C   UNL A   1      33.829  16.553  23.761  1.00  0.00     0.161 C 
ATOM     24  O   UNL A   1      33.027  16.253  24.895  1.00  0.00    -0.381 OA
ENDBRANCH  18  19
ENDBRANCH  13  18
ENDBRANCH   6   9
ENDBRANCH   4   5
ENDBRANCH   3   4
ENDBRANCH   2   3
ENDBRANCH   1   2
BRANCH   1  25
ATOM     25  C   UNL A   1      34.033  27.911  25.327  1.00  0.00     0.021 C 
BRANCH  25  26
ATOM     26  C   UNL A   1      33.730  28.091  26.813  1.00  0.00     0.116 C 
BRANCH  26  27
ATOM     27  N   UNL A   1      33.531  29.483  27.172  1.00  0.00    -0.352 N 
ATOM     28  C   UNL A   1      34.337  30.353  27.864  1.00  0.00     0.251 C 
ATOM     29  H   UNL A   1      32.678  29.868  26.867  1.00  0.00     0.163 HD
ATOM     30  O   UNL A   1      33.880  31.440  28.209  1.00  0.00    -0.269 OA
BRANCH  28  31
ATOM     31  C   UNL A   1      35.735  30.003  28.213  1.00  0.00     0.039 A 
ATOM     32  C   UNL A   1      36.707  30.062  27.207  1.00  0.00     0.014 A 
ATOM     33  C   UNL A   1      36.090  29.551  29.487  1.00  0.00     0.014 A 
ATOM     34  C   UNL A   1      38.032  29.715  27.488  1.00  0.00     0.010 A 
ATOM     35  C   UNL A   1      37.425  29.263  29.783  1.00  0.00     0.010 A 
ATOM     36  C   UNL A   1      38.410  29.334  28.785  1.00  0.00    -0.014 A 
BRANCH  36  37
ATOM     37  C   UNL A   1      39.824  29.000  29.105  1.00  0.00     0.031 A 
ATOM     38  C   UNL A   1      40.731  30.030  29.724  1.00  0.00     0.074 A 
ATOM     39  C   UNL A   1      40.309  27.783  28.793  1.00  0.00     0.049 A 
ATOM     40  N   UNL A   1      42.001  29.935  30.028  1.00  0.00    -0.248 NA
ATOM     41  C   UNL A   1      40.142  31.346  30.020  1.00  0.00     0.031 C 
ATOM     42  C   UNL A   1      39.548  26.705  28.157  1.00  0.00     0.029 A 
ATOM     43  N   UNL A   1      41.564  27.249  28.959  1.00  0.00    -0.354 N 
ATOM     44  C   UNL A   1      42.367  31.178  30.532  1.00  0.00     0.074 A 
ATOM     45  C   UNL A   1      41.194  32.023  30.455  1.00  0.00     0.031 C 
ATOM     46  C   UNL A   1      40.345  25.636  28.002  1.00  0.00     0.029 A 
ATOM     47  C   UNL A   1      41.681  25.960  28.493  1.00  0.00     0.049 A 
ATOM     48  H   UNL A   1      42.309  27.742  29.373  1.00  0.00     0.167 HD
ATOM     49  C   UNL A   1      43.564  31.578  31.027  1.00  0.00     0.031 A 
ATOM     50  C   UNL A   1      42.744  25.133  28.455  1.00  0.00     0.031 A 
ATOM     51  C   UNL A   1      44.727  30.735  31.116  1.00  0.00     0.049 A 
ATOM     52  C   UNL A   1      44.062  25.596  29.012  1.00  0.00     0.074 A 
ATOM     53  C   UNL A   1      45.966  31.032  31.656  1.00  0.00     0.029 A 
ATOM     54  N   UNL A   1      44.799  29.430  30.650  1.00  0.00    -0.354 N 
ATOM     55  N   UNL A   1      44.368  26.755  29.545  1.00  0.00    -0.248 NA
ATOM     56  C   UNL A   1      45.174  24.635  28.975  1.00  0.00     0.031 C 
ATOM     57  C   UNL A   1      46.801  29.924  31.476  1.00  0.00     0.029 A 
ATOM     58  C   UNL A   1      46.067  28.918  30.870  1.00  0.00     0.049 A 
ATOM     59  H   UNL A   1      44.057  28.941  30.226  1.00  0.00     0.167 HD
ATOM     60  C   UNL A   1      45.702  26.655  29.926  1.00  0.00     0.074 A 
ATOM     61  C   UNL A   1      46.139  25.319  29.577  1.00  0.00     0.031 C 
ATOM     62  C   UNL A   1      46.492  27.588  30.514  1.00  0.00     0.031 A 
BRANCH  49  63
ATOM     63  C   UNL A   1      43.678  33.003  31.502  1.00  0.00    -0.014 A 
ATOM     64  C   UNL A   1      43.345  33.358  32.822  1.00  0.00     0.010 A 
ATOM     65  C   UNL A   1      44.150  33.996  30.625  1.00  0.00     0.010 A 
ATOM     66  C   UNL A   1      43.437  34.689  33.241  1.00  0.00     0.020 A 
ATOM     67  C   UNL A   1      44.267  35.324  31.048  1.00  0.00     0.020 A 
ATOM     68  C   UNL A   1      43.889  35.665  32.348  1.00  0.00     0.054 A 
BRANCH  68  69
ATOM     69  S   UNL A   1      43.999  37.383  32.918  1.00  0.00     0.124 S 
ATOM     70  O   UNL A   1      45.333  37.416  33.515  1.00  0.00    -0.237 OA
ATOM     71  O   UNL A   1      43.847  38.144  31.680  1.00  0.00    -0.237 OA
ATOM     72  O   UNL A   1      42.891  37.507  33.862  1.00  0.00    -0.744 OA
ENDBRANCH  68  69
ENDBRANCH  49  63
BRANCH  50  73
ATOM     73  C   UNL A   1      42.598  23.771  27.874  1.00  0.00    -0.014 A 
ATOM     74  C   UNL A   1      42.286  22.673  28.694  1.00  0.00     0.010 A 
ATOM     75  C   UNL A   1      42.741  23.571  26.488  1.00  0.00     0.010 A 
ATOM     76  C   UNL A   1      42.133  21.398  28.143  1.00  0.00     0.020 A 
ATOM     77  C   UNL A   1      42.564  22.302  25.930  1.00  0.00     0.020 A 
ATOM     78  C   UNL A   1      42.270  21.221  26.763  1.00  0.00     0.054 A 
BRANCH  78  79
ATOM     79  S   UNL A   1      42.001  19.569  26.060  1.00  0.00     0.124 S 
ATOM     80  O   UNL A   1      40.564  19.575  25.811  1.00  0.00    -0.237 OA
ATOM     81  O   UNL A   1      42.851  19.588  24.872  1.00  0.00    -0.237 OA
ATOM     82  O   UNL A   1      42.450  18.671  27.122  1.00  0.00    -0.744 OA
ENDBRANCH  78  79
ENDBRANCH  50  73
BRANCH  62  83
ATOM     83  C   UNL A   1      47.905  27.190  30.843  1.00  0.00    -0.014 A 
ATOM     84  C   UNL A   1      48.208  26.485  32.021  1.00  0.00     0.010 A 
ATOM     85  C   UNL A   1      48.938  27.480  29.933  1.00  0.00     0.010 A 
ATOM     86  C   UNL A   1      49.524  26.101  32.296  1.00  0.00     0.020 A 
ATOM     87  C   UNL A   1      50.251  27.076  30.193  1.00  0.00     0.020 A 
ATOM     88  C   UNL A   1      50.537  26.400  31.381  1.00  0.00     0.054 A 
BRANCH  88  89
ATOM     89  S   UNL A   1      52.230  25.852  31.737  1.00  0.00     0.124 S 
ATOM     90  O   UNL A   1      52.019  24.467  32.150  1.00  0.00    -0.237 OA
ATOM     91  O   UNL A   1      52.902  26.029  30.452  1.00  0.00    -0.237 OA
ATOM     92  O   UNL A   1      52.671  26.758  32.794  1.00  0.00    -0.744 OA
ENDBRANCH  88  89
ENDBRANCH  62  83
ENDBRANCH  36  37
ENDBRANCH  28  31
ENDBRANCH  26  27
ENDBRANCH  25  26
ENDBRANCH   1  25
TORSDOF 19
ENDMDL
MODEL 3
REMARK VINA RESULT:      -9.7      2.792      9.086
REMARK SMILES C[NH2+][C@@]1(C(=O)NCCCCCCNC(=O)c2ccc(-c3c4nc(c(-c5ccc(S(=O)(=O)[O-])cc5)c5ccc([nH]5)c(-c5ccc(S(=O)(=O)[O-])cc5)c5nc(c(-c6ccc(S(=O)(=O)[O-])cc6)c6ccc3[nH]6)C=C5)C=C4)cc2)CC[C@H](SC2CCOCC2)C1
REMARK SMILES IDX 10 1 9 2 8 3 7 4 6 5 4 6 5 7 3 9 76 10 86 11 77 12 78 13
REMARK SMILES IDX 2 14 1 15 79 18 80 19 81 20 85 21 82 22 84 23 83 24 11 25
REMARK SMILES IDX 12 26 13 27 14 28 15 30 16 31 17 32 75 33 18 34 74 35 19 36
REMARK SMILES IDX 20 37 21 38 68 39 22 40 73 41 67 42 69 43 23 44 72 45 66 46
REMARK SMILES IDX 65 47 24 49 54 50 35 51 53 52 36 53 39 54 52 55 70 56 37 57
REMARK SMILES IDX 38 58 51 60 71 61 40 62 25 63 26 64 34 65 27 66 33 67 28 68
REMARK SMILES IDX 29 69 30 70 31 71 32 72 55 73 56 74 64 75 57 76 63 77 58 78
REMARK SMILES IDX 59 79 60 80 61 81 62 82 41 83 42 84 50 85 43 86 49 87 44 88
REMARK SMILES IDX 45 89 46 90 47 91 48 92
REMARK H PARENT 6 8 2 16 2 17 13 29 69 48 39 59
REMARK Flexibility Score: inf
ROOT
ATOM      1  C   UNL A   1      35.120  21.535  26.366  1.00  0.00     0.002 C 
ENDROOT
BRANCH   1   2
ATOM      2  C   UNL A   1      34.521  20.986  25.065  1.00  0.00     0.002 C 
BRANCH   2   3
ATOM      3  C   UNL A   1      33.147  20.322  25.174  1.00  0.00     0.021 C 
BRANCH   3   4
ATOM      4  C   UNL A   1      31.952  21.255  25.023  1.00  0.00     0.116 C 
BRANCH   4   5
ATOM      5  N   UNL A   1      31.586  21.989  26.209  1.00  0.00    -0.351 N 
ATOM      6  C   UNL A   1      31.109  23.258  26.365  1.00  0.00     0.281 C 
ATOM      7  O   UNL A   1      30.495  23.449  27.426  1.00  0.00    -0.268 OA
ATOM      8  H   UNL A   1      31.697  21.489  27.050  1.00  0.00     0.163 HD
BRANCH   6   9
ATOM      9  C   UNL A   1      31.261  24.439  25.312  1.00  0.00     0.176 C 
ATOM     10  C   UNL A   1      32.739  24.667  24.948  1.00  0.00     0.080 C 
ATOM     11  C   UNL A   1      30.756  25.835  25.731  1.00  0.00     0.093 C 
ATOM     12  C   UNL A   1      33.201  25.824  25.818  1.00  0.00     0.022 C 
ATOM     13  C   UNL A   1      32.001  26.758  25.893  1.00  0.00     0.054 C 
BRANCH   9  14
ATOM     14  N   UNL A   1      30.606  24.016  24.031  1.00  0.00    -0.336 N 
ATOM     15  C   UNL A   1      31.369  24.321  22.823  1.00  0.00     0.331 C 
ATOM     16  H   UNL A   1      30.458  23.009  24.068  1.00  0.00     0.346 HD
ATOM     17  H   UNL A   1      29.739  24.549  23.964  1.00  0.00     0.346 HD
ENDBRANCH   9  14
BRANCH  13  18
ATOM     18  S   UNL A   1      31.668  27.925  27.287  1.00  0.00    -0.155 SA
BRANCH  18  19
ATOM     19  C   UNL A   1      33.127  29.010  27.635  1.00  0.00     0.051 C 
ATOM     20  C   UNL A   1      32.740  30.462  27.319  1.00  0.00     0.043 C 
ATOM     21  C   UNL A   1      34.514  28.703  27.088  1.00  0.00     0.043 C 
ATOM     22  C   UNL A   1      33.851  31.415  27.746  1.00  0.00     0.161 C 
ATOM     23  C   UNL A   1      35.520  29.759  27.531  1.00  0.00     0.161 C 
ATOM     24  O   UNL A   1      35.083  31.052  27.133  1.00  0.00    -0.381 OA
ENDBRANCH  18  19
ENDBRANCH  13  18
ENDBRANCH   6   9
ENDBRANCH   4   5
ENDBRANCH   3   4
ENDBRANCH   2   3
ENDBRANCH   1   2
BRANCH   1  25
ATOM     25  C   UNL A   1      35.558  23.004  26.364  1.00  0.00     0.021 C 
BRANCH  25  26
ATOM     26  C   UNL A   1      36.922  23.301  25.745  1.00  0.00     0.116 C 
BRANCH  26  27
ATOM     27  N   UNL A   1      37.881  22.239  25.986  1.00  0.00    -0.352 N 
ATOM     28  C   UNL A   1      39.192  22.291  26.390  1.00  0.00     0.251 C 
ATOM     29  H   UNL A   1      37.533  21.330  25.837  1.00  0.00     0.163 HD
ATOM     30  O   UNL A   1      39.867  21.265  26.350  1.00  0.00    -0.269 OA
BRANCH  28  31
ATOM     31  C   UNL A   1      39.810  23.556  26.855  1.00  0.00     0.039 A 
ATOM     32  C   UNL A   1      39.786  24.663  25.998  1.00  0.00     0.014 A 
ATOM     33  C   UNL A   1      40.472  23.650  28.083  1.00  0.00     0.014 A 
ATOM     34  C   UNL A   1      40.382  25.867  26.388  1.00  0.00     0.010 A 
ATOM     35  C   UNL A   1      41.012  24.870  28.497  1.00  0.00     0.010 A 
ATOM     36  C   UNL A   1      40.980  25.990  27.651  1.00  0.00    -0.014 A 
BRANCH  36  37
ATOM     37  C   UNL A   1      41.581  27.278  28.092  1.00  0.00     0.031 A 
ATOM     38  C   UNL A   1      43.075  27.471  28.073  1.00  0.00     0.074 A 
ATOM     39  C   UNL A   1      40.786  28.261  28.557  1.00  0.00     0.049 A 
ATOM     40  N   UNL A   1      43.778  28.504  28.463  1.00  0.00    -0.248 NA
ATOM     41  C   UNL A   1      43.885  26.350  27.572  1.00  0.00     0.031 C 
ATOM     42  C   UNL A   1      39.327  28.190  28.663  1.00  0.00     0.029 A 
ATOM     43  N   UNL A   1      41.093  29.509  29.039  1.00  0.00    -0.354 N 
ATOM     44  C   UNL A   1      45.109  28.153  28.273  1.00  0.00     0.074 A 
ATOM     45  C   UNL A   1      45.118  26.796  27.771  1.00  0.00     0.031 C 
ATOM     46  C   UNL A   1      38.866  29.349  29.162  1.00  0.00     0.029 A 
ATOM     47  C   UNL A   1      39.995  30.231  29.443  1.00  0.00     0.049 A 
ATOM     48  H   UNL A   1      42.013  29.856  29.090  1.00  0.00     0.167 HD
ATOM     49  C   UNL A   1      46.224  28.895  28.483  1.00  0.00     0.031 A 
ATOM     50  C   UNL A   1      39.902  31.460  29.988  1.00  0.00     0.031 A 
ATOM     51  C   UNL A   1      46.218  30.249  28.971  1.00  0.00     0.049 A 
ATOM     52  C   UNL A   1      41.151  32.266  30.210  1.00  0.00     0.074 A 
ATOM     53  C   UNL A   1      47.292  31.101  29.160  1.00  0.00     0.029 A 
ATOM     54  N   UNL A   1      45.082  30.949  29.351  1.00  0.00    -0.354 N 
ATOM     55  N   UNL A   1      42.397  31.939  29.961  1.00  0.00    -0.248 NA
ATOM     56  C   UNL A   1      40.982  33.613  30.775  1.00  0.00     0.031 C 
ATOM     57  C   UNL A   1      46.811  32.300  29.697  1.00  0.00     0.029 A 
ATOM     58  C   UNL A   1      45.432  32.214  29.794  1.00  0.00     0.049 A 
ATOM     59  H   UNL A   1      44.163  30.599  29.311  1.00  0.00     0.167 HD
ATOM     60  C   UNL A   1      43.157  33.047  30.318  1.00  0.00     0.074 A 
ATOM     61  C   UNL A   1      42.232  34.058  30.786  1.00  0.00     0.031 C 
ATOM     62  C   UNL A   1      44.502  33.211  30.261  1.00  0.00     0.031 A 
BRANCH  49  63
ATOM     63  C   UNL A   1      47.554  28.247  28.196  1.00  0.00    -0.014 A 
ATOM     64  C   UNL A   1      48.152  28.345  26.926  1.00  0.00     0.010 A 
ATOM     65  C   UNL A   1      48.229  27.553  29.217  1.00  0.00     0.010 A 
ATOM     66  C   UNL A   1      49.375  27.720  26.670  1.00  0.00     0.020 A 
ATOM     67  C   UNL A   1      49.466  26.950  28.972  1.00  0.00     0.020 A 
ATOM     68  C   UNL A   1      50.021  27.019  27.693  1.00  0.00     0.054 A 
BRANCH  68  69
ATOM     69  S   UNL A   1      51.609  26.219  27.333  1.00  0.00     0.124 S 
ATOM     70  O   UNL A   1      52.290  26.314  28.622  1.00  0.00    -0.237 OA
ATOM     71  O   UNL A   1      51.208  24.872  26.934  1.00  0.00    -0.237 OA
ATOM     72  O   UNL A   1      52.176  27.040  26.266  1.00  0.00    -0.744 OA
ENDBRANCH  68  69
ENDBRANCH  49  63
BRANCH  50  73
ATOM     73  C   UNL A   1      38.566  32.005  30.353  1.00  0.00    -0.014 A 
ATOM     74  C   UNL A   1      38.049  31.822  31.647  1.00  0.00     0.010 A 
ATOM     75  C   UNL A   1      37.816  32.736  29.413  1.00  0.00     0.010 A 
ATOM     76  C   UNL A   1      36.801  32.350  31.992  1.00  0.00     0.020 A 
ATOM     77  C   UNL A   1      36.579  33.286  29.762  1.00  0.00     0.020 A 
ATOM     78  C   UNL A   1      36.075  33.081  31.047  1.00  0.00     0.054 A 
BRANCH  78  79
ATOM     79  S   UNL A   1      34.488  33.813  31.536  1.00  0.00     0.124 S 
ATOM     80  O   UNL A   1      33.867  32.723  32.281  1.00  0.00    -0.237 OA
ATOM     81  O   UNL A   1      34.903  34.967  32.330  1.00  0.00    -0.237 OA
ATOM     82  O   UNL A   1      33.857  34.141  30.260  1.00  0.00    -0.744 OA
ENDBRANCH  78  79
ENDBRANCH  50  73
BRANCH  62  83
ATOM     83  C   UNL A   1      45.057  34.542  30.691  1.00  0.00    -0.014 A 
ATOM     84  C   UNL A   1      45.436  34.777  32.024  1.00  0.00     0.010 A 
ATOM     85  C   UNL A   1      45.250  35.556  29.734  1.00  0.00     0.010 A 
ATOM     86  C   UNL A   1      45.975  36.011  32.399  1.00  0.00     0.020 A 
ATOM     87  C   UNL A   1      45.811  36.783  30.101  1.00  0.00     0.020 A 
ATOM     88  C   UNL A   1      46.157  37.007  31.434  1.00  0.00     0.054 A 
BRANCH  88  89
ATOM     89  S   UNL A   1      46.900  38.586  31.935  1.00  0.00     0.124 S 
ATOM     90  O   UNL A   1      48.300  38.391  31.570  1.00  0.00    -0.237 OA
ATOM     91  O   UNL A   1      46.168  39.556  31.124  1.00  0.00    -0.237 OA
ATOM     92  O   UNL A   1      46.632  38.654  33.369  1.00  0.00    -0.744 OA
ENDBRANCH  88  89
ENDBRANCH  62  83
ENDBRANCH  36  37
ENDBRANCH  28  31
ENDBRANCH  26  27
ENDBRANCH  25  26
ENDBRANCH   1  25
TORSDOF 19
ENDMDL
