MODEL 1
REMARK VINA RESULT:      -9.8      0.000      0.000
REMARK SMILES CC(C)C[N@@H+](C[C@@H](C)C(=O)NCCCCCCNC(=O)c1ccc(-c2c3nc(c(-c4ccc(S(=O)(=O)[O-])cc4)c4ccc([nH]4)c(-c4ccc(S(=O)(=O)[O-])cc4)c4nc(c(-c5ccc(S(=O)(=O)[O-])cc5)c5ccc2[nH]5)C=C4)C=C3)cc1)C1CCCC1
REMARK SMILES IDX 14 1 13 2 12 3 11 4 9 5 10 6 7 8 8 9 6 10 5 11 4 13 2 14
REMARK SMILES IDX 1 15 3 16 81 17 82 18 85 19 83 20 84 21 15 22 16 23 17 24
REMARK SMILES IDX 18 25 19 26 20 28 21 29 22 30 80 31 23 32 79 33 24 34 25 35
REMARK SMILES IDX 26 36 73 37 27 38 78 39 72 40 74 41 28 42 77 43 71 44 70 45
REMARK SMILES IDX 29 47 59 48 40 49 58 50 41 51 44 52 57 53 75 54 42 55 43 56
REMARK SMILES IDX 56 58 76 59 45 60 30 61 31 62 39 63 32 64 38 65 33 66 34 67
REMARK SMILES IDX 35 68 36 69 37 70 60 71 61 72 69 73 62 74 68 75 63 76 64 77
REMARK SMILES IDX 65 78 66 79 67 80 46 81 47 82 55 83 48 84 54 85 49 86 50 87
REMARK SMILES IDX 51 88 52 89 53 90
REMARK H PARENT 11 7 5 12 18 27 74 46 44 57
REMARK Flexibility Score: inf
ROOT
ATOM      1  C   UNL A   1      31.301  29.700  24.775  1.00  0.00     0.002 C 
ENDROOT
BRANCH   1   2
ATOM      2  C   UNL A   1      30.268  29.204  23.757  1.00  0.00     0.021 C 
BRANCH   2   3
ATOM      3  C   UNL A   1      30.849  28.152  22.814  1.00  0.00     0.116 C 
BRANCH   3   4
ATOM      4  N   UNL A   1      30.334  26.843  23.166  1.00  0.00    -0.356 N 
ATOM      5  C   UNL A   1      30.949  25.629  23.157  1.00  0.00     0.228 C 
ATOM      6  O   UNL A   1      30.247  24.628  23.318  1.00  0.00    -0.275 OA
ATOM      7  H   UNL A   1      29.393  26.832  23.457  1.00  0.00     0.163 HD
BRANCH   5   8
ATOM      8  C   UNL A   1      32.467  25.512  23.052  1.00  0.00     0.130 C 
ATOM      9  C   UNL A   1      32.799  25.192  21.599  1.00  0.00     0.024 C 
BRANCH   8  10
ATOM     10  C   UNL A   1      33.060  24.628  24.180  1.00  0.00     0.275 C 
BRANCH  10  11
ATOM     11  N   UNL A   1      33.095  23.157  24.076  1.00  0.00    -0.332 N 
ATOM     12  H   UNL A   1      32.711  22.986  23.146  1.00  0.00     0.348 HD
BRANCH  11  13
ATOM     13  C   UNL A   1      32.159  22.503  25.000  1.00  0.00     0.265 C 
BRANCH  13  14
ATOM     14  C   UNL A   1      31.748  23.242  26.303  1.00  0.00     0.038 C 
ATOM     15  C   UNL A   1      30.300  23.017  26.743  1.00  0.00     0.013 C 
ATOM     16  C   UNL A   1      32.659  22.762  27.446  1.00  0.00     0.013 C 
ENDBRANCH  13  14
ENDBRANCH  11  13
BRANCH  11  17
ATOM     17  C   UNL A   1      34.361  22.483  23.778  1.00  0.00     0.184 C 
ATOM     18  C   UNL A   1      35.649  23.327  23.673  1.00  0.00     0.065 C 
ATOM     19  C   UNL A   1      34.751  21.256  24.627  1.00  0.00     0.065 C 
ATOM     20  C   UNL A   1      36.779  22.334  23.920  1.00  0.00     0.006 C 
ATOM     21  C   UNL A   1      36.219  21.426  24.998  1.00  0.00     0.006 C 
ENDBRANCH  11  17
ENDBRANCH  10  11
ENDBRANCH   8  10
ENDBRANCH   5   8
ENDBRANCH   3   4
ENDBRANCH   2   3
ENDBRANCH   1   2
BRANCH   1  22
ATOM     22  C   UNL A   1      31.447  28.791  26.001  1.00  0.00     0.002 C 
BRANCH  22  23
ATOM     23  C   UNL A   1      32.736  27.966  26.022  1.00  0.00     0.021 C 
BRANCH  23  24
ATOM     24  C   UNL A   1      33.696  28.357  27.138  1.00  0.00     0.116 C 
BRANCH  24  25
ATOM     25  N   UNL A   1      33.608  29.779  27.440  1.00  0.00    -0.352 N 
ATOM     26  C   UNL A   1      34.502  30.573  28.106  1.00  0.00     0.251 C 
ATOM     27  H   UNL A   1      32.794  30.231  27.121  1.00  0.00     0.163 HD
ATOM     28  O   UNL A   1      34.164  31.689  28.501  1.00  0.00    -0.269 OA
BRANCH  26  29
ATOM     29  C   UNL A   1      35.867  30.074  28.352  1.00  0.00     0.039 A 
ATOM     30  C   UNL A   1      36.815  30.151  27.332  1.00  0.00     0.014 A 
ATOM     31  C   UNL A   1      36.206  29.539  29.598  1.00  0.00     0.014 A 
ATOM     32  C   UNL A   1      38.123  29.736  27.578  1.00  0.00     0.010 A 
ATOM     33  C   UNL A   1      37.527  29.203  29.867  1.00  0.00     0.010 A 
ATOM     34  C   UNL A   1      38.496  29.288  28.857  1.00  0.00    -0.014 A 
BRANCH  34  35
ATOM     35  C   UNL A   1      39.898  28.909  29.158  1.00  0.00     0.031 A 
ATOM     36  C   UNL A   1      40.833  29.904  29.788  1.00  0.00     0.074 A 
ATOM     37  C   UNL A   1      40.344  27.689  28.806  1.00  0.00     0.049 A 
ATOM     38  N   UNL A   1      42.098  29.769  30.090  1.00  0.00    -0.248 NA
ATOM     39  C   UNL A   1      40.280  31.234  30.094  1.00  0.00     0.031 C 
ATOM     40  C   UNL A   1      39.546  26.654  28.145  1.00  0.00     0.029 A 
ATOM     41  N   UNL A   1      41.581  27.113  28.948  1.00  0.00    -0.354 N 
ATOM     42  C   UNL A   1      42.496  30.997  30.607  1.00  0.00     0.074 A 
ATOM     43  C   UNL A   1      41.354  31.880  30.521  1.00  0.00     0.031 C 
ATOM     44  C   UNL A   1      40.304  25.562  27.965  1.00  0.00     0.029 A 
ATOM     45  C   UNL A   1      41.652  25.832  28.456  1.00  0.00     0.049 A 
ATOM     46  H   UNL A   1      42.346  27.573  29.364  1.00  0.00     0.167 HD
ATOM     47  C   UNL A   1      43.697  31.351  31.125  1.00  0.00     0.031 A 
ATOM     48  C   UNL A   1      42.687  24.972  28.395  1.00  0.00     0.031 A 
ATOM     49  C   UNL A   1      44.830  30.467  31.199  1.00  0.00     0.049 A 
ATOM     50  C   UNL A   1      44.016  25.387  28.961  1.00  0.00     0.074 A 
ATOM     51  C   UNL A   1      46.075  30.709  31.751  1.00  0.00     0.029 A 
ATOM     52  N   UNL A   1      44.860  29.174  30.694  1.00  0.00    -0.354 N 
ATOM     53  N   UNL A   1      44.354  26.527  29.516  1.00  0.00    -0.248 NA
ATOM     54  C   UNL A   1      45.099  24.397  28.906  1.00  0.00     0.031 C 
ATOM     55  C   UNL A   1      46.878  29.586  31.523  1.00  0.00     0.029 A 
ATOM     56  C   UNL A   1      46.113  28.618  30.893  1.00  0.00     0.049 A 
ATOM     57  H   UNL A   1      44.103  28.721  30.258  1.00  0.00     0.167 HD
ATOM     58  C   UNL A   1      45.684  26.384  29.896  1.00  0.00     0.074 A 
ATOM     59  C   UNL A   1      46.080  25.041  29.523  1.00  0.00     0.031 C 
ATOM     60  C   UNL A   1      46.499  27.283  30.503  1.00  0.00     0.031 A 
BRANCH  47  61
ATOM     61  C   UNL A   1      43.841  32.765  31.630  1.00  0.00    -0.014 A 
ATOM     62  C   UNL A   1      43.536  33.101  32.962  1.00  0.00     0.010 A 
ATOM     63  C   UNL A   1      44.295  33.774  30.760  1.00  0.00     0.010 A 
ATOM     64  C   UNL A   1      43.618  34.426  33.397  1.00  0.00     0.020 A 
ATOM     65  C   UNL A   1      44.413  35.096  31.201  1.00  0.00     0.020 A 
ATOM     66  C   UNL A   1      44.049  35.417  32.510  1.00  0.00     0.054 A 
BRANCH  66  67
ATOM     67  S   UNL A   1      44.134  37.131  33.097  1.00  0.00     0.124 S 
ATOM     68  O   UNL A   1      45.438  37.157  33.757  1.00  0.00    -0.237 OA
ATOM     69  O   UNL A   1      44.041  37.900  31.858  1.00  0.00    -0.237 OA
ATOM     70  O   UNL A   1      42.983  37.250  33.989  1.00  0.00    -0.744 OA
ENDBRANCH  66  67
ENDBRANCH  47  61
BRANCH  48  71
ATOM     71  C   UNL A   1      42.487  23.628  27.788  1.00  0.00    -0.014 A 
ATOM     72  C   UNL A   1      42.809  23.395  26.441  1.00  0.00     0.010 A 
ATOM     73  C   UNL A   1      42.024  22.557  28.576  1.00  0.00     0.010 A 
ATOM     74  C   UNL A   1      42.673  22.116  25.891  1.00  0.00     0.020 A 
ATOM     75  C   UNL A   1      41.913  21.272  28.037  1.00  0.00     0.020 A 
ATOM     76  C   UNL A   1      42.235  21.061  26.696  1.00  0.00     0.054 A 
BRANCH  76  77
ATOM     77  S   UNL A   1      42.150  19.394  25.983  1.00  0.00     0.124 S 
ATOM     78  O   UNL A   1      42.977  19.532  24.789  1.00  0.00    -0.237 OA
ATOM     79  O   UNL A   1      42.710  18.568  27.050  1.00  0.00    -0.237 OA
ATOM     80  O   UNL A   1      40.722  19.200  25.739  1.00  0.00    -0.744 OA
ENDBRANCH  76  77
ENDBRANCH  48  71
BRANCH  60  81
ATOM     81  C   UNL A   1      47.901  26.837  30.826  1.00  0.00    -0.014 A 
ATOM     82  C   UNL A   1      48.995  27.227  30.032  1.00  0.00     0.010 A 
ATOM     83  C   UNL A   1      48.134  26.061  31.977  1.00  0.00     0.010 A 
ATOM     84  C   UNL A   1      50.290  26.821  30.365  1.00  0.00     0.020 A 
ATOM     85  C   UNL A   1      49.431  25.680  32.331  1.00  0.00     0.020 A 
ATOM     86  C   UNL A   1      50.500  26.052  31.514  1.00  0.00     0.054 A 
BRANCH  86  87
ATOM     87  S   UNL A   1      52.195  25.576  31.948  1.00  0.00     0.124 S 
ATOM     88  O   UNL A   1      52.921  25.878  30.717  1.00  0.00    -0.237 OA
ATOM     89  O   UNL A   1      52.491  26.449  33.083  1.00  0.00    -0.237 OA
ATOM     90  O   UNL A   1      52.085  24.156  32.274  1.00  0.00    -0.744 OA
ENDBRANCH  86  87
ENDBRANCH  60  81
ENDBRANCH  34  35
ENDBRANCH  26  29
ENDBRANCH  24  25
ENDBRANCH  23  24
ENDBRANCH  22  23
ENDBRANCH   1  22
TORSDOF 21
ENDMDL
MODEL 2
REMARK VINA RESULT:      -9.5      0.979      2.010
REMARK SMILES CC(C)C[N@@H+](C[C@@H](C)C(=O)NCCCCCCNC(=O)c1ccc(-c2c3nc(c(-c4ccc(S(=O)(=O)[O-])cc4)c4ccc([nH]4)c(-c4ccc(S(=O)(=O)[O-])cc4)c4nc(c(-c5ccc(S(=O)(=O)[O-])cc5)c5ccc2[nH]5)C=C4)C=C3)cc1)C1CCCC1
REMARK SMILES IDX 14 1 13 2 12 3 11 4 9 5 10 6 7 8 8 9 6 10 5 11 4 13 2 14
REMARK SMILES IDX 1 15 3 16 81 17 82 18 85 19 83 20 84 21 15 22 16 23 17 24
REMARK SMILES IDX 18 25 19 26 20 28 21 29 22 30 80 31 23 32 79 33 24 34 25 35
REMARK SMILES IDX 26 36 73 37 27 38 78 39 72 40 74 41 28 42 77 43 71 44 70 45
REMARK SMILES IDX 29 47 59 48 40 49 58 50 41 51 44 52 57 53 75 54 42 55 43 56
REMARK SMILES IDX 56 58 76 59 45 60 30 61 31 62 39 63 32 64 38 65 33 66 34 67
REMARK SMILES IDX 35 68 36 69 37 70 60 71 61 72 69 73 62 74 68 75 63 76 64 77
REMARK SMILES IDX 65 78 66 79 67 80 46 81 47 82 55 83 48 84 54 85 49 86 50 87
REMARK SMILES IDX 51 88 52 89 53 90
REMARK H PARENT 11 7 5 12 18 27 74 46 44 57
REMARK Flexibility Score: inf
ROOT
ATOM      1  C   UNL A   1      31.443  27.515  25.617  1.00  0.00     0.002 C 
ENDROOT
BRANCH   1   2
ATOM      2  C   UNL A   1      30.752  26.256  26.151  1.00  0.00     0.021 C 
BRANCH   2   3
ATOM      3  C   UNL A   1      31.732  25.102  26.349  1.00  0.00     0.116 C 
BRANCH   3   4
ATOM      4  N   UNL A   1      31.024  23.839  26.272  1.00  0.00    -0.356 N 
ATOM      5  C   UNL A   1      31.488  22.590  25.997  1.00  0.00     0.228 C 
ATOM      6  O   UNL A   1      30.658  21.699  25.801  1.00  0.00    -0.275 OA
ATOM      7  H   UNL A   1      30.056  23.896  26.445  1.00  0.00     0.163 HD
BRANCH   5   8
ATOM      8  C   UNL A   1      32.981  22.276  26.028  1.00  0.00     0.130 C 
ATOM      9  C   UNL A   1      33.561  22.952  27.266  1.00  0.00     0.024 C 
BRANCH   8  10
ATOM     10  C   UNL A   1      33.652  22.510  24.650  1.00  0.00     0.275 C 
BRANCH  10  11
ATOM     11  N   UNL A   1      34.523  23.674  24.398  1.00  0.00    -0.332 N 
ATOM     12  H   UNL A   1      34.446  24.207  25.265  1.00  0.00     0.348 HD
BRANCH  11  13
ATOM     13  C   UNL A   1      33.993  24.562  23.356  1.00  0.00     0.265 C 
BRANCH  13  14
ATOM     14  C   UNL A   1      32.788  24.082  22.501  1.00  0.00     0.038 C 
ATOM     15  C   UNL A   1      31.461  24.780  22.807  1.00  0.00     0.013 C 
ATOM     16  C   UNL A   1      33.110  24.332  21.018  1.00  0.00     0.013 C 
ENDBRANCH  13  14
ENDBRANCH  11  13
BRANCH  11  17
ATOM     17  C   UNL A   1      35.976  23.527  24.511  1.00  0.00     0.184 C 
ATOM     18  C   UNL A   1      36.663  23.897  25.844  1.00  0.00     0.065 C 
ATOM     19  C   UNL A   1      36.609  22.186  24.091  1.00  0.00     0.065 C 
ATOM     20  C   UNL A   1      37.982  23.134  25.820  1.00  0.00     0.006 C 
ATOM     21  C   UNL A   1      37.611  21.812  25.176  1.00  0.00     0.006 C 
ENDBRANCH  11  17
ENDBRANCH  10  11
ENDBRANCH   8  10
ENDBRANCH   5   8
ENDBRANCH   3   4
ENDBRANCH   2   3
ENDBRANCH   1   2
BRANCH   1  22
ATOM     22  C   UNL A   1      32.879  27.277  25.137  1.00  0.00     0.002 C 
BRANCH  22  23
ATOM     23  C   UNL A   1      33.934  28.098  25.883  1.00  0.00     0.021 C 
BRANCH  23  24
ATOM     24  C   UNL A   1      33.531  28.465  27.306  1.00  0.00     0.116 C 
BRANCH  24  25
ATOM     25  N   UNL A   1      33.483  29.909  27.488  1.00  0.00    -0.352 N 
ATOM     26  C   UNL A   1      34.406  30.732  28.075  1.00  0.00     0.251 C 
ATOM     27  H   UNL A   1      32.676  30.353  27.143  1.00  0.00     0.163 HD
ATOM     28  O   UNL A   1      34.102  31.885  28.379  1.00  0.00    -0.269 OA
BRANCH  26  29
ATOM     29  C   UNL A   1      35.761  30.219  28.346  1.00  0.00     0.039 A 
ATOM     30  C   UNL A   1      36.719  30.255  27.332  1.00  0.00     0.014 A 
ATOM     31  C   UNL A   1      36.082  29.713  29.609  1.00  0.00     0.014 A 
ATOM     32  C   UNL A   1      38.019  29.828  27.602  1.00  0.00     0.010 A 
ATOM     33  C   UNL A   1      37.395  29.365  29.899  1.00  0.00     0.010 A 
ATOM     34  C   UNL A   1      38.374  29.409  28.895  1.00  0.00    -0.014 A 
BRANCH  34  35
ATOM     35  C   UNL A   1      39.768  29.017  29.218  1.00  0.00     0.031 A 
ATOM     36  C   UNL A   1      40.700  30.003  29.867  1.00  0.00     0.074 A 
ATOM     37  C   UNL A   1      40.210  27.795  28.870  1.00  0.00     0.049 A 
ATOM     38  N   UNL A   1      41.959  29.857  30.189  1.00  0.00    -0.248 NA
ATOM     39  C   UNL A   1      40.153  31.337  30.167  1.00  0.00     0.031 C 
ATOM     40  C   UNL A   1      39.414  26.768  28.192  1.00  0.00     0.029 A 
ATOM     41  N   UNL A   1      41.440  27.208  29.031  1.00  0.00    -0.354 N 
ATOM     42  C   UNL A   1      42.358  31.080  30.716  1.00  0.00     0.074 A 
ATOM     43  C   UNL A   1      41.225  31.973  30.614  1.00  0.00     0.031 C 
ATOM     44  C   UNL A   1      40.167  25.670  28.023  1.00  0.00     0.029 A 
ATOM     45  C   UNL A   1      41.508  25.928  28.536  1.00  0.00     0.049 A 
ATOM     46  H   UNL A   1      42.201  27.661  29.461  1.00  0.00     0.167 HD
ATOM     47  C   UNL A   1      43.553  31.423  31.255  1.00  0.00     0.031 A 
ATOM     48  C   UNL A   1      42.537  25.060  28.490  1.00  0.00     0.031 A 
ATOM     49  C   UNL A   1      44.677  30.529  31.345  1.00  0.00     0.049 A 
ATOM     50  C   UNL A   1      43.860  25.463  29.079  1.00  0.00     0.074 A 
ATOM     51  C   UNL A   1      45.915  30.760  31.919  1.00  0.00     0.029 A 
ATOM     52  N   UNL A   1      44.706  29.238  30.837  1.00  0.00    -0.354 N 
ATOM     53  N   UNL A   1      44.197  26.598  29.643  1.00  0.00    -0.248 NA
ATOM     54  C   UNL A   1      44.935  24.464  29.039  1.00  0.00     0.031 C 
ATOM     55  C   UNL A   1      46.713  29.631  31.701  1.00  0.00     0.029 A 
ATOM     56  C   UNL A   1      45.951  28.670  31.055  1.00  0.00     0.049 A 
ATOM     57  H   UNL A   1      43.953  28.792  30.387  1.00  0.00     0.167 HD
ATOM     58  C   UNL A   1      45.520  26.444  30.045  1.00  0.00     0.074 A 
ATOM     59  C   UNL A   1      45.911  25.098  29.675  1.00  0.00     0.031 C 
ATOM     60  C   UNL A   1      46.332  27.334  30.668  1.00  0.00     0.031 A 
BRANCH  47  61
ATOM     61  C   UNL A   1      43.701  32.834  31.766  1.00  0.00    -0.014 A 
ATOM     62  C   UNL A   1      43.423  33.159  33.107  1.00  0.00     0.010 A 
ATOM     63  C   UNL A   1      44.129  33.851  30.894  1.00  0.00     0.010 A 
ATOM     64  C   UNL A   1      43.507  34.482  33.549  1.00  0.00     0.020 A 
ATOM     65  C   UNL A   1      44.249  35.171  31.341  1.00  0.00     0.020 A 
ATOM     66  C   UNL A   1      43.912  35.482  32.660  1.00  0.00     0.054 A 
BRANCH  66  67
ATOM     67  S   UNL A   1      44.001  37.192  33.257  1.00  0.00     0.124 S 
ATOM     68  O   UNL A   1      42.782  37.293  34.057  1.00  0.00    -0.237 OA
ATOM     69  O   UNL A   1      45.251  37.203  34.013  1.00  0.00    -0.237 OA
ATOM     70  O   UNL A   1      44.009  37.987  32.032  1.00  0.00    -0.744 OA
ENDBRANCH  66  67
ENDBRANCH  47  61
BRANCH  48  71
ATOM     71  C   UNL A   1      42.336  23.719  27.876  1.00  0.00    -0.014 A 
ATOM     72  C   UNL A   1      42.620  23.504  26.517  1.00  0.00     0.010 A 
ATOM     73  C   UNL A   1      41.912  22.635  28.666  1.00  0.00     0.010 A 
ATOM     74  C   UNL A   1      42.484  22.228  25.959  1.00  0.00     0.020 A 
ATOM     75  C   UNL A   1      41.802  21.354  28.119  1.00  0.00     0.020 A 
ATOM     76  C   UNL A   1      42.084  21.160  26.767  1.00  0.00     0.054 A 
BRANCH  76  77
ATOM     77  S   UNL A   1      42.000  19.499  26.040  1.00  0.00     0.124 S 
ATOM     78  O   UNL A   1      42.854  19.637  24.865  1.00  0.00    -0.237 OA
ATOM     79  O   UNL A   1      42.529  18.660  27.112  1.00  0.00    -0.237 OA
ATOM     80  O   UNL A   1      40.576  19.320  25.763  1.00  0.00    -0.744 OA
ENDBRANCH  76  77
ENDBRANCH  48  71
BRANCH  60  81
ATOM     81  C   UNL A   1      47.725  26.876  31.013  1.00  0.00    -0.014 A 
ATOM     82  C   UNL A   1      47.967  26.033  32.113  1.00  0.00     0.010 A 
ATOM     83  C   UNL A   1      48.802  27.251  30.188  1.00  0.00     0.010 A 
ATOM     84  C   UNL A   1      49.266  25.602  32.400  1.00  0.00     0.020 A 
ATOM     85  C   UNL A   1      50.096  26.796  30.453  1.00  0.00     0.020 A 
ATOM     86  C   UNL A   1      50.321  25.985  31.567  1.00  0.00     0.054 A 
BRANCH  86  87
ATOM     87  S   UNL A   1      51.989  25.375  31.935  1.00  0.00     0.124 S 
ATOM     88  O   UNL A   1      52.338  26.143  33.128  1.00  0.00    -0.237 OA
ATOM     89  O   UNL A   1      51.767  23.946  32.150  1.00  0.00    -0.237 OA
ATOM     90  O   UNL A   1      52.754  25.707  30.736  1.00  0.00    -0.744 OA
ENDBRANCH  86  87
ENDBRANCH  60  81
ENDBRANCH  34  35
ENDBRANCH  26  29
ENDBRANCH  24  25
ENDBRANCH  23  24
ENDBRANCH  22  23
ENDBRANCH   1  22
TORSDOF 21
ENDMDL
MODEL 3
REMARK VINA RESULT:      -9.2      3.645      7.101
REMARK SMILES CC(C)C[N@@H+](C[C@@H](C)C(=O)NCCCCCCNC(=O)c1ccc(-c2c3nc(c(-c4ccc(S(=O)(=O)[O-])cc4)c4ccc([nH]4)c(-c4ccc(S(=O)(=O)[O-])cc4)c4nc(c(-c5ccc(S(=O)(=O)[O-])cc5)c5ccc2[nH]5)C=C4)C=C3)cc1)C1CCCC1
REMARK SMILES IDX 14 1 13 2 12 3 11 4 9 5 10 6 7 8 8 9 6 10 5 11 4 13 2 14
REMARK SMILES IDX 1 15 3 16 81 17 82 18 85 19 83 20 84 21 15 22 16 23 17 24
REMARK SMILES IDX 18 25 19 26 20 28 21 29 22 30 80 31 23 32 79 33 24 34 25 35
REMARK SMILES IDX 26 36 73 37 27 38 78 39 72 40 74 41 28 42 77 43 71 44 70 45
REMARK SMILES IDX 29 47 59 48 40 49 58 50 41 51 44 52 57 53 75 54 42 55 43 56
REMARK SMILES IDX 56 58 76 59 45 60 30 61 31 62 39 63 32 64 38 65 33 66 34 67
REMARK SMILES IDX 35 68 36 69 37 70 60 71 61 72 69 73 62 74 68 75 63 76 64 77
REMARK SMILES IDX 65 78 66 79 67 80 46 81 47 82 55 83 48 84 54 85 49 86 50 87
REMARK SMILES IDX 51 88 52 89 53 90
REMARK H PARENT 11 7 5 12 18 27 74 46 44 57
REMARK Flexibility Score: inf
ROOT
ATOM      1  C   UNL A   1      34.530  33.788  31.845  1.00  0.00     0.002 C 
ENDROOT
BRANCH   1   2
ATOM      2  C   UNL A   1      34.822  34.926  32.829  1.00  0.00     0.021 C 
BRANCH   2   3
ATOM      3  C   UNL A   1      35.484  34.423  34.110  1.00  0.00     0.116 C 
BRANCH   3   4
ATOM      4  N   UNL A   1      36.006  33.087  33.900  1.00  0.00    -0.356 N 
ATOM      5  C   UNL A   1      37.258  32.680  33.556  1.00  0.00     0.228 C 
ATOM      6  O   UNL A   1      37.413  31.495  33.249  1.00  0.00    -0.275 OA
ATOM      7  H   UNL A   1      35.352  32.362  34.025  1.00  0.00     0.163 HD
BRANCH   5   8
ATOM      8  C   UNL A   1      38.450  33.629  33.643  1.00  0.00     0.130 C 
ATOM      9  C   UNL A   1      38.537  34.371  32.314  1.00  0.00     0.024 C 
BRANCH   8  10
ATOM     10  C   UNL A   1      39.713  32.926  34.205  1.00  0.00     0.275 C 
BRANCH  10  11
ATOM     11  N   UNL A   1      39.648  32.040  35.383  1.00  0.00    -0.332 N 
ATOM     12  H   UNL A   1      38.692  31.685  35.349  1.00  0.00     0.348 HD
BRANCH  11  13
ATOM     13  C   UNL A   1      39.735  32.777  36.651  1.00  0.00     0.265 C 
BRANCH  13  14
ATOM     14  C   UNL A   1      38.603  32.601  37.701  1.00  0.00     0.038 C 
ATOM     15  C   UNL A   1      38.956  33.068  39.114  1.00  0.00     0.013 C 
ATOM     16  C   UNL A   1      37.378  33.408  37.239  1.00  0.00     0.013 C 
ENDBRANCH  13  14
ENDBRANCH  11  13
BRANCH  11  17
ATOM     17  C   UNL A   1      40.244  30.703  35.316  1.00  0.00     0.184 C 
ATOM     18  C   UNL A   1      40.334  29.994  33.948  1.00  0.00     0.065 C 
ATOM     19  C   UNL A   1      41.621  30.485  35.974  1.00  0.00     0.065 C 
ATOM     20  C   UNL A   1      41.444  28.964  34.122  1.00  0.00     0.006 C 
ATOM     21  C   UNL A   1      42.460  29.687  34.984  1.00  0.00     0.006 C 
ENDBRANCH  11  17
ENDBRANCH  10  11
ENDBRANCH   8  10
ENDBRANCH   5   8
ENDBRANCH   3   4
ENDBRANCH   2   3
ENDBRANCH   1   2
BRANCH   1  22
ATOM     22  C   UNL A   1      35.404  33.819  30.586  1.00  0.00     0.002 C 
BRANCH  22  23
ATOM     23  C   UNL A   1      34.622  34.013  29.284  1.00  0.00     0.021 C 
BRANCH  23  24
ATOM     24  C   UNL A   1      35.064  33.084  28.160  1.00  0.00     0.116 C 
BRANCH  24  25
ATOM     25  N   UNL A   1      34.118  31.994  27.969  1.00  0.00    -0.352 N 
ATOM     26  C   UNL A   1      34.366  30.654  27.835  1.00  0.00     0.251 C 
ATOM     27  H   UNL A   1      33.170  32.257  27.929  1.00  0.00     0.163 HD
ATOM     28  O   UNL A   1      33.484  29.900  27.424  1.00  0.00    -0.269 OA
BRANCH  26  29
ATOM     29  C   UNL A   1      35.700  30.130  28.179  1.00  0.00     0.039 A 
ATOM     30  C   UNL A   1      36.691  30.092  27.199  1.00  0.00     0.014 A 
ATOM     31  C   UNL A   1      35.967  29.685  29.478  1.00  0.00     0.014 A 
ATOM     32  C   UNL A   1      37.972  29.654  27.534  1.00  0.00     0.010 A 
ATOM     33  C   UNL A   1      37.262  29.326  29.830  1.00  0.00     0.010 A 
ATOM     34  C   UNL A   1      38.275  29.297  28.859  1.00  0.00    -0.014 A 
BRANCH  34  35
ATOM     35  C   UNL A   1      39.647  28.895  29.251  1.00  0.00     0.031 A 
ATOM     36  C   UNL A   1      40.541  29.862  29.977  1.00  0.00     0.074 A 
ATOM     37  C   UNL A   1      40.109  27.681  28.895  1.00  0.00     0.049 A 
ATOM     38  N   UNL A   1      41.779  29.705  30.367  1.00  0.00    -0.248 NA
ATOM     39  C   UNL A   1      39.978  31.188  30.282  1.00  0.00     0.031 C 
ATOM     40  C   UNL A   1      39.353  26.675  28.147  1.00  0.00     0.029 A 
ATOM     41  N   UNL A   1      41.328  27.089  29.110  1.00  0.00    -0.354 N 
ATOM     42  C   UNL A   1      42.148  30.913  30.948  1.00  0.00     0.074 A 
ATOM     43  C   UNL A   1      41.023  31.810  30.806  1.00  0.00     0.031 C 
ATOM     44  C   UNL A   1      40.114  25.580  27.991  1.00  0.00     0.029 A 
ATOM     45  C   UNL A   1      41.424  25.822  28.586  1.00  0.00     0.049 A 
ATOM     46  H   UNL A   1      42.063  27.529  29.595  1.00  0.00     0.167 HD
ATOM     47  C   UNL A   1      43.310  31.240  31.563  1.00  0.00     0.031 A 
ATOM     48  C   UNL A   1      42.454  24.954  28.576  1.00  0.00     0.031 A 
ATOM     49  C   UNL A   1      44.428  30.343  31.693  1.00  0.00     0.049 A 
ATOM     50  C   UNL A   1      43.741  25.339  29.249  1.00  0.00     0.074 A 
ATOM     51  C   UNL A   1      45.631  30.556  32.342  1.00  0.00     0.029 A 
ATOM     52  N   UNL A   1      44.485  29.065  31.152  1.00  0.00    -0.354 N 
ATOM     53  N   UNL A   1      44.046  26.459  29.862  1.00  0.00    -0.248 NA
ATOM     54  C   UNL A   1      44.817  24.341  29.244  1.00  0.00     0.031 C 
ATOM     55  C   UNL A   1      46.440  29.432  32.140  1.00  0.00     0.029 A 
ATOM     56  C   UNL A   1      45.716  28.490  31.426  1.00  0.00     0.049 A 
ATOM     57  H   UNL A   1      43.759  28.632  30.649  1.00  0.00     0.167 HD
ATOM     58  C   UNL A   1      45.343  26.292  30.334  1.00  0.00     0.074 A 
ATOM     59  C   UNL A   1      45.756  24.956  29.950  1.00  0.00     0.031 C 
ATOM     60  C   UNL A   1      46.119  27.164  31.025  1.00  0.00     0.031 A 
BRANCH  47  61
ATOM     61  C   UNL A   1      43.429  32.637  32.119  1.00  0.00    -0.014 A 
ATOM     62  C   UNL A   1      43.188  32.905  33.480  1.00  0.00     0.010 A 
ATOM     63  C   UNL A   1      43.791  33.698  31.270  1.00  0.00     0.010 A 
ATOM     64  C   UNL A   1      43.243  34.214  33.966  1.00  0.00     0.020 A 
ATOM     65  C   UNL A   1      43.883  35.005  31.760  1.00  0.00     0.020 A 
ATOM     66  C   UNL A   1      43.583  35.257  33.100  1.00  0.00     0.054 A 
BRANCH  66  67
ATOM     67  S   UNL A   1      43.635  36.948  33.755  1.00  0.00     0.124 S 
ATOM     68  O   UNL A   1      43.790  37.737  32.535  1.00  0.00    -0.237 OA
ATOM     69  O   UNL A   1      42.342  37.072  34.424  1.00  0.00    -0.237 OA
ATOM     70  O   UNL A   1      44.794  36.940  34.643  1.00  0.00    -0.744 OA
ENDBRANCH  66  67
ENDBRANCH  47  61
BRANCH  48  71
ATOM     71  C   UNL A   1      42.288  23.630  27.915  1.00  0.00    -0.014 A 
ATOM     72  C   UNL A   1      42.826  23.395  26.639  1.00  0.00     0.010 A 
ATOM     73  C   UNL A   1      41.639  22.580  28.589  1.00  0.00     0.010 A 
ATOM     74  C   UNL A   1      42.716  22.132  26.047  1.00  0.00     0.020 A 
ATOM     75  C   UNL A   1      41.553  21.309  28.013  1.00  0.00     0.020 A 
ATOM     76  C   UNL A   1      42.088  21.095  26.743  1.00  0.00     0.054 A 
BRANCH  76  77
ATOM     77  S   UNL A   1      42.037  19.444  25.992  1.00  0.00     0.124 S 
ATOM     78  O   UNL A   1      42.560  18.605  27.065  1.00  0.00    -0.237 OA
ATOM     79  O   UNL A   1      40.617  19.279  25.694  1.00  0.00    -0.237 OA
ATOM     80  O   UNL A   1      42.901  19.575  24.820  1.00  0.00    -0.744 OA
ENDBRANCH  76  77
ENDBRANCH  48  71
BRANCH  60  81
ATOM     81  C   UNL A   1      47.490  26.695  31.437  1.00  0.00    -0.014 A 
ATOM     82  C   UNL A   1      48.618  26.933  30.630  1.00  0.00     0.010 A 
ATOM     83  C   UNL A   1      47.660  26.054  32.679  1.00  0.00     0.010 A 
ATOM     84  C   UNL A   1      49.884  26.510  31.044  1.00  0.00     0.020 A 
ATOM     85  C   UNL A   1      48.929  25.659  33.109  1.00  0.00     0.020 A 
ATOM     86  C   UNL A   1      50.031  25.877  32.282  1.00  0.00     0.054 A 
BRANCH  86  87
ATOM     87  S   UNL A   1      51.691  25.378  32.815  1.00  0.00     0.124 S 
ATOM     88  O   UNL A   1      51.781  25.987  34.140  1.00  0.00    -0.237 OA
ATOM     89  O   UNL A   1      51.608  23.919  32.799  1.00  0.00    -0.237 OA
ATOM     90  O   UNL A   1      52.570  25.957  31.803  1.00  0.00    -0.744 OA
ENDBRANCH  86  87
ENDBRANCH  60  81
ENDBRANCH  34  35
ENDBRANCH  26  29
ENDBRANCH  24  25
ENDBRANCH  23  24
ENDBRANCH  22  23
ENDBRANCH   1  22
TORSDOF 21
ENDMDL
