MODEL 1
REMARK VINA RESULT:     -11.3      0.000      0.000
REMARK SMILES O=C(NCCCCCCNC(=O)[C@H]1CC[C@H](CN2C(=O)c3cccnc3C2=O)O1)c1ccc(-c2c3nc(c(-c4ccc(S(=O)(=O)[O-])cc4)c4ccc([nH]4)c(-c4ccc(S(=O)(=O)[O-])cc4)c4nc(c(-c5ccc(S(=O)(=O)[O-])cc5)c5ccc2[nH]5)C=C4)C=C3)cc1
REMARK SMILES IDX 6 1 5 2 4 3 3 4 1 5 2 6 30 8 31 9 89 10 32 11 88 12 33 13
REMARK SMILES IDX 34 14 35 15 82 16 36 17 87 18 81 19 83 20 37 21 86 22 80 23
REMARK SMILES IDX 79 24 38 26 68 27 49 28 67 29 50 30 53 31 66 32 84 33 51 34
REMARK SMILES IDX 52 35 65 37 85 38 54 39 39 40 40 41 48 42 41 43 47 44 42 45
REMARK SMILES IDX 43 46 44 47 45 48 46 49 69 50 70 51 78 52 71 53 77 54 72 55
REMARK SMILES IDX 73 56 74 57 75 58 76 59 55 60 56 61 64 62 57 63 63 64 58 65
REMARK SMILES IDX 59 66 60 67 61 68 62 69 7 70 8 71 9 72 10 73 11 74 12 76
REMARK SMILES IDX 13 77 14 78 29 79 15 80 16 81 17 82 18 83 19 84 27 85 20 86
REMARK SMILES IDX 21 87 26 88 28 89 22 90 25 91 23 92 24 93
REMARK H PARENT 3 7 83 25 53 36 10 75
REMARK Flexibility Score: inf
ROOT
ATOM      1  C   UNL A   1      32.791  28.812  24.842  1.00  0.00     0.002 C 
ENDROOT
BRANCH   1   2
ATOM      2  C   UNL A   1      33.272  27.737  25.815  1.00  0.00     0.021 C 
BRANCH   2   3
ATOM      3  C   UNL A   1      34.200  28.244  26.908  1.00  0.00     0.116 C 
BRANCH   3   4
ATOM      4  N   UNL A   1      33.850  29.583  27.356  1.00  0.00    -0.352 N 
ATOM      5  O   UNL A   1      34.078  31.481  28.554  1.00  0.00    -0.269 OA
ATOM      6  C   UNL A   1      34.590  30.457  28.115  1.00  0.00     0.251 C 
ATOM      7  H   UNL A   1      32.964  29.907  27.075  1.00  0.00     0.163 HD
BRANCH   6   8
ATOM      8  C   UNL A   1      36.001  30.134  28.416  1.00  0.00     0.039 A 
ATOM      9  C   UNL A   1      36.972  30.230  27.416  1.00  0.00     0.014 A 
ATOM     10  C   UNL A   1      36.351  29.717  29.701  1.00  0.00     0.014 A 
ATOM     11  C   UNL A   1      38.259  29.769  27.660  1.00  0.00     0.010 A 
ATOM     12  C   UNL A   1      37.672  29.351  29.973  1.00  0.00     0.010 A 
ATOM     13  C   UNL A   1      38.632  29.353  28.948  1.00  0.00    -0.014 A 
BRANCH  13  14
ATOM     14  C   UNL A   1      40.054  29.016  29.213  1.00  0.00     0.031 A 
ATOM     15  C   UNL A   1      40.634  27.686  28.819  1.00  0.00     0.074 A 
ATOM     16  C   UNL A   1      40.828  29.946  29.807  1.00  0.00     0.049 A 
ATOM     17  N   UNL A   1      41.860  27.252  28.970  1.00  0.00    -0.248 NA
ATOM     18  C   UNL A   1      39.730  26.717  28.181  1.00  0.00     0.031 C 
ATOM     19  C   UNL A   1      40.369  31.272  30.239  1.00  0.00     0.029 A 
ATOM     20  N   UNL A   1      42.158  29.937  30.133  1.00  0.00    -0.354 N 
ATOM     21  C   UNL A   1      41.873  25.957  28.465  1.00  0.00     0.074 A 
ATOM     22  C   UNL A   1      40.524  25.666  28.026  1.00  0.00     0.031 C 
ATOM     23  C   UNL A   1      41.410  31.963  30.723  1.00  0.00     0.029 A 
ATOM     24  C   UNL A   1      42.589  31.107  30.713  1.00  0.00     0.049 A 
ATOM     25  H   UNL A   1      42.749  29.167  29.968  1.00  0.00     0.167 HD
ATOM     26  C   UNL A   1      42.915  25.094  28.374  1.00  0.00     0.031 A 
ATOM     27  C   UNL A   1      43.791  31.451  31.210  1.00  0.00     0.031 A 
ATOM     28  C   UNL A   1      44.250  25.393  28.827  1.00  0.00     0.049 A 
ATOM     29  C   UNL A   1      44.913  30.457  31.141  1.00  0.00     0.074 A 
ATOM     30  C   UNL A   1      45.381  24.597  28.752  1.00  0.00     0.029 A 
ATOM     31  N   UNL A   1      44.636  26.572  29.448  1.00  0.00    -0.354 N 
ATOM     32  N   UNL A   1      44.914  29.253  30.622  1.00  0.00    -0.248 NA
ATOM     33  C   UNL A   1      46.196  30.868  31.723  1.00  0.00     0.031 C 
ATOM     34  C   UNL A   1      46.432  25.267  29.388  1.00  0.00     0.029 A 
ATOM     35  C   UNL A   1      45.978  26.512  29.791  1.00  0.00     0.049 A 
ATOM     36  H   UNL A   1      44.043  27.340  29.619  1.00  0.00     0.167 HD
ATOM     37  C   UNL A   1      46.205  28.770  30.793  1.00  0.00     0.074 A 
ATOM     38  C   UNL A   1      46.960  29.822  31.444  1.00  0.00     0.031 C 
ATOM     39  C   UNL A   1      46.717  27.564  30.444  1.00  0.00     0.031 A 
BRANCH  26  40
ATOM     40  C   UNL A   1      42.650  23.728  27.790  1.00  0.00    -0.014 A 
ATOM     41  C   UNL A   1      42.865  23.461  26.426  1.00  0.00     0.010 A 
ATOM     42  C   UNL A   1      42.240  22.678  28.633  1.00  0.00     0.010 A 
ATOM     43  C   UNL A   1      42.636  22.181  25.909  1.00  0.00     0.020 A 
ATOM     44  C   UNL A   1      42.040  21.390  28.127  1.00  0.00     0.020 A 
ATOM     45  C   UNL A   1      42.224  21.154  26.764  1.00  0.00     0.054 A 
BRANCH  45  46
ATOM     46  S   UNL A   1      41.961  19.499  26.068  1.00  0.00     0.124 S 
ATOM     47  O   UNL A   1      40.511  19.477  25.887  1.00  0.00    -0.237 OA
ATOM     48  O   UNL A   1      42.745  19.541  24.837  1.00  0.00    -0.237 OA
ATOM     49  O   UNL A   1      42.471  18.600  27.101  1.00  0.00    -0.744 OA
ENDBRANCH  45  46
ENDBRANCH  26  40
BRANCH  27  50
ATOM     50  C   UNL A   1      43.978  32.789  31.834  1.00  0.00    -0.014 A 
ATOM     51  C   UNL A   1      44.363  33.896  31.059  1.00  0.00     0.010 A 
ATOM     52  C   UNL A   1      43.746  32.965  33.212  1.00  0.00     0.010 A 
ATOM     53  C   UNL A   1      44.533  35.149  31.654  1.00  0.00     0.020 A 
ATOM     54  C   UNL A   1      43.878  34.224  33.803  1.00  0.00     0.020 A 
ATOM     55  C   UNL A   1      44.285  35.305  33.022  1.00  0.00     0.054 A 
BRANCH  55  56
ATOM     56  S   UNL A   1      44.470  36.951  33.761  1.00  0.00     0.124 S 
ATOM     57  O   UNL A   1      44.220  36.679  35.172  1.00  0.00    -0.237 OA
ATOM     58  O   UNL A   1      45.846  37.297  33.415  1.00  0.00    -0.237 OA
ATOM     59  O   UNL A   1      43.447  37.746  33.085  1.00  0.00    -0.744 OA
ENDBRANCH  55  56
ENDBRANCH  27  50
BRANCH  39  60
ATOM     60  C   UNL A   1      48.178  27.330  30.725  1.00  0.00    -0.014 A 
ATOM     61  C   UNL A   1      49.171  27.694  29.798  1.00  0.00     0.010 A 
ATOM     62  C   UNL A   1      48.564  26.775  31.959  1.00  0.00     0.010 A 
ATOM     63  C   UNL A   1      50.521  27.471  30.085  1.00  0.00     0.020 A 
ATOM     64  C   UNL A   1      49.913  26.582  32.263  1.00  0.00     0.020 A 
ATOM     65  C   UNL A   1      50.883  26.919  31.317  1.00  0.00     0.054 A 
BRANCH  65  66
ATOM     66  S   UNL A   1      52.643  26.681  31.681  1.00  0.00     0.124 S 
ATOM     67  O   UNL A   1      52.748  25.225  31.739  1.00  0.00    -0.237 OA
ATOM     68  O   UNL A   1      53.295  27.313  30.538  1.00  0.00    -0.237 OA
ATOM     69  O   UNL A   1      52.830  27.369  32.957  1.00  0.00    -0.744 OA
ENDBRANCH  65  66
ENDBRANCH  39  60
ENDBRANCH  13  14
ENDBRANCH   6   8
ENDBRANCH   3   4
ENDBRANCH   2   3
ENDBRANCH   1   2
BRANCH   1  70
ATOM     70  C   UNL A   1      31.274  28.868  24.636  1.00  0.00     0.002 C 
BRANCH  70  71
ATOM     71  C   UNL A   1      30.810  28.892  23.176  1.00  0.00     0.021 C 
BRANCH  71  72
ATOM     72  C   UNL A   1      30.623  27.517  22.548  1.00  0.00     0.116 C 
BRANCH  72  73
ATOM     73  N   UNL A   1      31.809  27.079  21.840  1.00  0.00    -0.354 N 
ATOM     74  C   UNL A   1      32.658  26.054  22.146  1.00  0.00     0.249 C 
ATOM     75  H   UNL A   1      32.033  27.590  21.027  1.00  0.00     0.163 HD
ATOM     76  O   UNL A   1      33.607  25.841  21.393  1.00  0.00    -0.272 OA
BRANCH  74  77
ATOM     77  C   UNL A   1      32.378  25.216  23.412  1.00  0.00     0.207 C 
ATOM     78  C   UNL A   1      31.690  23.905  23.064  1.00  0.00     0.045 C 
ATOM     79  O   UNL A   1      33.581  24.850  24.103  1.00  0.00    -0.363 OA
ATOM     80  C   UNL A   1      32.865  23.004  22.791  1.00  0.00     0.037 C 
ATOM     81  C   UNL A   1      33.880  23.466  23.829  1.00  0.00     0.139 C 
BRANCH  81  82
ATOM     82  C   UNL A   1      33.809  22.695  25.160  1.00  0.00     0.161 C 
BRANCH  82  83
ATOM     83  N   UNL A   1      33.725  21.258  24.982  1.00  0.00    -0.270 N 
ATOM     84  C   UNL A   1      34.802  20.452  24.737  1.00  0.00     0.263 C 
ATOM     85  C   UNL A   1      32.565  20.538  25.112  1.00  0.00     0.280 C 
ATOM     86  O   UNL A   1      35.970  20.749  24.591  1.00  0.00    -0.269 OA
ATOM     87  C   UNL A   1      34.301  19.085  24.713  1.00  0.00     0.071 A 
ATOM     88  C   UNL A   1      32.947  19.130  24.944  1.00  0.00     0.141 A 
ATOM     89  O   UNL A   1      31.448  20.959  25.345  1.00  0.00    -0.267 OA
ATOM     90  C   UNL A   1      34.935  17.872  24.551  1.00  0.00     0.018 A 
ATOM     91  N   UNL A   1      32.131  18.066  25.045  1.00  0.00    -0.250 NA
ATOM     92  C   UNL A   1      34.133  16.732  24.644  1.00  0.00     0.021 A 
ATOM     93  C   UNL A   1      32.760  16.876  24.891  1.00  0.00     0.112 A 
ENDBRANCH  82  83
ENDBRANCH  81  82
ENDBRANCH  74  77
ENDBRANCH  72  73
ENDBRANCH  71  72
ENDBRANCH  70  71
ENDBRANCH   1  70
TORSDOF 18
ENDMDL
MODEL 2
REMARK VINA RESULT:     -11.2      2.289      8.175
REMARK SMILES O=C(NCCCCCCNC(=O)[C@H]1CC[C@H](CN2C(=O)c3cccnc3C2=O)O1)c1ccc(-c2c3nc(c(-c4ccc(S(=O)(=O)[O-])cc4)c4ccc([nH]4)c(-c4ccc(S(=O)(=O)[O-])cc4)c4nc(c(-c5ccc(S(=O)(=O)[O-])cc5)c5ccc2[nH]5)C=C4)C=C3)cc1
REMARK SMILES IDX 6 1 5 2 4 3 3 4 1 5 2 6 30 8 31 9 89 10 32 11 88 12 33 13
REMARK SMILES IDX 34 14 35 15 82 16 36 17 87 18 81 19 83 20 37 21 86 22 80 23
REMARK SMILES IDX 79 24 38 26 68 27 49 28 67 29 50 30 53 31 66 32 84 33 51 34
REMARK SMILES IDX 52 35 65 37 85 38 54 39 39 40 40 41 48 42 41 43 47 44 42 45
REMARK SMILES IDX 43 46 44 47 45 48 46 49 69 50 70 51 78 52 71 53 77 54 72 55
REMARK SMILES IDX 73 56 74 57 75 58 76 59 55 60 56 61 64 62 57 63 63 64 58 65
REMARK SMILES IDX 59 66 60 67 61 68 62 69 7 70 8 71 9 72 10 73 11 74 12 76
REMARK SMILES IDX 13 77 14 78 29 79 15 80 16 81 17 82 18 83 19 84 27 85 20 86
REMARK SMILES IDX 21 87 26 88 28 89 22 90 25 91 23 92 24 93
REMARK H PARENT 3 7 83 25 53 36 10 75
REMARK Flexibility Score: inf
ROOT
ATOM      1  C   UNL A   1      32.690  29.366  24.564  1.00  0.00     0.002 C 
ENDROOT
BRANCH   1   2
ATOM      2  C   UNL A   1      33.625  28.379  25.262  1.00  0.00     0.021 C 
BRANCH   2   3
ATOM      3  C   UNL A   1      34.349  28.945  26.475  1.00  0.00     0.116 C 
BRANCH   3   4
ATOM      4  N   UNL A   1      33.924  30.298  26.793  1.00  0.00    -0.352 N 
ATOM      5  O   UNL A   1      33.858  32.210  27.990  1.00  0.00    -0.269 OA
ATOM      6  C   UNL A   1      34.445  31.167  27.721  1.00  0.00     0.251 C 
ATOM      7  H   UNL A   1      33.161  30.637  26.273  1.00  0.00     0.163 HD
BRANCH   6   8
ATOM      8  C   UNL A   1      35.706  30.817  28.408  1.00  0.00     0.039 A 
ATOM      9  C   UNL A   1      36.871  31.544  28.152  1.00  0.00     0.014 A 
ATOM     10  C   UNL A   1      35.727  29.744  29.302  1.00  0.00     0.014 A 
ATOM     11  C   UNL A   1      38.082  31.109  28.671  1.00  0.00     0.010 A 
ATOM     12  C   UNL A   1      36.930  29.372  29.906  1.00  0.00     0.010 A 
ATOM     13  C   UNL A   1      38.123  30.036  29.578  1.00  0.00    -0.014 A 
BRANCH  13  14
ATOM     14  C   UNL A   1      39.410  29.697  30.236  1.00  0.00     0.031 A 
ATOM     15  C   UNL A   1      39.898  30.447  31.443  1.00  0.00     0.074 A 
ATOM     16  C   UNL A   1      40.132  28.676  29.732  1.00  0.00     0.049 A 
ATOM     17  N   UNL A   1      40.992  30.257  32.137  1.00  0.00    -0.248 NA
ATOM     18  C   UNL A   1      39.062  31.553  31.935  1.00  0.00     0.031 C 
ATOM     19  C   UNL A   1      39.757  27.879  28.557  1.00  0.00     0.029 A 
ATOM     20  N   UNL A   1      41.313  28.119  30.144  1.00  0.00    -0.354 N 
ATOM     21  C   UNL A   1      40.988  31.227  33.134  1.00  0.00     0.074 A 
ATOM     22  C   UNL A   1      39.793  32.021  32.939  1.00  0.00     0.031 C 
ATOM     23  C   UNL A   1      40.661  26.907  28.377  1.00  0.00     0.029 A 
ATOM     24  C   UNL A   1      41.719  27.058  29.367  1.00  0.00     0.049 A 
ATOM     25  H   UNL A   1      41.823  28.445  30.920  1.00  0.00     0.167 HD
ATOM     26  C   UNL A   1      41.895  31.432  34.120  1.00  0.00     0.031 A 
ATOM     27  C   UNL A   1      42.832  26.304  29.423  1.00  0.00     0.031 A 
ATOM     28  C   UNL A   1      43.088  30.641  34.294  1.00  0.00     0.049 A 
ATOM     29  C   UNL A   1      43.844  26.587  30.495  1.00  0.00     0.074 A 
ATOM     30  C   UNL A   1      44.054  30.750  35.279  1.00  0.00     0.029 A 
ATOM     31  N   UNL A   1      43.485  29.604  33.462  1.00  0.00    -0.354 N 
ATOM     32  N   UNL A   1      43.799  27.481  31.453  1.00  0.00    -0.248 NA
ATOM     33  C   UNL A   1      45.054  25.756  30.496  1.00  0.00     0.031 C 
ATOM     34  C   UNL A   1      45.068  29.826  35.004  1.00  0.00     0.029 A 
ATOM     35  C   UNL A   1      44.698  29.088  33.891  1.00  0.00     0.049 A 
ATOM     36  H   UNL A   1      42.979  29.282  32.680  1.00  0.00     0.167 HD
ATOM     37  C   UNL A   1      44.966  27.306  32.186  1.00  0.00     0.074 A 
ATOM     38  C   UNL A   1      45.683  26.206  31.573  1.00  0.00     0.031 C 
ATOM     39  C   UNL A   1      45.404  27.996  33.269  1.00  0.00     0.031 A 
BRANCH  26  40
ATOM     40  C   UNL A   1      41.654  32.576  35.073  1.00  0.00    -0.014 A 
ATOM     41  C   UNL A   1      40.874  32.412  36.232  1.00  0.00     0.010 A 
ATOM     42  C   UNL A   1      42.271  33.819  34.838  1.00  0.00     0.010 A 
ATOM     43  C   UNL A   1      40.683  33.480  37.115  1.00  0.00     0.020 A 
ATOM     44  C   UNL A   1      42.108  34.881  35.734  1.00  0.00     0.020 A 
ATOM     45  C   UNL A   1      41.301  34.708  36.859  1.00  0.00     0.054 A 
BRANCH  45  46
ATOM     46  S   UNL A   1      41.054  36.065  38.038  1.00  0.00     0.124 S 
ATOM     47  O   UNL A   1      39.811  36.661  37.554  1.00  0.00    -0.237 OA
ATOM     48  O   UNL A   1      40.958  35.366  39.316  1.00  0.00    -0.237 OA
ATOM     49  O   UNL A   1      42.246  36.894  37.871  1.00  0.00    -0.744 OA
ENDBRANCH  45  46
ENDBRANCH  26  40
BRANCH  27  50
ATOM     50  C   UNL A   1      43.049  25.230  28.416  1.00  0.00    -0.014 A 
ATOM     51  C   UNL A   1      43.628  25.520  27.169  1.00  0.00     0.010 A 
ATOM     52  C   UNL A   1      42.695  23.900  28.714  1.00  0.00     0.010 A 
ATOM     53  C   UNL A   1      43.829  24.504  26.231  1.00  0.00     0.020 A 
ATOM     54  C   UNL A   1      42.929  22.876  27.794  1.00  0.00     0.020 A 
ATOM     55  C   UNL A   1      43.482  23.187  26.552  1.00  0.00     0.054 A 
BRANCH  55  56
ATOM     56  S   UNL A   1      43.794  21.881  25.335  1.00  0.00     0.124 S 
ATOM     57  O   UNL A   1      43.737  22.617  24.077  1.00  0.00    -0.237 OA
ATOM     58  O   UNL A   1      45.115  21.396  25.726  1.00  0.00    -0.237 OA
ATOM     59  O   UNL A   1      42.701  20.937  25.558  1.00  0.00    -0.744 OA
ENDBRANCH  55  56
ENDBRANCH  27  50
BRANCH  39  60
ATOM     60  C   UNL A   1      46.705  27.554  33.884  1.00  0.00    -0.014 A 
ATOM     61  C   UNL A   1      47.932  28.122  33.496  1.00  0.00     0.010 A 
ATOM     62  C   UNL A   1      46.694  26.580  34.900  1.00  0.00     0.010 A 
ATOM     63  C   UNL A   1      49.125  27.697  34.086  1.00  0.00     0.020 A 
ATOM     64  C   UNL A   1      47.880  26.178  35.516  1.00  0.00     0.020 A 
ATOM     65  C   UNL A   1      49.091  26.730  35.094  1.00  0.00     0.054 A 
BRANCH  65  66
ATOM     66  S   UNL A   1      50.650  26.228  35.874  1.00  0.00     0.124 S 
ATOM     67  O   UNL A   1      51.418  25.741  34.731  1.00  0.00    -0.237 OA
ATOM     68  O   UNL A   1      51.126  27.475  36.467  1.00  0.00    -0.237 OA
ATOM     69  O   UNL A   1      50.244  25.203  36.833  1.00  0.00    -0.744 OA
ENDBRANCH  65  66
ENDBRANCH  39  60
ENDBRANCH  13  14
ENDBRANCH   6   8
ENDBRANCH   3   4
ENDBRANCH   2   3
ENDBRANCH   1   2
BRANCH   1  70
ATOM     70  C   UNL A   1      31.217  28.950  24.528  1.00  0.00     0.002 C 
BRANCH  70  71
ATOM     71  C   UNL A   1      30.575  28.927  23.137  1.00  0.00     0.021 C 
BRANCH  71  72
ATOM     72  C   UNL A   1      30.515  27.549  22.491  1.00  0.00     0.116 C 
BRANCH  72  73
ATOM     73  N   UNL A   1      31.767  27.193  21.855  1.00  0.00    -0.354 N 
ATOM     74  C   UNL A   1      32.672  26.239  22.224  1.00  0.00     0.249 C 
ATOM     75  H   UNL A   1      31.997  27.709  21.047  1.00  0.00     0.163 HD
ATOM     76  O   UNL A   1      33.676  26.089  21.527  1.00  0.00    -0.272 OA
BRANCH  74  77
ATOM     77  C   UNL A   1      32.386  25.398  23.487  1.00  0.00     0.207 C 
ATOM     78  C   UNL A   1      31.642  24.118  23.140  1.00  0.00     0.045 C 
ATOM     79  O   UNL A   1      33.589  24.979  24.149  1.00  0.00    -0.363 OA
ATOM     80  C   UNL A   1      32.776  23.177  22.833  1.00  0.00     0.037 C 
ATOM     81  C   UNL A   1      33.829  23.587  23.855  1.00  0.00     0.139 C 
BRANCH  81  82
ATOM     82  C   UNL A   1      33.756  22.806  25.178  1.00  0.00     0.161 C 
BRANCH  82  83
ATOM     83  N   UNL A   1      33.691  21.369  24.989  1.00  0.00    -0.270 N 
ATOM     84  C   UNL A   1      34.779  20.578  24.743  1.00  0.00     0.263 C 
ATOM     85  C   UNL A   1      32.539  20.633  25.105  1.00  0.00     0.280 C 
ATOM     86  O   UNL A   1      35.944  20.891  24.607  1.00  0.00    -0.269 OA
ATOM     87  C   UNL A   1      34.295  19.206  24.705  1.00  0.00     0.071 A 
ATOM     88  C   UNL A   1      32.940  19.231  24.929  1.00  0.00     0.141 A 
ATOM     89  O   UNL A   1      31.415  21.038  25.336  1.00  0.00    -0.267 OA
ATOM     90  C   UNL A   1      34.946  18.002  24.537  1.00  0.00     0.018 A 
ATOM     91  N   UNL A   1      32.136  18.157  25.016  1.00  0.00    -0.250 NA
ATOM     92  C   UNL A   1      34.157  16.852  24.616  1.00  0.00     0.021 A 
ATOM     93  C   UNL A   1      32.781  16.976  24.856  1.00  0.00     0.112 A 
ENDBRANCH  82  83
ENDBRANCH  81  82
ENDBRANCH  74  77
ENDBRANCH  72  73
ENDBRANCH  71  72
ENDBRANCH  70  71
ENDBRANCH   1  70
TORSDOF 18
ENDMDL
MODEL 3
REMARK VINA RESULT:     -11.0      2.595      3.263
REMARK SMILES O=C(NCCCCCCNC(=O)[C@H]1CC[C@H](CN2C(=O)c3cccnc3C2=O)O1)c1ccc(-c2c3nc(c(-c4ccc(S(=O)(=O)[O-])cc4)c4ccc([nH]4)c(-c4ccc(S(=O)(=O)[O-])cc4)c4nc(c(-c5ccc(S(=O)(=O)[O-])cc5)c5ccc2[nH]5)C=C4)C=C3)cc1
REMARK SMILES IDX 6 1 5 2 4 3 3 4 1 5 2 6 30 8 31 9 89 10 32 11 88 12 33 13
REMARK SMILES IDX 34 14 35 15 82 16 36 17 87 18 81 19 83 20 37 21 86 22 80 23
REMARK SMILES IDX 79 24 38 26 68 27 49 28 67 29 50 30 53 31 66 32 84 33 51 34
REMARK SMILES IDX 52 35 65 37 85 38 54 39 39 40 40 41 48 42 41 43 47 44 42 45
REMARK SMILES IDX 43 46 44 47 45 48 46 49 69 50 70 51 78 52 71 53 77 54 72 55
REMARK SMILES IDX 73 56 74 57 75 58 76 59 55 60 56 61 64 62 57 63 63 64 58 65
REMARK SMILES IDX 59 66 60 67 61 68 62 69 7 70 8 71 9 72 10 73 11 74 12 76
REMARK SMILES IDX 13 77 14 78 29 79 15 80 16 81 17 82 18 83 19 84 27 85 20 86
REMARK SMILES IDX 21 87 26 88 28 89 22 90 25 91 23 92 24 93
REMARK H PARENT 3 7 83 25 53 36 10 75
REMARK Flexibility Score: inf
ROOT
ATOM      1  C   UNL A   1      32.502  29.269  24.852  1.00  0.00     0.002 C 
ENDROOT
BRANCH   1   2
ATOM      2  C   UNL A   1      33.526  28.325  25.480  1.00  0.00     0.021 C 
BRANCH   2   3
ATOM      3  C   UNL A   1      34.427  28.973  26.521  1.00  0.00     0.116 C 
BRANCH   3   4
ATOM      4  N   UNL A   1      34.056  30.352  26.793  1.00  0.00    -0.352 N 
ATOM      5  O   UNL A   1      34.049  32.296  27.938  1.00  0.00    -0.269 OA
ATOM      6  C   UNL A   1      34.593  31.221  27.711  1.00  0.00     0.251 C 
ATOM      7  H   UNL A   1      33.323  30.711  26.244  1.00  0.00     0.163 HD
BRANCH   6   8
ATOM      8  C   UNL A   1      35.819  30.833  28.440  1.00  0.00     0.039 A 
ATOM      9  C   UNL A   1      37.016  31.518  28.215  1.00  0.00     0.014 A 
ATOM     10  C   UNL A   1      35.776  29.767  29.340  1.00  0.00     0.014 A 
ATOM     11  C   UNL A   1      38.195  31.045  28.775  1.00  0.00     0.010 A 
ATOM     12  C   UNL A   1      36.946  29.357  29.984  1.00  0.00     0.010 A 
ATOM     13  C   UNL A   1      38.171  29.979  29.689  1.00  0.00    -0.014 A 
BRANCH  13  14
ATOM     14  C   UNL A   1      39.424  29.600  30.390  1.00  0.00     0.031 A 
ATOM     15  C   UNL A   1      40.314  28.504  29.873  1.00  0.00     0.074 A 
ATOM     16  C   UNL A   1      39.760  30.280  31.503  1.00  0.00     0.049 A 
ATOM     17  N   UNL A   1      41.447  28.071  30.365  1.00  0.00    -0.248 NA
ATOM     18  C   UNL A   1      39.882  27.801  28.655  1.00  0.00     0.031 C 
ATOM     19  C   UNL A   1      38.968  31.362  32.101  1.00  0.00     0.029 A 
ATOM     20  N   UNL A   1      40.855  30.185  32.321  1.00  0.00    -0.354 N 
ATOM     21  C   UNL A   1      41.855  27.034  29.533  1.00  0.00     0.074 A 
ATOM     22  C   UNL A   1      40.833  26.887  28.517  1.00  0.00     0.031 C 
ATOM     23  C   UNL A   1      39.627  31.861  33.155  1.00  0.00     0.029 A 
ATOM     24  C   UNL A   1      40.844  31.088  33.359  1.00  0.00     0.049 A 
ATOM     25  H   UNL A   1      41.579  29.534  32.180  1.00  0.00     0.167 HD
ATOM     26  C   UNL A   1      42.978  26.279  29.609  1.00  0.00     0.031 A 
ATOM     27  C   UNL A   1      41.702  31.261  34.382  1.00  0.00     0.031 A 
ATOM     28  C   UNL A   1      43.981  26.428  30.634  1.00  0.00     0.049 A 
ATOM     29  C   UNL A   1      42.911  30.377  34.469  1.00  0.00     0.074 A 
ATOM     30  C   UNL A   1      45.169  25.732  30.781  1.00  0.00     0.029 A 
ATOM     31  N   UNL A   1      43.912  27.324  31.691  1.00  0.00    -0.354 N 
ATOM     32  N   UNL A   1      43.298  29.431  33.648  1.00  0.00    -0.248 NA
ATOM     33  C   UNL A   1      43.800  30.585  35.618  1.00  0.00     0.031 C 
ATOM     34  C   UNL A   1      45.784  26.159  31.963  1.00  0.00     0.029 A 
ATOM     35  C   UNL A   1      45.019  27.175  32.513  1.00  0.00     0.049 A 
ATOM     36  H   UNL A   1      43.184  27.971  31.837  1.00  0.00     0.167 HD
ATOM     37  C   UNL A   1      44.491  28.945  34.169  1.00  0.00     0.074 A 
ATOM     38  C   UNL A   1      44.770  29.718  35.363  1.00  0.00     0.031 C 
ATOM     39  C   UNL A   1      45.283  27.948  33.702  1.00  0.00     0.031 A 
BRANCH  26  40
ATOM     40  C   UNL A   1      43.173  25.198  28.574  1.00  0.00    -0.014 A 
ATOM     41  C   UNL A   1      42.611  23.919  28.737  1.00  0.00     0.010 A 
ATOM     42  C   UNL A   1      43.877  25.487  27.390  1.00  0.00     0.010 A 
ATOM     43  C   UNL A   1      42.783  22.939  27.755  1.00  0.00     0.020 A 
ATOM     44  C   UNL A   1      44.026  24.519  26.391  1.00  0.00     0.020 A 
ATOM     45  C   UNL A   1      43.491  23.246  26.588  1.00  0.00     0.054 A 
BRANCH  45  46
ATOM     46  S   UNL A   1      43.675  21.959  25.322  1.00  0.00     0.124 S 
ATOM     47  O   UNL A   1      42.564  21.064  25.638  1.00  0.00    -0.237 OA
ATOM     48  O   UNL A   1      43.540  22.712  24.078  1.00  0.00    -0.237 OA
ATOM     49  O   UNL A   1      45.005  21.409  25.574  1.00  0.00    -0.744 OA
ENDBRANCH  45  46
ENDBRANCH  26  40
BRANCH  27  50
ATOM     50  C   UNL A   1      41.425  32.300  35.410  1.00  0.00    -0.014 A 
ATOM     51  C   UNL A   1      40.669  31.995  36.555  1.00  0.00     0.010 A 
ATOM     52  C   UNL A   1      41.942  33.601  35.257  1.00  0.00     0.010 A 
ATOM     53  C   UNL A   1      40.418  32.977  37.516  1.00  0.00     0.020 A 
ATOM     54  C   UNL A   1      41.723  34.575  36.234  1.00  0.00     0.020 A 
ATOM     55  C   UNL A   1      40.950  34.260  37.352  1.00  0.00     0.054 A 
BRANCH  55  56
ATOM     56  S   UNL A   1      40.646  35.504  38.635  1.00  0.00     0.124 S 
ATOM     57  O   UNL A   1      41.156  36.718  38.008  1.00  0.00    -0.237 OA
ATOM     58  O   UNL A   1      39.196  35.436  38.800  1.00  0.00    -0.237 OA
ATOM     59  O   UNL A   1      41.418  35.015  39.775  1.00  0.00    -0.744 OA
ENDBRANCH  55  56
ENDBRANCH  27  50
BRANCH  39  60
ATOM     60  C   UNL A   1      46.549  27.661  34.464  1.00  0.00    -0.014 A 
ATOM     61  C   UNL A   1      46.589  26.693  35.483  1.00  0.00     0.010 A 
ATOM     62  C   UNL A   1      47.730  28.347  34.125  1.00  0.00     0.010 A 
ATOM     63  C   UNL A   1      47.779  26.442  36.173  1.00  0.00     0.020 A 
ATOM     64  C   UNL A   1      48.928  28.074  34.788  1.00  0.00     0.020 A 
ATOM     65  C   UNL A   1      48.941  27.133  35.819  1.00  0.00     0.054 A 
BRANCH  65  66
ATOM     66  S   UNL A   1      50.481  26.758  36.701  1.00  0.00     0.124 S 
ATOM     67  O   UNL A   1      51.466  27.502  35.921  1.00  0.00    -0.237 OA
ATOM     68  O   UNL A   1      50.216  27.276  38.040  1.00  0.00    -0.237 OA
ATOM     69  O   UNL A   1      50.586  25.304  36.611  1.00  0.00    -0.744 OA
ENDBRANCH  65  66
ENDBRANCH  39  60
ENDBRANCH  13  14
ENDBRANCH   6   8
ENDBRANCH   3   4
ENDBRANCH   2   3
ENDBRANCH   1   2
BRANCH   1  70
ATOM     70  C   UNL A   1      31.114  28.662  24.624  1.00  0.00     0.002 C 
BRANCH  70  71
ATOM     71  C   UNL A   1      30.575  28.773  23.194  1.00  0.00     0.021 C 
BRANCH  71  72
ATOM     72  C   UNL A   1      30.558  27.462  22.420  1.00  0.00     0.116 C 
BRANCH  72  73
ATOM     73  N   UNL A   1      31.853  27.155  21.845  1.00  0.00    -0.354 N 
ATOM     74  C   UNL A   1      32.772  26.232  22.255  1.00  0.00     0.249 C 
ATOM     75  H   UNL A   1      32.104  27.684  21.053  1.00  0.00     0.163 HD
ATOM     76  O   UNL A   1      33.814  26.122  21.608  1.00  0.00    -0.272 OA
BRANCH  74  77
ATOM     77  C   UNL A   1      32.455  25.374  23.498  1.00  0.00     0.207 C 
ATOM     78  C   UNL A   1      31.748  24.084  23.111  1.00  0.00     0.045 C 
ATOM     79  O   UNL A   1      33.639  24.971  24.202  1.00  0.00    -0.363 OA
ATOM     80  C   UNL A   1      32.911  23.166  22.840  1.00  0.00     0.037 C 
ATOM     81  C   UNL A   1      33.917  23.587  23.905  1.00  0.00     0.139 C 
BRANCH  81  82
ATOM     82  C   UNL A   1      33.808  22.791  25.218  1.00  0.00     0.161 C 
BRANCH  82  83
ATOM     83  N   UNL A   1      33.727  21.358  25.010  1.00  0.00    -0.270 N 
ATOM     84  C   UNL A   1      34.807  20.557  24.762  1.00  0.00     0.263 C 
ATOM     85  C   UNL A   1      32.566  20.635  25.110  1.00  0.00     0.280 C 
ATOM     86  O   UNL A   1      35.977  20.858  24.637  1.00  0.00    -0.269 OA
ATOM     87  C   UNL A   1      34.307  19.191  24.704  1.00  0.00     0.071 A 
ATOM     88  C   UNL A   1      32.951  19.230  24.919  1.00  0.00     0.141 A 
ATOM     89  O   UNL A   1      31.445  21.050  25.338  1.00  0.00    -0.267 OA
ATOM     90  C   UNL A   1      34.944  17.982  24.526  1.00  0.00     0.018 A 
ATOM     91  N   UNL A   1      32.133  18.165  24.987  1.00  0.00    -0.250 NA
ATOM     92  C   UNL A   1      34.141  16.840  24.585  1.00  0.00     0.021 A 
ATOM     93  C   UNL A   1      32.765  16.978  24.817  1.00  0.00     0.112 A 
ENDBRANCH  82  83
ENDBRANCH  81  82
ENDBRANCH  74  77
ENDBRANCH  72  73
ENDBRANCH  71  72
ENDBRANCH  70  71
ENDBRANCH   1  70
TORSDOF 18
ENDMDL
