MODEL 1
REMARK VINA RESULT:     -10.4      0.000      0.000
REMARK SMILES C[C@@H]1CC([NH2+][C@@](C)(C(=O)NCCCCCCNC(=O)c2ccc(-c3c4nc(c(-c5ccc(S(=O)(=O)[O-])cc5)c5ccc([nH]5)c(-c5ccc(S(=O)(=O)[O-])cc5)c5nc(c(-c6ccc(S(=O)(=O)[O-])cc6)c6ccc3[nH]6)C=C5)C=C4)cc2)C(F)(F)F)C[C@@H](C)C1
REMARK SMILES IDX 14 1 13 2 12 3 11 4 10 5 8 6 9 7 6 9 7 10 5 11 4 14 1 15
REMARK SMILES IDX 2 16 3 17 87 18 85 19 84 20 86 21 80 22 81 23 82 24 83 25
REMARK SMILES IDX 15 26 16 27 17 28 18 29 19 31 20 32 21 33 79 34 22 35 78 36
REMARK SMILES IDX 23 37 24 38 25 39 72 40 26 41 77 42 71 43 73 44 27 45 76 46
REMARK SMILES IDX 70 47 69 48 28 50 58 51 39 52 57 53 40 54 43 55 56 56 74 57
REMARK SMILES IDX 41 58 42 59 55 61 75 62 44 63 29 64 30 65 38 66 31 67 37 68
REMARK SMILES IDX 32 69 33 70 34 71 35 72 36 73 59 74 60 75 68 76 61 77 67 78
REMARK SMILES IDX 62 79 63 80 64 81 65 82 66 83 45 84 46 85 54 86 47 87 53 88
REMARK SMILES IDX 48 89 49 90 50 91 51 92 52 93
REMARK H PARENT 10 8 5 12 5 13 17 30 73 49 43 60
REMARK Flexibility Score: inf
ROOT
ATOM      1  C   UNL A   1      31.714  27.972  26.844  1.00  0.00     0.002 C 
ENDROOT
BRANCH   1   2
ATOM      2  C   UNL A   1      30.950  26.731  26.367  1.00  0.00     0.002 C 
BRANCH   2   3
ATOM      3  C   UNL A   1      30.860  26.581  24.846  1.00  0.00     0.021 C 
BRANCH   3   4
ATOM      4  C   UNL A   1      31.292  25.206  24.339  1.00  0.00     0.116 C 
BRANCH   4   5
ATOM      5  N   UNL A   1      32.192  25.335  23.207  1.00  0.00    -0.350 N 
ATOM      6  C   UNL A   1      33.453  24.861  22.956  1.00  0.00     0.290 C 
ATOM      7  O   UNL A   1      33.942  25.228  21.884  1.00  0.00    -0.267 OA
ATOM      8  H   UNL A   1      31.821  25.874  22.471  1.00  0.00     0.163 HD
BRANCH   6   9
ATOM      9  C   UNL A   1      34.182  23.896  23.936  1.00  0.00     0.268 C 
ATOM     10  C   UNL A   1      35.528  23.520  23.278  1.00  0.00     0.101 C 
BRANCH   9  11
ATOM     11  N   UNL A   1      33.254  22.742  24.202  1.00  0.00    -0.324 N 
ATOM     12  H   UNL A   1      32.305  23.109  24.139  1.00  0.00     0.347 HD
ATOM     13  H   UNL A   1      33.541  22.050  23.509  1.00  0.00     0.347 HD
BRANCH  11  14
ATOM     14  C   UNL A   1      33.337  22.001  25.464  1.00  0.00     0.184 C 
ATOM     15  C   UNL A   1      32.213  19.746  23.146  1.00  0.00     0.008 C 
ATOM     16  C   UNL A   1      32.632  19.607  24.615  1.00  0.00    -0.008 C 
ATOM     17  C   UNL A   1      32.288  20.855  25.461  1.00  0.00     0.068 C 
ATOM     18  C   UNL A   1      34.099  19.161  24.774  1.00  0.00     0.007 C 
ATOM     19  C   UNL A   1      35.097  20.320  24.721  1.00  0.00    -0.008 C 
ATOM     20  C   UNL A   1      34.707  21.374  25.763  1.00  0.00     0.068 C 
ATOM     21  C   UNL A   1      36.529  19.841  24.946  1.00  0.00     0.008 C 
ENDBRANCH  11  14
ENDBRANCH   9  11
BRANCH   9  22
ATOM     22  C   UNL A   1      34.523  24.765  25.188  1.00  0.00     0.453 C 
ATOM     23  F   UNL A   1      33.610  24.662  26.180  1.00  0.00    -0.164 F 
ATOM     24  F   UNL A   1      35.716  24.379  25.724  1.00  0.00    -0.164 F 
ATOM     25  F   UNL A   1      34.674  26.077  24.883  1.00  0.00    -0.164 F 
ENDBRANCH   9  22
ENDBRANCH   6   9
ENDBRANCH   4   5
ENDBRANCH   3   4
ENDBRANCH   2   3
ENDBRANCH   1   2
BRANCH   1  26
ATOM     26  C   UNL A   1      33.233  27.806  26.942  1.00  0.00     0.021 C 
BRANCH  26  27
ATOM     27  C   UNL A   1      34.041  28.894  26.242  1.00  0.00     0.116 C 
BRANCH  27  28
ATOM     28  N   UNL A   1      33.875  30.190  26.881  1.00  0.00    -0.352 N 
ATOM     29  C   UNL A   1      34.646  30.797  27.840  1.00  0.00     0.251 C 
ATOM     30  H   UNL A   1      33.092  30.707  26.582  1.00  0.00     0.163 HD
ATOM     31  O   UNL A   1      34.226  31.793  28.420  1.00  0.00    -0.269 OA
BRANCH  29  32
ATOM     32  C   UNL A   1      35.973  30.243  28.183  1.00  0.00     0.039 A 
ATOM     33  C   UNL A   1      36.980  30.254  27.215  1.00  0.00     0.014 A 
ATOM     34  C   UNL A   1      36.219  29.700  29.447  1.00  0.00     0.014 A 
ATOM     35  C   UNL A   1      38.251  29.774  27.534  1.00  0.00     0.010 A 
ATOM     36  C   UNL A   1      37.506  29.289  29.786  1.00  0.00     0.010 A 
ATOM     37  C   UNL A   1      38.535  29.319  28.833  1.00  0.00    -0.014 A 
BRANCH  37  38
ATOM     38  C   UNL A   1      39.905  28.891  29.215  1.00  0.00     0.031 A 
ATOM     39  C   UNL A   1      40.843  29.851  29.896  1.00  0.00     0.074 A 
ATOM     40  C   UNL A   1      40.330  27.656  28.882  1.00  0.00     0.049 A 
ATOM     41  N   UNL A   1      42.088  29.671  30.254  1.00  0.00    -0.248 NA
ATOM     42  C   UNL A   1      40.322  31.196  30.189  1.00  0.00     0.031 C 
ATOM     43  C   UNL A   1      39.532  26.648  28.177  1.00  0.00     0.029 A 
ATOM     44  N   UNL A   1      41.540  27.039  29.081  1.00  0.00    -0.354 N 
ATOM     45  C   UNL A   1      42.506  30.881  30.795  1.00  0.00     0.074 A 
ATOM     46  C   UNL A   1      41.395  31.801  30.678  1.00  0.00     0.031 C 
ATOM     47  C   UNL A   1      40.268  25.536  28.022  1.00  0.00     0.029 A 
ATOM     48  C   UNL A   1      41.599  25.762  28.576  1.00  0.00     0.049 A 
ATOM     49  H   UNL A   1      42.294  27.471  29.544  1.00  0.00     0.167 HD
ATOM     50  C   UNL A   1      43.700  31.195  31.353  1.00  0.00     0.031 A 
ATOM     51  C   UNL A   1      42.611  24.874  28.547  1.00  0.00     0.031 A 
ATOM     52  C   UNL A   1      44.800  30.273  31.474  1.00  0.00     0.049 A 
ATOM     53  C   UNL A   1      43.929  25.243  29.171  1.00  0.00     0.074 A 
ATOM     54  C   UNL A   1      46.024  30.472  32.087  1.00  0.00     0.029 A 
ATOM     55  N   UNL A   1      44.814  28.983  30.964  1.00  0.00    -0.354 N 
ATOM     56  N   UNL A   1      44.277  26.365  29.754  1.00  0.00    -0.248 NA
ATOM     57  C   UNL A   1      44.986  24.224  29.143  1.00  0.00     0.031 C 
ATOM     58  C   UNL A   1      46.802  29.326  31.894  1.00  0.00     0.029 A 
ATOM     59  C   UNL A   1      46.038  28.387  31.218  1.00  0.00     0.049 A 
ATOM     60  H   UNL A   1      44.064  28.554  30.492  1.00  0.00     0.167 HD
ATOM     61  C   UNL A   1      45.586  26.179  30.183  1.00  0.00     0.074 A 
ATOM     62  C   UNL A   1      45.960  24.831  29.807  1.00  0.00     0.031 C 
ATOM     63  C   UNL A   1      46.403  27.047  30.829  1.00  0.00     0.031 A 
BRANCH  50  64
ATOM     64  C   UNL A   1      43.888  32.602  31.860  1.00  0.00    -0.014 A 
ATOM     65  C   UNL A   1      43.743  32.915  33.223  1.00  0.00     0.010 A 
ATOM     66  C   UNL A   1      44.250  33.623  30.960  1.00  0.00     0.010 A 
ATOM     67  C   UNL A   1      43.909  34.229  33.670  1.00  0.00     0.020 A 
ATOM     68  C   UNL A   1      44.448  34.932  31.408  1.00  0.00     0.020 A 
ATOM     69  C   UNL A   1      44.257  35.230  32.759  1.00  0.00     0.054 A 
BRANCH  69  70
ATOM     70  S   UNL A   1      44.479  36.923  33.370  1.00  0.00     0.124 S 
ATOM     71  O   UNL A   1      45.904  37.143  33.138  1.00  0.00    -0.237 OA
ATOM     72  O   UNL A   1      43.577  37.693  32.516  1.00  0.00    -0.237 OA
ATOM     73  O   UNL A   1      44.083  36.840  34.774  1.00  0.00    -0.744 OA
ENDBRANCH  69  70
ENDBRANCH  50  64
BRANCH  51  74
ATOM     74  C   UNL A   1      42.409  23.546  27.903  1.00  0.00    -0.014 A 
ATOM     75  C   UNL A   1      42.818  23.321  26.577  1.00  0.00     0.010 A 
ATOM     76  C   UNL A   1      41.831  22.489  28.629  1.00  0.00     0.010 A 
ATOM     77  C   UNL A   1      42.645  22.065  25.987  1.00  0.00     0.020 A 
ATOM     78  C   UNL A   1      41.682  21.225  28.053  1.00  0.00     0.020 A 
ATOM     79  C   UNL A   1      42.082  21.024  26.731  1.00  0.00     0.054 A 
BRANCH  79  80
ATOM     80  S   UNL A   1      41.930  19.385  25.966  1.00  0.00     0.124 S 
ATOM     81  O   UNL A   1      40.497  19.304  25.703  1.00  0.00    -0.237 OA
ATOM     82  O   UNL A   1      42.785  19.506  24.789  1.00  0.00    -0.237 OA
ATOM     83  O   UNL A   1      42.430  18.480  26.998  1.00  0.00    -0.744 OA
ENDBRANCH  79  80
ENDBRANCH  51  74
BRANCH  63  84
ATOM     84  C   UNL A   1      47.780  26.562  31.195  1.00  0.00    -0.014 A 
ATOM     85  C   UNL A   1      48.864  26.705  30.311  1.00  0.00     0.010 A 
ATOM     86  C   UNL A   1      48.005  26.004  32.468  1.00  0.00     0.010 A 
ATOM     87  C   UNL A   1      50.141  26.273  30.681  1.00  0.00     0.020 A 
ATOM     88  C   UNL A   1      49.284  25.599  32.854  1.00  0.00     0.020 A 
ATOM     89  C   UNL A   1      50.343  25.724  31.951  1.00  0.00     0.054 A 
BRANCH  89  90
ATOM     90  S   UNL A   1      52.018  25.213  32.424  1.00  0.00     0.124 S 
ATOM     91  O   UNL A   1      52.149  25.794  33.757  1.00  0.00    -0.237 OA
ATOM     92  O   UNL A   1      51.932  23.756  32.379  1.00  0.00    -0.237 OA
ATOM     93  O   UNL A   1      52.866  25.813  31.397  1.00  0.00    -0.744 OA
ENDBRANCH  89  90
ENDBRANCH  63  84
ENDBRANCH  37  38
ENDBRANCH  29  32
ENDBRANCH  27  28
ENDBRANCH  26  27
ENDBRANCH   1  26
TORSDOF 19
ENDMDL
MODEL 2
REMARK VINA RESULT:     -10.3      3.134      4.051
REMARK SMILES C[C@@H]1CC([NH2+][C@@](C)(C(=O)NCCCCCCNC(=O)c2ccc(-c3c4nc(c(-c5ccc(S(=O)(=O)[O-])cc5)c5ccc([nH]5)c(-c5ccc(S(=O)(=O)[O-])cc5)c5nc(c(-c6ccc(S(=O)(=O)[O-])cc6)c6ccc3[nH]6)C=C5)C=C4)cc2)C(F)(F)F)C[C@@H](C)C1
REMARK SMILES IDX 14 1 13 2 12 3 11 4 10 5 8 6 9 7 6 9 7 10 5 11 4 14 1 15
REMARK SMILES IDX 2 16 3 17 87 18 85 19 84 20 86 21 80 22 81 23 82 24 83 25
REMARK SMILES IDX 15 26 16 27 17 28 18 29 19 31 20 32 21 33 79 34 22 35 78 36
REMARK SMILES IDX 23 37 24 38 25 39 72 40 26 41 77 42 71 43 73 44 27 45 76 46
REMARK SMILES IDX 70 47 69 48 28 50 58 51 39 52 57 53 40 54 43 55 56 56 74 57
REMARK SMILES IDX 41 58 42 59 55 61 75 62 44 63 29 64 30 65 38 66 31 67 37 68
REMARK SMILES IDX 32 69 33 70 34 71 35 72 36 73 59 74 60 75 68 76 61 77 67 78
REMARK SMILES IDX 62 79 63 80 64 81 65 82 66 83 45 84 46 85 54 86 47 87 53 88
REMARK SMILES IDX 48 89 49 90 50 91 51 92 52 93
REMARK H PARENT 10 8 5 12 5 13 17 30 73 49 43 60
REMARK Flexibility Score: inf
ROOT
ATOM      1  C   UNL A   1      33.802  28.078  26.517  1.00  0.00     0.002 C 
ENDROOT
BRANCH   1   2
ATOM      2  C   UNL A   1      32.518  27.249  26.648  1.00  0.00     0.002 C 
BRANCH   2   3
ATOM      3  C   UNL A   1      31.288  27.867  25.976  1.00  0.00     0.021 C 
BRANCH   3   4
ATOM      4  C   UNL A   1      30.472  26.870  25.156  1.00  0.00     0.116 C 
BRANCH   4   5
ATOM      5  N   UNL A   1      30.233  27.378  23.817  1.00  0.00    -0.350 N 
ATOM      6  C   UNL A   1      30.972  27.356  22.663  1.00  0.00     0.290 C 
ATOM      7  O   UNL A   1      30.464  27.953  21.709  1.00  0.00    -0.267 OA
ATOM      8  H   UNL A   1      29.365  27.832  23.719  1.00  0.00     0.163 HD
BRANCH   6   9
ATOM      9  C   UNL A   1      32.326  26.594  22.564  1.00  0.00     0.268 C 
ATOM     10  C   UNL A   1      32.435  26.059  21.119  1.00  0.00     0.101 C 
BRANCH   9  11
ATOM     11  N   UNL A   1      32.327  25.541  23.640  1.00  0.00    -0.324 N 
ATOM     12  H   UNL A   1      33.237  25.589  24.096  1.00  0.00     0.347 HD
ATOM     13  H   UNL A   1      31.505  25.779  24.196  1.00  0.00     0.347 HD
BRANCH  11  14
ATOM     14  C   UNL A   1      32.100  24.134  23.298  1.00  0.00     0.184 C 
ATOM     15  C   UNL A   1      34.756  24.140  25.459  1.00  0.00     0.008 C 
ATOM     16  C   UNL A   1      33.936  23.012  24.821  1.00  0.00    -0.008 C 
ATOM     17  C   UNL A   1      33.442  23.356  23.396  1.00  0.00     0.068 C 
ATOM     18  C   UNL A   1      32.809  22.506  25.741  1.00  0.00     0.007 C 
ATOM     19  C   UNL A   1      31.525  23.334  25.644  1.00  0.00    -0.008 C 
ATOM     20  C   UNL A   1      31.076  23.405  24.180  1.00  0.00     0.068 C 
ATOM     21  C   UNL A   1      30.416  22.759  26.522  1.00  0.00     0.008 C 
ENDBRANCH  11  14
ENDBRANCH   9  11
BRANCH   9  22
ATOM     22  C   UNL A   1      33.426  27.691  22.720  1.00  0.00     0.453 C 
ATOM     23  F   UNL A   1      32.986  28.812  23.334  1.00  0.00    -0.164 F 
ATOM     24  F   UNL A   1      34.461  27.222  23.474  1.00  0.00    -0.164 F 
ATOM     25  F   UNL A   1      33.977  28.044  21.533  1.00  0.00    -0.164 F 
ENDBRANCH   9  22
ENDBRANCH   6   9
ENDBRANCH   4   5
ENDBRANCH   3   4
ENDBRANCH   2   3
ENDBRANCH   1   2
BRANCH   1  26
ATOM     26  C   UNL A   1      33.914  29.263  27.480  1.00  0.00     0.021 C 
BRANCH  26  27
ATOM     27  C   UNL A   1      35.343  29.688  27.806  1.00  0.00     0.116 C 
BRANCH  27  28
ATOM     28  N   UNL A   1      35.419  30.419  29.060  1.00  0.00    -0.352 N 
ATOM     29  C   UNL A   1      36.445  30.492  29.970  1.00  0.00     0.251 C 
ATOM     30  H   UNL A   1      34.616  30.938  29.293  1.00  0.00     0.163 HD
ATOM     31  O   UNL A   1      36.246  30.979  31.077  1.00  0.00    -0.269 OA
BRANCH  29  32
ATOM     32  C   UNL A   1      37.784  29.972  29.617  1.00  0.00     0.039 A 
ATOM     33  C   UNL A   1      38.204  30.031  28.286  1.00  0.00     0.014 A 
ATOM     34  C   UNL A   1      38.615  29.412  30.592  1.00  0.00     0.014 A 
ATOM     35  C   UNL A   1      39.481  29.584  27.943  1.00  0.00     0.010 A 
ATOM     36  C   UNL A   1      39.914  29.034  30.261  1.00  0.00     0.010 A 
ATOM     37  C   UNL A   1      40.360  29.114  28.934  1.00  0.00    -0.014 A 
BRANCH  37  38
ATOM     38  C   UNL A   1      41.753  28.720  28.599  1.00  0.00     0.031 A 
ATOM     39  C   UNL A   1      42.850  29.750  28.565  1.00  0.00     0.074 A 
ATOM     40  C   UNL A   1      42.015  27.443  28.255  1.00  0.00     0.049 A 
ATOM     41  N   UNL A   1      44.109  29.601  28.244  1.00  0.00    -0.248 NA
ATOM     42  C   UNL A   1      42.477  31.131  28.912  1.00  0.00     0.031 C 
ATOM     43  C   UNL A   1      41.029  26.361  28.201  1.00  0.00     0.029 A 
ATOM     44  N   UNL A   1      43.188  26.841  27.873  1.00  0.00    -0.354 N 
ATOM     45  C   UNL A   1      44.675  30.867  28.330  1.00  0.00     0.074 A 
ATOM     46  C   UNL A   1      43.611  31.780  28.691  1.00  0.00     0.031 C 
ATOM     47  C   UNL A   1      41.642  25.226  27.830  1.00  0.00     0.029 A 
ATOM     48  C   UNL A   1      43.052  25.505  27.579  1.00  0.00     0.049 A 
ATOM     49  H   UNL A   1      44.047  27.320  27.818  1.00  0.00     0.167 HD
ATOM     50  C   UNL A   1      45.965  31.236  28.142  1.00  0.00     0.031 A 
ATOM     51  C   UNL A   1      43.954  24.605  27.142  1.00  0.00     0.031 A 
ATOM     52  C   UNL A   1      47.021  30.321  27.790  1.00  0.00     0.049 A 
ATOM     53  C   UNL A   1      45.380  25.035  26.938  1.00  0.00     0.074 A 
ATOM     54  C   UNL A   1      48.372  30.584  27.648  1.00  0.00     0.029 A 
ATOM     55  N   UNL A   1      46.844  28.973  27.517  1.00  0.00    -0.354 N 
ATOM     56  N   UNL A   1      45.913  26.222  27.107  1.00  0.00    -0.248 NA
ATOM     57  C   UNL A   1      46.329  24.005  26.495  1.00  0.00     0.031 C 
ATOM     58  C   UNL A   1      49.003  29.409  27.226  1.00  0.00     0.029 A 
ATOM     59  C   UNL A   1      48.056  28.398  27.171  1.00  0.00     0.049 A 
ATOM     60  H   UNL A   1      45.985  28.495  27.562  1.00  0.00     0.167 HD
ATOM     61  C   UNL A   1      47.264  26.075  26.813  1.00  0.00     0.074 A 
ATOM     62  C   UNL A   1      47.469  24.681  26.473  1.00  0.00     0.031 C 
ATOM     63  C   UNL A   1      48.246  27.011  26.824  1.00  0.00     0.031 A 
BRANCH  50  64
ATOM     64  C   UNL A   1      46.305  32.697  28.293  1.00  0.00    -0.014 A 
ATOM     65  C   UNL A   1      46.169  33.595  27.220  1.00  0.00     0.010 A 
ATOM     66  C   UNL A   1      46.733  33.185  29.542  1.00  0.00     0.010 A 
ATOM     67  C   UNL A   1      46.500  34.944  27.378  1.00  0.00     0.020 A 
ATOM     68  C   UNL A   1      47.035  34.539  29.713  1.00  0.00     0.020 A 
ATOM     69  C   UNL A   1      46.935  35.407  28.623  1.00  0.00     0.054 A 
BRANCH  69  70
ATOM     70  S   UNL A   1      47.346  37.164  28.802  1.00  0.00     0.124 S 
ATOM     71  O   UNL A   1      47.777  37.511  27.450  1.00  0.00    -0.237 OA
ATOM     72  O   UNL A   1      46.076  37.749  29.225  1.00  0.00    -0.237 OA
ATOM     73  O   UNL A   1      48.400  37.173  29.813  1.00  0.00    -0.744 OA
ENDBRANCH  69  70
ENDBRANCH  50  64
BRANCH  51  74
ATOM     74  C   UNL A   1      43.527  23.204  26.872  1.00  0.00    -0.014 A 
ATOM     75  C   UNL A   1      43.744  22.616  25.614  1.00  0.00     0.010 A 
ATOM     76  C   UNL A   1      42.924  22.440  27.888  1.00  0.00     0.010 A 
ATOM     77  C   UNL A   1      43.360  21.293  25.375  1.00  0.00     0.020 A 
ATOM     78  C   UNL A   1      42.564  21.109  27.662  1.00  0.00     0.020 A 
ATOM     79  C   UNL A   1      42.776  20.547  26.403  1.00  0.00     0.054 A 
BRANCH  79  80
ATOM     80  S   UNL A   1      42.347  18.811  26.090  1.00  0.00     0.124 S 
ATOM     81  O   UNL A   1      42.631  18.191  27.380  1.00  0.00    -0.237 OA
ATOM     82  O   UNL A   1      40.937  18.896  25.722  1.00  0.00    -0.237 OA
ATOM     83  O   UNL A   1      43.244  18.430  25.000  1.00  0.00    -0.744 OA
ENDBRANCH  79  80
ENDBRANCH  51  74
BRANCH  63  84
ATOM     84  C   UNL A   1      49.640  26.558  26.481  1.00  0.00    -0.014 A 
ATOM     85  C   UNL A   1      50.446  25.897  27.424  1.00  0.00     0.010 A 
ATOM     86  C   UNL A   1      50.130  26.748  25.175  1.00  0.00     0.010 A 
ATOM     87  C   UNL A   1      51.727  25.459  27.076  1.00  0.00     0.020 A 
ATOM     88  C   UNL A   1      51.397  26.286  24.815  1.00  0.00     0.020 A 
ATOM     89  C   UNL A   1      52.195  25.656  25.773  1.00  0.00     0.054 A 
BRANCH  89  90
ATOM     90  S   UNL A   1      53.842  25.038  25.335  1.00  0.00     0.124 S 
ATOM     91  O   UNL A   1      53.541  23.705  24.821  1.00  0.00    -0.237 OA
ATOM     92  O   UNL A   1      54.294  26.009  24.341  1.00  0.00    -0.237 OA
ATOM     93  O   UNL A   1      54.571  25.068  26.601  1.00  0.00    -0.744 OA
ENDBRANCH  89  90
ENDBRANCH  63  84
ENDBRANCH  37  38
ENDBRANCH  29  32
ENDBRANCH  27  28
ENDBRANCH  26  27
ENDBRANCH   1  26
TORSDOF 19
ENDMDL
MODEL 3
REMARK VINA RESULT:     -10.1      4.521     10.370
REMARK SMILES C[C@@H]1CC([NH2+][C@@](C)(C(=O)NCCCCCCNC(=O)c2ccc(-c3c4nc(c(-c5ccc(S(=O)(=O)[O-])cc5)c5ccc([nH]5)c(-c5ccc(S(=O)(=O)[O-])cc5)c5nc(c(-c6ccc(S(=O)(=O)[O-])cc6)c6ccc3[nH]6)C=C5)C=C4)cc2)C(F)(F)F)C[C@@H](C)C1
REMARK SMILES IDX 14 1 13 2 12 3 11 4 10 5 8 6 9 7 6 9 7 10 5 11 4 14 1 15
REMARK SMILES IDX 2 16 3 17 87 18 85 19 84 20 86 21 80 22 81 23 82 24 83 25
REMARK SMILES IDX 15 26 16 27 17 28 18 29 19 31 20 32 21 33 79 34 22 35 78 36
REMARK SMILES IDX 23 37 24 38 25 39 72 40 26 41 77 42 71 43 73 44 27 45 76 46
REMARK SMILES IDX 70 47 69 48 28 50 58 51 39 52 57 53 40 54 43 55 56 56 74 57
REMARK SMILES IDX 41 58 42 59 55 61 75 62 44 63 29 64 30 65 38 66 31 67 37 68
REMARK SMILES IDX 32 69 33 70 34 71 35 72 36 73 59 74 60 75 68 76 61 77 67 78
REMARK SMILES IDX 62 79 63 80 64 81 65 82 66 83 45 84 46 85 54 86 47 87 53 88
REMARK SMILES IDX 48 89 49 90 50 91 51 92 52 93
REMARK H PARENT 10 8 5 12 5 13 17 30 73 49 43 60
REMARK Flexibility Score: inf
ROOT
ATOM      1  C   UNL A   1      36.798  22.550  25.849  1.00  0.00     0.002 C 
ENDROOT
BRANCH   1   2
ATOM      2  C   UNL A   1      36.430  21.663  24.653  1.00  0.00     0.002 C 
BRANCH   2   3
ATOM      3  C   UNL A   1      35.242  20.727  24.894  1.00  0.00     0.021 C 
BRANCH   3   4
ATOM      4  C   UNL A   1      33.892  21.347  24.539  1.00  0.00     0.116 C 
BRANCH   4   5
ATOM      5  N   UNL A   1      33.508  22.341  25.526  1.00  0.00    -0.350 N 
ATOM      6  C   UNL A   1      32.912  23.572  25.431  1.00  0.00     0.290 C 
ATOM      7  O   UNL A   1      32.789  24.174  26.502  1.00  0.00    -0.267 OA
ATOM      8  H   UNL A   1      33.720  22.078  26.450  1.00  0.00     0.163 HD
BRANCH   6   9
ATOM      9  C   UNL A   1      32.392  24.135  24.076  1.00  0.00     0.268 C 
ATOM     10  C   UNL A   1      33.486  23.855  23.023  1.00  0.00     0.101 C 
BRANCH   9  11
ATOM     11  N   UNL A   1      32.065  25.589  24.291  1.00  0.00    -0.324 N 
ATOM     12  H   UNL A   1      31.049  25.655  24.351  1.00  0.00     0.347 HD
ATOM     13  H   UNL A   1      32.605  25.826  25.123  1.00  0.00     0.347 HD
BRANCH  11  14
ATOM     14  C   UNL A   1      32.497  26.595  23.317  1.00  0.00     0.184 C 
ATOM     15  C   UNL A   1      29.128  27.073  23.704  1.00  0.00     0.008 C 
ATOM     16  C   UNL A   1      30.208  27.848  22.938  1.00  0.00    -0.008 C 
ATOM     17  C   UNL A   1      31.316  26.933  22.365  1.00  0.00     0.068 C 
ATOM     18  C   UNL A   1      30.770  29.036  23.743  1.00  0.00     0.007 C 
ATOM     19  C   UNL A   1      31.897  28.644  24.702  1.00  0.00    -0.008 C 
ATOM     20  C   UNL A   1      32.996  27.916  23.921  1.00  0.00     0.068 C 
ATOM     21  C   UNL A   1      32.465  29.859  25.430  1.00  0.00     0.008 C 
ENDBRANCH  11  14
ENDBRANCH   9  11
BRANCH   9  22
ATOM     22  C   UNL A   1      31.170  23.238  23.702  1.00  0.00     0.453 C 
ATOM     23  F   UNL A   1      30.629  22.595  24.761  1.00  0.00    -0.164 F 
ATOM     24  F   UNL A   1      30.172  23.994  23.163  1.00  0.00    -0.164 F 
ATOM     25  F   UNL A   1      31.474  22.316  22.756  1.00  0.00    -0.164 F 
ENDBRANCH   9  22
ENDBRANCH   6   9
ENDBRANCH   4   5
ENDBRANCH   3   4
ENDBRANCH   2   3
ENDBRANCH   1   2
BRANCH   1  26
ATOM     26  C   UNL A   1      37.730  23.723  25.529  1.00  0.00     0.021 C 
BRANCH  26  27
ATOM     27  C   UNL A   1      38.667  24.122  26.665  1.00  0.00     0.116 C 
BRANCH  27  28
ATOM     28  N   UNL A   1      40.062  24.087  26.257  1.00  0.00    -0.352 N 
ATOM     29  C   UNL A   1      41.076  24.969  26.532  1.00  0.00     0.251 C 
ATOM     30  H   UNL A   1      40.316  23.316  25.699  1.00  0.00     0.163 HD
ATOM     31  O   UNL A   1      42.135  24.893  25.917  1.00  0.00    -0.269 OA
BRANCH  29  32
ATOM     32  C   UNL A   1      40.887  26.017  27.558  1.00  0.00     0.039 A 
ATOM     33  C   UNL A   1      39.906  25.836  28.536  1.00  0.00     0.014 A 
ATOM     34  C   UNL A   1      41.661  27.181  27.546  1.00  0.00     0.014 A 
ATOM     35  C   UNL A   1      39.743  26.795  29.537  1.00  0.00     0.010 A 
ATOM     36  C   UNL A   1      41.547  28.101  28.585  1.00  0.00     0.010 A 
ATOM     37  C   UNL A   1      40.585  27.919  29.590  1.00  0.00    -0.014 A 
BRANCH  37  38
ATOM     38  C   UNL A   1      40.484  28.901  30.700  1.00  0.00     0.031 A 
ATOM     39  C   UNL A   1      41.349  28.761  31.924  1.00  0.00     0.074 A 
ATOM     40  C   UNL A   1      39.561  29.881  30.636  1.00  0.00     0.049 A 
ATOM     41  N   UNL A   1      41.363  29.489  33.011  1.00  0.00    -0.248 NA
ATOM     42  C   UNL A   1      42.305  27.642  31.940  1.00  0.00     0.031 C 
ATOM     43  C   UNL A   1      38.629  30.094  29.525  1.00  0.00     0.029 A 
ATOM     44  N   UNL A   1      39.244  30.875  31.528  1.00  0.00    -0.354 N 
ATOM     45  C   UNL A   1      42.309  28.908  33.846  1.00  0.00     0.074 A 
ATOM     46  C   UNL A   1      42.817  27.740  33.158  1.00  0.00     0.031 C 
ATOM     47  C   UNL A   1      37.862  31.162  29.794  1.00  0.00     0.029 A 
ATOM     48  C   UNL A   1      38.215  31.685  31.110  1.00  0.00     0.049 A 
ATOM     49  H   UNL A   1      39.712  30.997  32.386  1.00  0.00     0.167 HD
ATOM     50  C   UNL A   1      42.729  29.316  35.068  1.00  0.00     0.031 A 
ATOM     51  C   UNL A   1      37.611  32.723  31.719  1.00  0.00     0.031 A 
ATOM     52  C   UNL A   1      42.224  30.484  35.744  1.00  0.00     0.049 A 
ATOM     53  C   UNL A   1      38.092  33.159  33.075  1.00  0.00     0.074 A 
ATOM     54  C   UNL A   1      42.636  31.022  36.951  1.00  0.00     0.029 A 
ATOM     55  N   UNL A   1      41.194  31.287  35.279  1.00  0.00    -0.354 N 
ATOM     56  N   UNL A   1      39.048  32.646  33.813  1.00  0.00    -0.248 NA
ATOM     57  C   UNL A   1      37.422  34.320  33.677  1.00  0.00     0.031 C 
ATOM     58  C   UNL A   1      41.812  32.113  37.246  1.00  0.00     0.029 A 
ATOM     59  C   UNL A   1      40.931  32.295  36.192  1.00  0.00     0.049 A 
ATOM     60  H   UNL A   1      40.719  31.159  34.426  1.00  0.00     0.167 HD
ATOM     61  C   UNL A   1      39.108  33.435  34.956  1.00  0.00     0.074 A 
ATOM     62  C   UNL A   1      38.105  34.469  34.803  1.00  0.00     0.031 C 
ATOM     63  C   UNL A   1      39.923  33.313  36.034  1.00  0.00     0.031 A 
BRANCH  50  64
ATOM     64  C   UNL A   1      43.775  28.482  35.763  1.00  0.00    -0.014 A 
ATOM     65  C   UNL A   1      45.147  28.721  35.573  1.00  0.00     0.010 A 
ATOM     66  C   UNL A   1      43.376  27.464  36.649  1.00  0.00     0.010 A 
ATOM     67  C   UNL A   1      46.101  27.929  36.218  1.00  0.00     0.020 A 
ATOM     68  C   UNL A   1      44.326  26.690  37.320  1.00  0.00     0.020 A 
ATOM     69  C   UNL A   1      45.684  26.915  37.085  1.00  0.00     0.054 A 
BRANCH  69  70
ATOM     70  S   UNL A   1      46.944  25.911  37.918  1.00  0.00     0.124 S 
ATOM     71  O   UNL A   1      46.278  25.572  39.172  1.00  0.00    -0.237 OA
ATOM     72  O   UNL A   1      47.135  24.800  36.988  1.00  0.00    -0.237 OA
ATOM     73  O   UNL A   1      48.083  26.817  38.043  1.00  0.00    -0.744 OA
ENDBRANCH  69  70
ENDBRANCH  50  64
BRANCH  51  74
ATOM     74  C   UNL A   1      36.484  33.422  31.041  1.00  0.00    -0.014 A 
ATOM     75  C   UNL A   1      35.203  33.447  31.619  1.00  0.00     0.010 A 
ATOM     76  C   UNL A   1      36.697  34.091  29.822  1.00  0.00     0.010 A 
ATOM     77  C   UNL A   1      34.155  34.123  30.987  1.00  0.00     0.020 A 
ATOM     78  C   UNL A   1      35.660  34.792  29.201  1.00  0.00     0.020 A 
ATOM     79  C   UNL A   1      34.392  34.796  29.784  1.00  0.00     0.054 A 
BRANCH  79  80
ATOM     80  S   UNL A   1      33.033  35.723  29.017  1.00  0.00     0.124 S 
ATOM     81  O   UNL A   1      33.751  36.747  28.264  1.00  0.00    -0.237 OA
ATOM     82  O   UNL A   1      32.365  34.699  28.218  1.00  0.00    -0.237 OA
ATOM     83  O   UNL A   1      32.264  36.208  30.160  1.00  0.00    -0.744 OA
ENDBRANCH  79  80
ENDBRANCH  51  74
BRANCH  63  84
ATOM     84  C   UNL A   1      39.782  34.337  37.129  1.00  0.00    -0.014 A 
ATOM     85  C   UNL A   1      39.061  34.055  38.303  1.00  0.00     0.010 A 
ATOM     86  C   UNL A   1      40.429  35.581  37.004  1.00  0.00     0.010 A 
ATOM     87  C   UNL A   1      38.966  35.009  39.320  1.00  0.00     0.020 A 
ATOM     88  C   UNL A   1      40.361  36.525  38.031  1.00  0.00     0.020 A 
ATOM     89  C   UNL A   1      39.618  36.239  39.178  1.00  0.00     0.054 A 
BRANCH  89  90
ATOM     90  S   UNL A   1      39.516  37.441  40.531  1.00  0.00     0.124 S 
ATOM     91  O   UNL A   1      38.829  38.560  39.893  1.00  0.00    -0.237 OA
ATOM     92  O   UNL A   1      38.744  36.723  41.541  1.00  0.00    -0.237 OA
ATOM     93  O   UNL A   1      40.914  37.687  40.882  1.00  0.00    -0.744 OA
ENDBRANCH  89  90
ENDBRANCH  63  84
ENDBRANCH  37  38
ENDBRANCH  29  32
ENDBRANCH  27  28
ENDBRANCH  26  27
ENDBRANCH   1  26
TORSDOF 19
ENDMDL
