MODEL 1
REMARK VINA RESULT:     -12.1      0.000      0.000
REMARK SMILES CC[C@@H]1CC[C@](C[C@@H]2CCCc3ccccc32)(C(=O)NCCCCCCNC(=O)c2ccc(-c3c4nc(c(-c5ccc(S(=O)(=O)[O-])cc5)c5ccc([nH]5)c(-c5ccc(S(=O)(=O)[O-])cc5)c5nc(c(-c6ccc(S(=O)(=O)[O-])cc6)c6ccc3[nH]6)C=C5)C=C4)cc2)C1
REMARK SMILES IDX 24 1 23 2 22 3 21 4 20 5 18 6 19 7 6 9 3 10 4 11 90 12 5 13
REMARK SMILES IDX 2 14 1 15 7 16 8 17 9 18 17 19 10 20 12 21 16 22 11 23 13 24
REMARK SMILES IDX 15 25 14 26 25 27 26 28 27 29 28 30 29 32 30 33 31 34 89 35
REMARK SMILES IDX 32 36 88 37 33 38 34 39 35 40 82 41 36 42 87 43 81 44 83 45
REMARK SMILES IDX 37 46 86 47 80 48 79 49 38 51 68 52 49 53 67 54 50 55 53 56
REMARK SMILES IDX 66 57 84 58 51 59 52 60 65 62 85 63 54 64 39 65 40 66 48 67
REMARK SMILES IDX 41 68 47 69 42 70 43 71 44 72 45 73 46 74 69 75 70 76 78 77
REMARK SMILES IDX 71 78 77 79 72 80 73 81 74 82 75 83 76 84 55 85 56 86 64 87
REMARK SMILES IDX 57 88 63 89 58 90 59 91 60 92 61 93 62 94
REMARK H PARENT 20 8 27 31 83 50 53 61
REMARK Flexibility Score: inf
ROOT
ATOM      1  C   UNL A   1      33.679  29.295  25.940  1.00  0.00     0.002 C 
ENDROOT
BRANCH   1   2
ATOM      2  C   UNL A   1      33.097  28.170  25.072  1.00  0.00     0.002 C 
BRANCH   2   3
ATOM      3  C   UNL A   1      33.141  28.427  23.563  1.00  0.00     0.021 C 
BRANCH   3   4
ATOM      4  C   UNL A   1      31.979  27.787  22.809  1.00  0.00     0.116 C 
BRANCH   4   5
ATOM      5  N   UNL A   1      32.455  26.855  21.802  1.00  0.00    -0.356 N 
ATOM      6  C   UNL A   1      32.958  25.599  21.771  1.00  0.00     0.226 C 
ATOM      7  O   UNL A   1      33.267  25.224  20.628  1.00  0.00    -0.274 OA
ATOM      8  H   UNL A   1      32.396  27.240  20.898  1.00  0.00     0.163 HD
BRANCH   6   9
ATOM      9  C   UNL A   1      33.215  24.652  22.996  1.00  0.00     0.050 C 
ATOM     10  C   UNL A   1      32.273  22.380  23.112  1.00  0.00    -0.010 C 
ATOM     11  C   UNL A   1      31.127  23.366  23.253  1.00  0.00     0.005 C 
ATOM     12  C   UNL A   1      33.370  23.214  22.436  1.00  0.00     0.020 C 
ATOM     13  C   UNL A   1      31.852  24.618  23.751  1.00  0.00     0.017 C 
BRANCH  10  14
ATOM     14  C   UNL A   1      31.914  21.084  22.391  1.00  0.00     0.000 C 
ATOM     15  C   UNL A   1      32.339  19.851  23.181  1.00  0.00     0.004 C 
ENDBRANCH  10  14
BRANCH   9  16
ATOM     16  C   UNL A   1      34.431  25.096  23.847  1.00  0.00     0.025 C 
BRANCH  16  17
ATOM     17  C   UNL A   1      35.298  24.289  24.855  1.00  0.00     0.020 C 
ATOM     18  C   UNL A   1      36.649  23.755  24.357  1.00  0.00     0.009 C 
ATOM     19  C   UNL A   1      34.551  23.303  25.707  1.00  0.00    -0.042 A 
ATOM     20  C   UNL A   1      36.613  22.340  23.818  1.00  0.00     0.005 C 
ATOM     21  C   UNL A   1      34.752  21.924  25.565  1.00  0.00    -0.045 A 
ATOM     22  C   UNL A   1      33.615  23.780  26.645  1.00  0.00     0.004 A 
ATOM     23  C   UNL A   1      35.838  21.353  24.689  1.00  0.00     0.036 C 
ATOM     24  C   UNL A   1      33.951  21.045  26.312  1.00  0.00     0.004 A 
ATOM     25  C   UNL A   1      32.846  22.897  27.396  1.00  0.00     0.000 A 
ATOM     26  C   UNL A   1      33.000  21.528  27.213  1.00  0.00     0.000 A 
ENDBRANCH  16  17
ENDBRANCH   9  16
ENDBRANCH   6   9
ENDBRANCH   4   5
ENDBRANCH   3   4
ENDBRANCH   2   3
ENDBRANCH   1   2
BRANCH   1  27
ATOM     27  C   UNL A   1      34.284  28.848  27.276  1.00  0.00     0.021 C 
BRANCH  27  28
ATOM     28  C   UNL A   1      35.489  29.666  27.732  1.00  0.00     0.116 C 
BRANCH  28  29
ATOM     29  N   UNL A   1      35.428  29.962  29.155  1.00  0.00    -0.352 N 
ATOM     30  C   UNL A   1      36.385  29.790  30.119  1.00  0.00     0.251 C 
ATOM     31  H   UNL A   1      34.576  30.341  29.471  1.00  0.00     0.163 HD
ATOM     32  O   UNL A   1      36.076  29.881  31.309  1.00  0.00    -0.269 OA
BRANCH  30  33
ATOM     33  C   UNL A   1      37.779  29.489  29.738  1.00  0.00     0.039 A 
ATOM     34  C   UNL A   1      38.676  29.069  30.725  1.00  0.00     0.014 A 
ATOM     35  C   UNL A   1      38.211  29.650  28.418  1.00  0.00     0.014 A 
ATOM     36  C   UNL A   1      39.993  28.765  30.379  1.00  0.00     0.010 A 
ATOM     37  C   UNL A   1      39.509  29.292  28.065  1.00  0.00     0.010 A 
ATOM     38  C   UNL A   1      40.414  28.851  29.041  1.00  0.00    -0.014 A 
BRANCH  38  39
ATOM     39  C   UNL A   1      41.796  28.481  28.648  1.00  0.00     0.031 A 
ATOM     40  C   UNL A   1      42.872  29.529  28.580  1.00  0.00     0.074 A 
ATOM     41  C   UNL A   1      42.063  27.212  28.281  1.00  0.00     0.049 A 
ATOM     42  N   UNL A   1      44.119  29.406  28.202  1.00  0.00    -0.248 NA
ATOM     43  C   UNL A   1      42.492  30.899  28.960  1.00  0.00     0.031 C 
ATOM     44  C   UNL A   1      41.091  26.117  28.255  1.00  0.00     0.029 A 
ATOM     45  N   UNL A   1      43.229  26.633  27.846  1.00  0.00    -0.354 N 
ATOM     46  C   UNL A   1      44.665  30.683  28.275  1.00  0.00     0.074 A 
ATOM     47  C   UNL A   1      43.604  31.571  28.699  1.00  0.00     0.031 C 
ATOM     48  C   UNL A   1      41.703  24.996  27.840  1.00  0.00     0.029 A 
ATOM     49  C   UNL A   1      43.100  25.300  27.539  1.00  0.00     0.049 A 
ATOM     50  H   UNL A   1      44.075  27.127  27.761  1.00  0.00     0.167 HD
ATOM     51  C   UNL A   1      45.936  31.076  28.026  1.00  0.00     0.031 A 
ATOM     52  C   UNL A   1      44.001  24.420  27.063  1.00  0.00     0.031 A 
ATOM     53  C   UNL A   1      46.993  30.186  27.624  1.00  0.00     0.049 A 
ATOM     54  C   UNL A   1      45.412  24.873  26.817  1.00  0.00     0.074 A 
ATOM     55  C   UNL A   1      48.330  30.475  27.421  1.00  0.00     0.029 A 
ATOM     56  N   UNL A   1      46.830  28.836  27.356  1.00  0.00    -0.354 N 
ATOM     57  N   UNL A   1      45.929  26.070  26.970  1.00  0.00    -0.248 NA
ATOM     58  C   UNL A   1      46.364  23.858  26.348  1.00  0.00     0.031 C 
ATOM     59  C   UNL A   1      48.968  29.308  26.987  1.00  0.00     0.029 A 
ATOM     60  C   UNL A   1      48.037  28.282  26.966  1.00  0.00     0.049 A 
ATOM     61  H   UNL A   1      45.981  28.343  27.432  1.00  0.00     0.167 HD
ATOM     62  C   UNL A   1      47.271  25.947  26.632  1.00  0.00     0.074 A 
ATOM     63  C   UNL A   1      47.489  24.556  26.283  1.00  0.00     0.031 C 
ATOM     64  C   UNL A   1      48.236  26.899  26.613  1.00  0.00     0.031 A 
BRANCH  51  65
ATOM     65  C   UNL A   1      46.250  32.542  28.175  1.00  0.00    -0.014 A 
ATOM     66  C   UNL A   1      46.284  33.397  27.058  1.00  0.00     0.010 A 
ATOM     67  C   UNL A   1      46.490  33.077  29.454  1.00  0.00     0.010 A 
ATOM     68  C   UNL A   1      46.599  34.750  27.212  1.00  0.00     0.020 A 
ATOM     69  C   UNL A   1      46.780  34.435  29.615  1.00  0.00     0.020 A 
ATOM     70  C   UNL A   1      46.853  35.259  28.490  1.00  0.00     0.054 A 
BRANCH  70  71
ATOM     71  S   UNL A   1      47.253  37.019  28.663  1.00  0.00     0.124 S 
ATOM     72  O   UNL A   1      46.236  37.466  29.611  1.00  0.00    -0.237 OA
ATOM     73  O   UNL A   1      48.620  36.990  29.177  1.00  0.00    -0.237 OA
ATOM     74  O   UNL A   1      47.113  37.542  27.306  1.00  0.00    -0.744 OA
ENDBRANCH  70  71
ENDBRANCH  51  65
BRANCH  52  75
ATOM     75  C   UNL A   1      43.588  23.015  26.804  1.00  0.00    -0.014 A 
ATOM     76  C   UNL A   1      43.950  22.374  25.606  1.00  0.00     0.010 A 
ATOM     77  C   UNL A   1      42.865  22.297  27.775  1.00  0.00     0.010 A 
ATOM     78  C   UNL A   1      43.590  21.042  25.381  1.00  0.00     0.020 A 
ATOM     79  C   UNL A   1      42.525  20.959  27.562  1.00  0.00     0.020 A 
ATOM     80  C   UNL A   1      42.883  20.342  26.363  1.00  0.00     0.054 A 
BRANCH  80  81
ATOM     81  S   UNL A   1      42.495  18.591  26.083  1.00  0.00     0.124 S 
ATOM     82  O   UNL A   1      41.077  18.646  25.744  1.00  0.00    -0.237 OA
ATOM     83  O   UNL A   1      43.395  18.237  24.988  1.00  0.00    -0.237 OA
ATOM     84  O   UNL A   1      42.811  17.964  27.365  1.00  0.00    -0.744 OA
ENDBRANCH  80  81
ENDBRANCH  52  75
BRANCH  64  85
ATOM     85  C   UNL A   1      49.622  26.469  26.217  1.00  0.00    -0.014 A 
ATOM     86  C   UNL A   1      50.095  26.666  24.908  1.00  0.00     0.010 A 
ATOM     87  C   UNL A   1      50.478  25.907  27.182  1.00  0.00     0.010 A 
ATOM     88  C   UNL A   1      51.395  26.283  24.563  1.00  0.00     0.020 A 
ATOM     89  C   UNL A   1      51.787  25.547  26.846  1.00  0.00     0.020 A 
ATOM     90  C   UNL A   1      52.231  25.725  25.535  1.00  0.00     0.054 A 
BRANCH  90  91
ATOM     91  S   UNL A   1      53.928  25.277  25.076  1.00  0.00     0.124 S 
ATOM     92  O   UNL A   1      53.819  23.834  24.881  1.00  0.00    -0.237 OA
ATOM     93  O   UNL A   1      54.152  26.060  23.863  1.00  0.00    -0.237 OA
ATOM     94  O   UNL A   1      54.720  25.693  26.232  1.00  0.00    -0.744 OA
ENDBRANCH  90  91
ENDBRANCH  64  85
ENDBRANCH  38  39
ENDBRANCH  30  33
ENDBRANCH  28  29
ENDBRANCH  27  28
ENDBRANCH   1  27
TORSDOF 19
ENDMDL
MODEL 2
REMARK VINA RESULT:     -12.1      3.053      3.792
REMARK SMILES CC[C@@H]1CC[C@](C[C@@H]2CCCc3ccccc32)(C(=O)NCCCCCCNC(=O)c2ccc(-c3c4nc(c(-c5ccc(S(=O)(=O)[O-])cc5)c5ccc([nH]5)c(-c5ccc(S(=O)(=O)[O-])cc5)c5nc(c(-c6ccc(S(=O)(=O)[O-])cc6)c6ccc3[nH]6)C=C5)C=C4)cc2)C1
REMARK SMILES IDX 24 1 23 2 22 3 21 4 20 5 18 6 19 7 6 9 3 10 4 11 90 12 5 13
REMARK SMILES IDX 2 14 1 15 7 16 8 17 9 18 17 19 10 20 12 21 16 22 11 23 13 24
REMARK SMILES IDX 15 25 14 26 25 27 26 28 27 29 28 30 29 32 30 33 31 34 89 35
REMARK SMILES IDX 32 36 88 37 33 38 34 39 35 40 82 41 36 42 87 43 81 44 83 45
REMARK SMILES IDX 37 46 86 47 80 48 79 49 38 51 68 52 49 53 67 54 50 55 53 56
REMARK SMILES IDX 66 57 84 58 51 59 52 60 65 62 85 63 54 64 39 65 40 66 48 67
REMARK SMILES IDX 41 68 47 69 42 70 43 71 44 72 45 73 46 74 69 75 70 76 78 77
REMARK SMILES IDX 71 78 77 79 72 80 73 81 74 82 75 83 76 84 55 85 56 86 64 87
REMARK SMILES IDX 57 88 63 89 58 90 59 91 60 92 61 93 62 94
REMARK H PARENT 20 8 27 31 83 50 53 61
REMARK Flexibility Score: inf
ROOT
ATOM      1  C   UNL A   1      31.597  28.162  25.901  1.00  0.00     0.002 C 
ENDROOT
BRANCH   1   2
ATOM      2  C   UNL A   1      31.341  28.678  24.479  1.00  0.00     0.002 C 
BRANCH   2   3
ATOM      3  C   UNL A   1      32.120  27.954  23.376  1.00  0.00     0.021 C 
BRANCH   3   4
ATOM      4  C   UNL A   1      31.220  27.238  22.374  1.00  0.00     0.116 C 
BRANCH   4   5
ATOM      5  N   UNL A   1      31.998  26.418  21.461  1.00  0.00    -0.356 N 
ATOM      6  C   UNL A   1      32.758  25.300  21.534  1.00  0.00     0.226 C 
ATOM      7  O   UNL A   1      33.270  24.986  20.446  1.00  0.00    -0.274 OA
ATOM      8  H   UNL A   1      31.962  26.769  20.542  1.00  0.00     0.163 HD
BRANCH   6   9
ATOM      9  C   UNL A   1      33.068  24.448  22.814  1.00  0.00     0.050 C 
ATOM     10  C   UNL A   1      32.231  22.148  23.088  1.00  0.00    -0.010 C 
ATOM     11  C   UNL A   1      31.043  23.090  23.178  1.00  0.00     0.005 C 
ATOM     12  C   UNL A   1      33.283  22.985  22.347  1.00  0.00     0.020 C 
ATOM     13  C   UNL A   1      31.715  24.403  23.586  1.00  0.00     0.017 C 
BRANCH  10  14
ATOM     14  C   UNL A   1      31.924  20.793  22.457  1.00  0.00     0.000 C 
ATOM     15  C   UNL A   1      32.519  19.640  23.258  1.00  0.00     0.004 C 
ENDBRANCH  10  14
BRANCH   9  16
ATOM     16  C   UNL A   1      34.269  25.000  23.621  1.00  0.00     0.025 C 
BRANCH  16  17
ATOM     17  C   UNL A   1      35.185  24.299  24.665  1.00  0.00     0.020 C 
ATOM     18  C   UNL A   1      36.542  23.773  24.177  1.00  0.00     0.009 C 
ATOM     19  C   UNL A   1      34.489  23.356  25.605  1.00  0.00    -0.042 A 
ATOM     20  C   UNL A   1      36.543  22.321  23.744  1.00  0.00     0.005 C 
ATOM     21  C   UNL A   1      34.733  21.977  25.560  1.00  0.00    -0.045 A 
ATOM     22  C   UNL A   1      33.558  23.871  26.527  1.00  0.00     0.004 A 
ATOM     23  C   UNL A   1      35.819  21.377  24.704  1.00  0.00     0.036 C 
ATOM     24  C   UNL A   1      33.978  21.131  26.388  1.00  0.00     0.004 A 
ATOM     25  C   UNL A   1      32.835  23.023  27.358  1.00  0.00     0.000 A 
ATOM     26  C   UNL A   1      33.030  21.649  27.273  1.00  0.00     0.000 A 
ENDBRANCH  16  17
ENDBRANCH   9  16
ENDBRANCH   6   9
ENDBRANCH   4   5
ENDBRANCH   3   4
ENDBRANCH   2   3
ENDBRANCH   1   2
BRANCH   1  27
ATOM     27  C   UNL A   1      32.871  27.327  26.078  1.00  0.00     0.021 C 
BRANCH  27  28
ATOM     28  C   UNL A   1      34.081  28.113  26.572  1.00  0.00     0.116 C 
BRANCH  28  29
ATOM     29  N   UNL A   1      33.724  29.478  26.930  1.00  0.00    -0.352 N 
ATOM     30  C   UNL A   1      34.395  30.371  27.721  1.00  0.00     0.251 C 
ATOM     31  H   UNL A   1      32.879  29.807  26.548  1.00  0.00     0.163 HD
ATOM     32  O   UNL A   1      33.829  31.399  28.098  1.00  0.00    -0.269 OA
BRANCH  30  33
ATOM     33  C   UNL A   1      35.788  30.103  28.130  1.00  0.00     0.039 A 
ATOM     34  C   UNL A   1      36.041  29.674  29.437  1.00  0.00     0.014 A 
ATOM     35  C   UNL A   1      36.848  30.304  27.239  1.00  0.00     0.014 A 
ATOM     36  C   UNL A   1      37.351  29.401  29.835  1.00  0.00     0.010 A 
ATOM     37  C   UNL A   1      38.146  29.977  27.620  1.00  0.00     0.010 A 
ATOM     38  C   UNL A   1      38.411  29.527  28.922  1.00  0.00    -0.014 A 
BRANCH  38  39
ATOM     39  C   UNL A   1      39.802  29.191  29.313  1.00  0.00     0.031 A 
ATOM     40  C   UNL A   1      40.676  30.222  29.973  1.00  0.00     0.074 A 
ATOM     41  C   UNL A   1      40.301  27.977  29.007  1.00  0.00     0.049 A 
ATOM     42  N   UNL A   1      41.931  30.131  30.331  1.00  0.00    -0.248 NA
ATOM     43  C   UNL A   1      40.069  31.536  30.240  1.00  0.00     0.031 C 
ATOM     44  C   UNL A   1      39.569  26.910  28.322  1.00  0.00     0.029 A 
ATOM     45  N   UNL A   1      41.547  27.443  29.220  1.00  0.00    -0.354 N 
ATOM     46  C   UNL A   1      42.270  31.378  30.843  1.00  0.00     0.074 A 
ATOM     47  C   UNL A   1      41.100  32.219  30.714  1.00  0.00     0.031 C 
ATOM     48  C   UNL A   1      40.373  25.844  28.183  1.00  0.00     0.029 A 
ATOM     49  C   UNL A   1      41.686  26.163  28.739  1.00  0.00     0.049 A 
ATOM     50  H   UNL A   1      42.271  27.930  29.674  1.00  0.00     0.167 HD
ATOM     51  C   UNL A   1      43.445  31.781  31.383  1.00  0.00     0.031 A 
ATOM     52  C   UNL A   1      42.751  25.339  28.736  1.00  0.00     0.031 A 
ATOM     53  C   UNL A   1      44.601  30.935  31.526  1.00  0.00     0.049 A 
ATOM     54  C   UNL A   1      44.037  25.799  29.363  1.00  0.00     0.074 A 
ATOM     55  C   UNL A   1      45.811  31.227  32.128  1.00  0.00     0.029 A 
ATOM     56  N   UNL A   1      44.691  29.635  31.055  1.00  0.00    -0.354 N 
ATOM     57  N   UNL A   1      44.314  26.957  29.914  1.00  0.00    -0.248 NA
ATOM     58  C   UNL A   1      45.148  24.839  29.378  1.00  0.00     0.031 C 
ATOM     59  C   UNL A   1      46.651  30.118  31.982  1.00  0.00     0.029 A 
ATOM     60  C   UNL A   1      45.945  29.117  31.332  1.00  0.00     0.049 A 
ATOM     61  H   UNL A   1      43.970  29.149  30.594  1.00  0.00     0.167 HD
ATOM     62  C   UNL A   1      45.627  26.858  30.359  1.00  0.00     0.074 A 
ATOM     63  C   UNL A   1      46.082  25.522  30.026  1.00  0.00     0.031 C 
ATOM     64  C   UNL A   1      46.386  27.790  30.986  1.00  0.00     0.031 A 
BRANCH  51  65
ATOM     65  C   UNL A   1      43.539  33.210  31.851  1.00  0.00    -0.014 A 
ATOM     66  C   UNL A   1      43.285  33.556  33.190  1.00  0.00     0.010 A 
ATOM     67  C   UNL A   1      43.911  34.218  30.942  1.00  0.00     0.010 A 
ATOM     68  C   UNL A   1      43.354  34.890  33.601  1.00  0.00     0.020 A 
ATOM     69  C   UNL A   1      44.006  35.549  31.355  1.00  0.00     0.020 A 
ATOM     70  C   UNL A   1      43.707  35.879  32.679  1.00  0.00     0.054 A 
BRANCH  70  71
ATOM     71  S   UNL A   1      43.795  37.602  33.239  1.00  0.00     0.124 S 
ATOM     72  O   UNL A   1      45.045  37.607  33.997  1.00  0.00    -0.237 OA
ATOM     73  O   UNL A   1      43.820  38.349  31.985  1.00  0.00    -0.237 OA
ATOM     74  O   UNL A   1      42.583  37.770  34.037  1.00  0.00    -0.744 OA
ENDBRANCH  70  71
ENDBRANCH  51  65
BRANCH  52  75
ATOM     75  C   UNL A   1      42.631  23.987  28.129  1.00  0.00    -0.014 A 
ATOM     76  C   UNL A   1      42.157  22.903  28.888  1.00  0.00     0.010 A 
ATOM     77  C   UNL A   1      42.952  23.787  26.773  1.00  0.00     0.010 A 
ATOM     78  C   UNL A   1      42.011  21.641  28.303  1.00  0.00     0.020 A 
ATOM     79  C   UNL A   1      42.786  22.533  26.181  1.00  0.00     0.020 A 
ATOM     80  C   UNL A   1      42.323  21.466  26.952  1.00  0.00     0.054 A 
BRANCH  80  81
ATOM     81  S   UNL A   1      42.053  19.839  26.194  1.00  0.00     0.124 S 
ATOM     82  O   UNL A   1      42.476  18.935  27.259  1.00  0.00    -0.237 OA
ATOM     83  O   UNL A   1      40.620  19.856  25.908  1.00  0.00    -0.237 OA
ATOM     84  O   UNL A   1      42.914  19.867  25.014  1.00  0.00    -0.744 OA
ENDBRANCH  80  81
ENDBRANCH  52  75
BRANCH  64  85
ATOM     85  C   UNL A   1      47.787  27.394  31.370  1.00  0.00    -0.014 A 
ATOM     86  C   UNL A   1      48.039  26.687  32.559  1.00  0.00     0.010 A 
ATOM     87  C   UNL A   1      48.854  27.688  30.503  1.00  0.00     0.010 A 
ATOM     88  C   UNL A   1      49.343  26.305  32.888  1.00  0.00     0.020 A 
ATOM     89  C   UNL A   1      50.155  27.285  30.817  1.00  0.00     0.020 A 
ATOM     90  C   UNL A   1      50.392  26.608  32.014  1.00  0.00     0.054 A 
BRANCH  90  91
ATOM     91  S   UNL A   1      52.069  26.062  32.441  1.00  0.00     0.124 S 
ATOM     92  O   UNL A   1      52.580  25.612  31.149  1.00  0.00    -0.237 OA
ATOM     93  O   UNL A   1      52.681  27.280  32.969  1.00  0.00    -0.237 OA
ATOM     94  O   UNL A   1      51.848  25.007  33.427  1.00  0.00    -0.744 OA
ENDBRANCH  90  91
ENDBRANCH  64  85
ENDBRANCH  38  39
ENDBRANCH  30  33
ENDBRANCH  28  29
ENDBRANCH  27  28
ENDBRANCH   1  27
TORSDOF 19
ENDMDL
MODEL 3
REMARK VINA RESULT:     -11.9      5.005      9.255
REMARK SMILES CC[C@@H]1CC[C@](C[C@@H]2CCCc3ccccc32)(C(=O)NCCCCCCNC(=O)c2ccc(-c3c4nc(c(-c5ccc(S(=O)(=O)[O-])cc5)c5ccc([nH]5)c(-c5ccc(S(=O)(=O)[O-])cc5)c5nc(c(-c6ccc(S(=O)(=O)[O-])cc6)c6ccc3[nH]6)C=C5)C=C4)cc2)C1
REMARK SMILES IDX 24 1 23 2 22 3 21 4 20 5 18 6 19 7 6 9 3 10 4 11 90 12 5 13
REMARK SMILES IDX 2 14 1 15 7 16 8 17 9 18 17 19 10 20 12 21 16 22 11 23 13 24
REMARK SMILES IDX 15 25 14 26 25 27 26 28 27 29 28 30 29 32 30 33 31 34 89 35
REMARK SMILES IDX 32 36 88 37 33 38 34 39 35 40 82 41 36 42 87 43 81 44 83 45
REMARK SMILES IDX 37 46 86 47 80 48 79 49 38 51 68 52 49 53 67 54 50 55 53 56
REMARK SMILES IDX 66 57 84 58 51 59 52 60 65 62 85 63 54 64 39 65 40 66 48 67
REMARK SMILES IDX 41 68 47 69 42 70 43 71 44 72 45 73 46 74 69 75 70 76 78 77
REMARK SMILES IDX 71 78 77 79 72 80 73 81 74 82 75 83 76 84 55 85 56 86 64 87
REMARK SMILES IDX 57 88 63 89 58 90 59 91 60 92 61 93 62 94
REMARK H PARENT 20 8 27 31 83 50 53 61
REMARK Flexibility Score: inf
ROOT
ATOM      1  C   UNL A   1      32.172  27.262  25.940  1.00  0.00     0.002 C 
ENDROOT
BRANCH   1   2
ATOM      2  C   UNL A   1      31.448  28.154  24.922  1.00  0.00     0.002 C 
BRANCH   2   3
ATOM      3  C   UNL A   1      32.006  28.096  23.497  1.00  0.00     0.021 C 
BRANCH   3   4
ATOM      4  C   UNL A   1      31.111  27.326  22.531  1.00  0.00     0.116 C 
BRANCH   4   5
ATOM      5  N   UNL A   1      31.899  26.561  21.580  1.00  0.00    -0.356 N 
ATOM      6  C   UNL A   1      32.680  25.456  21.600  1.00  0.00     0.226 C 
ATOM      7  O   UNL A   1      33.193  25.200  20.498  1.00  0.00    -0.274 OA
ATOM      8  H   UNL A   1      31.852  26.951  20.677  1.00  0.00     0.163 HD
BRANCH   6   9
ATOM      9  C   UNL A   1      33.014  24.555  22.841  1.00  0.00     0.050 C 
ATOM     10  C   UNL A   1      32.218  22.232  23.020  1.00  0.00    -0.010 C 
ATOM     11  C   UNL A   1      31.014  23.148  23.157  1.00  0.00     0.005 C 
ATOM     12  C   UNL A   1      33.251  23.117  22.310  1.00  0.00     0.020 C 
ATOM     13  C   UNL A   1      31.666  24.453  23.617  1.00  0.00     0.017 C 
BRANCH  10  14
ATOM     14  C   UNL A   1      31.931  20.900  22.333  1.00  0.00     0.000 C 
ATOM     15  C   UNL A   1      32.368  19.711  23.181  1.00  0.00     0.004 C 
ENDBRANCH  10  14
BRANCH   9  16
ATOM     16  C   UNL A   1      34.211  25.093  23.664  1.00  0.00     0.025 C 
BRANCH  16  17
ATOM     17  C   UNL A   1      35.138  24.366  24.679  1.00  0.00     0.020 C 
ATOM     18  C   UNL A   1      36.495  23.864  24.164  1.00  0.00     0.009 C 
ATOM     19  C   UNL A   1      34.456  23.391  25.594  1.00  0.00    -0.042 A 
ATOM     20  C   UNL A   1      36.501  22.426  23.687  1.00  0.00     0.005 C 
ATOM     21  C   UNL A   1      34.708  22.015  25.506  1.00  0.00    -0.045 A 
ATOM     22  C   UNL A   1      33.529  23.872  26.539  1.00  0.00     0.004 A 
ATOM     23  C   UNL A   1      35.791  21.449  24.623  1.00  0.00     0.036 C 
ATOM     24  C   UNL A   1      33.965  21.140  26.314  1.00  0.00     0.004 A 
ATOM     25  C   UNL A   1      32.818  22.994  27.350  1.00  0.00     0.000 A 
ATOM     26  C   UNL A   1      33.021  21.625  27.222  1.00  0.00     0.000 A 
ENDBRANCH  16  17
ENDBRANCH   9  16
ENDBRANCH   6   9
ENDBRANCH   4   5
ENDBRANCH   3   4
ENDBRANCH   2   3
ENDBRANCH   1   2
BRANCH   1  27
ATOM     27  C   UNL A   1      33.101  27.998  26.914  1.00  0.00     0.021 C 
BRANCH  27  28
ATOM     28  C   UNL A   1      34.038  29.006  26.258  1.00  0.00     0.116 C 
BRANCH  28  29
ATOM     29  N   UNL A   1      33.682  30.374  26.605  1.00  0.00    -0.352 N 
ATOM     30  C   UNL A   1      34.231  31.200  27.547  1.00  0.00     0.251 C 
ATOM     31  H   UNL A   1      32.940  30.760  26.087  1.00  0.00     0.163 HD
ATOM     32  O   UNL A   1      33.650  32.243  27.859  1.00  0.00    -0.269 OA
BRANCH  30  33
ATOM     33  C   UNL A   1      35.509  30.844  28.197  1.00  0.00     0.039 A 
ATOM     34  C   UNL A   1      36.614  31.683  28.025  1.00  0.00     0.014 A 
ATOM     35  C   UNL A   1      35.627  29.670  28.947  1.00  0.00     0.014 A 
ATOM     36  C   UNL A   1      37.824  31.369  28.644  1.00  0.00     0.010 A 
ATOM     37  C   UNL A   1      36.818  29.389  29.611  1.00  0.00     0.010 A 
ATOM     38  C   UNL A   1      37.929  30.232  29.462  1.00  0.00    -0.014 A 
BRANCH  38  39
ATOM     39  C   UNL A   1      39.193  29.913  30.171  1.00  0.00     0.031 A 
ATOM     40  C   UNL A   1      40.078  28.800  29.680  1.00  0.00     0.074 A 
ATOM     41  C   UNL A   1      39.505  30.577  31.300  1.00  0.00     0.049 A 
ATOM     42  N   UNL A   1      41.186  28.338  30.200  1.00  0.00    -0.248 NA
ATOM     43  C   UNL A   1      39.648  28.096  28.461  1.00  0.00     0.031 C 
ATOM     44  C   UNL A   1      38.702  31.642  31.906  1.00  0.00     0.029 A 
ATOM     45  N   UNL A   1      40.577  30.447  32.148  1.00  0.00    -0.354 N 
ATOM     46  C   UNL A   1      41.573  27.278  29.389  1.00  0.00     0.074 A 
ATOM     47  C   UNL A   1      40.562  27.141  28.364  1.00  0.00     0.031 C 
ATOM     48  C   UNL A   1      39.314  32.075  33.019  1.00  0.00     0.029 A 
ATOM     49  C   UNL A   1      40.535  31.300  33.224  1.00  0.00     0.049 A 
ATOM     50  H   UNL A   1      41.305  29.802  32.000  1.00  0.00     0.167 HD
ATOM     51  C   UNL A   1      42.677  26.498  29.482  1.00  0.00     0.031 A 
ATOM     52  C   UNL A   1      41.378  31.441  34.264  1.00  0.00     0.031 A 
ATOM     53  C   UNL A   1      43.690  26.650  30.493  1.00  0.00     0.049 A 
ATOM     54  C   UNL A   1      42.609  30.582  34.334  1.00  0.00     0.074 A 
ATOM     55  C   UNL A   1      44.881  25.961  30.626  1.00  0.00     0.029 A 
ATOM     56  N   UNL A   1      43.627  27.549  31.546  1.00  0.00    -0.354 N 
ATOM     57  N   UNL A   1      42.998  29.637  33.511  1.00  0.00    -0.248 NA
ATOM     58  C   UNL A   1      43.519  30.816  35.462  1.00  0.00     0.031 C 
ATOM     59  C   UNL A   1      45.519  26.411  31.787  1.00  0.00     0.029 A 
ATOM     60  C   UNL A   1      44.747  27.416  32.349  1.00  0.00     0.049 A 
ATOM     61  H   UNL A   1      42.895  28.188  31.700  1.00  0.00     0.167 HD
ATOM     62  C   UNL A   1      44.209  29.175  34.013  1.00  0.00     0.074 A 
ATOM     63  C   UNL A   1      44.495  29.956  35.201  1.00  0.00     0.031 C 
ATOM     64  C   UNL A   1      45.012  28.194  33.533  1.00  0.00     0.031 A 
BRANCH  51  65
ATOM     65  C   UNL A   1      42.838  25.401  28.463  1.00  0.00    -0.014 A 
ATOM     66  C   UNL A   1      42.403  24.090  28.728  1.00  0.00     0.010 A 
ATOM     67  C   UNL A   1      43.412  25.692  27.211  1.00  0.00     0.010 A 
ATOM     68  C   UNL A   1      42.581  23.080  27.779  1.00  0.00     0.020 A 
ATOM     69  C   UNL A   1      43.568  24.690  26.250  1.00  0.00     0.020 A 
ATOM     70  C   UNL A   1      43.170  23.385  26.548  1.00  0.00     0.054 A 
BRANCH  70  71
ATOM     71  S   UNL A   1      43.385  22.056  25.332  1.00  0.00     0.124 S 
ATOM     72  O   UNL A   1      43.381  22.799  24.074  1.00  0.00    -0.237 OA
ATOM     73  O   UNL A   1      44.670  21.475  25.713  1.00  0.00    -0.237 OA
ATOM     74  O   UNL A   1      42.226  21.195  25.551  1.00  0.00    -0.744 OA
ENDBRANCH  70  71
ENDBRANCH  51  65
BRANCH  52  75
ATOM     75  C   UNL A   1      41.085  32.452  35.315  1.00  0.00    -0.014 A 
ATOM     76  C   UNL A   1      41.474  33.791  35.145  1.00  0.00     0.010 A 
ATOM     77  C   UNL A   1      40.376  32.084  36.474  1.00  0.00     0.010 A 
ATOM     78  C   UNL A   1      41.164  34.746  36.119  1.00  0.00     0.020 A 
ATOM     79  C   UNL A   1      40.046  33.040  37.437  1.00  0.00     0.020 A 
ATOM     80  C   UNL A   1      40.449  34.365  37.257  1.00  0.00     0.054 A 
BRANCH  80  81
ATOM     81  S   UNL A   1      39.990  35.634  38.471  1.00  0.00     0.124 S 
ATOM     82  O   UNL A   1      39.748  36.794  37.619  1.00  0.00    -0.237 OA
ATOM     83  O   UNL A   1      38.807  35.055  39.104  1.00  0.00    -0.237 OA
ATOM     84  O   UNL A   1      41.167  35.721  39.333  1.00  0.00    -0.744 OA
ENDBRANCH  80  81
ENDBRANCH  52  75
BRANCH  64  85
ATOM     85  C   UNL A   1      46.286  27.916  34.283  1.00  0.00    -0.014 A 
ATOM     86  C   UNL A   1      47.479  28.586  33.958  1.00  0.00     0.010 A 
ATOM     87  C   UNL A   1      46.276  27.012  35.361  1.00  0.00     0.010 A 
ATOM     88  C   UNL A   1      48.648  28.335  34.682  1.00  0.00     0.020 A 
ATOM     89  C   UNL A   1      47.437  26.778  36.103  1.00  0.00     0.020 A 
ATOM     90  C   UNL A   1      48.619  27.431  35.749  1.00  0.00     0.054 A 
BRANCH  90  91
ATOM     91  S   UNL A   1      50.137  27.155  36.702  1.00  0.00     0.124 S 
ATOM     92  O   UNL A   1      51.078  28.056  36.042  1.00  0.00    -0.237 OA
ATOM     93  O   UNL A   1      49.743  27.539  38.056  1.00  0.00    -0.237 OA
ATOM     94  O   UNL A   1      50.405  25.730  36.520  1.00  0.00    -0.744 OA
ENDBRANCH  90  91
ENDBRANCH  64  85
ENDBRANCH  38  39
ENDBRANCH  30  33
ENDBRANCH  28  29
ENDBRANCH  27  28
ENDBRANCH   1  27
TORSDOF 19
ENDMDL
