MODEL 1
REMARK VINA RESULT:     -11.5      0.000      0.000
REMARK SMILES CC1(C)[C@H](O)CC[C@]2(C)[C@@H]1CC[C@@]1(C)Oc3oc(C(=O)NCCCCCCNC(=O)c4ccc(-c5c6nc(c(-c7ccc(S(=O)(=O)[O-])cc7)c7ccc([nH]7)c(-c7ccc(S(=O)(=O)[O-])cc7)c7nc(c(-c8ccc(S(=O)(=O)[O-])cc8)c8ccc5[nH]8)C=C7)C=C6)cc4)cc(=O)c3C[C@H]21
REMARK SMILES IDX 25 1 24 2 23 3 22 4 21 5 19 6 20 7 18 9 1 10 2 11 3 12 4 13
REMARK SMILES IDX 10 14 6 15 8 16 11 17 7 18 9 19 96 20 12 21 13 22 95 23
REMARK SMILES IDX 14 24 15 25 94 26 16 27 92 28 17 29 91 30 93 31 5 32 26 34
REMARK SMILES IDX 27 35 28 36 29 37 30 39 31 40 32 41 90 42 33 43 89 44 34 45
REMARK SMILES IDX 35 46 36 47 83 48 37 49 88 50 82 51 84 52 38 53 87 54 81 55
REMARK SMILES IDX 80 56 39 58 69 59 50 60 68 61 51 62 54 63 67 64 85 65 52 66
REMARK SMILES IDX 53 67 66 69 86 70 55 71 40 72 41 73 49 74 42 75 48 76 43 77
REMARK SMILES IDX 44 78 45 79 46 80 47 81 70 82 71 83 79 84 72 85 78 86 73 87
REMARK SMILES IDX 74 88 75 89 76 90 77 91 56 92 57 93 65 94 58 95 64 96 59 97
REMARK SMILES IDX 60 98 61 99 62 100 63 101
REMARK H PARENT 21 8 5 33 28 38 84 57 54 68
REMARK Flexibility Score: inf
ROOT
ATOM      1  C   UNL A   1      40.787  27.049  26.628  1.00  0.00     0.002 C 
ENDROOT
BRANCH   1   2
ATOM      2  C   UNL A   1      39.887  26.535  27.754  1.00  0.00     0.002 C 
BRANCH   2   3
ATOM      3  C   UNL A   1      39.814  25.015  27.892  1.00  0.00     0.021 C 
BRANCH   3   4
ATOM      4  C   UNL A   1      38.674  24.314  27.113  1.00  0.00     0.116 C 
BRANCH   4   5
ATOM      5  N   UNL A   1      38.991  22.928  26.695  1.00  0.00    -0.349 N 
ATOM      6  C   UNL A   1      38.379  21.968  25.899  1.00  0.00     0.287 C 
ATOM      7  O   UNL A   1      39.030  20.962  25.618  1.00  0.00    -0.266 OA
ATOM      8  H   UNL A   1      39.842  22.610  27.072  1.00  0.00     0.163 HD
BRANCH   6   9
ATOM      9  C   UNL A   1      36.977  22.123  25.366  1.00  0.00     0.199 A 
ATOM     10  C   UNL A   1      28.685  26.983  23.985  1.00  0.00     0.014 C 
ATOM     11  C   UNL A   1      30.237  27.127  23.945  1.00  0.00    -0.006 C 
ATOM     12  C   UNL A   1      30.501  28.646  23.792  1.00  0.00     0.014 C 
ATOM     13  C   UNL A   1      30.649  26.807  25.572  1.00  0.00     0.120 C 
ATOM     14  C   UNL A   1      30.937  25.919  22.771  1.00  0.00     0.004 C 
ATOM     15  C   UNL A   1      30.624  25.337  25.923  1.00  0.00     0.033 C 
ATOM     16  C   UNL A   1      31.951  25.335  23.705  1.00  0.00    -0.022 C 
ATOM     17  C   UNL A   1      31.618  25.806  21.345  1.00  0.00     0.009 C 
ATOM     18  C   UNL A   1      30.864  24.644  24.644  1.00  0.00     0.010 C 
ATOM     19  C   UNL A   1      32.914  26.662  23.667  1.00  0.00     0.012 C 
ATOM     20  C   UNL A   1      33.071  24.343  23.560  1.00  0.00     0.044 C 
ATOM     21  C   UNL A   1      32.998  24.869  21.148  1.00  0.00     0.049 C 
ATOM     22  C   UNL A   1      33.407  23.754  22.235  1.00  0.00     0.113 C 
ATOM     23  C   UNL A   1      33.132  23.368  24.691  1.00  0.00     0.055 C 
ATOM     24  C   UNL A   1      32.683  22.442  21.902  1.00  0.00     0.057 C 
ATOM     25  O   UNL A   1      34.905  23.416  22.391  1.00  0.00    -0.458 OA
ATOM     26  C   UNL A   1      34.431  22.741  24.679  1.00  0.00     0.081 A 
ATOM     27  C   UNL A   1      35.322  22.865  23.695  1.00  0.00     0.292 A 
ATOM     28  C   UNL A   1      34.668  22.119  25.974  1.00  0.00     0.192 A 
ATOM     29  O   UNL A   1      36.692  22.586  24.029  1.00  0.00    -0.420 OA
ATOM     30  C   UNL A   1      36.026  21.729  26.201  1.00  0.00     0.105 A 
ATOM     31  O   UNL A   1      33.836  21.991  26.838  1.00  0.00    -0.289 OA
BRANCH  13  32
ATOM     32  O   UNL A   1      31.915  27.338  25.967  1.00  0.00    -0.393 OA
ATOM     33  H   UNL A   1      32.582  26.633  25.947  1.00  0.00     0.210 HD
ENDBRANCH  13  32
ENDBRANCH   6   9
ENDBRANCH   4   5
ENDBRANCH   3   4
ENDBRANCH   2   3
ENDBRANCH   1   2
BRANCH   1  34
ATOM     34  C   UNL A   1      41.407  25.973  25.728  1.00  0.00     0.021 C 
BRANCH  34  35
ATOM     35  C   UNL A   1      42.840  26.255  25.279  1.00  0.00     0.116 C 
BRANCH  35  36
ATOM     36  N   UNL A   1      43.775  25.277  25.820  1.00  0.00    -0.352 N 
ATOM     37  C   UNL A   1      44.468  25.311  27.004  1.00  0.00     0.251 C 
ATOM     38  H   UNL A   1      43.930  24.483  25.260  1.00  0.00     0.163 HD
ATOM     39  O   UNL A   1      45.406  24.546  27.201  1.00  0.00    -0.269 OA
BRANCH  37  40
ATOM     40  C   UNL A   1      44.071  26.284  28.041  1.00  0.00     0.039 A 
ATOM     41  C   UNL A   1      44.480  27.615  27.928  1.00  0.00     0.014 A 
ATOM     42  C   UNL A   1      43.291  25.866  29.124  1.00  0.00     0.014 A 
ATOM     43  C   UNL A   1      44.059  28.544  28.882  1.00  0.00     0.010 A 
ATOM     44  C   UNL A   1      42.832  26.802  30.044  1.00  0.00     0.010 A 
ATOM     45  C   UNL A   1      43.217  28.146  29.933  1.00  0.00    -0.014 A 
BRANCH  45  46
ATOM     46  C   UNL A   1      42.753  29.116  30.951  1.00  0.00     0.031 A 
ATOM     47  C   UNL A   1      43.540  29.295  32.218  1.00  0.00     0.074 A 
ATOM     48  C   UNL A   1      41.607  29.796  30.756  1.00  0.00     0.049 A 
ATOM     49  N   UNL A   1      43.276  30.057  33.246  1.00  0.00    -0.248 NA
ATOM     50  C   UNL A   1      44.777  28.506  32.353  1.00  0.00     0.031 C 
ATOM     51  C   UNL A   1      40.752  29.691  29.572  1.00  0.00     0.029 A 
ATOM     52  N   UNL A   1      40.964  30.711  31.551  1.00  0.00    -0.354 N 
ATOM     53  C   UNL A   1      44.309  29.841  34.148  1.00  0.00     0.074 A 
ATOM     54  C   UNL A   1      45.182  28.843  33.570  1.00  0.00     0.031 C 
ATOM     55  C   UNL A   1      39.709  30.527  29.709  1.00  0.00     0.029 A 
ATOM     56  C   UNL A   1      39.803  31.199  31.002  1.00  0.00     0.049 A 
ATOM     57  H   UNL A   1      41.303  30.990  32.433  1.00  0.00     0.167 HD
ATOM     58  C   UNL A   1      44.523  30.437  35.343  1.00  0.00     0.031 A 
ATOM     59  C   UNL A   1      38.912  32.087  31.486  1.00  0.00     0.031 A 
ATOM     60  C   UNL A   1      43.657  31.433  35.912  1.00  0.00     0.049 A 
ATOM     61  C   UNL A   1      39.151  32.709  32.833  1.00  0.00     0.074 A 
ATOM     62  C   UNL A   1      43.811  32.121  37.102  1.00  0.00     0.029 A 
ATOM     63  N   UNL A   1      42.481  31.884  35.333  1.00  0.00    -0.354 N 
ATOM     64  N   UNL A   1      40.150  32.513  33.661  1.00  0.00    -0.248 NA
ATOM     65  C   UNL A   1      38.151  33.673  33.312  1.00  0.00     0.031 C 
ATOM     66  C   UNL A   1      42.702  32.954  37.267  1.00  0.00     0.029 A 
ATOM     67  C   UNL A   1      41.888  32.826  36.152  1.00  0.00     0.049 A 
ATOM     68  H   UNL A   1      42.123  31.579  34.468  1.00  0.00     0.167 HD
ATOM     69  C   UNL A   1      39.912  33.347  34.746  1.00  0.00     0.074 A 
ATOM     70  C   UNL A   1      38.675  34.050  34.472  1.00  0.00     0.031 C 
ATOM     71  C   UNL A   1      40.656  33.517  35.865  1.00  0.00     0.031 A 
BRANCH  58  72
ATOM     72  C   UNL A   1      45.745  30.035  36.120  1.00  0.00    -0.014 A 
ATOM     73  C   UNL A   1      45.664  29.064  37.134  1.00  0.00     0.010 A 
ATOM     74  C   UNL A   1      47.000  30.570  35.776  1.00  0.00     0.010 A 
ATOM     75  C   UNL A   1      46.817  28.643  37.798  1.00  0.00     0.020 A 
ATOM     76  C   UNL A   1      48.158  30.135  36.424  1.00  0.00     0.020 A 
ATOM     77  C   UNL A   1      48.059  29.174  37.433  1.00  0.00     0.054 A 
BRANCH  77  78
ATOM     78  S   UNL A   1      49.539  28.571  38.287  1.00  0.00     0.124 S 
ATOM     79  O   UNL A   1      49.065  27.323  38.880  1.00  0.00    -0.237 OA
ATOM     80  O   UNL A   1      50.494  28.422  37.192  1.00  0.00    -0.237 OA
ATOM     81  O   UNL A   1      49.846  29.632  39.243  1.00  0.00    -0.744 OA
ENDBRANCH  77  78
ENDBRANCH  58  72
BRANCH  59  82
ATOM     82  C   UNL A   1      37.726  32.452  30.667  1.00  0.00    -0.014 A 
ATOM     83  C   UNL A   1      36.481  31.845  30.907  1.00  0.00     0.010 A 
ATOM     84  C   UNL A   1      37.822  33.454  29.683  1.00  0.00     0.010 A 
ATOM     85  C   UNL A   1      35.352  32.239  30.184  1.00  0.00     0.020 A 
ATOM     86  C   UNL A   1      36.691  33.864  28.973  1.00  0.00     0.020 A 
ATOM     87  C   UNL A   1      35.461  33.256  29.231  1.00  0.00     0.054 A 
BRANCH  87  88
ATOM     88  S   UNL A   1      33.963  33.792  28.358  1.00  0.00     0.124 S 
ATOM     89  O   UNL A   1      33.152  34.337  29.442  1.00  0.00    -0.237 OA
ATOM     90  O   UNL A   1      34.495  34.769  27.411  1.00  0.00    -0.237 OA
ATOM     91  O   UNL A   1      33.456  32.560  27.757  1.00  0.00    -0.744 OA
ENDBRANCH  87  88
ENDBRANCH  59  82
BRANCH  71  92
ATOM     92  C   UNL A   1      40.186  34.519  36.884  1.00  0.00    -0.014 A 
ATOM     93  C   UNL A   1      39.320  34.141  37.923  1.00  0.00     0.010 A 
ATOM     94  C   UNL A   1      40.723  35.820  36.871  1.00  0.00     0.010 A 
ATOM     95  C   UNL A   1      38.999  35.049  38.933  1.00  0.00     0.020 A 
ATOM     96  C   UNL A   1      40.420  36.724  37.891  1.00  0.00     0.020 A 
ATOM     97  C   UNL A   1      39.560  36.330  38.919  1.00  0.00     0.054 A 
BRANCH  97  98
ATOM     98  S   UNL A   1      39.174  37.462  40.281  1.00  0.00     0.124 S 
ATOM     99  O   UNL A   1      38.228  38.383  39.658  1.00  0.00    -0.237 OA
ATOM    100  O   UNL A   1      38.608  36.563  41.284  1.00  0.00    -0.237 OA
ATOM    101  O   UNL A   1      40.468  38.044  40.630  1.00  0.00    -0.744 OA
ENDBRANCH  97  98
ENDBRANCH  71  92
ENDBRANCH  45  46
ENDBRANCH  37  40
ENDBRANCH  35  36
ENDBRANCH  34  35
ENDBRANCH   1  34
TORSDOF 17
ENDMDL
MODEL 2
REMARK VINA RESULT:     -11.4      1.890      2.753
REMARK SMILES CC1(C)[C@H](O)CC[C@]2(C)[C@@H]1CC[C@@]1(C)Oc3oc(C(=O)NCCCCCCNC(=O)c4ccc(-c5c6nc(c(-c7ccc(S(=O)(=O)[O-])cc7)c7ccc([nH]7)c(-c7ccc(S(=O)(=O)[O-])cc7)c7nc(c(-c8ccc(S(=O)(=O)[O-])cc8)c8ccc5[nH]8)C=C7)C=C6)cc4)cc(=O)c3C[C@H]21
REMARK SMILES IDX 25 1 24 2 23 3 22 4 21 5 19 6 20 7 18 9 1 10 2 11 3 12 4 13
REMARK SMILES IDX 10 14 6 15 8 16 11 17 7 18 9 19 96 20 12 21 13 22 95 23
REMARK SMILES IDX 14 24 15 25 94 26 16 27 92 28 17 29 91 30 93 31 5 32 26 34
REMARK SMILES IDX 27 35 28 36 29 37 30 39 31 40 32 41 90 42 33 43 89 44 34 45
REMARK SMILES IDX 35 46 36 47 83 48 37 49 88 50 82 51 84 52 38 53 87 54 81 55
REMARK SMILES IDX 80 56 39 58 69 59 50 60 68 61 51 62 54 63 67 64 85 65 52 66
REMARK SMILES IDX 53 67 66 69 86 70 55 71 40 72 41 73 49 74 42 75 48 76 43 77
REMARK SMILES IDX 44 78 45 79 46 80 47 81 70 82 71 83 79 84 72 85 78 86 73 87
REMARK SMILES IDX 74 88 75 89 76 90 77 91 56 92 57 93 65 94 58 95 64 96 59 97
REMARK SMILES IDX 60 98 61 99 62 100 63 101
REMARK H PARENT 21 8 5 33 28 38 84 57 54 68
REMARK Flexibility Score: inf
ROOT
ATOM      1  C   UNL A   1      40.465  22.672  27.377  1.00  0.00     0.002 C 
ENDROOT
BRANCH   1   2
ATOM      2  C   UNL A   1      39.857  21.381  26.825  1.00  0.00     0.002 C 
BRANCH   2   3
ATOM      3  C   UNL A   1      39.020  21.540  25.556  1.00  0.00     0.021 C 
BRANCH   3   4
ATOM      4  C   UNL A   1      37.528  21.897  25.764  1.00  0.00     0.116 C 
BRANCH   4   5
ATOM      5  N   UNL A   1      36.596  20.771  25.514  1.00  0.00    -0.349 N 
ATOM      6  C   UNL A   1      35.317  20.641  24.990  1.00  0.00     0.287 C 
ATOM      7  O   UNL A   1      34.910  19.503  24.759  1.00  0.00    -0.266 OA
ATOM      8  H   UNL A   1      36.977  19.905  25.784  1.00  0.00     0.163 HD
BRANCH   6   9
ATOM      9  C   UNL A   1      34.435  21.826  24.687  1.00  0.00     0.199 A 
ATOM     10  C   UNL A   1      31.183  30.854  26.171  1.00  0.00     0.014 C 
ATOM     11  C   UNL A   1      32.480  29.995  26.074  1.00  0.00    -0.006 C 
ATOM     12  C   UNL A   1      33.620  30.924  26.564  1.00  0.00     0.014 C 
ATOM     13  C   UNL A   1      32.264  28.905  27.371  1.00  0.00     0.120 C 
ATOM     14  C   UNL A   1      32.556  29.177  24.445  1.00  0.00     0.004 C 
ATOM     15  C   UNL A   1      31.296  27.785  27.062  1.00  0.00     0.033 C 
ATOM     16  C   UNL A   1      32.797  27.790  24.958  1.00  0.00    -0.022 C 
ATOM     17  C   UNL A   1      33.321  29.213  23.058  1.00  0.00     0.009 C 
ATOM     18  C   UNL A   1      31.343  27.645  25.595  1.00  0.00     0.010 C 
ATOM     19  C   UNL A   1      34.340  28.107  25.413  1.00  0.00     0.012 C 
ATOM     20  C   UNL A   1      33.108  26.468  24.316  1.00  0.00     0.044 C 
ATOM     21  C   UNL A   1      33.877  27.784  22.372  1.00  0.00     0.049 C 
ATOM     22  C   UNL A   1      33.301  26.356  22.843  1.00  0.00     0.113 C 
ATOM     23  C   UNL A   1      32.335  25.337  24.914  1.00  0.00     0.055 C 
ATOM     24  C   UNL A   1      32.031  26.040  22.042  1.00  0.00     0.057 C 
ATOM     25  O   UNL A   1      34.230  25.129  22.721  1.00  0.00    -0.458 OA
ATOM     26  C   UNL A   1      32.973  24.101  24.533  1.00  0.00     0.081 A 
ATOM     27  C   UNL A   1      33.948  24.000  23.628  1.00  0.00     0.292 A 
ATOM     28  C   UNL A   1      32.512  23.038  25.415  1.00  0.00     0.192 A 
ATOM     29  O   UNL A   1      34.774  22.825  23.702  1.00  0.00    -0.420 OA
ATOM     30  C   UNL A   1      33.285  21.837  25.346  1.00  0.00     0.105 A 
ATOM     31  O   UNL A   1      31.606  23.145  26.205  1.00  0.00    -0.289 OA
BRANCH  13  32
ATOM     32  O   UNL A   1      33.476  28.324  27.853  1.00  0.00    -0.393 OA
ATOM     33  H   UNL A   1      33.998  29.001  28.314  1.00  0.00     0.210 HD
ENDBRANCH  13  32
ENDBRANCH   6   9
ENDBRANCH   4   5
ENDBRANCH   3   4
ENDBRANCH   2   3
ENDBRANCH   1   2
BRANCH   1  34
ATOM     34  C   UNL A   1      41.931  22.582  27.819  1.00  0.00     0.021 C 
BRANCH  34  35
ATOM     35  C   UNL A   1      42.730  23.876  27.669  1.00  0.00     0.116 C 
BRANCH  35  36
ATOM     36  N   UNL A   1      42.448  24.539  26.404  1.00  0.00    -0.352 N 
ATOM     37  C   UNL A   1      41.765  25.709  26.178  1.00  0.00     0.251 C 
ATOM     38  H   UNL A   1      42.794  24.088  25.601  1.00  0.00     0.163 HD
ATOM     39  O   UNL A   1      41.389  26.004  25.049  1.00  0.00    -0.269 OA
BRANCH  37  40
ATOM     40  C   UNL A   1      41.489  26.609  27.315  1.00  0.00     0.039 A 
ATOM     41  C   UNL A   1      40.425  26.325  28.174  1.00  0.00     0.014 A 
ATOM     42  C   UNL A   1      42.291  27.737  27.519  1.00  0.00     0.014 A 
ATOM     43  C   UNL A   1      40.199  27.149  29.278  1.00  0.00     0.010 A 
ATOM     44  C   UNL A   1      42.094  28.526  28.646  1.00  0.00     0.010 A 
ATOM     45  C   UNL A   1      41.043  28.242  29.531  1.00  0.00    -0.014 A 
BRANCH  45  46
ATOM     46  C   UNL A   1      40.825  29.124  30.699  1.00  0.00     0.031 A 
ATOM     47  C   UNL A   1      41.663  28.943  31.932  1.00  0.00     0.074 A 
ATOM     48  C   UNL A   1      39.848  30.051  30.667  1.00  0.00     0.049 A 
ATOM     49  N   UNL A   1      41.596  29.582  33.071  1.00  0.00    -0.248 NA
ATOM     50  C   UNL A   1      42.704  27.902  31.885  1.00  0.00     0.031 C 
ATOM     51  C   UNL A   1      38.962  30.306  29.530  1.00  0.00     0.029 A 
ATOM     52  N   UNL A   1      39.438  30.951  31.617  1.00  0.00    -0.354 N 
ATOM     53  C   UNL A   1      42.580  29.021  33.873  1.00  0.00     0.074 A 
ATOM     54  C   UNL A   1      43.203  27.961  33.112  1.00  0.00     0.031 C 
ATOM     55  C   UNL A   1      38.126  31.312  29.842  1.00  0.00     0.029 A 
ATOM     56  C   UNL A   1      38.396  31.748  31.209  1.00  0.00     0.049 A 
ATOM     57  H   UNL A   1      39.850  31.018  32.509  1.00  0.00     0.167 HD
ATOM     58  C   UNL A   1      42.947  29.374  35.127  1.00  0.00     0.031 A 
ATOM     59  C   UNL A   1      37.729  32.720  31.862  1.00  0.00     0.031 A 
ATOM     60  C   UNL A   1      42.331  30.433  35.878  1.00  0.00     0.049 A 
ATOM     61  C   UNL A   1      38.130  33.070  33.268  1.00  0.00     0.074 A 
ATOM     62  C   UNL A   1      42.659  30.887  37.143  1.00  0.00     0.029 A 
ATOM     63  N   UNL A   1      41.266  31.201  35.435  1.00  0.00    -0.354 N 
ATOM     64  N   UNL A   1      39.084  32.548  34.002  1.00  0.00    -0.248 NA
ATOM     65  C   UNL A   1      37.374  34.140  33.934  1.00  0.00     0.031 C 
ATOM     66  C   UNL A   1      41.760  31.900  37.485  1.00  0.00     0.029 A 
ATOM     67  C   UNL A   1      40.910  32.114  36.411  1.00  0.00     0.049 A 
ATOM     68  H   UNL A   1      40.829  31.111  34.558  1.00  0.00     0.167 HD
ATOM     69  C   UNL A   1      39.058  33.242  35.206  1.00  0.00     0.074 A 
ATOM     70  C   UNL A   1      37.996  34.221  35.104  1.00  0.00     0.031 C 
ATOM     71  C   UNL A   1      39.850  33.083  36.294  1.00  0.00     0.031 A 
BRANCH  58  72
ATOM     72  C   UNL A   1      44.073  28.614  35.769  1.00  0.00    -0.014 A 
ATOM     73  C   UNL A   1      43.820  27.443  36.506  1.00  0.00     0.010 A 
ATOM     74  C   UNL A   1      45.402  29.024  35.563  1.00  0.00     0.010 A 
ATOM     75  C   UNL A   1      44.878  26.702  37.035  1.00  0.00     0.020 A 
ATOM     76  C   UNL A   1      46.464  28.274  36.073  1.00  0.00     0.020 A 
ATOM     77  C   UNL A   1      46.195  27.117  36.807  1.00  0.00     0.054 A 
BRANCH  77  78
ATOM     78  S   UNL A   1      47.545  26.107  37.472  1.00  0.00     0.124 S 
ATOM     79  O   UNL A   1      47.526  26.464  38.889  1.00  0.00    -0.237 OA
ATOM     80  O   UNL A   1      47.103  24.750  37.161  1.00  0.00    -0.237 OA
ATOM     81  O   UNL A   1      48.719  26.565  36.735  1.00  0.00    -0.744 OA
ENDBRANCH  77  78
ENDBRANCH  58  72
BRANCH  59  82
ATOM     82  C   UNL A   1      36.630  33.444  31.171  1.00  0.00    -0.014 A 
ATOM     83  C   UNL A   1      36.831  33.988  29.891  1.00  0.00     0.010 A 
ATOM     84  C   UNL A   1      35.356  33.537  31.764  1.00  0.00     0.010 A 
ATOM     85  C   UNL A   1      35.777  34.607  29.213  1.00  0.00     0.020 A 
ATOM     86  C   UNL A   1      34.295  34.137  31.080  1.00  0.00     0.020 A 
ATOM     87  C   UNL A   1      34.512  34.665  29.806  1.00  0.00     0.054 A 
BRANCH  87  88
ATOM     88  S   UNL A   1      33.149  35.413  28.871  1.00  0.00     0.124 S 
ATOM     89  O   UNL A   1      33.846  36.372  28.020  1.00  0.00    -0.237 OA
ATOM     90  O   UNL A   1      32.577  34.256  28.186  1.00  0.00    -0.237 OA
ATOM     91  O   UNL A   1      32.302  35.999  29.908  1.00  0.00    -0.744 OA
ENDBRANCH  87  88
ENDBRANCH  59  82
BRANCH  71  92
ATOM     92  C   UNL A   1      39.632  33.997  37.468  1.00  0.00    -0.014 A 
ATOM     93  C   UNL A   1      38.952  33.552  38.614  1.00  0.00     0.010 A 
ATOM     94  C   UNL A   1      40.230  35.271  37.470  1.00  0.00     0.010 A 
ATOM     95  C   UNL A   1      38.873  34.368  39.744  1.00  0.00     0.020 A 
ATOM     96  C   UNL A   1      40.171  36.081  38.606  1.00  0.00     0.020 A 
ATOM     97  C   UNL A   1      39.494  35.622  39.738  1.00  0.00     0.054 A 
BRANCH  97  98
ATOM     98  S   UNL A   1      39.429  36.629  41.244  1.00  0.00     0.124 S 
ATOM     99  O   UNL A   1      38.414  35.937  42.034  1.00  0.00    -0.237 OA
ATOM    100  O   UNL A   1      40.796  36.525  41.749  1.00  0.00    -0.237 OA
ATOM    101  O   UNL A   1      39.044  37.954  40.763  1.00  0.00    -0.744 OA
ENDBRANCH  97  98
ENDBRANCH  71  92
ENDBRANCH  45  46
ENDBRANCH  37  40
ENDBRANCH  35  36
ENDBRANCH  34  35
ENDBRANCH   1  34
TORSDOF 17
ENDMDL
MODEL 3
REMARK VINA RESULT:     -11.1      2.188      4.316
REMARK SMILES CC1(C)[C@H](O)CC[C@]2(C)[C@@H]1CC[C@@]1(C)Oc3oc(C(=O)NCCCCCCNC(=O)c4ccc(-c5c6nc(c(-c7ccc(S(=O)(=O)[O-])cc7)c7ccc([nH]7)c(-c7ccc(S(=O)(=O)[O-])cc7)c7nc(c(-c8ccc(S(=O)(=O)[O-])cc8)c8ccc5[nH]8)C=C7)C=C6)cc4)cc(=O)c3C[C@H]21
REMARK SMILES IDX 25 1 24 2 23 3 22 4 21 5 19 6 20 7 18 9 1 10 2 11 3 12 4 13
REMARK SMILES IDX 10 14 6 15 8 16 11 17 7 18 9 19 96 20 12 21 13 22 95 23
REMARK SMILES IDX 14 24 15 25 94 26 16 27 92 28 17 29 91 30 93 31 5 32 26 34
REMARK SMILES IDX 27 35 28 36 29 37 30 39 31 40 32 41 90 42 33 43 89 44 34 45
REMARK SMILES IDX 35 46 36 47 83 48 37 49 88 50 82 51 84 52 38 53 87 54 81 55
REMARK SMILES IDX 80 56 39 58 69 59 50 60 68 61 51 62 54 63 67 64 85 65 52 66
REMARK SMILES IDX 53 67 66 69 86 70 55 71 40 72 41 73 49 74 42 75 48 76 43 77
REMARK SMILES IDX 44 78 45 79 46 80 47 81 70 82 71 83 79 84 72 85 78 86 73 87
REMARK SMILES IDX 74 88 75 89 76 90 77 91 56 92 57 93 65 94 58 95 64 96 59 97
REMARK SMILES IDX 60 98 61 99 62 100 63 101
REMARK H PARENT 21 8 5 33 28 38 84 57 54 68
REMARK Flexibility Score: inf
ROOT
ATOM      1  C   UNL A   1      39.683  29.312  27.900  1.00  0.00     0.002 C 
ENDROOT
BRANCH   1   2
ATOM      2  C   UNL A   1      38.310  28.967  28.482  1.00  0.00     0.002 C 
BRANCH   2   3
ATOM      3  C   UNL A   1      37.126  29.685  27.835  1.00  0.00     0.021 C 
BRANCH   3   4
ATOM      4  C   UNL A   1      35.812  29.705  28.653  1.00  0.00     0.116 C 
BRANCH   4   5
ATOM      5  N   UNL A   1      34.891  30.809  28.292  1.00  0.00    -0.349 N 
ATOM      6  C   UNL A   1      33.697  30.915  27.590  1.00  0.00     0.287 C 
ATOM      7  O   UNL A   1      33.101  31.991  27.641  1.00  0.00    -0.266 OA
ATOM      8  H   UNL A   1      35.200  31.679  28.633  1.00  0.00     0.163 HD
BRANCH   6   9
ATOM      9  C   UNL A   1      33.112  29.774  26.797  1.00  0.00     0.199 A 
ATOM     10  C   UNL A   1      32.886  20.595  23.638  1.00  0.00     0.014 C 
ATOM     11  C   UNL A   1      33.095  21.472  24.910  1.00  0.00    -0.006 C 
ATOM     12  C   UNL A   1      33.619  20.497  25.994  1.00  0.00     0.014 C 
ATOM     13  C   UNL A   1      34.480  22.373  24.476  1.00  0.00     0.120 C 
ATOM     14  C   UNL A   1      31.619  22.506  25.195  1.00  0.00     0.004 C 
ATOM     15  C   UNL A   1      34.185  23.515  23.529  1.00  0.00     0.033 C 
ATOM     16  C   UNL A   1      32.342  23.812  25.317  1.00  0.00    -0.022 C 
ATOM     17  C   UNL A   1      30.368  22.667  26.153  1.00  0.00     0.009 C 
ATOM     18  C   UNL A   1      32.772  23.854  23.783  1.00  0.00     0.010 C 
ATOM     19  C   UNL A   1      32.973  23.452  26.788  1.00  0.00     0.012 C 
ATOM     20  C   UNL A   1      31.935  25.213  25.678  1.00  0.00     0.044 C 
ATOM     21  C   UNL A   1      29.967  24.182  26.759  1.00  0.00     0.049 C 
ATOM     22  C   UNL A   1      30.535  25.526  26.078  1.00  0.00     0.113 C 
ATOM     23  C   UNL A   1      32.558  26.243  24.793  1.00  0.00     0.055 C 
ATOM     24  C   UNL A   1      29.605  25.935  24.928  1.00  0.00     0.057 C 
ATOM     25  O   UNL A   1      30.715  26.768  26.977  1.00  0.00    -0.458 OA
ATOM     26  C   UNL A   1      32.443  27.526  25.442  1.00  0.00     0.081 A 
ATOM     27  C   UNL A   1      31.713  27.760  26.534  1.00  0.00     0.292 A 
ATOM     28  C   UNL A   1      33.382  28.454  24.826  1.00  0.00     0.192 A 
ATOM     29  O   UNL A   1      32.064  28.922  27.305  1.00  0.00    -0.420 OA
ATOM     30  C   UNL A   1      33.588  29.662  25.565  1.00  0.00     0.105 A 
ATOM     31  O   UNL A   1      34.009  28.231  23.820  1.00  0.00    -0.289 OA
BRANCH  13  32
ATOM     32  O   UNL A   1      35.208  22.895  25.588  1.00  0.00    -0.393 OA
ATOM     33  H   UNL A   1      35.157  22.271  26.330  1.00  0.00     0.210 HD
ENDBRANCH  13  32
ENDBRANCH   6   9
ENDBRANCH   4   5
ENDBRANCH   3   4
ENDBRANCH   2   3
ENDBRANCH   1   2
BRANCH   1  34
ATOM     34  C   UNL A   1      40.215  28.346  26.834  1.00  0.00     0.021 C 
BRANCH  34  35
ATOM     35  C   UNL A   1      41.525  28.773  26.173  1.00  0.00     0.116 C 
BRANCH  35  36
ATOM     36  N   UNL A   1      42.571  27.777  26.359  1.00  0.00    -0.352 N 
ATOM     37  C   UNL A   1      43.399  27.588  27.439  1.00  0.00     0.251 C 
ATOM     38  H   UNL A   1      42.703  27.153  25.610  1.00  0.00     0.163 HD
ATOM     39  O   UNL A   1      44.395  26.879  27.346  1.00  0.00    -0.269 OA
BRANCH  37  40
ATOM     40  C   UNL A   1      43.073  28.252  28.717  1.00  0.00     0.039 A 
ATOM     41  C   UNL A   1      43.485  29.570  28.931  1.00  0.00     0.014 A 
ATOM     42  C   UNL A   1      42.359  27.558  29.698  1.00  0.00     0.014 A 
ATOM     43  C   UNL A   1      43.130  30.212  30.120  1.00  0.00     0.010 A 
ATOM     44  C   UNL A   1      41.965  28.216  30.858  1.00  0.00     0.010 A 
ATOM     45  C   UNL A   1      42.353  29.545  31.080  1.00  0.00    -0.014 A 
BRANCH  45  46
ATOM     46  C   UNL A   1      41.960  30.210  32.343  1.00  0.00     0.031 A 
ATOM     47  C   UNL A   1      42.826  30.060  33.560  1.00  0.00     0.074 A 
ATOM     48  C   UNL A   1      40.808  30.906  32.405  1.00  0.00     0.049 A 
ATOM     49  N   UNL A   1      42.633  30.524  34.767  1.00  0.00    -0.248 NA
ATOM     50  C   UNL A   1      44.064  29.277  33.407  1.00  0.00     0.031 C 
ATOM     51  C   UNL A   1      39.880  31.105  31.290  1.00  0.00     0.029 A 
ATOM     52  N   UNL A   1      40.223  31.574  33.450  1.00  0.00    -0.354 N 
ATOM     53  C   UNL A   1      43.720  30.090  35.514  1.00  0.00     0.074 A 
ATOM     54  C   UNL A   1      44.548  29.288  34.642  1.00  0.00     0.031 C 
ATOM     55  C   UNL A   1      38.852  31.865  31.706  1.00  0.00     0.029 A 
ATOM     56  C   UNL A   1      39.032  32.177  33.122  1.00  0.00     0.049 A 
ATOM     57  H   UNL A   1      40.618  31.617  34.351  1.00  0.00     0.167 HD
ATOM     58  C   UNL A   1      44.012  30.355  36.808  1.00  0.00     0.031 A 
ATOM     59  C   UNL A   1      38.179  32.897  33.876  1.00  0.00     0.031 A 
ATOM     60  C   UNL A   1      43.190  31.159  37.670  1.00  0.00     0.049 A 
ATOM     61  C   UNL A   1      38.507  33.149  35.321  1.00  0.00     0.074 A 
ATOM     62  C   UNL A   1      43.423  31.513  38.987  1.00  0.00     0.029 A 
ATOM     63  N   UNL A   1      41.983  31.733  37.304  1.00  0.00    -0.354 N 
ATOM     64  N   UNL A   1      39.554  32.753  36.005  1.00  0.00    -0.248 NA
ATOM     65  C   UNL A   1      37.545  33.943  36.098  1.00  0.00     0.031 C 
ATOM     66  C   UNL A   1      42.332  32.262  39.433  1.00  0.00     0.029 A 
ATOM     67  C   UNL A   1      41.448  32.423  38.377  1.00  0.00     0.049 A 
ATOM     68  H   UNL A   1      41.569  31.662  36.414  1.00  0.00     0.167 HD
ATOM     69  C   UNL A   1      39.391  33.272  37.283  1.00  0.00     0.074 A 
ATOM     70  C   UNL A   1      38.144  34.009  37.281  1.00  0.00     0.031 C 
ATOM     71  C   UNL A   1      40.206  33.151  38.359  1.00  0.00     0.031 A 
BRANCH  58  72
ATOM     72  C   UNL A   1      45.278  29.778  37.375  1.00  0.00    -0.014 A 
ATOM     73  C   UNL A   1      45.272  28.525  38.015  1.00  0.00     0.010 A 
ATOM     74  C   UNL A   1      46.499  30.451  37.190  1.00  0.00     0.010 A 
ATOM     75  C   UNL A   1      46.466  27.962  38.471  1.00  0.00     0.020 A 
ATOM     76  C   UNL A   1      47.697  29.881  37.626  1.00  0.00     0.020 A 
ATOM     77  C   UNL A   1      47.672  28.640  38.265  1.00  0.00     0.054 A 
BRANCH  77  78
ATOM     78  S   UNL A   1      49.207  27.858  38.831  1.00  0.00     0.124 S 
ATOM     79  O   UNL A   1      48.780  26.481  39.068  1.00  0.00    -0.237 OA
ATOM     80  O   UNL A   1      50.097  28.052  37.690  1.00  0.00    -0.237 OA
ATOM     81  O   UNL A   1      49.559  28.611  40.032  1.00  0.00    -0.744 OA
ENDBRANCH  77  78
ENDBRANCH  58  72
BRANCH  59  82
ATOM     82  C   UNL A   1      36.946  33.451  33.257  1.00  0.00    -0.014 A 
ATOM     83  C   UNL A   1      35.742  32.728  33.300  1.00  0.00     0.010 A 
ATOM     84  C   UNL A   1      36.956  34.734  32.675  1.00  0.00     0.010 A 
ATOM     85  C   UNL A   1      34.567  33.280  32.779  1.00  0.00     0.020 A 
ATOM     86  C   UNL A   1      35.780  35.296  32.173  1.00  0.00     0.020 A 
ATOM     87  C   UNL A   1      34.591  34.566  32.231  1.00  0.00     0.054 A 
BRANCH  87  88
ATOM     88  S   UNL A   1      33.037  35.281  31.627  1.00  0.00     0.124 S 
ATOM     89  O   UNL A   1      32.078  34.828  32.629  1.00  0.00    -0.237 OA
ATOM     90  O   UNL A   1      33.335  36.711  31.635  1.00  0.00    -0.237 OA
ATOM     91  O   UNL A   1      32.880  34.690  30.300  1.00  0.00    -0.744 OA
ENDBRANCH  87  88
ENDBRANCH  59  82
BRANCH  71  92
ATOM     92  C   UNL A   1      39.807  33.847  39.631  1.00  0.00    -0.014 A 
ATOM     93  C   UNL A   1      39.025  33.193  40.598  1.00  0.00     0.010 A 
ATOM     94  C   UNL A   1      40.332  35.122  39.914  1.00  0.00     0.010 A 
ATOM     95  C   UNL A   1      38.775  33.804  41.828  1.00  0.00     0.020 A 
ATOM     96  C   UNL A   1      40.101  35.726  41.151  1.00  0.00     0.020 A 
ATOM     97  C   UNL A   1      39.325  35.061  42.102  1.00  0.00     0.054 A 
BRANCH  97  98
ATOM     98  S   UNL A   1      39.034  35.797  43.734  1.00  0.00     0.124 S 
ATOM     99  O   UNL A   1      39.878  34.975  44.597  1.00  0.00    -0.237 OA
ATOM    100  O   UNL A   1      39.483  37.173  43.540  1.00  0.00    -0.237 OA
ATOM    101  O   UNL A   1      37.596  35.636  43.939  1.00  0.00    -0.744 OA
ENDBRANCH  97  98
ENDBRANCH  71  92
ENDBRANCH  45  46
ENDBRANCH  37  40
ENDBRANCH  35  36
ENDBRANCH  34  35
ENDBRANCH   1  34
TORSDOF 17
ENDMDL
