MODEL 1
REMARK VINA RESULT:     -11.6      0.000      0.000
REMARK SMILES COC(=O)c1sc(NC(=O)[C@H]2CC=CC[C@H]2C(=O)NCCCCCCNC(=O)c2ccc(-c3c4nc(c(-c5ccc(S(=O)(=O)[O-])cc5)c5ccc([nH]5)c(-c5ccc(S(=O)(=O)[O-])cc5)c5nc(c(-c6ccc(S(=O)(=O)[O-])cc6)c6ccc3[nH]6)C=C5)C=C4)cc2)nc1C
REMARK SMILES IDX 22 1 21 2 20 3 19 4 17 5 18 6 16 8 11 9 12 10 13 11 15 12
REMARK SMILES IDX 14 13 9 14 8 15 10 17 7 18 5 19 6 20 90 21 89 22 91 23 3 24
REMARK SMILES IDX 4 25 2 26 1 27 23 28 24 29 25 30 26 31 27 32 28 34 29 35
REMARK SMILES IDX 30 36 88 37 31 38 87 39 32 40 33 41 34 42 81 43 35 44 86 45
REMARK SMILES IDX 80 46 82 47 36 48 85 49 79 50 78 51 37 53 67 54 48 55 66 56
REMARK SMILES IDX 49 57 52 58 65 59 83 60 50 61 51 62 64 64 84 65 53 66 38 67
REMARK SMILES IDX 39 68 47 69 40 70 46 71 41 72 42 73 43 74 44 75 45 76 68 77
REMARK SMILES IDX 69 78 77 79 70 80 76 81 71 82 72 83 73 84 74 85 75 86 54 87
REMARK SMILES IDX 55 88 63 89 56 90 62 91 57 92 58 93 59 94 60 95 61 96
REMARK H PARENT 19 7 8 16 26 33 82 52 52 63
REMARK Flexibility Score: inf
ROOT
ATOM      1  C   UNL A   1      36.489  23.618  24.276  1.00  0.00     0.002 C 
ENDROOT
BRANCH   1   2
ATOM      2  C   UNL A   1      35.063  23.377  23.782  1.00  0.00     0.021 C 
BRANCH   2   3
ATOM      3  C   UNL A   1      34.228  24.644  23.615  1.00  0.00     0.116 C 
BRANCH   3   4
ATOM      4  N   UNL A   1      34.238  25.456  24.817  1.00  0.00    -0.356 N 
ATOM      5  C   UNL A   1      33.508  26.542  25.179  1.00  0.00     0.224 C 
ATOM      6  O   UNL A   1      33.804  27.089  26.248  1.00  0.00    -0.275 OA
ATOM      7  H   UNL A   1      34.891  25.165  25.493  1.00  0.00     0.163 HD
BRANCH   5   8
ATOM      8  C   UNL A   1      32.341  27.078  24.357  1.00  0.00     0.095 C 
ATOM      9  C   UNL A   1      31.010  26.282  24.454  1.00  0.00     0.095 C 
ATOM     10  C   UNL A   1      29.989  26.941  23.515  1.00  0.00     0.041 C 
ATOM     11  C   UNL A   1      29.843  28.414  23.722  1.00  0.00    -0.030 C 
ATOM     12  C   UNL A   1      32.235  28.617  24.396  1.00  0.00     0.041 C 
ATOM     13  C   UNL A   1      30.872  29.172  24.119  1.00  0.00    -0.030 C 
BRANCH   9  14
ATOM     14  C   UNL A   1      30.614  25.892  25.890  1.00  0.00     0.230 C 
ATOM     15  N   UNL A   1      30.202  24.631  26.213  1.00  0.00    -0.302 N 
ATOM     16  H   UNL A   1      29.254  24.434  26.391  1.00  0.00     0.172 HD
ATOM     17  O   UNL A   1      30.549  26.767  26.761  1.00  0.00    -0.274 OA
BRANCH  15  18
ATOM     18  C   UNL A   1      31.153  23.650  26.279  1.00  0.00     0.190 A 
ATOM     19  C   UNL A   1      32.501  21.713  25.829  1.00  0.00     0.137 A 
ATOM     20  S   UNL A   1      31.208  22.520  25.015  1.00  0.00    -0.089 S 
ATOM     21  C   UNL A   1      32.821  22.413  26.984  1.00  0.00     0.065 A 
ATOM     22  N   UNL A   1      31.974  23.456  27.269  1.00  0.00    -0.224 NA
ATOM     23  C   UNL A   1      33.952  22.238  27.929  1.00  0.00     0.069 C 
BRANCH  19  24
ATOM     24  C   UNL A   1      33.083  20.516  25.283  1.00  0.00     0.350 C 
ATOM     25  O   UNL A   1      34.279  20.296  25.106  1.00  0.00    -0.245 OA
BRANCH  24  26
ATOM     26  O   UNL A   1      32.086  19.642  24.977  1.00  0.00    -0.465 OA
ATOM     27  C   UNL A   1      32.481  18.283  24.807  1.00  0.00     0.282 C 
ENDBRANCH  24  26
ENDBRANCH  19  24
ENDBRANCH  15  18
ENDBRANCH   9  14
ENDBRANCH   5   8
ENDBRANCH   3   4
ENDBRANCH   2   3
ENDBRANCH   1   2
BRANCH   1  28
ATOM     28  C   UNL A   1      36.707  23.324  25.760  1.00  0.00     0.002 C 
BRANCH  28  29
ATOM     29  C   UNL A   1      38.160  23.051  26.155  1.00  0.00     0.021 C 
BRANCH  29  30
ATOM     30  C   UNL A   1      38.901  24.253  26.734  1.00  0.00     0.116 C 
BRANCH  30  31
ATOM     31  N   UNL A   1      40.036  24.637  25.916  1.00  0.00    -0.352 N 
ATOM     32  C   UNL A   1      40.859  25.726  26.044  1.00  0.00     0.251 C 
ATOM     33  H   UNL A   1      40.243  24.033  25.166  1.00  0.00     0.163 HD
ATOM     34  O   UNL A   1      41.633  26.025  25.140  1.00  0.00    -0.269 OA
BRANCH  32  35
ATOM     35  C   UNL A   1      40.794  26.543  27.273  1.00  0.00     0.039 A 
ATOM     36  C   UNL A   1      41.564  27.704  27.355  1.00  0.00     0.014 A 
ATOM     37  C   UNL A   1      39.979  26.158  28.343  1.00  0.00     0.014 A 
ATOM     38  C   UNL A   1      41.486  28.502  28.497  1.00  0.00     0.010 A 
ATOM     39  C   UNL A   1      39.846  26.992  29.447  1.00  0.00     0.010 A 
ATOM     40  C   UNL A   1      40.611  28.165  29.544  1.00  0.00    -0.014 A 
BRANCH  40  41
ATOM     41  C   UNL A   1      40.502  29.020  30.753  1.00  0.00     0.031 A 
ATOM     42  C   UNL A   1      39.452  30.096  30.825  1.00  0.00     0.074 A 
ATOM     43  C   UNL A   1      41.375  28.855  31.766  1.00  0.00     0.049 A 
ATOM     44  N   UNL A   1      39.217  30.954  31.785  1.00  0.00    -0.248 NA
ATOM     45  C   UNL A   1      38.566  30.244  29.659  1.00  0.00     0.031 C 
ATOM     46  C   UNL A   1      42.464  27.875  31.796  1.00  0.00     0.029 A 
ATOM     47  N   UNL A   1      41.485  29.509  32.968  1.00  0.00    -0.354 N 
ATOM     48  C   UNL A   1      38.170  31.750  31.333  1.00  0.00     0.074 A 
ATOM     49  C   UNL A   1      37.852  31.309  29.993  1.00  0.00     0.031 C 
ATOM     50  C   UNL A   1      43.110  27.972  32.969  1.00  0.00     0.029 A 
ATOM     51  C   UNL A   1      42.511  29.045  33.757  1.00  0.00     0.049 A 
ATOM     52  H   UNL A   1      40.886  30.241  33.239  1.00  0.00     0.167 HD
ATOM     53  C   UNL A   1      37.519  32.745  31.982  1.00  0.00     0.031 A 
ATOM     54  C   UNL A   1      42.927  29.439  34.977  1.00  0.00     0.031 A 
ATOM     55  C   UNL A   1      37.834  33.172  33.319  1.00  0.00     0.049 A 
ATOM     56  C   UNL A   1      42.189  30.549  35.676  1.00  0.00     0.074 A 
ATOM     57  C   UNL A   1      37.197  34.131  34.087  1.00  0.00     0.029 A 
ATOM     58  N   UNL A   1      38.874  32.671  34.088  1.00  0.00    -0.354 N 
ATOM     59  N   UNL A   1      41.157  31.243  35.259  1.00  0.00    -0.248 NA
ATOM     60  C   UNL A   1      42.662  30.915  37.018  1.00  0.00     0.031 C 
ATOM     61  C   UNL A   1      37.887  34.251  35.297  1.00  0.00     0.029 A 
ATOM     62  C   UNL A   1      38.913  33.319  35.311  1.00  0.00     0.049 A 
ATOM     63  H   UNL A   1      39.493  31.960  33.805  1.00  0.00     0.167 HD
ATOM     64  C   UNL A   1      40.839  32.108  36.301  1.00  0.00     0.074 A 
ATOM     65  C   UNL A   1      41.778  31.839  37.370  1.00  0.00     0.031 C 
ATOM     66  C   UNL A   1      39.856  33.040  36.365  1.00  0.00     0.031 A 
BRANCH  53  67
ATOM     67  C   UNL A   1      36.405  33.446  31.248  1.00  0.00    -0.014 A 
ATOM     68  C   UNL A   1      35.141  33.624  31.838  1.00  0.00     0.010 A 
ATOM     69  C   UNL A   1      36.639  33.972  29.964  1.00  0.00     0.010 A 
ATOM     70  C   UNL A   1      34.120  34.277  31.142  1.00  0.00     0.020 A 
ATOM     71  C   UNL A   1      35.630  34.654  29.277  1.00  0.00     0.020 A 
ATOM     72  C   UNL A   1      34.371  34.787  29.865  1.00  0.00     0.054 A 
BRANCH  72  73
ATOM     73  S   UNL A   1      33.035  35.653  28.996  1.00  0.00     0.124 S 
ATOM     74  O   UNL A   1      33.776  36.618  28.189  1.00  0.00    -0.237 OA
ATOM     75  O   UNL A   1      32.388  34.577  28.250  1.00  0.00    -0.237 OA
ATOM     76  O   UNL A   1      32.234  36.228  30.074  1.00  0.00    -0.744 OA
ENDBRANCH  72  73
ENDBRANCH  53  67
BRANCH  54  77
ATOM     77  C   UNL A   1      44.091  28.768  35.617  1.00  0.00    -0.014 A 
ATOM     78  C   UNL A   1      45.400  29.221  35.380  1.00  0.00     0.010 A 
ATOM     79  C   UNL A   1      43.893  27.678  36.484  1.00  0.00     0.010 A 
ATOM     80  C   UNL A   1      46.491  28.584  35.980  1.00  0.00     0.020 A 
ATOM     81  C   UNL A   1      44.978  27.058  37.110  1.00  0.00     0.020 A 
ATOM     82  C   UNL A   1      46.272  27.509  36.845  1.00  0.00     0.054 A 
BRANCH  82  83
ATOM     83  S   UNL A   1      47.698  26.731  37.654  1.00  0.00     0.124 S 
ATOM     84  O   UNL A   1      48.373  27.881  38.249  1.00  0.00    -0.237 OA
ATOM     85  O   UNL A   1      47.063  25.813  38.596  1.00  0.00    -0.237 OA
ATOM     86  O   UNL A   1      48.409  26.089  36.551  1.00  0.00    -0.744 OA
ENDBRANCH  82  83
ENDBRANCH  54  77
BRANCH  66  87
ATOM     87  C   UNL A   1      39.717  33.814  37.651  1.00  0.00    -0.014 A 
ATOM     88  C   UNL A   1      40.282  35.093  37.801  1.00  0.00     0.010 A 
ATOM     89  C   UNL A   1      38.966  33.268  38.707  1.00  0.00     0.010 A 
ATOM     90  C   UNL A   1      40.131  35.794  39.000  1.00  0.00     0.020 A 
ATOM     91  C   UNL A   1      38.785  33.980  39.896  1.00  0.00     0.020 A 
ATOM     92  C   UNL A   1      39.383  35.232  40.041  1.00  0.00     0.054 A 
BRANCH  92  93
ATOM     93  S   UNL A   1      39.173  36.178  41.574  1.00  0.00     0.124 S 
ATOM     94  O   UNL A   1      39.106  37.550  41.078  1.00  0.00    -0.237 OA
ATOM     95  O   UNL A   1      37.925  35.643  42.113  1.00  0.00    -0.237 OA
ATOM     96  O   UNL A   1      40.369  35.854  42.349  1.00  0.00    -0.744 OA
ENDBRANCH  92  93
ENDBRANCH  66  87
ENDBRANCH  40  41
ENDBRANCH  32  35
ENDBRANCH  30  31
ENDBRANCH  29  30
ENDBRANCH  28  29
ENDBRANCH   1  28
TORSDOF 20
ENDMDL
MODEL 2
REMARK VINA RESULT:     -11.4      2.512      8.717
REMARK SMILES COC(=O)c1sc(NC(=O)[C@H]2CC=CC[C@H]2C(=O)NCCCCCCNC(=O)c2ccc(-c3c4nc(c(-c5ccc(S(=O)(=O)[O-])cc5)c5ccc([nH]5)c(-c5ccc(S(=O)(=O)[O-])cc5)c5nc(c(-c6ccc(S(=O)(=O)[O-])cc6)c6ccc3[nH]6)C=C5)C=C4)cc2)nc1C
REMARK SMILES IDX 22 1 21 2 20 3 19 4 17 5 18 6 16 8 11 9 12 10 13 11 15 12
REMARK SMILES IDX 14 13 9 14 8 15 10 17 7 18 5 19 6 20 90 21 89 22 91 23 3 24
REMARK SMILES IDX 4 25 2 26 1 27 23 28 24 29 25 30 26 31 27 32 28 34 29 35
REMARK SMILES IDX 30 36 88 37 31 38 87 39 32 40 33 41 34 42 81 43 35 44 86 45
REMARK SMILES IDX 80 46 82 47 36 48 85 49 79 50 78 51 37 53 67 54 48 55 66 56
REMARK SMILES IDX 49 57 52 58 65 59 83 60 50 61 51 62 64 64 84 65 53 66 38 67
REMARK SMILES IDX 39 68 47 69 40 70 46 71 41 72 42 73 43 74 44 75 45 76 68 77
REMARK SMILES IDX 69 78 77 79 70 80 76 81 71 82 72 83 73 84 74 85 75 86 54 87
REMARK SMILES IDX 55 88 63 89 56 90 62 91 57 92 58 93 59 94 60 95 61 96
REMARK H PARENT 19 7 8 16 26 33 82 52 52 63
REMARK Flexibility Score: inf
ROOT
ATOM      1  C   UNL A   1      32.350  28.288  26.506  1.00  0.00     0.002 C 
ENDROOT
BRANCH   1   2
ATOM      2  C   UNL A   1      31.577  26.994  26.759  1.00  0.00     0.021 C 
BRANCH   2   3
ATOM      3  C   UNL A   1      31.884  25.870  25.774  1.00  0.00     0.116 C 
BRANCH   3   4
ATOM      4  N   UNL A   1      33.311  25.714  25.565  1.00  0.00    -0.356 N 
ATOM      5  C   UNL A   1      34.077  24.613  25.352  1.00  0.00     0.224 C 
ATOM      6  O   UNL A   1      35.301  24.781  25.297  1.00  0.00    -0.275 OA
ATOM      7  H   UNL A   1      33.814  26.559  25.580  1.00  0.00     0.163 HD
BRANCH   5   8
ATOM      8  C   UNL A   1      33.498  23.218  25.143  1.00  0.00     0.095 C 
ATOM      9  C   UNL A   1      32.721  22.988  23.817  1.00  0.00     0.095 C 
ATOM     10  C   UNL A   1      32.172  21.554  23.827  1.00  0.00     0.041 C 
ATOM     11  C   UNL A   1      33.204  20.515  24.125  1.00  0.00    -0.030 C 
ATOM     12  C   UNL A   1      34.458  22.096  25.589  1.00  0.00     0.041 C 
ATOM     13  C   UNL A   1      34.241  20.767  24.932  1.00  0.00    -0.030 C 
BRANCH   9  14
ATOM     14  C   UNL A   1      33.430  23.545  22.568  1.00  0.00     0.230 C 
ATOM     15  N   UNL A   1      32.796  24.365  21.679  1.00  0.00    -0.302 N 
ATOM     16  H   UNL A   1      32.505  24.034  20.799  1.00  0.00     0.172 HD
ATOM     17  O   UNL A   1      34.568  23.152  22.290  1.00  0.00    -0.274 OA
BRANCH  15  18
ATOM     18  C   UNL A   1      32.579  25.662  22.054  1.00  0.00     0.190 A 
ATOM     19  C   UNL A   1      31.547  27.763  22.595  1.00  0.00     0.137 A 
ATOM     20  S   UNL A   1      30.971  26.189  22.173  1.00  0.00    -0.089 S 
ATOM     21  C   UNL A   1      32.932  27.740  22.662  1.00  0.00     0.065 A 
ATOM     22  N   UNL A   1      33.501  26.558  22.253  1.00  0.00    -0.224 NA
ATOM     23  C   UNL A   1      33.887  28.770  23.142  1.00  0.00     0.069 C 
BRANCH  19  24
ATOM     24  C   UNL A   1      30.628  28.845  22.831  1.00  0.00     0.350 C 
ATOM     25  O   UNL A   1      30.478  29.465  23.881  1.00  0.00    -0.245 OA
BRANCH  24  26
ATOM     26  O   UNL A   1      29.927  29.084  21.689  1.00  0.00    -0.465 OA
ATOM     27  C   UNL A   1      29.089  30.237  21.704  1.00  0.00     0.282 C 
ENDBRANCH  24  26
ENDBRANCH  19  24
ENDBRANCH  15  18
ENDBRANCH   9  14
ENDBRANCH   5   8
ENDBRANCH   3   4
ENDBRANCH   2   3
ENDBRANCH   1   2
BRANCH   1  28
ATOM     28  C   UNL A   1      31.818  29.506  27.262  1.00  0.00     0.002 C 
BRANCH  28  29
ATOM     29  C   UNL A   1      32.155  30.856  26.624  1.00  0.00     0.021 C 
BRANCH  29  30
ATOM     30  C   UNL A   1      33.310  31.604  27.285  1.00  0.00     0.116 C 
BRANCH  30  31
ATOM     31  N   UNL A   1      32.945  32.963  27.637  1.00  0.00    -0.352 N 
ATOM     32  C   UNL A   1      33.461  33.765  28.622  1.00  0.00     0.251 C 
ATOM     33  H   UNL A   1      32.227  33.366  27.094  1.00  0.00     0.163 HD
ATOM     34  O   UNL A   1      32.892  34.805  28.935  1.00  0.00    -0.269 OA
BRANCH  32  35
ATOM     35  C   UNL A   1      34.702  33.355  29.312  1.00  0.00     0.039 A 
ATOM     36  C   UNL A   1      35.909  33.949  28.943  1.00  0.00     0.014 A 
ATOM     37  C   UNL A   1      34.670  32.382  30.317  1.00  0.00     0.014 A 
ATOM     38  C   UNL A   1      37.083  33.595  29.609  1.00  0.00     0.010 A 
ATOM     39  C   UNL A   1      35.827  32.087  31.030  1.00  0.00     0.010 A 
ATOM     40  C   UNL A   1      37.049  32.678  30.674  1.00  0.00    -0.014 A 
BRANCH  40  41
ATOM     41  C   UNL A   1      38.288  32.312  31.405  1.00  0.00     0.031 A 
ATOM     42  C   UNL A   1      39.239  31.301  30.823  1.00  0.00     0.074 A 
ATOM     43  C   UNL A   1      38.535  32.858  32.613  1.00  0.00     0.049 A 
ATOM     44  N   UNL A   1      40.357  30.839  31.321  1.00  0.00    -0.248 NA
ATOM     45  C   UNL A   1      38.876  30.716  29.521  1.00  0.00     0.031 C 
ATOM     46  C   UNL A   1      37.668  33.817  33.303  1.00  0.00     0.029 A 
ATOM     47  N   UNL A   1      39.588  32.683  33.475  1.00  0.00    -0.354 N 
ATOM     48  C   UNL A   1      40.820  29.900  30.405  1.00  0.00     0.074 A 
ATOM     49  C   UNL A   1      39.838  29.820  29.348  1.00  0.00     0.031 C 
ATOM     50  C   UNL A   1      38.240  34.168  34.466  1.00  0.00     0.029 A 
ATOM     51  C   UNL A   1      39.491  33.432  34.624  1.00  0.00     0.049 A 
ATOM     52  H   UNL A   1      40.342  32.079  33.289  1.00  0.00     0.167 HD
ATOM     53  C   UNL A   1      41.971  29.186  30.431  1.00  0.00     0.031 A 
ATOM     54  C   UNL A   1      40.313  33.515  35.689  1.00  0.00     0.031 A 
ATOM     55  C   UNL A   1      42.950  29.278  31.481  1.00  0.00     0.049 A 
ATOM     56  C   UNL A   1      41.583  32.709  35.696  1.00  0.00     0.074 A 
ATOM     57  C   UNL A   1      44.174  28.639  31.573  1.00  0.00     0.029 A 
ATOM     58  N   UNL A   1      42.818  30.054  32.623  1.00  0.00    -0.354 N 
ATOM     59  N   UNL A   1      42.037  31.879  34.787  1.00  0.00    -0.248 NA
ATOM     60  C   UNL A   1      42.460  32.864  36.865  1.00  0.00     0.031 C 
ATOM     61  C   UNL A   1      44.757  28.984  32.796  1.00  0.00     0.029 A 
ATOM     62  C   UNL A   1      43.927  29.891  33.436  1.00  0.00     0.049 A 
ATOM     63  H   UNL A   1      42.050  30.635  32.825  1.00  0.00     0.167 HD
ATOM     64  C   UNL A   1      43.268  31.436  35.261  1.00  0.00     0.074 A 
ATOM     65  C   UNL A   1      43.491  32.102  36.529  1.00  0.00     0.031 C 
ATOM     66  C   UNL A   1      44.134  30.559  34.697  1.00  0.00     0.031 A 
BRANCH  53  67
ATOM     67  C   UNL A   1      42.227  28.233  29.292  1.00  0.00    -0.014 A 
ATOM     68  C   UNL A   1      42.976  28.624  28.167  1.00  0.00     0.010 A 
ATOM     69  C   UNL A   1      41.747  26.912  29.366  1.00  0.00     0.010 A 
ATOM     70  C   UNL A   1      43.203  27.727  27.120  1.00  0.00     0.020 A 
ATOM     71  C   UNL A   1      41.999  26.002  28.335  1.00  0.00     0.020 A 
ATOM     72  C   UNL A   1      42.712  26.421  27.211  1.00  0.00     0.054 A 
BRANCH  72  73
ATOM     73  S   UNL A   1      43.046  25.271  25.849  1.00  0.00     0.124 S 
ATOM     74  O   UNL A   1      42.562  26.023  24.694  1.00  0.00    -0.237 OA
ATOM     75  O   UNL A   1      44.494  25.098  25.923  1.00  0.00    -0.237 OA
ATOM     76  O   UNL A   1      42.262  24.087  26.193  1.00  0.00    -0.744 OA
ENDBRANCH  72  73
ENDBRANCH  53  67
BRANCH  54  77
ATOM     77  C   UNL A   1      39.964  34.409  36.828  1.00  0.00    -0.014 A 
ATOM     78  C   UNL A   1      39.294  33.904  37.956  1.00  0.00     0.010 A 
ATOM     79  C   UNL A   1      40.315  35.771  36.796  1.00  0.00     0.010 A 
ATOM     80  C   UNL A   1      38.965  34.747  39.022  1.00  0.00     0.020 A 
ATOM     81  C   UNL A   1      40.015  36.611  37.871  1.00  0.00     0.020 A 
ATOM     82  C   UNL A   1      39.331  36.095  38.973  1.00  0.00     0.054 A 
BRANCH  82  83
ATOM     83  S   UNL A   1      38.940  37.160  40.390  1.00  0.00     0.124 S 
ATOM     84  O   UNL A   1      38.086  36.292  41.195  1.00  0.00    -0.237 OA
ATOM     85  O   UNL A   1      40.262  37.442  40.945  1.00  0.00    -0.237 OA
ATOM     86  O   UNL A   1      38.271  38.307  39.780  1.00  0.00    -0.744 OA
ENDBRANCH  82  83
ENDBRANCH  54  77
BRANCH  66  87
ATOM     87  C   UNL A   1      45.426  30.295  35.425  1.00  0.00    -0.014 A 
ATOM     88  C   UNL A   1      46.564  31.096  35.214  1.00  0.00     0.010 A 
ATOM     89  C   UNL A   1      45.486  29.257  36.372  1.00  0.00     0.010 A 
ATOM     90  C   UNL A   1      47.747  30.836  35.909  1.00  0.00     0.020 A 
ATOM     91  C   UNL A   1      46.658  29.014  37.093  1.00  0.00     0.020 A 
ATOM     92  C   UNL A   1      47.787  29.796  36.844  1.00  0.00     0.054 A 
BRANCH  92  93
ATOM     93  S   UNL A   1      49.326  29.503  37.758  1.00  0.00     0.124 S 
ATOM     94  O   UNL A   1      49.092  28.179  38.330  1.00  0.00    -0.237 OA
ATOM     95  O   UNL A   1      50.339  29.563  36.708  1.00  0.00    -0.237 OA
ATOM     96  O   UNL A   1      49.371  30.598  38.723  1.00  0.00    -0.744 OA
ENDBRANCH  92  93
ENDBRANCH  66  87
ENDBRANCH  40  41
ENDBRANCH  32  35
ENDBRANCH  30  31
ENDBRANCH  29  30
ENDBRANCH  28  29
ENDBRANCH   1  28
TORSDOF 20
ENDMDL
MODEL 3
REMARK VINA RESULT:     -11.4      5.845     10.150
REMARK SMILES COC(=O)c1sc(NC(=O)[C@H]2CC=CC[C@H]2C(=O)NCCCCCCNC(=O)c2ccc(-c3c4nc(c(-c5ccc(S(=O)(=O)[O-])cc5)c5ccc([nH]5)c(-c5ccc(S(=O)(=O)[O-])cc5)c5nc(c(-c6ccc(S(=O)(=O)[O-])cc6)c6ccc3[nH]6)C=C5)C=C4)cc2)nc1C
REMARK SMILES IDX 22 1 21 2 20 3 19 4 17 5 18 6 16 8 11 9 12 10 13 11 15 12
REMARK SMILES IDX 14 13 9 14 8 15 10 17 7 18 5 19 6 20 90 21 89 22 91 23 3 24
REMARK SMILES IDX 4 25 2 26 1 27 23 28 24 29 25 30 26 31 27 32 28 34 29 35
REMARK SMILES IDX 30 36 88 37 31 38 87 39 32 40 33 41 34 42 81 43 35 44 86 45
REMARK SMILES IDX 80 46 82 47 36 48 85 49 79 50 78 51 37 53 67 54 48 55 66 56
REMARK SMILES IDX 49 57 52 58 65 59 83 60 50 61 51 62 64 64 84 65 53 66 38 67
REMARK SMILES IDX 39 68 47 69 40 70 46 71 41 72 42 73 43 74 44 75 45 76 68 77
REMARK SMILES IDX 69 78 77 79 70 80 76 81 71 82 72 83 73 84 74 85 75 86 54 87
REMARK SMILES IDX 55 88 63 89 56 90 62 91 57 92 58 93 59 94 60 95 61 96
REMARK H PARENT 19 7 8 16 26 33 82 52 52 63
REMARK Flexibility Score: inf
ROOT
ATOM      1  C   UNL A   1      36.077  23.060  24.475  1.00  0.00     0.002 C 
ENDROOT
BRANCH   1   2
ATOM      2  C   UNL A   1      35.038  23.068  23.354  1.00  0.00     0.021 C 
BRANCH   2   3
ATOM      3  C   UNL A   1      34.057  24.236  23.409  1.00  0.00     0.116 C 
BRANCH   3   4
ATOM      4  N   UNL A   1      34.197  24.997  24.635  1.00  0.00    -0.356 N 
ATOM      5  C   UNL A   1      33.607  26.144  25.058  1.00  0.00     0.224 C 
ATOM      6  O   UNL A   1      33.996  26.615  26.133  1.00  0.00    -0.275 OA
ATOM      7  H   UNL A   1      34.835  24.611  25.278  1.00  0.00     0.163 HD
BRANCH   5   8
ATOM      8  C   UNL A   1      32.482  26.836  24.296  1.00  0.00     0.095 C 
ATOM      9  C   UNL A   1      31.072  26.191  24.415  1.00  0.00     0.095 C 
ATOM     10  C   UNL A   1      30.103  26.994  23.535  1.00  0.00     0.041 C 
ATOM     11  C   UNL A   1      30.131  28.465  23.795  1.00  0.00    -0.030 C 
ATOM     12  C   UNL A   1      32.550  28.375  24.389  1.00  0.00     0.041 C 
ATOM     13  C   UNL A   1      31.250  29.089  24.180  1.00  0.00    -0.030 C 
BRANCH   9  14
ATOM     14  C   UNL A   1      30.681  25.796  25.851  1.00  0.00     0.230 C 
ATOM     15  N   UNL A   1      30.275  24.533  26.171  1.00  0.00    -0.302 N 
ATOM     16  H   UNL A   1      29.328  24.332  26.351  1.00  0.00     0.172 HD
ATOM     17  O   UNL A   1      30.616  26.668  26.724  1.00  0.00    -0.274 OA
BRANCH  15  18
ATOM     18  C   UNL A   1      31.229  23.554  26.233  1.00  0.00     0.190 A 
ATOM     19  C   UNL A   1      32.546  21.590  25.812  1.00  0.00     0.137 A 
ATOM     20  S   UNL A   1      31.199  22.348  25.040  1.00  0.00    -0.089 S 
ATOM     21  C   UNL A   1      32.943  22.358  26.896  1.00  0.00     0.065 A 
ATOM     22  N   UNL A   1      32.116  23.419  27.174  1.00  0.00    -0.224 NA
ATOM     23  C   UNL A   1      34.136  22.238  27.771  1.00  0.00     0.069 C 
BRANCH  19  24
ATOM     24  C   UNL A   1      33.091  20.359  25.302  1.00  0.00     0.350 C 
ATOM     25  O   UNL A   1      34.263  20.142  25.008  1.00  0.00    -0.245 OA
BRANCH  24  26
ATOM     26  O   UNL A   1      32.086  19.449  25.184  1.00  0.00    -0.465 OA
ATOM     27  C   UNL A   1      32.436  18.215  24.562  1.00  0.00     0.282 C 
ENDBRANCH  24  26
ENDBRANCH  19  24
ENDBRANCH  15  18
ENDBRANCH   9  14
ENDBRANCH   5   8
ENDBRANCH   3   4
ENDBRANCH   2   3
ENDBRANCH   1   2
BRANCH   1  28
ATOM     28  C   UNL A   1      37.334  22.243  24.172  1.00  0.00     0.002 C 
BRANCH  28  29
ATOM     29  C   UNL A   1      37.701  21.209  25.238  1.00  0.00     0.021 C 
BRANCH  29  30
ATOM     30  C   UNL A   1      38.978  21.517  26.015  1.00  0.00     0.116 C 
BRANCH  30  31
ATOM     31  N   UNL A   1      39.923  20.418  25.964  1.00  0.00    -0.352 N 
ATOM     32  C   UNL A   1      41.292  20.457  26.041  1.00  0.00     0.251 C 
ATOM     33  H   UNL A   1      39.529  19.521  25.860  1.00  0.00     0.163 HD
ATOM     34  O   UNL A   1      41.955  19.465  25.757  1.00  0.00    -0.269 OA
BRANCH  32  35
ATOM     35  C   UNL A   1      41.959  21.709  26.453  1.00  0.00     0.039 A 
ATOM     36  C   UNL A   1      42.211  22.689  25.492  1.00  0.00     0.014 A 
ATOM     37  C   UNL A   1      42.338  21.910  27.784  1.00  0.00     0.014 A 
ATOM     38  C   UNL A   1      42.810  23.890  25.874  1.00  0.00     0.010 A 
ATOM     39  C   UNL A   1      42.865  23.136  28.176  1.00  0.00     0.010 A 
ATOM     40  C   UNL A   1      43.122  24.133  27.222  1.00  0.00    -0.014 A 
BRANCH  40  41
ATOM     41  C   UNL A   1      43.737  25.417  27.644  1.00  0.00     0.031 A 
ATOM     42  C   UNL A   1      45.199  25.674  27.388  1.00  0.00     0.074 A 
ATOM     43  C   UNL A   1      42.992  26.332  28.293  1.00  0.00     0.049 A 
ATOM     44  N   UNL A   1      45.918  26.721  27.700  1.00  0.00    -0.248 NA
ATOM     45  C   UNL A   1      45.956  24.606  26.713  1.00  0.00     0.031 C 
ATOM     46  C   UNL A   1      41.576  26.182  28.639  1.00  0.00     0.029 A 
ATOM     47  N   UNL A   1      43.322  27.572  28.782  1.00  0.00    -0.354 N 
ATOM     48  C   UNL A   1      47.211  26.433  27.277  1.00  0.00     0.074 A 
ATOM     49  C   UNL A   1      47.189  25.093  26.734  1.00  0.00     0.031 C 
ATOM     50  C   UNL A   1      41.153  27.298  29.253  1.00  0.00     0.029 A 
ATOM     51  C   UNL A   1      42.272  28.225  29.383  1.00  0.00     0.049 A 
ATOM     52  H   UNL A   1      44.225  27.957  28.707  1.00  0.00     0.167 HD
ATOM     53  C   UNL A   1      48.312  27.220  27.317  1.00  0.00     0.031 A 
ATOM     54  C   UNL A   1      42.217  29.434  29.977  1.00  0.00     0.031 A 
ATOM     55  C   UNL A   1      48.326  28.557  27.849  1.00  0.00     0.049 A 
ATOM     56  C   UNL A   1      43.454  30.289  30.012  1.00  0.00     0.074 A 
ATOM     57  C   UNL A   1      49.376  29.457  27.883  1.00  0.00     0.029 A 
ATOM     58  N   UNL A   1      47.240  29.185  28.441  1.00  0.00    -0.354 N 
ATOM     59  N   UNL A   1      44.651  30.025  29.543  1.00  0.00    -0.248 NA
ATOM     60  C   UNL A   1      43.329  31.611  30.640  1.00  0.00     0.031 C 
ATOM     61  C   UNL A   1      48.942  30.608  28.548  1.00  0.00     0.029 A 
ATOM     62  C   UNL A   1      47.602  30.452  28.867  1.00  0.00     0.049 A 
ATOM     63  H   UNL A   1      46.345  28.789  28.543  1.00  0.00     0.167 HD
ATOM     64  C   UNL A   1      45.413  31.162  29.794  1.00  0.00     0.074 A 
ATOM     65  C   UNL A   1      44.538  32.117  30.441  1.00  0.00     0.031 C 
ATOM     66  C   UNL A   1      46.719  31.392  29.512  1.00  0.00     0.031 A 
BRANCH  53  67
ATOM     67  C   UNL A   1      49.599  26.649  26.778  1.00  0.00    -0.014 A 
ATOM     68  C   UNL A   1      49.951  26.795  25.423  1.00  0.00     0.010 A 
ATOM     69  C   UNL A   1      50.490  25.993  27.647  1.00  0.00     0.010 A 
ATOM     70  C   UNL A   1      51.148  26.259  24.941  1.00  0.00     0.020 A 
ATOM     71  C   UNL A   1      51.703  25.483  27.176  1.00  0.00     0.020 A 
ATOM     72  C   UNL A   1      52.016  25.605  25.821  1.00  0.00     0.054 A 
BRANCH  72  73
ATOM     73  S   UNL A   1      53.575  24.943  25.172  1.00  0.00     0.124 S 
ATOM     74  O   UNL A   1      53.310  23.507  25.159  1.00  0.00    -0.237 OA
ATOM     75  O   UNL A   1      53.669  25.576  23.859  1.00  0.00    -0.237 OA
ATOM     76  O   UNL A   1      54.572  25.383  26.145  1.00  0.00    -0.744 OA
ENDBRANCH  72  73
ENDBRANCH  53  67
BRANCH  54  77
ATOM     77  C   UNL A   1      40.938  29.910  30.572  1.00  0.00    -0.014 A 
ATOM     78  C   UNL A   1      40.010  30.630  29.799  1.00  0.00     0.010 A 
ATOM     79  C   UNL A   1      40.633  29.632  31.917  1.00  0.00     0.010 A 
ATOM     80  C   UNL A   1      38.812  31.079  30.363  1.00  0.00     0.020 A 
ATOM     81  C   UNL A   1      39.424  30.052  32.477  1.00  0.00     0.020 A 
ATOM     82  C   UNL A   1      38.526  30.783  31.699  1.00  0.00     0.054 A 
BRANCH  82  83
ATOM     83  S   UNL A   1      36.942  31.330  32.396  1.00  0.00     0.124 S 
ATOM     84  O   UNL A   1      36.107  30.146  32.216  1.00  0.00    -0.237 OA
ATOM     85  O   UNL A   1      37.300  31.650  33.776  1.00  0.00    -0.237 OA
ATOM     86  O   UNL A   1      36.584  32.481  31.570  1.00  0.00    -0.744 OA
ENDBRANCH  82  83
ENDBRANCH  54  77
BRANCH  66  87
ATOM     87  C   UNL A   1      47.276  32.747  29.864  1.00  0.00    -0.014 A 
ATOM     88  C   UNL A   1      47.854  32.998  31.122  1.00  0.00     0.010 A 
ATOM     89  C   UNL A   1      47.263  33.771  28.900  1.00  0.00     0.010 A 
ATOM     90  C   UNL A   1      48.372  34.261  31.420  1.00  0.00     0.020 A 
ATOM     91  C   UNL A   1      47.810  35.025  29.183  1.00  0.00     0.020 A 
ATOM     92  C   UNL A   1      48.346  35.267  30.449  1.00  0.00     0.054 A 
BRANCH  92  93
ATOM     93  S   UNL A   1      49.057  36.886  30.850  1.00  0.00     0.124 S 
ATOM     94  O   UNL A   1      49.138  36.830  32.307  1.00  0.00    -0.237 OA
ATOM     95  O   UNL A   1      50.338  36.858  30.148  1.00  0.00    -0.237 OA
ATOM     96  O   UNL A   1      48.082  37.835  30.317  1.00  0.00    -0.744 OA
ENDBRANCH  92  93
ENDBRANCH  66  87
ENDBRANCH  40  41
ENDBRANCH  32  35
ENDBRANCH  30  31
ENDBRANCH  29  30
ENDBRANCH  28  29
ENDBRANCH   1  28
TORSDOF 20
ENDMDL
