MODEL 1
REMARK VINA RESULT:     -11.4      0.000      0.000
REMARK SMILES COCc1cccc(C(=O)N2C[C@@H](O)C[C@@H]2C(=O)NCCCCCCNC(=O)c2ccc(-c3c4nc(c(-c5ccc(S(=O)(=O)[O-])cc5)c5ccc([nH]5)c(-c5ccc(S(=O)(=O)[O-])cc5)c5nc(c(-c6ccc(S(=O)(=O)[O-])cc6)c6ccc3[nH]6)C=C5)C=C4)cc2)c1
REMARK SMILES IDX 22 1 21 2 20 3 19 4 17 5 18 6 16 8 11 9 12 10 13 11 15 12
REMARK SMILES IDX 9 13 10 14 8 15 4 16 5 17 89 18 6 19 7 20 3 21 2 22 1 23
REMARK SMILES IDX 14 24 23 26 24 27 25 28 26 29 27 30 28 32 29 33 30 34 88 35
REMARK SMILES IDX 31 36 87 37 32 38 33 39 34 40 81 41 35 42 86 43 80 44 82 45
REMARK SMILES IDX 36 46 85 47 79 48 78 49 37 51 67 52 48 53 66 54 49 55 52 56
REMARK SMILES IDX 65 57 83 58 50 59 51 60 64 62 84 63 53 64 38 65 39 66 47 67
REMARK SMILES IDX 40 68 46 69 41 70 42 71 43 72 44 73 45 74 68 75 69 76 77 77
REMARK SMILES IDX 70 78 76 79 71 80 72 81 73 82 74 83 75 84 54 85 55 86 63 87
REMARK SMILES IDX 56 88 62 89 57 90 58 91 59 92 60 93 61 94
REMARK H PARENT 19 7 14 25 26 31 82 50 52 61
REMARK Flexibility Score: inf
ROOT
ATOM      1  C   UNL A   1      37.266  23.563  25.994  1.00  0.00     0.002 C 
ENDROOT
BRANCH   1   2
ATOM      2  C   UNL A   1      35.795  23.621  25.590  1.00  0.00     0.021 C 
BRANCH   2   3
ATOM      3  C   UNL A   1      35.377  22.766  24.399  1.00  0.00     0.116 C 
BRANCH   3   4
ATOM      4  N   UNL A   1      34.787  23.489  23.303  1.00  0.00    -0.354 N 
ATOM      5  C   UNL A   1      33.497  23.879  23.101  1.00  0.00     0.242 C 
ATOM      6  O   UNL A   1      33.330  24.682  22.169  1.00  0.00    -0.273 OA
ATOM      7  H   UNL A   1      35.414  23.741  22.587  1.00  0.00     0.163 HD
BRANCH   5   8
ATOM      8  C   UNL A   1      32.243  23.397  23.912  1.00  0.00     0.177 C 
ATOM      9  N   UNL A   1      32.043  23.598  25.361  1.00  0.00    -0.324 N 
ATOM     10  C   UNL A   1      31.712  22.337  26.007  1.00  0.00     0.152 C 
ATOM     11  C   UNL A   1      32.418  21.311  25.140  1.00  0.00     0.136 C 
ATOM     12  C   UNL A   1      32.149  21.858  23.741  1.00  0.00     0.069 C 
BRANCH   9  13
ATOM     13  C   UNL A   1      31.645  24.824  25.878  1.00  0.00     0.254 C 
ATOM     14  O   UNL A   1      30.729  24.913  26.691  1.00  0.00    -0.269 OA
BRANCH  13  15
ATOM     15  C   UNL A   1      32.176  26.075  25.216  1.00  0.00     0.040 A 
ATOM     16  C   UNL A   1      31.733  28.306  24.281  1.00  0.00    -0.022 A 
ATOM     17  C   UNL A   1      33.048  28.673  24.576  1.00  0.00     0.006 A 
ATOM     18  C   UNL A   1      31.322  27.000  24.584  1.00  0.00     0.020 A 
ATOM     19  C   UNL A   1      33.922  27.759  25.171  1.00  0.00     0.001 A 
ATOM     20  C   UNL A   1      33.487  26.470  25.497  1.00  0.00     0.014 A 
BRANCH  16  21
ATOM     21  C   UNL A   1      30.720  29.300  23.762  1.00  0.00     0.195 C 
BRANCH  21  22
ATOM     22  O   UNL A   1      30.433  29.115  22.384  1.00  0.00    -0.380 OA
ATOM     23  C   UNL A   1      29.546  30.093  21.861  1.00  0.00     0.195 C 
ENDBRANCH  21  22
ENDBRANCH  16  21
ENDBRANCH  13  15
ENDBRANCH   9  13
BRANCH  11  24
ATOM     24  O   UNL A   1      31.928  19.995  25.305  1.00  0.00    -0.391 OA
ATOM     25  H   UNL A   1      30.981  19.974  25.096  1.00  0.00     0.211 HD
ENDBRANCH  11  24
ENDBRANCH   5   8
ENDBRANCH   3   4
ENDBRANCH   2   3
ENDBRANCH   1   2
BRANCH   1  26
ATOM     26  C   UNL A   1      38.037  22.285  25.641  1.00  0.00     0.002 C 
BRANCH  26  27
ATOM     27  C   UNL A   1      39.318  21.979  26.428  1.00  0.00     0.021 C 
BRANCH  27  28
ATOM     28  C   UNL A   1      40.061  23.164  27.045  1.00  0.00     0.116 C 
BRANCH  28  29
ATOM     29  N   UNL A   1      40.794  23.951  26.074  1.00  0.00    -0.352 N 
ATOM     30  C   UNL A   1      41.135  25.281  26.066  1.00  0.00     0.251 C 
ATOM     31  H   UNL A   1      41.099  23.446  25.285  1.00  0.00     0.163 HD
ATOM     32  O   UNL A   1      41.676  25.738  25.060  1.00  0.00    -0.269 OA
BRANCH  30  33
ATOM     33  C   UNL A   1      40.862  26.185  27.215  1.00  0.00     0.039 A 
ATOM     34  C   UNL A   1      41.736  27.260  27.420  1.00  0.00     0.014 A 
ATOM     35  C   UNL A   1      39.840  25.954  28.142  1.00  0.00     0.014 A 
ATOM     36  C   UNL A   1      41.576  28.107  28.523  1.00  0.00     0.010 A 
ATOM     37  C   UNL A   1      39.649  26.833  29.219  1.00  0.00     0.010 A 
ATOM     38  C   UNL A   1      40.522  27.912  29.430  1.00  0.00    -0.014 A 
BRANCH  38  39
ATOM     39  C   UNL A   1      40.356  28.828  30.595  1.00  0.00     0.031 A 
ATOM     40  C   UNL A   1      41.213  28.686  31.827  1.00  0.00     0.074 A 
ATOM     41  C   UNL A   1      39.424  29.801  30.555  1.00  0.00     0.049 A 
ATOM     42  N   UNL A   1      41.237  29.429  32.905  1.00  0.00    -0.248 NA
ATOM     43  C   UNL A   1      42.151  27.554  31.858  1.00  0.00     0.031 C 
ATOM     44  C   UNL A   1      38.492  30.033  29.450  1.00  0.00     0.029 A 
ATOM     45  N   UNL A   1      39.107  30.779  31.467  1.00  0.00    -0.354 N 
ATOM     46  C   UNL A   1      42.187  28.857  33.745  1.00  0.00     0.074 A 
ATOM     47  C   UNL A   1      42.677  27.673  33.069  1.00  0.00     0.031 C 
ATOM     48  C   UNL A   1      37.723  31.095  29.740  1.00  0.00     0.029 A 
ATOM     49  C   UNL A   1      38.091  31.609  31.057  1.00  0.00     0.049 A 
ATOM     50  H   UNL A   1      39.565  30.875  32.334  1.00  0.00     0.167 HD
ATOM     51  C   UNL A   1      42.628  29.282  34.954  1.00  0.00     0.031 A 
ATOM     52  C   UNL A   1      37.518  32.669  31.662  1.00  0.00     0.031 A 
ATOM     53  C   UNL A   1      42.146  30.456  35.636  1.00  0.00     0.049 A 
ATOM     54  C   UNL A   1      38.029  33.132  32.998  1.00  0.00     0.074 A 
ATOM     55  C   UNL A   1      42.571  30.988  36.842  1.00  0.00     0.029 A 
ATOM     56  N   UNL A   1      41.127  31.278  35.177  1.00  0.00    -0.354 N 
ATOM     57  N   UNL A   1      38.982  32.619  33.738  1.00  0.00    -0.248 NA
ATOM     58  C   UNL A   1      37.400  34.333  33.569  1.00  0.00     0.031 C 
ATOM     59  C   UNL A   1      41.780  32.105  37.134  1.00  0.00     0.029 A 
ATOM     60  C   UNL A   1      40.896  32.299  36.085  1.00  0.00     0.049 A 
ATOM     61  H   UNL A   1      40.640  31.153  34.331  1.00  0.00     0.167 HD
ATOM     62  C   UNL A   1      39.082  33.447  34.853  1.00  0.00     0.074 A 
ATOM     63  C   UNL A   1      38.104  34.501  34.681  1.00  0.00     0.031 C 
ATOM     64  C   UNL A   1      39.914  33.340  35.919  1.00  0.00     0.031 A 
BRANCH  51  65
ATOM     65  C   UNL A   1      43.691  28.452  35.629  1.00  0.00    -0.014 A 
ATOM     66  C   UNL A   1      45.057  28.703  35.403  1.00  0.00     0.010 A 
ATOM     67  C   UNL A   1      43.323  27.420  36.510  1.00  0.00     0.010 A 
ATOM     68  C   UNL A   1      46.033  27.898  35.998  1.00  0.00     0.020 A 
ATOM     69  C   UNL A   1      44.297  26.630  37.129  1.00  0.00     0.020 A 
ATOM     70  C   UNL A   1      45.645  26.859  36.848  1.00  0.00     0.054 A 
BRANCH  70  71
ATOM     71  S   UNL A   1      46.930  25.816  37.593  1.00  0.00     0.124 S 
ATOM     72  O   UNL A   1      46.580  25.881  39.010  1.00  0.00    -0.237 OA
ATOM     73  O   UNL A   1      46.709  24.523  36.952  1.00  0.00    -0.237 OA
ATOM     74  O   UNL A   1      48.174  26.487  37.227  1.00  0.00    -0.744 OA
ENDBRANCH  70  71
ENDBRANCH  51  65
BRANCH  52  75
ATOM     75  C   UNL A   1      36.399  33.378  30.985  1.00  0.00    -0.014 A 
ATOM     76  C   UNL A   1      35.205  33.656  31.672  1.00  0.00     0.010 A 
ATOM     77  C   UNL A   1      36.544  33.814  29.655  1.00  0.00     0.010 A 
ATOM     78  C   UNL A   1      34.172  34.353  31.040  1.00  0.00     0.020 A 
ATOM     79  C   UNL A   1      35.524  34.533  29.029  1.00  0.00     0.020 A 
ATOM     80  C   UNL A   1      34.341  34.793  29.723  1.00  0.00     0.054 A 
BRANCH  80  81
ATOM     81  S   UNL A   1      33.022  35.769  28.948  1.00  0.00     0.124 S 
ATOM     82  O   UNL A   1      33.779  36.795  28.241  1.00  0.00    -0.237 OA
ATOM     83  O   UNL A   1      32.350  34.783  28.107  1.00  0.00    -0.237 OA
ATOM     84  O   UNL A   1      32.236  36.241  30.088  1.00  0.00    -0.744 OA
ENDBRANCH  80  81
ENDBRANCH  52  75
BRANCH  64  85
ATOM     85  C   UNL A   1      39.818  34.405  36.982  1.00  0.00    -0.014 A 
ATOM     86  C   UNL A   1      39.025  34.223  38.128  1.00  0.00     0.010 A 
ATOM     87  C   UNL A   1      40.562  35.592  36.845  1.00  0.00     0.010 A 
ATOM     88  C   UNL A   1      38.948  35.224  39.102  1.00  0.00     0.020 A 
ATOM     89  C   UNL A   1      40.506  36.585  37.828  1.00  0.00     0.020 A 
ATOM     90  C   UNL A   1      39.685  36.401  38.943  1.00  0.00     0.054 A 
BRANCH  90  91
ATOM     91  S   UNL A   1      39.591  37.676  40.232  1.00  0.00     0.124 S 
ATOM     92  O   UNL A   1      39.147  36.905  41.389  1.00  0.00    -0.237 OA
ATOM     93  O   UNL A   1      40.964  38.171  40.296  1.00  0.00    -0.237 OA
ATOM     94  O   UNL A   1      38.616  38.628  39.705  1.00  0.00    -0.744 OA
ENDBRANCH  90  91
ENDBRANCH  64  85
ENDBRANCH  38  39
ENDBRANCH  30  33
ENDBRANCH  28  29
ENDBRANCH  27  28
ENDBRANCH  26  27
ENDBRANCH   1  26
TORSDOF 21
ENDMDL
MODEL 2
REMARK VINA RESULT:     -11.2      4.304     10.297
REMARK SMILES COCc1cccc(C(=O)N2C[C@@H](O)C[C@@H]2C(=O)NCCCCCCNC(=O)c2ccc(-c3c4nc(c(-c5ccc(S(=O)(=O)[O-])cc5)c5ccc([nH]5)c(-c5ccc(S(=O)(=O)[O-])cc5)c5nc(c(-c6ccc(S(=O)(=O)[O-])cc6)c6ccc3[nH]6)C=C5)C=C4)cc2)c1
REMARK SMILES IDX 22 1 21 2 20 3 19 4 17 5 18 6 16 8 11 9 12 10 13 11 15 12
REMARK SMILES IDX 9 13 10 14 8 15 4 16 5 17 89 18 6 19 7 20 3 21 2 22 1 23
REMARK SMILES IDX 14 24 23 26 24 27 25 28 26 29 27 30 28 32 29 33 30 34 88 35
REMARK SMILES IDX 31 36 87 37 32 38 33 39 34 40 81 41 35 42 86 43 80 44 82 45
REMARK SMILES IDX 36 46 85 47 79 48 78 49 37 51 67 52 48 53 66 54 49 55 52 56
REMARK SMILES IDX 65 57 83 58 50 59 51 60 64 62 84 63 53 64 38 65 39 66 47 67
REMARK SMILES IDX 40 68 46 69 41 70 42 71 43 72 44 73 45 74 68 75 69 76 77 77
REMARK SMILES IDX 70 78 76 79 71 80 72 81 73 82 74 83 75 84 54 85 55 86 63 87
REMARK SMILES IDX 56 88 62 89 57 90 58 91 59 92 60 93 61 94
REMARK H PARENT 19 7 14 25 26 31 82 50 52 61
REMARK Flexibility Score: inf
ROOT
ATOM      1  C   UNL A   1      33.663  26.671  23.011  1.00  0.00     0.002 C 
ENDROOT
BRANCH   1   2
ATOM      2  C   UNL A   1      32.667  26.382  21.891  1.00  0.00     0.021 C 
BRANCH   2   3
ATOM      3  C   UNL A   1      31.470  25.508  22.248  1.00  0.00     0.116 C 
BRANCH   3   4
ATOM      4  N   UNL A   1      31.744  24.097  22.329  1.00  0.00    -0.354 N 
ATOM      5  C   UNL A   1      31.910  23.296  23.419  1.00  0.00     0.242 C 
ATOM      6  O   UNL A   1      31.913  22.078  23.181  1.00  0.00    -0.273 OA
ATOM      7  H   UNL A   1      31.822  23.639  21.461  1.00  0.00     0.163 HD
BRANCH   5   8
ATOM      8  C   UNL A   1      32.112  23.774  24.901  1.00  0.00     0.177 C 
ATOM      9  N   UNL A   1      32.835  23.017  25.942  1.00  0.00    -0.324 N 
ATOM     10  C   UNL A   1      32.016  22.893  27.139  1.00  0.00     0.152 C 
ATOM     11  C   UNL A   1      30.601  22.905  26.590  1.00  0.00     0.136 C 
ATOM     12  C   UNL A   1      30.702  23.981  25.513  1.00  0.00     0.069 C 
BRANCH   9  13
ATOM     13  C   UNL A   1      34.223  22.981  25.986  1.00  0.00     0.254 C 
ATOM     14  O   UNL A   1      34.893  24.009  25.983  1.00  0.00    -0.269 OA
BRANCH  13  15
ATOM     15  C   UNL A   1      34.901  21.650  25.758  1.00  0.00     0.040 A 
ATOM     16  C   UNL A   1      34.817  19.386  24.801  1.00  0.00    -0.022 A 
ATOM     17  C   UNL A   1      36.211  19.389  24.711  1.00  0.00     0.006 A 
ATOM     18  C   UNL A   1      34.182  20.511  25.348  1.00  0.00     0.020 A 
ATOM     19  C   UNL A   1      36.945  20.496  25.145  1.00  0.00     0.001 A 
ATOM     20  C   UNL A   1      36.295  21.623  25.658  1.00  0.00     0.014 A 
BRANCH  16  21
ATOM     21  C   UNL A   1      33.978  18.269  24.223  1.00  0.00     0.195 C 
BRANCH  21  22
ATOM     22  O   UNL A   1      33.926  17.133  25.073  1.00  0.00    -0.380 OA
ATOM     23  C   UNL A   1      32.620  16.858  25.558  1.00  0.00     0.195 C 
ENDBRANCH  21  22
ENDBRANCH  16  21
ENDBRANCH  13  15
ENDBRANCH   9  13
BRANCH  11  24
ATOM     24  O   UNL A   1      29.618  23.207  27.560  1.00  0.00    -0.391 OA
ATOM     25  H   UNL A   1      29.745  22.639  28.336  1.00  0.00     0.211 HD
ENDBRANCH  11  24
ENDBRANCH   5   8
ENDBRANCH   3   4
ENDBRANCH   2   3
ENDBRANCH   1   2
BRANCH   1  26
ATOM     26  C   UNL A   1      33.084  27.017  24.388  1.00  0.00     0.002 C 
BRANCH  26  27
ATOM     27  C   UNL A   1      33.475  28.362  25.015  1.00  0.00     0.021 C 
BRANCH  27  28
ATOM     28  C   UNL A   1      33.757  28.379  26.518  1.00  0.00     0.116 C 
BRANCH  28  29
ATOM     29  N   UNL A   1      33.632  29.696  27.110  1.00  0.00    -0.352 N 
ATOM     30  C   UNL A   1      34.519  30.435  27.854  1.00  0.00     0.251 C 
ATOM     31  H   UNL A   1      32.765  30.135  26.953  1.00  0.00     0.163 HD
ATOM     32  O   UNL A   1      34.129  31.497  28.338  1.00  0.00    -0.269 OA
BRANCH  30  33
ATOM     33  C   UNL A   1      35.915  29.993  28.107  1.00  0.00     0.039 A 
ATOM     34  C   UNL A   1      36.231  29.535  29.392  1.00  0.00     0.014 A 
ATOM     35  C   UNL A   1      36.936  30.107  27.157  1.00  0.00     0.014 A 
ATOM     36  C   UNL A   1      37.543  29.171  29.716  1.00  0.00     0.010 A 
ATOM     37  C   UNL A   1      38.241  29.693  27.468  1.00  0.00     0.010 A 
ATOM     38  C   UNL A   1      38.563  29.233  28.754  1.00  0.00    -0.014 A 
BRANCH  38  39
ATOM     39  C   UNL A   1      39.955  28.832  29.109  1.00  0.00     0.031 A 
ATOM     40  C   UNL A   1      40.872  29.772  29.847  1.00  0.00     0.074 A 
ATOM     41  C   UNL A   1      40.408  27.609  28.765  1.00  0.00     0.049 A 
ATOM     42  N   UNL A   1      42.091  29.564  30.280  1.00  0.00    -0.248 NA
ATOM     43  C   UNL A   1      40.363  31.124  30.118  1.00  0.00     0.031 C 
ATOM     44  C   UNL A   1      39.651  26.609  28.011  1.00  0.00     0.029 A 
ATOM     45  N   UNL A   1      41.616  27.000  29.006  1.00  0.00    -0.354 N 
ATOM     46  C   UNL A   1      42.497  30.756  30.872  1.00  0.00     0.074 A 
ATOM     47  C   UNL A   1      41.411  31.698  30.694  1.00  0.00     0.031 C 
ATOM     48  C   UNL A   1      40.403  25.506  27.868  1.00  0.00     0.029 A 
ATOM     49  C   UNL A   1      41.701  25.724  28.501  1.00  0.00     0.049 A 
ATOM     50  H   UNL A   1      42.351  27.437  29.494  1.00  0.00     0.167 HD
ATOM     51  C   UNL A   1      43.653  31.040  31.521  1.00  0.00     0.031 A 
ATOM     52  C   UNL A   1      42.703  24.823  28.544  1.00  0.00     0.031 A 
ATOM     53  C   UNL A   1      44.740  30.113  31.702  1.00  0.00     0.049 A 
ATOM     54  C   UNL A   1      43.973  25.152  29.279  1.00  0.00     0.074 A 
ATOM     55  C   UNL A   1      45.928  30.300  32.389  1.00  0.00     0.029 A 
ATOM     56  N   UNL A   1      44.778  28.825  31.189  1.00  0.00    -0.354 N 
ATOM     57  N   UNL A   1      44.302  26.260  29.898  1.00  0.00    -0.248 NA
ATOM     58  C   UNL A   1      44.997  24.098  29.339  1.00  0.00     0.031 C 
ATOM     59  C   UNL A   1      46.703  29.142  32.254  1.00  0.00     0.029 A 
ATOM     60  C   UNL A   1      45.976  28.214  31.526  1.00  0.00     0.049 A 
ATOM     61  H   UNL A   1      44.060  28.406  30.662  1.00  0.00     0.167 HD
ATOM     62  C   UNL A   1      45.564  26.029  30.440  1.00  0.00     0.074 A 
ATOM     63  C   UNL A   1      45.929  24.672  30.089  1.00  0.00     0.031 C 
ATOM     64  C   UNL A   1      46.343  26.869  31.165  1.00  0.00     0.031 A 
BRANCH  51  65
ATOM     65  C   UNL A   1      43.803  32.433  32.079  1.00  0.00    -0.014 A 
ATOM     66  C   UNL A   1      44.331  33.475  31.295  1.00  0.00     0.010 A 
ATOM     67  C   UNL A   1      43.399  32.708  33.398  1.00  0.00     0.010 A 
ATOM     68  C   UNL A   1      44.508  34.750  31.838  1.00  0.00     0.020 A 
ATOM     69  C   UNL A   1      43.548  33.990  33.936  1.00  0.00     0.020 A 
ATOM     70  C   UNL A   1      44.126  34.996  33.160  1.00  0.00     0.054 A 
BRANCH  70  71
ATOM     71  S   UNL A   1      44.383  36.655  33.848  1.00  0.00     0.124 S 
ATOM     72  O   UNL A   1      43.308  37.411  33.210  1.00  0.00    -0.237 OA
ATOM     73  O   UNL A   1      44.231  36.438  35.284  1.00  0.00    -0.237 OA
ATOM     74  O   UNL A   1      45.733  37.004  33.412  1.00  0.00    -0.744 OA
ENDBRANCH  70  71
ENDBRANCH  51  65
BRANCH  52  75
ATOM     75  C   UNL A   1      42.526  23.504  27.879  1.00  0.00    -0.014 A 
ATOM     76  C   UNL A   1      43.098  23.253  26.620  1.00  0.00     0.010 A 
ATOM     77  C   UNL A   1      41.813  22.478  28.527  1.00  0.00     0.010 A 
ATOM     78  C   UNL A   1      42.956  22.000  26.017  1.00  0.00     0.020 A 
ATOM     79  C   UNL A   1      41.691  21.218  27.939  1.00  0.00     0.020 A 
ATOM     80  C   UNL A   1      42.258  20.988  26.684  1.00  0.00     0.054 A 
BRANCH  80  81
ATOM     81  S   UNL A   1      42.158  19.343  25.922  1.00  0.00     0.124 S 
ATOM     82  O   UNL A   1      42.735  18.494  26.958  1.00  0.00    -0.237 OA
ATOM     83  O   UNL A   1      40.723  19.185  25.699  1.00  0.00    -0.237 OA
ATOM     84  O   UNL A   1      42.957  19.484  24.706  1.00  0.00    -0.744 OA
ENDBRANCH  80  81
ENDBRANCH  52  75
BRANCH  64  85
ATOM     85  C   UNL A   1      47.669  26.339  31.648  1.00  0.00    -0.014 A 
ATOM     86  C   UNL A   1      48.841  26.499  30.888  1.00  0.00     0.010 A 
ATOM     87  C   UNL A   1      47.748  25.701  32.901  1.00  0.00     0.010 A 
ATOM     88  C   UNL A   1      50.061  25.997  31.353  1.00  0.00     0.020 A 
ATOM     89  C   UNL A   1      48.971  25.220  33.380  1.00  0.00     0.020 A 
ATOM     90  C   UNL A   1      50.117  25.357  32.595  1.00  0.00     0.054 A 
BRANCH  90  91
ATOM     91  S   UNL A   1      51.715  24.738  33.191  1.00  0.00     0.124 S 
ATOM     92  O   UNL A   1      52.583  24.985  32.044  1.00  0.00    -0.237 OA
ATOM     93  O   UNL A   1      51.968  25.575  34.362  1.00  0.00    -0.237 OA
ATOM     94  O   UNL A   1      51.453  23.331  33.484  1.00  0.00    -0.744 OA
ENDBRANCH  90  91
ENDBRANCH  64  85
ENDBRANCH  38  39
ENDBRANCH  30  33
ENDBRANCH  28  29
ENDBRANCH  27  28
ENDBRANCH  26  27
ENDBRANCH   1  26
TORSDOF 21
ENDMDL
MODEL 3
REMARK VINA RESULT:     -11.2      1.765      8.869
REMARK SMILES COCc1cccc(C(=O)N2C[C@@H](O)C[C@@H]2C(=O)NCCCCCCNC(=O)c2ccc(-c3c4nc(c(-c5ccc(S(=O)(=O)[O-])cc5)c5ccc([nH]5)c(-c5ccc(S(=O)(=O)[O-])cc5)c5nc(c(-c6ccc(S(=O)(=O)[O-])cc6)c6ccc3[nH]6)C=C5)C=C4)cc2)c1
REMARK SMILES IDX 22 1 21 2 20 3 19 4 17 5 18 6 16 8 11 9 12 10 13 11 15 12
REMARK SMILES IDX 9 13 10 14 8 15 4 16 5 17 89 18 6 19 7 20 3 21 2 22 1 23
REMARK SMILES IDX 14 24 23 26 24 27 25 28 26 29 27 30 28 32 29 33 30 34 88 35
REMARK SMILES IDX 31 36 87 37 32 38 33 39 34 40 81 41 35 42 86 43 80 44 82 45
REMARK SMILES IDX 36 46 85 47 79 48 78 49 37 51 67 52 48 53 66 54 49 55 52 56
REMARK SMILES IDX 65 57 83 58 50 59 51 60 64 62 84 63 53 64 38 65 39 66 47 67
REMARK SMILES IDX 40 68 46 69 41 70 42 71 43 72 44 73 45 74 68 75 69 76 77 77
REMARK SMILES IDX 70 78 76 79 71 80 72 81 73 82 74 83 75 84 54 85 55 86 63 87
REMARK SMILES IDX 56 88 62 89 57 90 58 91 59 92 60 93 61 94
REMARK H PARENT 19 7 14 25 26 31 82 50 52 61
REMARK Flexibility Score: inf
ROOT
ATOM      1  C   UNL A   1      37.273  23.649  26.101  1.00  0.00     0.002 C 
ENDROOT
BRANCH   1   2
ATOM      2  C   UNL A   1      36.158  24.067  25.147  1.00  0.00     0.021 C 
BRANCH   2   3
ATOM      3  C   UNL A   1      34.753  24.154  25.732  1.00  0.00     0.116 C 
BRANCH   3   4
ATOM      4  N   UNL A   1      34.492  23.267  26.835  1.00  0.00    -0.354 N 
ATOM      5  C   UNL A   1      33.499  22.349  27.008  1.00  0.00     0.242 C 
ATOM      6  O   UNL A   1      33.661  21.573  27.964  1.00  0.00    -0.273 OA
ATOM      7  H   UNL A   1      35.132  23.333  27.580  1.00  0.00     0.163 HD
BRANCH   5   8
ATOM      8  C   UNL A   1      32.201  22.210  26.138  1.00  0.00     0.177 C 
ATOM      9  N   UNL A   1      32.119  22.488  24.690  1.00  0.00    -0.324 N 
ATOM     10  C   UNL A   1      31.017  23.396  24.410  1.00  0.00     0.152 C 
ATOM     11  C   UNL A   1      30.919  24.219  25.681  1.00  0.00     0.136 C 
ATOM     12  C   UNL A   1      31.133  23.152  26.751  1.00  0.00     0.069 C 
BRANCH   9  13
ATOM     13  C   UNL A   1      32.595  21.586  23.747  1.00  0.00     0.254 C 
ATOM     14  O   UNL A   1      32.217  21.616  22.580  1.00  0.00    -0.269 OA
BRANCH  13  15
ATOM     15  C   UNL A   1      33.381  20.395  24.245  1.00  0.00     0.040 A 
ATOM     16  C   UNL A   1      33.799  17.972  24.163  1.00  0.00    -0.022 A 
ATOM     17  C   UNL A   1      35.117  18.203  24.568  1.00  0.00     0.006 A 
ATOM     18  C   UNL A   1      32.941  19.074  24.031  1.00  0.00     0.020 A 
ATOM     19  C   UNL A   1      35.563  19.502  24.819  1.00  0.00     0.001 A 
ATOM     20  C   UNL A   1      34.704  20.593  24.650  1.00  0.00     0.014 A 
BRANCH  16  21
ATOM     21  C   UNL A   1      33.313  16.601  23.755  1.00  0.00     0.195 C 
BRANCH  21  22
ATOM     22  O   UNL A   1      33.695  15.592  24.678  1.00  0.00    -0.380 OA
ATOM     23  C   UNL A   1      32.617  15.131  25.479  1.00  0.00     0.195 C 
ENDBRANCH  21  22
ENDBRANCH  16  21
ENDBRANCH  13  15
ENDBRANCH   9  13
BRANCH  11  24
ATOM     24  O   UNL A   1      29.682  24.888  25.831  1.00  0.00    -0.391 OA
ATOM     25  H   UNL A   1      29.058  24.565  25.162  1.00  0.00     0.211 HD
ENDBRANCH  11  24
ENDBRANCH   5   8
ENDBRANCH   3   4
ENDBRANCH   2   3
ENDBRANCH   1   2
BRANCH   1  26
ATOM     26  C   UNL A   1      38.000  22.334  25.792  1.00  0.00     0.002 C 
BRANCH  26  27
ATOM     27  C   UNL A   1      39.375  22.105  26.432  1.00  0.00     0.021 C 
BRANCH  27  28
ATOM     28  C   UNL A   1      40.080  23.323  27.031  1.00  0.00     0.116 C 
BRANCH  28  29
ATOM     29  N   UNL A   1      40.818  24.097  26.054  1.00  0.00    -0.352 N 
ATOM     30  C   UNL A   1      41.205  25.414  26.056  1.00  0.00     0.251 C 
ATOM     31  H   UNL A   1      41.088  23.593  25.252  1.00  0.00     0.163 HD
ATOM     32  O   UNL A   1      41.739  25.867  25.044  1.00  0.00    -0.269 OA
BRANCH  30  33
ATOM     33  C   UNL A   1      40.989  26.311  27.222  1.00  0.00     0.039 A 
ATOM     34  C   UNL A   1      41.883  27.374  27.402  1.00  0.00     0.014 A 
ATOM     35  C   UNL A   1      40.003  26.083  28.188  1.00  0.00     0.014 A 
ATOM     36  C   UNL A   1      41.778  28.213  28.517  1.00  0.00     0.010 A 
ATOM     37  C   UNL A   1      39.866  26.955  29.280  1.00  0.00     0.010 A 
ATOM     38  C   UNL A   1      40.760  28.022  29.464  1.00  0.00    -0.014 A 
BRANCH  38  39
ATOM     39  C   UNL A   1      40.652  28.930  30.643  1.00  0.00     0.031 A 
ATOM     40  C   UNL A   1      39.600  30.007  30.701  1.00  0.00     0.074 A 
ATOM     41  C   UNL A   1      41.508  28.793  31.675  1.00  0.00     0.049 A 
ATOM     42  N   UNL A   1      39.332  30.846  31.671  1.00  0.00    -0.248 NA
ATOM     43  C   UNL A   1      38.751  30.175  29.513  1.00  0.00     0.031 C 
ATOM     44  C   UNL A   1      42.604  27.826  31.741  1.00  0.00     0.029 A 
ATOM     45  N   UNL A   1      41.588  29.468  32.869  1.00  0.00    -0.354 N 
ATOM     46  C   UNL A   1      38.288  31.643  31.212  1.00  0.00     0.074 A 
ATOM     47  C   UNL A   1      38.009  31.219  29.856  1.00  0.00     0.031 C 
ATOM     48  C   UNL A   1      43.235  27.956  32.919  1.00  0.00     0.029 A 
ATOM     49  C   UNL A   1      42.603  29.027  33.686  1.00  0.00     0.049 A 
ATOM     50  H   UNL A   1      40.977  30.200  33.116  1.00  0.00     0.167 HD
ATOM     51  C   UNL A   1      37.609  32.622  31.859  1.00  0.00     0.031 A 
ATOM     52  C   UNL A   1      42.984  29.429  34.915  1.00  0.00     0.031 A 
ATOM     53  C   UNL A   1      37.880  33.053  33.207  1.00  0.00     0.049 A 
ATOM     54  C   UNL A   1      42.211  30.508  35.622  1.00  0.00     0.074 A 
ATOM     55  C   UNL A   1      37.211  34.004  33.959  1.00  0.00     0.029 A 
ATOM     56  N   UNL A   1      38.906  32.569  34.004  1.00  0.00    -0.354 N 
ATOM     57  N   UNL A   1      41.178  31.194  35.196  1.00  0.00    -0.248 NA
ATOM     58  C   UNL A   1      42.644  30.850  36.985  1.00  0.00     0.031 C 
ATOM     59  C   UNL A   1      37.858  34.127  35.194  1.00  0.00     0.029 A 
ATOM     60  C   UNL A   1      38.901  33.215  35.231  1.00  0.00     0.049 A 
ATOM     61  H   UNL A   1      39.545  31.869  33.738  1.00  0.00     0.167 HD
ATOM     62  C   UNL A   1      40.823  32.035  36.248  1.00  0.00     0.074 A 
ATOM     63  C   UNL A   1      41.743  31.759  37.333  1.00  0.00     0.031 C 
ATOM     64  C   UNL A   1      39.824  32.949  36.304  1.00  0.00     0.031 A 
BRANCH  51  65
ATOM     65  C   UNL A   1      36.501  33.308  31.100  1.00  0.00    -0.014 A 
ATOM     66  C   UNL A   1      36.762  33.992  29.899  1.00  0.00     0.010 A 
ATOM     67  C   UNL A   1      35.182  33.255  31.584  1.00  0.00     0.010 A 
ATOM     68  C   UNL A   1      35.735  34.662  29.229  1.00  0.00     0.020 A 
ATOM     69  C   UNL A   1      34.146  33.900  30.902  1.00  0.00     0.020 A 
ATOM     70  C   UNL A   1      34.435  34.622  29.742  1.00  0.00     0.054 A 
BRANCH  70  71
ATOM     71  S   UNL A   1      33.123  35.515  28.863  1.00  0.00     0.124 S 
ATOM     72  O   UNL A   1      33.894  36.456  28.054  1.00  0.00    -0.237 OA
ATOM     73  O   UNL A   1      32.450  34.453  28.119  1.00  0.00    -0.237 OA
ATOM     74  O   UNL A   1      32.336  36.116  29.936  1.00  0.00    -0.744 OA
ENDBRANCH  70  71
ENDBRANCH  51  65
BRANCH  52  75
ATOM     75  C   UNL A   1      44.155  28.779  35.564  1.00  0.00    -0.014 A 
ATOM     76  C   UNL A   1      45.447  29.311  35.409  1.00  0.00     0.010 A 
ATOM     77  C   UNL A   1      43.972  27.643  36.373  1.00  0.00     0.010 A 
ATOM     78  C   UNL A   1      46.537  28.715  36.050  1.00  0.00     0.020 A 
ATOM     79  C   UNL A   1      45.055  27.060  37.034  1.00  0.00     0.020 A 
ATOM     80  C   UNL A   1      46.332  27.597  36.864  1.00  0.00     0.054 A 
BRANCH  80  81
ATOM     81  S   UNL A   1      47.748  26.889  37.753  1.00  0.00     0.124 S 
ATOM     82  O   UNL A   1      48.338  28.070  38.373  1.00  0.00    -0.237 OA
ATOM     83  O   UNL A   1      47.108  25.946  38.667  1.00  0.00    -0.237 OA
ATOM     84  O   UNL A   1      48.541  26.273  36.691  1.00  0.00    -0.744 OA
ENDBRANCH  80  81
ENDBRANCH  52  75
BRANCH  64  85
ATOM     85  C   UNL A   1      39.654  33.711  37.594  1.00  0.00    -0.014 A 
ATOM     86  C   UNL A   1      40.313  34.934  37.811  1.00  0.00     0.010 A 
ATOM     87  C   UNL A   1      38.794  33.211  38.589  1.00  0.00     0.010 A 
ATOM     88  C   UNL A   1      40.145  35.624  39.016  1.00  0.00     0.020 A 
ATOM     89  C   UNL A   1      38.604  33.911  39.785  1.00  0.00     0.020 A 
ATOM     90  C   UNL A   1      39.295  35.106  39.997  1.00  0.00     0.054 A 
BRANCH  90  91
ATOM     91  S   UNL A   1      39.070  36.032  41.541  1.00  0.00     0.124 S 
ATOM     92  O   UNL A   1      37.815  35.482  42.044  1.00  0.00    -0.237 OA
ATOM     93  O   UNL A   1      40.263  35.678  42.306  1.00  0.00    -0.237 OA
ATOM     94  O   UNL A   1      39.009  37.425  41.103  1.00  0.00    -0.744 OA
ENDBRANCH  90  91
ENDBRANCH  64  85
ENDBRANCH  38  39
ENDBRANCH  30  33
ENDBRANCH  28  29
ENDBRANCH  27  28
ENDBRANCH  26  27
ENDBRANCH   1  26
TORSDOF 21
ENDMDL
