MODEL 1
REMARK VINA RESULT:      -9.9      0.000      0.000
REMARK SMILES COc1nc(Cl)nc(N(CC(=O)NCCCCCCNC(=O)c2ccc(-c3c4nc(c(-c5ccc(S(=O)(=O)[O-])cc5)c5ccc([nH]5)c(-c5ccc(S(=O)(=O)[O-])cc5)c5nc(c(-c6ccc(S(=O)(=O)[O-])cc6)c6ccc3[nH]6)C=C5)C=C4)cc2)C(C)(C)C)n1
REMARK SMILES IDX 16 1 15 2 14 3 13 4 11 5 12 6 10 8 9 9 8 10 3 11 4 12 87 13
REMARK SMILES IDX 5 14 6 15 7 16 2 17 1 18 83 19 84 20 85 21 86 22 17 23 18 24
REMARK SMILES IDX 19 25 20 26 21 27 22 29 23 30 24 31 82 32 25 33 81 34 26 35
REMARK SMILES IDX 27 36 28 37 75 38 29 39 80 40 74 41 76 42 30 43 79 44 73 45
REMARK SMILES IDX 72 46 31 48 61 49 42 50 60 51 43 52 46 53 59 54 77 55 44 56
REMARK SMILES IDX 45 57 58 59 78 60 47 61 32 62 33 63 41 64 34 65 40 66 35 67
REMARK SMILES IDX 36 68 37 69 38 70 39 71 62 72 63 73 71 74 64 75 70 76 65 77
REMARK SMILES IDX 66 78 67 79 68 80 69 81 48 82 49 83 57 84 50 85 56 86 51 87
REMARK SMILES IDX 52 88 53 89 54 90 55 91
REMARK H PARENT 13 7 20 28 76 47 46 58
REMARK Flexibility Score: inf
ROOT
ATOM      1  C   UNL A   1      33.739  21.424  26.346  1.00  0.00     0.002 C 
ENDROOT
BRANCH   1   2
ATOM      2  C   UNL A   1      32.671  22.507  26.539  1.00  0.00     0.021 C 
BRANCH   2   3
ATOM      3  C   UNL A   1      31.750  22.687  25.335  1.00  0.00     0.116 C 
BRANCH   3   4
ATOM      4  N   UNL A   1      30.705  23.654  25.596  1.00  0.00    -0.355 N 
ATOM      5  C   UNL A   1      30.774  25.016  25.640  1.00  0.00     0.239 C 
ATOM      6  O   UNL A   1      29.720  25.636  25.815  1.00  0.00    -0.273 OA
ATOM      7  H   UNL A   1      29.812  23.273  25.767  1.00  0.00     0.163 HD
BRANCH   5   8
ATOM      8  C   UNL A   1      32.096  25.756  25.401  1.00  0.00     0.220 C 
BRANCH   8   9
ATOM      9  N   UNL A   1      32.096  26.654  24.225  1.00  0.00    -0.326 N 
BRANCH   9  10
ATOM     10  C   UNL A   1      31.680  27.966  24.463  1.00  0.00     0.233 A 
ATOM     11  C   UNL A   1      30.338  29.739  24.019  1.00  0.00     0.322 A 
ATOM     12  N   UNL A   1      30.857  30.514  24.952  1.00  0.00    -0.164 NA
ATOM     13  N   UNL A   1      30.684  28.482  23.759  1.00  0.00    -0.158 NA
ATOM     14  C   UNL A   1      31.816  29.897  25.608  1.00  0.00     0.230 A 
ATOM     15  Cl  UNL A   1      32.547  30.773  26.881  1.00  0.00    -0.041 Cl
ATOM     16  N   UNL A   1      32.282  28.672  25.412  1.00  0.00    -0.182 NA
BRANCH  11  17
ATOM     17  O   UNL A   1      29.310  30.227  23.244  1.00  0.00    -0.467 OA
ATOM     18  C   UNL A   1      28.435  29.185  22.828  1.00  0.00     0.282 C 
ENDBRANCH  11  17
ENDBRANCH   9  10
BRANCH   9  19
ATOM     19  C   UNL A   1      32.776  26.280  22.944  1.00  0.00     0.035 C 
ATOM     20  C   UNL A   1      33.620  27.450  22.401  1.00  0.00     0.034 C 
ATOM     21  C   UNL A   1      33.653  25.020  23.128  1.00  0.00     0.034 C 
ATOM     22  C   UNL A   1      31.782  25.925  21.813  1.00  0.00     0.034 C 
ENDBRANCH   9  19
ENDBRANCH   8   9
ENDBRANCH   5   8
ENDBRANCH   3   4
ENDBRANCH   2   3
ENDBRANCH   1   2
BRANCH   1  23
ATOM     23  C   UNL A   1      35.182  21.938  26.367  1.00  0.00     0.002 C 
BRANCH  23  24
ATOM     24  C   UNL A   1      35.344  23.417  26.007  1.00  0.00     0.021 C 
BRANCH  24  25
ATOM     25  C   UNL A   1      36.647  23.757  25.289  1.00  0.00     0.116 C 
BRANCH  25  26
ATOM     26  N   UNL A   1      37.671  22.752  25.521  1.00  0.00    -0.352 N 
ATOM     27  C   UNL A   1      38.915  22.899  26.074  1.00  0.00     0.251 C 
ATOM     28  H   UNL A   1      37.439  21.837  25.239  1.00  0.00     0.163 HD
ATOM     29  O   UNL A   1      39.736  21.981  25.994  1.00  0.00    -0.269 OA
BRANCH  27  30
ATOM     30  C   UNL A   1      39.280  24.159  26.753  1.00  0.00     0.039 A 
ATOM     31  C   UNL A   1      38.861  24.367  28.069  1.00  0.00     0.014 A 
ATOM     32  C   UNL A   1      40.025  25.139  26.089  1.00  0.00     0.014 A 
ATOM     33  C   UNL A   1      39.228  25.537  28.736  1.00  0.00     0.010 A 
ATOM     34  C   UNL A   1      40.447  26.275  26.778  1.00  0.00     0.010 A 
ATOM     35  C   UNL A   1      40.046  26.490  28.104  1.00  0.00    -0.014 A 
BRANCH  35  36
ATOM     36  C   UNL A   1      40.492  27.708  28.826  1.00  0.00     0.031 A 
ATOM     37  C   UNL A   1      41.852  27.760  29.468  1.00  0.00     0.074 A 
ATOM     38  C   UNL A   1      39.649  28.752  28.947  1.00  0.00     0.049 A 
ATOM     39  N   UNL A   1      42.406  28.734  30.145  1.00  0.00    -0.248 NA
ATOM     40  C   UNL A   1      42.688  26.554  29.359  1.00  0.00     0.031 C 
ATOM     41  C   UNL A   1      38.284  28.804  28.419  1.00  0.00     0.029 A 
ATOM     42  N   UNL A   1      39.814  29.971  29.557  1.00  0.00    -0.354 N 
ATOM     43  C   UNL A   1      43.645  28.253  30.555  1.00  0.00     0.074 A 
ATOM     44  C   UNL A   1      43.740  26.886  30.092  1.00  0.00     0.031 C 
ATOM     45  C   UNL A   1      37.745  30.000  28.704  1.00  0.00     0.029 A 
ATOM     46  C   UNL A   1      38.711  30.788  29.463  1.00  0.00     0.049 A 
ATOM     47  H   UNL A   1      40.642  30.235  30.017  1.00  0.00     0.167 HD
ATOM     48  C   UNL A   1      44.621  28.897  31.241  1.00  0.00     0.031 A 
ATOM     49  C   UNL A   1      38.499  32.031  29.935  1.00  0.00     0.031 A 
ATOM     50  C   UNL A   1      44.525  30.260  31.692  1.00  0.00     0.049 A 
ATOM     51  C   UNL A   1      39.603  32.733  30.675  1.00  0.00     0.074 A 
ATOM     52  C   UNL A   1      45.486  31.026  32.331  1.00  0.00     0.029 A 
ATOM     53  N   UNL A   1      43.400  31.061  31.560  1.00  0.00    -0.354 N 
ATOM     54  N   UNL A   1      40.800  32.292  30.979  1.00  0.00    -0.248 NA
ATOM     55  C   UNL A   1      39.333  34.107  31.121  1.00  0.00     0.031 C 
ATOM     56  C   UNL A   1      44.923  32.271  32.632  1.00  0.00     0.029 A 
ATOM     57  C   UNL A   1      43.633  32.303  32.129  1.00  0.00     0.049 A 
ATOM     58  H   UNL A   1      42.560  30.788  31.124  1.00  0.00     0.167 HD
ATOM     59  C   UNL A   1      41.435  33.341  31.635  1.00  0.00     0.074 A 
ATOM     60  C   UNL A   1      40.495  34.443  31.665  1.00  0.00     0.031 C 
ATOM     61  C   UNL A   1      42.684  33.386  32.164  1.00  0.00     0.031 A 
BRANCH  48  62
ATOM     62  C   UNL A   1      45.875  28.122  31.556  1.00  0.00    -0.014 A 
ATOM     63  C   UNL A   1      46.969  28.113  30.671  1.00  0.00     0.010 A 
ATOM     64  C   UNL A   1      45.974  27.419  32.771  1.00  0.00     0.010 A 
ATOM     65  C   UNL A   1      48.117  27.376  30.971  1.00  0.00     0.020 A 
ATOM     66  C   UNL A   1      47.132  26.703  33.089  1.00  0.00     0.020 A 
ATOM     67  C   UNL A   1      48.190  26.670  32.177  1.00  0.00     0.054 A 
BRANCH  67  68
ATOM     68  S   UNL A   1      49.696  25.731  32.548  1.00  0.00     0.124 S 
ATOM     69  O   UNL A   1      50.562  26.762  33.114  1.00  0.00    -0.237 OA
ATOM     70  O   UNL A   1      49.221  24.722  33.493  1.00  0.00    -0.237 OA
ATOM     71  O   UNL A   1      50.113  25.213  31.247  1.00  0.00    -0.744 OA
ENDBRANCH  67  68
ENDBRANCH  48  62
BRANCH  49  72
ATOM     72  C   UNL A   1      37.188  32.695  29.698  1.00  0.00    -0.014 A 
ATOM     73  C   UNL A   1      36.187  32.677  30.685  1.00  0.00     0.010 A 
ATOM     74  C   UNL A   1      36.946  33.376  28.491  1.00  0.00     0.010 A 
ATOM     75  C   UNL A   1      34.966  33.320  30.467  1.00  0.00     0.020 A 
ATOM     76  C   UNL A   1      35.737  34.044  28.279  1.00  0.00     0.020 A 
ATOM     77  C   UNL A   1      34.750  34.004  29.266  1.00  0.00     0.054 A 
BRANCH  77  78
ATOM     78  S   UNL A   1      33.184  34.891  29.032  1.00  0.00     0.124 S 
ATOM     79  O   UNL A   1      32.522  34.074  28.020  1.00  0.00    -0.237 OA
ATOM     80  O   UNL A   1      32.594  34.846  30.368  1.00  0.00    -0.237 OA
ATOM     81  O   UNL A   1      33.606  36.218  28.591  1.00  0.00    -0.744 OA
ENDBRANCH  77  78
ENDBRANCH  49  72
BRANCH  61  82
ATOM     82  C   UNL A   1      43.113  34.681  32.804  1.00  0.00    -0.014 A 
ATOM     83  C   UNL A   1      43.636  35.736  32.035  1.00  0.00     0.010 A 
ATOM     84  C   UNL A   1      42.955  34.856  34.191  1.00  0.00     0.010 A 
ATOM     85  C   UNL A   1      44.033  36.927  32.648  1.00  0.00     0.020 A 
ATOM     86  C   UNL A   1      43.323  36.057  34.803  1.00  0.00     0.020 A 
ATOM     87  C   UNL A   1      43.877  37.079  34.029  1.00  0.00     0.054 A 
BRANCH  87  88
ATOM     88  S   UNL A   1      44.376  38.643  34.799  1.00  0.00     0.124 S 
ATOM     89  O   UNL A   1      44.049  38.409  36.202  1.00  0.00    -0.237 OA
ATOM     90  O   UNL A   1      45.801  38.714  34.488  1.00  0.00    -0.237 OA
ATOM     91  O   UNL A   1      43.548  39.640  34.124  1.00  0.00    -0.744 OA
ENDBRANCH  87  88
ENDBRANCH  61  82
ENDBRANCH  35  36
ENDBRANCH  27  30
ENDBRANCH  25  26
ENDBRANCH  24  25
ENDBRANCH  23  24
ENDBRANCH   1  23
TORSDOF 20
ENDMDL
MODEL 2
REMARK VINA RESULT:      -9.7      3.010      9.479
REMARK SMILES COc1nc(Cl)nc(N(CC(=O)NCCCCCCNC(=O)c2ccc(-c3c4nc(c(-c5ccc(S(=O)(=O)[O-])cc5)c5ccc([nH]5)c(-c5ccc(S(=O)(=O)[O-])cc5)c5nc(c(-c6ccc(S(=O)(=O)[O-])cc6)c6ccc3[nH]6)C=C5)C=C4)cc2)C(C)(C)C)n1
REMARK SMILES IDX 16 1 15 2 14 3 13 4 11 5 12 6 10 8 9 9 8 10 3 11 4 12 87 13
REMARK SMILES IDX 5 14 6 15 7 16 2 17 1 18 83 19 84 20 85 21 86 22 17 23 18 24
REMARK SMILES IDX 19 25 20 26 21 27 22 29 23 30 24 31 82 32 25 33 81 34 26 35
REMARK SMILES IDX 27 36 28 37 75 38 29 39 80 40 74 41 76 42 30 43 79 44 73 45
REMARK SMILES IDX 72 46 31 48 61 49 42 50 60 51 43 52 46 53 59 54 77 55 44 56
REMARK SMILES IDX 45 57 58 59 78 60 47 61 32 62 33 63 41 64 34 65 40 66 35 67
REMARK SMILES IDX 36 68 37 69 38 70 39 71 62 72 63 73 71 74 64 75 70 76 65 77
REMARK SMILES IDX 66 78 67 79 68 80 69 81 48 82 49 83 57 84 50 85 56 86 51 87
REMARK SMILES IDX 52 88 53 89 54 90 55 91
REMARK H PARENT 13 7 20 28 76 47 46 58
REMARK Flexibility Score: inf
ROOT
ATOM      1  C   UNL A   1      31.037  27.563  25.326  1.00  0.00     0.002 C 
ENDROOT
BRANCH   1   2
ATOM      2  C   UNL A   1      30.705  26.598  24.183  1.00  0.00     0.021 C 
BRANCH   2   3
ATOM      3  C   UNL A   1      31.478  25.283  24.239  1.00  0.00     0.116 C 
BRANCH   3   4
ATOM      4  N   UNL A   1      30.726  24.243  24.908  1.00  0.00    -0.355 N 
ATOM      5  C   UNL A   1      31.114  23.397  25.906  1.00  0.00     0.239 C 
ATOM      6  O   UNL A   1      30.263  22.630  26.368  1.00  0.00    -0.273 OA
ATOM      7  H   UNL A   1      29.798  24.128  24.597  1.00  0.00     0.163 HD
BRANCH   5   8
ATOM      8  C   UNL A   1      32.531  23.449  26.491  1.00  0.00     0.220 C 
BRANCH   8   9
ATOM      9  N   UNL A   1      33.548  22.716  25.705  1.00  0.00    -0.326 N 
BRANCH   9  10
ATOM     10  C   UNL A   1      33.100  21.563  25.059  1.00  0.00     0.233 A 
ATOM     11  C   UNL A   1      32.589  19.352  25.061  1.00  0.00     0.322 A 
ATOM     12  N   UNL A   1      32.199  19.323  23.801  1.00  0.00    -0.164 NA
ATOM     13  N   UNL A   1      33.010  20.422  25.728  1.00  0.00    -0.158 NA
ATOM     14  C   UNL A   1      32.302  20.508  23.239  1.00  0.00     0.230 A 
ATOM     15  Cl  UNL A   1      31.784  20.623  21.615  1.00  0.00    -0.041 Cl
ATOM     16  N   UNL A   1      32.750  21.632  23.781  1.00  0.00    -0.182 NA
BRANCH  11  17
ATOM     17  O   UNL A   1      32.533  18.193  25.802  1.00  0.00    -0.467 OA
ATOM     18  C   UNL A   1      32.826  17.053  25.003  1.00  0.00     0.282 C 
ENDBRANCH  11  17
ENDBRANCH   9  10
BRANCH   9  19
ATOM     19  C   UNL A   1      34.877  23.321  25.372  1.00  0.00     0.035 C 
ATOM     20  C   UNL A   1      35.929  22.979  26.446  1.00  0.00     0.034 C 
ATOM     21  C   UNL A   1      35.362  22.864  23.977  1.00  0.00     0.034 C 
ATOM     22  C   UNL A   1      34.839  24.867  25.306  1.00  0.00     0.034 C 
ENDBRANCH   9  19
ENDBRANCH   8   9
ENDBRANCH   5   8
ENDBRANCH   3   4
ENDBRANCH   2   3
ENDBRANCH   1   2
BRANCH   1  23
ATOM     23  C   UNL A   1      32.166  28.553  25.019  1.00  0.00     0.002 C 
BRANCH  23  24
ATOM     24  C   UNL A   1      33.545  28.140  25.540  1.00  0.00     0.021 C 
BRANCH  24  25
ATOM     25  C   UNL A   1      33.752  28.364  27.035  1.00  0.00     0.116 C 
BRANCH  25  26
ATOM     26  N   UNL A   1      33.623  29.767  27.395  1.00  0.00    -0.352 N 
ATOM     27  C   UNL A   1      34.493  30.562  28.092  1.00  0.00     0.251 C 
ATOM     28  H   UNL A   1      32.795  30.207  27.097  1.00  0.00     0.163 HD
ATOM     29  O   UNL A   1      34.127  31.669  28.495  1.00  0.00    -0.269 OA
BRANCH  27  30
ATOM     30  C   UNL A   1      35.864  30.090  28.375  1.00  0.00     0.039 A 
ATOM     31  C   UNL A   1      36.816  30.116  27.353  1.00  0.00     0.014 A 
ATOM     32  C   UNL A   1      36.208  29.612  29.644  1.00  0.00     0.014 A 
ATOM     33  C   UNL A   1      38.124  29.707  27.615  1.00  0.00     0.010 A 
ATOM     34  C   UNL A   1      37.530  29.269  29.921  1.00  0.00     0.010 A 
ATOM     35  C   UNL A   1      38.499  29.304  28.909  1.00  0.00    -0.014 A 
BRANCH  35  36
ATOM     36  C   UNL A   1      39.903  28.925  29.211  1.00  0.00     0.031 A 
ATOM     37  C   UNL A   1      40.837  29.912  29.857  1.00  0.00     0.074 A 
ATOM     38  C   UNL A   1      40.351  27.705  28.855  1.00  0.00     0.049 A 
ATOM     39  N   UNL A   1      42.095  29.760  30.187  1.00  0.00    -0.248 NA
ATOM     40  C   UNL A   1      40.297  31.249  30.149  1.00  0.00     0.031 C 
ATOM     41  C   UNL A   1      39.561  26.679  28.171  1.00  0.00     0.029 A 
ATOM     42  N   UNL A   1      41.583  27.122  29.015  1.00  0.00    -0.354 N 
ATOM     43  C   UNL A   1      42.500  30.984  30.707  1.00  0.00     0.074 A 
ATOM     44  C   UNL A   1      41.369  31.880  30.605  1.00  0.00     0.031 C 
ATOM     45  C   UNL A   1      40.317  25.585  27.993  1.00  0.00     0.029 A 
ATOM     46  C   UNL A   1      41.655  25.841  28.519  1.00  0.00     0.049 A 
ATOM     47  H   UNL A   1      42.343  27.576  29.444  1.00  0.00     0.167 HD
ATOM     48  C   UNL A   1      43.700  31.327  31.236  1.00  0.00     0.031 A 
ATOM     49  C   UNL A   1      42.681  24.969  28.489  1.00  0.00     0.031 A 
ATOM     50  C   UNL A   1      44.820  30.429  31.343  1.00  0.00     0.049 A 
ATOM     51  C   UNL A   1      43.997  25.363  29.099  1.00  0.00     0.074 A 
ATOM     52  C   UNL A   1      46.054  30.657  31.929  1.00  0.00     0.029 A 
ATOM     53  N   UNL A   1      44.847  29.133  30.849  1.00  0.00    -0.354 N 
ATOM     54  N   UNL A   1      44.335  26.498  29.665  1.00  0.00    -0.248 NA
ATOM     55  C   UNL A   1      45.064  24.354  29.084  1.00  0.00     0.031 C 
ATOM     56  C   UNL A   1      46.845  29.519  31.740  1.00  0.00     0.029 A 
ATOM     57  C   UNL A   1      46.085  28.559  31.091  1.00  0.00     0.049 A 
ATOM     58  H   UNL A   1      44.096  28.686  30.394  1.00  0.00     0.167 HD
ATOM     59  C   UNL A   1      45.648  26.332  30.090  1.00  0.00     0.074 A 
ATOM     60  C   UNL A   1      46.034  24.981  29.735  1.00  0.00     0.031 C 
ATOM     61  C   UNL A   1      46.460  27.219  30.719  1.00  0.00     0.031 A 
BRANCH  48  62
ATOM     62  C   UNL A   1      43.864  32.742  31.728  1.00  0.00    -0.014 A 
ATOM     63  C   UNL A   1      44.358  33.755  30.886  1.00  0.00     0.010 A 
ATOM     64  C   UNL A   1      43.489  33.071  33.044  1.00  0.00     0.010 A 
ATOM     65  C   UNL A   1      44.520  35.058  31.364  1.00  0.00     0.020 A 
ATOM     66  C   UNL A   1      43.621  34.380  33.518  1.00  0.00     0.020 A 
ATOM     67  C   UNL A   1      44.155  35.362  32.680  1.00  0.00     0.054 A 
BRANCH  67  68
ATOM     68  S   UNL A   1      44.365  37.063  33.271  1.00  0.00     0.124 S 
ATOM     69  O   UNL A   1      45.737  37.355  32.868  1.00  0.00    -0.237 OA
ATOM     70  O   UNL A   1      43.328  37.787  32.539  1.00  0.00    -0.237 OA
ATOM     71  O   UNL A   1      44.147  36.960  34.712  1.00  0.00    -0.744 OA
ENDBRANCH  67  68
ENDBRANCH  48  62
BRANCH  49  72
ATOM     72  C   UNL A   1      42.489  23.628  27.872  1.00  0.00    -0.014 A 
ATOM     73  C   UNL A   1      42.728  23.428  26.501  1.00  0.00     0.010 A 
ATOM     74  C   UNL A   1      42.096  22.534  28.664  1.00  0.00     0.010 A 
ATOM     75  C   UNL A   1      42.568  22.162  25.932  1.00  0.00     0.020 A 
ATOM     76  C   UNL A   1      41.961  21.260  28.104  1.00  0.00     0.020 A 
ATOM     77  C   UNL A   1      42.190  21.084  26.738  1.00  0.00     0.054 A 
BRANCH  77  78
ATOM     78  S   UNL A   1      42.056  19.436  25.992  1.00  0.00     0.124 S 
ATOM     79  O   UNL A   1      42.941  19.553  24.838  1.00  0.00    -0.237 OA
ATOM     80  O   UNL A   1      42.527  18.564  27.066  1.00  0.00    -0.237 OA
ATOM     81  O   UNL A   1      40.633  19.316  25.683  1.00  0.00    -0.744 OA
ENDBRANCH  77  78
ENDBRANCH  49  72
BRANCH  61  82
ATOM     82  C   UNL A   1      47.844  26.746  31.082  1.00  0.00    -0.014 A 
ATOM     83  C   UNL A   1      48.079  26.017  32.261  1.00  0.00     0.010 A 
ATOM     84  C   UNL A   1      48.917  27.006  30.210  1.00  0.00     0.010 A 
ATOM     85  C   UNL A   1      49.372  25.592  32.582  1.00  0.00     0.020 A 
ATOM     86  C   UNL A   1      50.205  26.557  30.514  1.00  0.00     0.020 A 
ATOM     87  C   UNL A   1      50.427  25.868  31.708  1.00  0.00     0.054 A 
BRANCH  87  88
ATOM     88  S   UNL A   1      52.090  25.284  32.134  1.00  0.00     0.124 S 
ATOM     89  O   UNL A   1      52.375  26.042  33.348  1.00  0.00    -0.237 OA
ATOM     90  O   UNL A   1      51.890  23.850  32.320  1.00  0.00    -0.237 OA
ATOM     91  O   UNL A   1      52.894  25.648  30.969  1.00  0.00    -0.744 OA
ENDBRANCH  87  88
ENDBRANCH  61  82
ENDBRANCH  35  36
ENDBRANCH  27  30
ENDBRANCH  25  26
ENDBRANCH  24  25
ENDBRANCH  23  24
ENDBRANCH   1  23
TORSDOF 20
ENDMDL
MODEL 3
REMARK VINA RESULT:      -9.4      3.333      9.428
REMARK SMILES COc1nc(Cl)nc(N(CC(=O)NCCCCCCNC(=O)c2ccc(-c3c4nc(c(-c5ccc(S(=O)(=O)[O-])cc5)c5ccc([nH]5)c(-c5ccc(S(=O)(=O)[O-])cc5)c5nc(c(-c6ccc(S(=O)(=O)[O-])cc6)c6ccc3[nH]6)C=C5)C=C4)cc2)C(C)(C)C)n1
REMARK SMILES IDX 16 1 15 2 14 3 13 4 11 5 12 6 10 8 9 9 8 10 3 11 4 12 87 13
REMARK SMILES IDX 5 14 6 15 7 16 2 17 1 18 83 19 84 20 85 21 86 22 17 23 18 24
REMARK SMILES IDX 19 25 20 26 21 27 22 29 23 30 24 31 82 32 25 33 81 34 26 35
REMARK SMILES IDX 27 36 28 37 75 38 29 39 80 40 74 41 76 42 30 43 79 44 73 45
REMARK SMILES IDX 72 46 31 48 61 49 42 50 60 51 43 52 46 53 59 54 77 55 44 56
REMARK SMILES IDX 45 57 58 59 78 60 47 61 32 62 33 63 41 64 34 65 40 66 35 67
REMARK SMILES IDX 36 68 37 69 38 70 39 71 62 72 63 73 71 74 64 75 70 76 65 77
REMARK SMILES IDX 66 78 67 79 68 80 69 81 48 82 49 83 57 84 50 85 56 86 51 87
REMARK SMILES IDX 52 88 53 89 54 90 55 91
REMARK H PARENT 13 7 20 28 76 47 46 58
REMARK Flexibility Score: inf
ROOT
ATOM      1  C   UNL A   1      31.024  27.642  24.935  1.00  0.00     0.002 C 
ENDROOT
BRANCH   1   2
ATOM      2  C   UNL A   1      30.502  26.593  23.946  1.00  0.00     0.021 C 
BRANCH   2   3
ATOM      3  C   UNL A   1      31.310  25.298  23.936  1.00  0.00     0.116 C 
BRANCH   3   4
ATOM      4  N   UNL A   1      30.624  24.229  24.631  1.00  0.00    -0.355 N 
ATOM      5  C   UNL A   1      31.062  23.439  25.652  1.00  0.00     0.239 C 
ATOM      6  O   UNL A   1      30.260  22.630  26.133  1.00  0.00    -0.273 OA
ATOM      7  H   UNL A   1      29.707  24.045  24.320  1.00  0.00     0.163 HD
BRANCH   5   8
ATOM      8  C   UNL A   1      32.470  23.599  26.240  1.00  0.00     0.220 C 
BRANCH   8   9
ATOM      9  N   UNL A   1      33.514  22.798  25.563  1.00  0.00    -0.326 N 
BRANCH   9  10
ATOM     10  C   UNL A   1      33.074  21.625  24.948  1.00  0.00     0.233 A 
ATOM     11  C   UNL A   1      32.572  19.414  25.010  1.00  0.00     0.322 A 
ATOM     12  N   UNL A   1      32.190  19.346  23.749  1.00  0.00    -0.164 NA
ATOM     13  N   UNL A   1      32.985  20.503  25.649  1.00  0.00    -0.158 NA
ATOM     14  C   UNL A   1      32.292  20.516  23.154  1.00  0.00     0.230 A 
ATOM     15  Cl  UNL A   1      31.783  20.582  21.524  1.00  0.00    -0.041 Cl
ATOM     16  N   UNL A   1      32.732  21.656  23.666  1.00  0.00    -0.182 NA
BRANCH  11  17
ATOM     17  O   UNL A   1      32.517  18.276  25.784  1.00  0.00    -0.467 OA
ATOM     18  C   UNL A   1      32.746  17.108  25.004  1.00  0.00     0.282 C 
ENDBRANCH  11  17
ENDBRANCH   9  10
BRANCH   9  19
ATOM     19  C   UNL A   1      34.880  23.349  25.290  1.00  0.00     0.035 C 
ATOM     20  C   UNL A   1      35.815  23.139  26.498  1.00  0.00     0.034 C 
ATOM     21  C   UNL A   1      35.490  22.717  24.018  1.00  0.00     0.034 C 
ATOM     22  C   UNL A   1      34.876  24.874  25.028  1.00  0.00     0.034 C 
ENDBRANCH   9  19
ENDBRANCH   8   9
ENDBRANCH   5   8
ENDBRANCH   3   4
ENDBRANCH   2   3
ENDBRANCH   1   2
BRANCH   1  23
ATOM     23  C   UNL A   1      32.097  28.578  24.367  1.00  0.00     0.002 C 
BRANCH  23  24
ATOM     24  C   UNL A   1      33.538  28.177  24.693  1.00  0.00     0.021 C 
BRANCH  24  25
ATOM     25  C   UNL A   1      33.985  28.513  26.112  1.00  0.00     0.116 C 
BRANCH  25  26
ATOM     26  N   UNL A   1      33.726  29.904  26.448  1.00  0.00    -0.352 N 
ATOM     27  C   UNL A   1      34.348  30.699  27.372  1.00  0.00     0.251 C 
ATOM     28  H   UNL A   1      33.000  30.334  25.939  1.00  0.00     0.163 HD
ATOM     29  O   UNL A   1      33.856  31.788  27.677  1.00  0.00    -0.269 OA
BRANCH  27  30
ATOM     30  C   UNL A   1      35.599  30.249  28.015  1.00  0.00     0.039 A 
ATOM     31  C   UNL A   1      36.812  30.436  27.347  1.00  0.00     0.014 A 
ATOM     32  C   UNL A   1      35.577  29.632  29.270  1.00  0.00     0.014 A 
ATOM     33  C   UNL A   1      38.005  30.047  27.957  1.00  0.00     0.010 A 
ATOM     34  C   UNL A   1      36.774  29.307  29.906  1.00  0.00     0.010 A 
ATOM     35  C   UNL A   1      37.999  29.503  29.253  1.00  0.00    -0.014 A 
BRANCH  35  36
ATOM     36  C   UNL A   1      39.268  29.144  29.934  1.00  0.00     0.031 A 
ATOM     37  C   UNL A   1      39.727  29.908  31.147  1.00  0.00     0.074 A 
ATOM     38  C   UNL A   1      40.035  28.158  29.428  1.00  0.00     0.049 A 
ATOM     39  N   UNL A   1      40.809  29.741  31.865  1.00  0.00    -0.248 NA
ATOM     40  C   UNL A   1      38.873  31.020  31.597  1.00  0.00     0.031 C 
ATOM     41  C   UNL A   1      39.730  27.380  28.225  1.00  0.00     0.029 A 
ATOM     42  N   UNL A   1      41.234  27.645  29.860  1.00  0.00    -0.354 N 
ATOM     43  C   UNL A   1      40.775  30.734  32.837  1.00  0.00     0.074 A 
ATOM     44  C   UNL A   1      39.591  31.527  32.588  1.00  0.00     0.031 C 
ATOM     45  C   UNL A   1      40.699  26.473  28.029  1.00  0.00     0.029 A 
ATOM     46  C   UNL A   1      41.711  26.624  29.070  1.00  0.00     0.049 A 
ATOM     47  H   UNL A   1      41.706  27.975  30.657  1.00  0.00     0.167 HD
ATOM     48  C   UNL A   1      41.642  30.956  33.855  1.00  0.00     0.031 A 
ATOM     49  C   UNL A   1      42.838  25.892  29.171  1.00  0.00     0.031 A 
ATOM     50  C   UNL A   1      42.814  30.159  34.104  1.00  0.00     0.049 A 
ATOM     51  C   UNL A   1      43.775  26.143  30.319  1.00  0.00     0.074 A 
ATOM     52  C   UNL A   1      43.716  30.257  35.150  1.00  0.00     0.029 A 
ATOM     53  N   UNL A   1      43.253  29.121  33.295  1.00  0.00    -0.354 N 
ATOM     54  N   UNL A   1      43.681  27.032  31.280  1.00  0.00    -0.248 NA
ATOM     55  C   UNL A   1      44.960  25.280  30.408  1.00  0.00     0.031 C 
ATOM     56  C   UNL A   1      44.729  29.314  34.943  1.00  0.00     0.029 A 
ATOM     57  C   UNL A   1      44.427  28.589  33.803  1.00  0.00     0.049 A 
ATOM     58  H   UNL A   1      42.796  28.808  32.481  1.00  0.00     0.167 HD
ATOM     59  C   UNL A   1      44.785  26.822  32.098  1.00  0.00     0.074 A 
ATOM     60  C   UNL A   1      45.520  25.710  31.530  1.00  0.00     0.031 C 
ATOM     61  C   UNL A   1      45.156  27.491  33.219  1.00  0.00     0.031 A 
BRANCH  48  62
ATOM     62  C   UNL A   1      41.358  32.121  34.769  1.00  0.00    -0.014 A 
ATOM     63  C   UNL A   1      41.918  33.390  34.531  1.00  0.00     0.010 A 
ATOM     64  C   UNL A   1      40.492  31.952  35.865  1.00  0.00     0.010 A 
ATOM     65  C   UNL A   1      41.657  34.454  35.398  1.00  0.00     0.020 A 
ATOM     66  C   UNL A   1      40.204  33.021  36.719  1.00  0.00     0.020 A 
ATOM     67  C   UNL A   1      40.805  34.261  36.491  1.00  0.00     0.054 A 
BRANCH  67  68
ATOM     68  S   UNL A   1      40.474  35.661  37.595  1.00  0.00     0.124 S 
ATOM     69  O   UNL A   1      41.818  36.015  38.044  1.00  0.00    -0.237 OA
ATOM     70  O   UNL A   1      39.836  36.628  36.704  1.00  0.00    -0.237 OA
ATOM     71  O   UNL A   1      39.603  35.096  38.622  1.00  0.00    -0.744 OA
ENDBRANCH  67  68
ENDBRANCH  48  62
BRANCH  49  72
ATOM     72  C   UNL A   1      43.123  24.839  28.160  1.00  0.00    -0.014 A 
ATOM     73  C   UNL A   1      43.973  25.102  27.071  1.00  0.00     0.010 A 
ATOM     74  C   UNL A   1      42.570  23.553  28.300  1.00  0.00     0.010 A 
ATOM     75  C   UNL A   1      44.256  24.103  26.136  1.00  0.00     0.020 A 
ATOM     76  C   UNL A   1      42.872  22.543  27.382  1.00  0.00     0.020 A 
ATOM     77  C   UNL A   1      43.707  22.827  26.300  1.00  0.00     0.054 A 
BRANCH  77  78
ATOM     78  S   UNL A   1      44.143  21.526  25.113  1.00  0.00     0.124 S 
ATOM     79  O   UNL A   1      45.530  21.245  25.468  1.00  0.00    -0.237 OA
ATOM     80  O   UNL A   1      43.181  20.473  25.433  1.00  0.00    -0.237 OA
ATOM     81  O   UNL A   1      43.943  22.166  23.815  1.00  0.00    -0.744 OA
ENDBRANCH  77  78
ENDBRANCH  49  72
BRANCH  61  82
ATOM     82  C   UNL A   1      46.405  27.021  33.919  1.00  0.00    -0.014 A 
ATOM     83  C   UNL A   1      46.374  25.942  34.819  1.00  0.00     0.010 A 
ATOM     84  C   UNL A   1      47.634  27.648  33.640  1.00  0.00     0.010 A 
ATOM     85  C   UNL A   1      47.544  25.525  35.461  1.00  0.00     0.020 A 
ATOM     86  C   UNL A   1      48.809  27.215  34.258  1.00  0.00     0.020 A 
ATOM     87  C   UNL A   1      48.754  26.166  35.179  1.00  0.00     0.054 A 
BRANCH  87  88
ATOM     88  S   UNL A   1      50.261  25.591  36.006  1.00  0.00     0.124 S 
ATOM     89  O   UNL A   1      49.831  24.315  36.569  1.00  0.00    -0.237 OA
ATOM     90  O   UNL A   1      51.217  25.503  34.905  1.00  0.00    -0.237 OA
ATOM     91  O   UNL A   1      50.543  26.641  36.983  1.00  0.00    -0.744 OA
ENDBRANCH  87  88
ENDBRANCH  61  82
ENDBRANCH  35  36
ENDBRANCH  27  30
ENDBRANCH  25  26
ENDBRANCH  24  25
ENDBRANCH  23  24
ENDBRANCH   1  23
TORSDOF 20
ENDMDL
