MODEL 1
REMARK VINA RESULT:     -10.8      0.000      0.000
REMARK SMILES CC[C@](C)(NC(=O)c1ccc2ccccc2c1O)C(=O)NCCCCCCNC(=O)c1ccc(-c2c3nc(c(-c4ccc(S(=O)(=O)[O-])cc4)c4ccc([nH]4)c(-c4ccc(S(=O)(=O)[O-])cc4)c4nc(c(-c5ccc(S(=O)(=O)[O-])cc5)c5ccc2[nH]5)C=C4)C=C3)cc1
REMARK SMILES IDX 24 1 23 2 22 3 21 4 19 5 20 6 3 8 4 9 2 10 1 11 5 12 6 13
REMARK SMILES IDX 7 15 8 16 9 17 17 18 10 19 16 20 11 21 15 22 12 23 14 24
REMARK SMILES IDX 13 25 18 26 25 28 26 29 27 30 28 31 29 32 30 34 31 35 32 36
REMARK SMILES IDX 90 37 33 38 89 39 34 40 35 41 36 42 83 43 37 44 88 45 82 46
REMARK SMILES IDX 84 47 38 48 87 49 81 50 80 51 39 53 69 54 50 55 68 56 51 57
REMARK SMILES IDX 54 58 67 59 85 60 52 61 53 62 66 64 86 65 55 66 40 67 41 68
REMARK SMILES IDX 49 69 42 70 48 71 43 72 44 73 45 74 46 75 47 76 70 77 71 78
REMARK SMILES IDX 79 79 72 80 78 81 73 82 74 83 75 84 76 85 77 86 56 87 57 88
REMARK SMILES IDX 65 89 58 90 64 91 59 92 60 93 61 94 62 95 63 96
REMARK H PARENT 21 7 5 14 18 27 28 33 84 52 54 63
REMARK Flexibility Score: inf
ROOT
ATOM      1  C   UNL A   1      38.031  22.111  25.403  1.00  0.00     0.002 C 
ENDROOT
BRANCH   1   2
ATOM      2  C   UNL A   1      36.816  21.561  24.649  1.00  0.00     0.021 C 
BRANCH   2   3
ATOM      3  C   UNL A   1      35.692  20.787  25.369  1.00  0.00     0.116 C 
BRANCH   3   4
ATOM      4  N   UNL A   1      34.996  21.372  26.523  1.00  0.00    -0.354 N 
ATOM      5  C   UNL A   1      33.677  21.693  26.810  1.00  0.00     0.245 C 
ATOM      6  O   UNL A   1      33.373  21.862  27.994  1.00  0.00    -0.272 OA
ATOM      7  H   UNL A   1      35.607  21.584  27.266  1.00  0.00     0.163 HD
BRANCH   5   8
ATOM      8  C   UNL A   1      32.618  21.741  25.705  1.00  0.00     0.116 C 
ATOM      9  C   UNL A   1      32.306  20.403  25.017  1.00  0.00     0.045 C 
BRANCH   8  10
ATOM     10  C   UNL A   1      33.241  22.693  24.620  1.00  0.00     0.035 C 
ATOM     11  C   UNL A   1      32.835  22.364  23.171  1.00  0.00     0.007 C 
ENDBRANCH   8  10
BRANCH   8  12
ATOM     12  N   UNL A   1      31.341  22.259  26.254  1.00  0.00    -0.338 N 
ATOM     13  C   UNL A   1      30.787  23.509  26.466  1.00  0.00     0.255 C 
ATOM     14  H   UNL A   1      30.740  21.533  26.538  1.00  0.00     0.164 HD
ATOM     15  O   UNL A   1      29.892  23.491  27.325  1.00  0.00    -0.269 OA
BRANCH  13  16
ATOM     16  C   UNL A   1      31.042  24.852  25.798  1.00  0.00     0.082 A 
ATOM     17  C   UNL A   1      31.580  25.831  26.659  1.00  0.00     0.018 A 
ATOM     18  C   UNL A   1      30.609  25.347  24.557  1.00  0.00     0.136 A 
ATOM     19  C   UNL A   1      31.622  27.198  26.322  1.00  0.00     0.010 A 
ATOM     20  C   UNL A   1      30.675  26.716  24.168  1.00  0.00     0.024 A 
ATOM     21  C   UNL A   1      31.148  27.659  25.087  1.00  0.00    -0.015 A 
ATOM     22  C   UNL A   1      30.185  27.172  22.918  1.00  0.00     0.012 A 
ATOM     23  C   UNL A   1      31.081  29.029  24.755  1.00  0.00     0.009 A 
ATOM     24  C   UNL A   1      30.124  28.525  22.600  1.00  0.00     0.001 A 
ATOM     25  C   UNL A   1      30.562  29.457  23.528  1.00  0.00     0.001 A 
BRANCH  18  26
ATOM     26  O   UNL A   1      29.893  24.626  23.659  1.00  0.00    -0.506 OA
ATOM     27  H   UNL A   1      28.994  24.426  23.829  1.00  0.00     0.293 HD
ENDBRANCH  18  26
ENDBRANCH  13  16
ENDBRANCH   8  12
ENDBRANCH   5   8
ENDBRANCH   3   4
ENDBRANCH   2   3
ENDBRANCH   1   2
BRANCH   1  28
ATOM     28  C   UNL A   1      39.144  21.129  25.750  1.00  0.00     0.002 C 
BRANCH  28  29
ATOM     29  C   UNL A   1      40.035  21.573  26.905  1.00  0.00     0.021 C 
BRANCH  29  30
ATOM     30  C   UNL A   1      40.881  20.466  27.525  1.00  0.00     0.116 C 
BRANCH  30  31
ATOM     31  N   UNL A   1      41.553  19.626  26.541  1.00  0.00    -0.352 N 
ATOM     32  C   UNL A   1      42.624  19.966  25.745  1.00  0.00     0.251 C 
ATOM     33  H   UNL A   1      41.201  18.712  26.435  1.00  0.00     0.163 HD
ATOM     34  O   UNL A   1      43.036  19.203  24.875  1.00  0.00    -0.269 OA
BRANCH  32  35
ATOM     35  C   UNL A   1      43.244  21.294  25.933  1.00  0.00     0.039 A 
ATOM     36  C   UNL A   1      43.099  22.262  24.937  1.00  0.00     0.014 A 
ATOM     37  C   UNL A   1      43.876  21.602  27.140  1.00  0.00     0.014 A 
ATOM     38  C   UNL A   1      43.524  23.569  25.187  1.00  0.00     0.010 A 
ATOM     39  C   UNL A   1      44.229  22.919  27.412  1.00  0.00     0.010 A 
ATOM     40  C   UNL A   1      44.055  23.917  26.440  1.00  0.00    -0.014 A 
BRANCH  40  41
ATOM     41  C   UNL A   1      44.440  25.316  26.758  1.00  0.00     0.031 A 
ATOM     42  C   UNL A   1      45.860  25.768  26.544  1.00  0.00     0.074 A 
ATOM     43  C   UNL A   1      43.539  26.156  27.307  1.00  0.00     0.049 A 
ATOM     44  N   UNL A   1      46.411  26.918  26.831  1.00  0.00    -0.248 NA
ATOM     45  C   UNL A   1      46.788  24.786  25.958  1.00  0.00     0.031 C 
ATOM     46  C   UNL A   1      42.144  25.825  27.609  1.00  0.00     0.029 A 
ATOM     47  N   UNL A   1      43.664  27.460  27.717  1.00  0.00    -0.354 N 
ATOM     48  C   UNL A   1      47.751  26.791  26.482  1.00  0.00     0.074 A 
ATOM     49  C   UNL A   1      47.940  25.437  26.013  1.00  0.00     0.031 C 
ATOM     50  C   UNL A   1      41.539  26.905  28.132  1.00  0.00     0.029 A 
ATOM     51  C   UNL A   1      42.507  27.992  28.237  1.00  0.00     0.049 A 
ATOM     52  H   UNL A   1      44.506  27.968  27.647  1.00  0.00     0.167 HD
ATOM     53  C   UNL A   1      48.733  27.724  26.527  1.00  0.00     0.031 A 
ATOM     54  C   UNL A   1      42.255  29.214  28.745  1.00  0.00     0.031 A 
ATOM     55  C   UNL A   1      48.537  29.076  26.972  1.00  0.00     0.049 A 
ATOM     56  C   UNL A   1      43.358  30.238  28.775  1.00  0.00     0.074 A 
ATOM     57  C   UNL A   1      49.452  30.114  26.999  1.00  0.00     0.029 A 
ATOM     58  N   UNL A   1      47.343  29.582  27.465  1.00  0.00    -0.354 N 
ATOM     59  N   UNL A   1      44.604  30.116  28.381  1.00  0.00    -0.248 NA
ATOM     60  C   UNL A   1      43.019  31.565  29.307  1.00  0.00     0.031 C 
ATOM     61  C   UNL A   1      48.823  31.236  27.550  1.00  0.00     0.029 A 
ATOM     62  C   UNL A   1      47.502  30.911  27.815  1.00  0.00     0.049 A 
ATOM     63  H   UNL A   1      46.506  29.070  27.554  1.00  0.00     0.167 HD
ATOM     64  C   UNL A   1      45.189  31.361  28.589  1.00  0.00     0.074 A 
ATOM     65  C   UNL A   1      44.159  32.222  29.133  1.00  0.00     0.031 C 
ATOM     66  C   UNL A   1      46.463  31.755  28.349  1.00  0.00     0.031 A 
BRANCH  53  67
ATOM     67  C   UNL A   1      50.108  27.306  26.078  1.00  0.00    -0.014 A 
ATOM     68  C   UNL A   1      50.486  27.393  24.725  1.00  0.00     0.010 A 
ATOM     69  C   UNL A   1      51.045  26.850  27.022  1.00  0.00     0.010 A 
ATOM     70  C   UNL A   1      51.761  26.988  24.319  1.00  0.00     0.020 A 
ATOM     71  C   UNL A   1      52.331  26.473  26.624  1.00  0.00     0.020 A 
ATOM     72  C   UNL A   1      52.674  26.527  25.271  1.00  0.00     0.054 A 
BRANCH  72  73
ATOM     73  S   UNL A   1      54.327  26.029  24.720  1.00  0.00     0.124 S 
ATOM     74  O   UNL A   1      54.357  26.550  23.355  1.00  0.00    -0.237 OA
ATOM     75  O   UNL A   1      55.202  26.709  25.670  1.00  0.00    -0.237 OA
ATOM     76  O   UNL A   1      54.307  24.573  24.830  1.00  0.00    -0.744 OA
ENDBRANCH  72  73
ENDBRANCH  53  67
BRANCH  54  77
ATOM     77  C   UNL A   1      40.893  29.548  29.248  1.00  0.00    -0.014 A 
ATOM     78  C   UNL A   1      39.865  29.887  28.350  1.00  0.00     0.010 A 
ATOM     79  C   UNL A   1      40.614  29.522  30.626  1.00  0.00     0.010 A 
ATOM     80  C   UNL A   1      38.591  30.217  28.821  1.00  0.00     0.020 A 
ATOM     81  C   UNL A   1      39.334  29.823  31.099  1.00  0.00     0.020 A 
ATOM     82  C   UNL A   1      38.332  30.181  30.194  1.00  0.00     0.054 A 
BRANCH  82  83
ATOM     83  S   UNL A   1      36.659  30.563  30.782  1.00  0.00     0.124 S 
ATOM     84  O   UNL A   1      35.866  30.400  29.568  1.00  0.00    -0.237 OA
ATOM     85  O   UNL A   1      36.449  29.553  31.817  1.00  0.00    -0.237 OA
ATOM     86  O   UNL A   1      36.776  31.934  31.275  1.00  0.00    -0.744 OA
ENDBRANCH  82  83
ENDBRANCH  54  77
BRANCH  66  87
ATOM     87  C   UNL A   1      46.812  33.192  28.634  1.00  0.00    -0.014 A 
ATOM     88  C   UNL A   1      46.606  34.197  27.672  1.00  0.00     0.010 A 
ATOM     89  C   UNL A   1      47.293  33.547  29.907  1.00  0.00     0.010 A 
ATOM     90  C   UNL A   1      46.901  35.529  27.972  1.00  0.00     0.020 A 
ATOM     91  C   UNL A   1      47.563  34.881  30.219  1.00  0.00     0.020 A 
ATOM     92  C   UNL A   1      47.377  35.862  29.244  1.00  0.00     0.054 A 
BRANCH  92  93
ATOM     93  S   UNL A   1      47.705  37.606  29.625  1.00  0.00     0.124 S 
ATOM     94  O   UNL A   1      48.148  38.121  28.332  1.00  0.00    -0.237 OA
ATOM     95  O   UNL A   1      46.401  38.085  30.078  1.00  0.00    -0.237 OA
ATOM     96  O   UNL A   1      48.735  37.546  30.660  1.00  0.00    -0.744 OA
ENDBRANCH  92  93
ENDBRANCH  66  87
ENDBRANCH  40  41
ENDBRANCH  32  35
ENDBRANCH  30  31
ENDBRANCH  29  30
ENDBRANCH  28  29
ENDBRANCH   1  28
TORSDOF 20
ENDMDL
MODEL 2
REMARK VINA RESULT:     -10.6      2.384      8.941
REMARK SMILES CC[C@](C)(NC(=O)c1ccc2ccccc2c1O)C(=O)NCCCCCCNC(=O)c1ccc(-c2c3nc(c(-c4ccc(S(=O)(=O)[O-])cc4)c4ccc([nH]4)c(-c4ccc(S(=O)(=O)[O-])cc4)c4nc(c(-c5ccc(S(=O)(=O)[O-])cc5)c5ccc2[nH]5)C=C4)C=C3)cc1
REMARK SMILES IDX 24 1 23 2 22 3 21 4 19 5 20 6 3 8 4 9 2 10 1 11 5 12 6 13
REMARK SMILES IDX 7 15 8 16 9 17 17 18 10 19 16 20 11 21 15 22 12 23 14 24
REMARK SMILES IDX 13 25 18 26 25 28 26 29 27 30 28 31 29 32 30 34 31 35 32 36
REMARK SMILES IDX 90 37 33 38 89 39 34 40 35 41 36 42 83 43 37 44 88 45 82 46
REMARK SMILES IDX 84 47 38 48 87 49 81 50 80 51 39 53 69 54 50 55 68 56 51 57
REMARK SMILES IDX 54 58 67 59 85 60 52 61 53 62 66 64 86 65 55 66 40 67 41 68
REMARK SMILES IDX 49 69 42 70 48 71 43 72 44 73 45 74 46 75 47 76 70 77 71 78
REMARK SMILES IDX 79 79 72 80 78 81 73 82 74 83 75 84 76 85 77 86 56 87 57 88
REMARK SMILES IDX 65 89 58 90 64 91 59 92 60 93 61 94 62 95 63 96
REMARK H PARENT 21 7 5 14 18 27 28 33 84 52 54 63
REMARK Flexibility Score: inf
ROOT
ATOM      1  C   UNL A   1      33.023  28.911  27.310  1.00  0.00     0.002 C 
ENDROOT
BRANCH   1   2
ATOM      2  C   UNL A   1      32.072  30.031  26.877  1.00  0.00     0.021 C 
BRANCH   2   3
ATOM      3  C   UNL A   1      31.468  30.085  25.457  1.00  0.00     0.116 C 
BRANCH   3   4
ATOM      4  N   UNL A   1      32.232  29.610  24.296  1.00  0.00    -0.354 N 
ATOM      5  C   UNL A   1      32.066  28.593  23.367  1.00  0.00     0.245 C 
ATOM      6  O   UNL A   1      32.712  28.666  22.317  1.00  0.00    -0.272 OA
ATOM      7  H   UNL A   1      33.050  30.135  24.140  1.00  0.00     0.163 HD
BRANCH   5   8
ATOM      8  C   UNL A   1      31.049  27.472  23.595  1.00  0.00     0.116 C 
ATOM      9  C   UNL A   1      31.219  26.223  22.717  1.00  0.00     0.045 C 
BRANCH   8  10
ATOM     10  C   UNL A   1      29.670  28.127  23.218  1.00  0.00     0.035 C 
ATOM     11  C   UNL A   1      28.441  27.241  23.501  1.00  0.00     0.007 C 
ENDBRANCH   8  10
BRANCH   8  12
ATOM     12  N   UNL A   1      31.101  27.025  25.008  1.00  0.00    -0.338 N 
ATOM     13  C   UNL A   1      31.317  25.823  25.661  1.00  0.00     0.255 C 
ATOM     14  H   UNL A   1      30.944  27.766  25.637  1.00  0.00     0.164 HD
ATOM     15  O   UNL A   1      30.857  25.822  26.814  1.00  0.00    -0.269 OA
BRANCH  13  16
ATOM     16  C   UNL A   1      32.054  24.562  25.236  1.00  0.00     0.082 A 
ATOM     17  C   UNL A   1      31.247  23.406  25.206  1.00  0.00     0.018 A 
ATOM     18  C   UNL A   1      33.430  24.311  25.112  1.00  0.00     0.136 A 
ATOM     19  C   UNL A   1      31.785  22.106  25.120  1.00  0.00     0.010 A 
ATOM     20  C   UNL A   1      34.004  23.014  24.981  1.00  0.00     0.024 A 
ATOM     21  C   UNL A   1      33.167  21.894  25.032  1.00  0.00    -0.015 A 
ATOM     22  C   UNL A   1      35.405  22.811  24.901  1.00  0.00     0.012 A 
ATOM     23  C   UNL A   1      33.747  20.608  25.046  1.00  0.00     0.009 A 
ATOM     24  C   UNL A   1      35.968  21.539  24.915  1.00  0.00     0.001 A 
ATOM     25  C   UNL A   1      35.134  20.434  25.000  1.00  0.00     0.001 A 
BRANCH  18  26
ATOM     26  O   UNL A   1      34.393  25.247  25.304  1.00  0.00    -0.506 OA
ATOM     27  H   UNL A   1      34.950  25.198  26.055  1.00  0.00     0.293 HD
ENDBRANCH  18  26
ENDBRANCH  13  16
ENDBRANCH   8  12
ENDBRANCH   5   8
ENDBRANCH   3   4
ENDBRANCH   2   3
ENDBRANCH   1   2
BRANCH   1  28
ATOM     28  C   UNL A   1      34.476  29.013  26.860  1.00  0.00     0.002 C 
BRANCH  28  29
ATOM     29  C   UNL A   1      35.299  30.043  27.626  1.00  0.00     0.021 C 
BRANCH  29  30
ATOM     30  C   UNL A   1      35.908  29.536  28.929  1.00  0.00     0.116 C 
BRANCH  30  31
ATOM     31  N   UNL A   1      35.736  30.453  30.049  1.00  0.00    -0.352 N 
ATOM     32  C   UNL A   1      36.724  31.029  30.816  1.00  0.00     0.251 C 
ATOM     33  H   UNL A   1      34.809  30.687  30.281  1.00  0.00     0.163 HD
ATOM     34  O   UNL A   1      36.448  31.704  31.804  1.00  0.00    -0.269 OA
BRANCH  32  35
ATOM     35  C   UNL A   1      38.133  30.780  30.447  1.00  0.00     0.039 A 
ATOM     36  C   UNL A   1      38.993  30.207  31.386  1.00  0.00     0.014 A 
ATOM     37  C   UNL A   1      38.564  31.021  29.140  1.00  0.00     0.014 A 
ATOM     38  C   UNL A   1      40.270  29.804  30.988  1.00  0.00     0.010 A 
ATOM     39  C   UNL A   1      39.806  30.551  28.730  1.00  0.00     0.010 A 
ATOM     40  C   UNL A   1      40.672  29.936  29.649  1.00  0.00    -0.014 A 
BRANCH  40  41
ATOM     41  C   UNL A   1      41.993  29.442  29.182  1.00  0.00     0.031 A 
ATOM     42  C   UNL A   1      43.158  30.392  29.093  1.00  0.00     0.074 A 
ATOM     43  C   UNL A   1      42.129  28.166  28.770  1.00  0.00     0.049 A 
ATOM     44  N   UNL A   1      44.365  30.177  28.639  1.00  0.00    -0.248 NA
ATOM     45  C   UNL A   1      42.923  31.774  29.545  1.00  0.00     0.031 C 
ATOM     46  C   UNL A   1      41.066  27.158  28.760  1.00  0.00     0.029 A 
ATOM     47  N   UNL A   1      43.219  27.498  28.268  1.00  0.00    -0.354 N 
ATOM     48  C   UNL A   1      45.025  31.397  28.731  1.00  0.00     0.074 A 
ATOM     49  C   UNL A   1      44.069  32.359  29.232  1.00  0.00     0.031 C 
ATOM     50  C   UNL A   1      41.563  25.996  28.303  1.00  0.00     0.029 A 
ATOM     51  C   UNL A   1      42.967  26.184  27.951  1.00  0.00     0.049 A 
ATOM     52  H   UNL A   1      44.100  27.922  28.146  1.00  0.00     0.167 HD
ATOM     53  C   UNL A   1      46.317  31.688  28.445  1.00  0.00     0.031 A 
ATOM     54  C   UNL A   1      43.773  25.237  27.431  1.00  0.00     0.031 A 
ATOM     55  C   UNL A   1      47.270  30.724  27.969  1.00  0.00     0.049 A 
ATOM     56  C   UNL A   1      45.208  25.579  27.131  1.00  0.00     0.074 A 
ATOM     57  C   UNL A   1      48.618  30.904  27.707  1.00  0.00     0.029 A 
ATOM     58  N   UNL A   1      46.982  29.398  27.686  1.00  0.00    -0.354 N 
ATOM     59  N   UNL A   1      45.830  26.725  27.285  1.00  0.00    -0.248 NA
ATOM     60  C   UNL A   1      46.052  24.501  26.599  1.00  0.00     0.031 C 
ATOM     61  C   UNL A   1      49.133  29.696  27.223  1.00  0.00     0.029 A 
ATOM     62  C   UNL A   1      48.119  28.751  27.236  1.00  0.00     0.049 A 
ATOM     63  H   UNL A   1      46.097  28.977  27.790  1.00  0.00     0.167 HD
ATOM     64  C   UNL A   1      47.145  26.496  26.897  1.00  0.00     0.074 A 
ATOM     65  C   UNL A   1      47.232  25.102  26.513  1.00  0.00     0.031 C 
ATOM     66  C   UNL A   1      48.188  27.361  26.864  1.00  0.00     0.031 A 
BRANCH  53  67
ATOM     67  C   UNL A   1      46.769  33.110  28.645  1.00  0.00    -0.014 A 
ATOM     68  C   UNL A   1      47.305  33.534  29.875  1.00  0.00     0.010 A 
ATOM     69  C   UNL A   1      46.686  34.027  27.582  1.00  0.00     0.010 A 
ATOM     70  C   UNL A   1      47.708  34.860  30.052  1.00  0.00     0.020 A 
ATOM     71  C   UNL A   1      47.115  35.348  27.747  1.00  0.00     0.020 A 
ATOM     72  C   UNL A   1      47.606  35.760  28.987  1.00  0.00     0.054 A 
BRANCH  72  73
ATOM     73  S   UNL A   1      48.156  37.469  29.238  1.00  0.00     0.124 S 
ATOM     74  O   UNL A   1      49.060  37.662  28.106  1.00  0.00    -0.237 OA
ATOM     75  O   UNL A   1      46.905  38.222  29.177  1.00  0.00    -0.237 OA
ATOM     76  O   UNL A   1      48.797  37.439  30.549  1.00  0.00    -0.744 OA
ENDBRANCH  72  73
ENDBRANCH  53  67
BRANCH  54  77
ATOM     77  C   UNL A   1      43.250  23.865  27.182  1.00  0.00    -0.014 A 
ATOM     78  C   UNL A   1      42.848  23.478  25.890  1.00  0.00     0.010 A 
ATOM     79  C   UNL A   1      43.156  22.935  28.233  1.00  0.00     0.010 A 
ATOM     80  C   UNL A   1      42.342  22.196  25.659  1.00  0.00     0.020 A 
ATOM     81  C   UNL A   1      42.676  21.643  27.999  1.00  0.00     0.020 A 
ATOM     82  C   UNL A   1      42.260  21.285  26.715  1.00  0.00     0.054 A 
BRANCH  82  83
ATOM     83  S   UNL A   1      41.646  19.610  26.384  1.00  0.00     0.124 S 
ATOM     84  O   UNL A   1      41.994  18.910  27.616  1.00  0.00    -0.237 OA
ATOM     85  O   UNL A   1      40.220  19.834  26.162  1.00  0.00    -0.237 OA
ATOM     86  O   UNL A   1      42.396  19.201  25.198  1.00  0.00    -0.744 OA
ENDBRANCH  82  83
ENDBRANCH  54  77
BRANCH  66  87
ATOM     87  C   UNL A   1      49.527  26.821  26.436  1.00  0.00    -0.014 A 
ATOM     88  C   UNL A   1      50.344  26.104  27.328  1.00  0.00     0.010 A 
ATOM     89  C   UNL A   1      49.941  26.980  25.101  1.00  0.00     0.010 A 
ATOM     90  C   UNL A   1      51.565  25.579  26.898  1.00  0.00     0.020 A 
ATOM     91  C   UNL A   1      51.148  26.433  24.661  1.00  0.00     0.020 A 
ATOM     92  C   UNL A   1      51.959  25.747  25.566  1.00  0.00     0.054 A 
BRANCH  92  93
ATOM     93  S   UNL A   1      53.525  25.012  25.019  1.00  0.00     0.124 S 
ATOM     94  O   UNL A   1      53.697  25.613  23.699  1.00  0.00    -0.237 OA
ATOM     95  O   UNL A   1      54.465  25.464  26.043  1.00  0.00    -0.237 OA
ATOM     96  O   UNL A   1      53.253  23.577  25.021  1.00  0.00    -0.744 OA
ENDBRANCH  92  93
ENDBRANCH  66  87
ENDBRANCH  40  41
ENDBRANCH  32  35
ENDBRANCH  30  31
ENDBRANCH  29  30
ENDBRANCH  28  29
ENDBRANCH   1  28
TORSDOF 20
ENDMDL
MODEL 3
REMARK VINA RESULT:     -10.5      6.018      8.064
REMARK SMILES CC[C@](C)(NC(=O)c1ccc2ccccc2c1O)C(=O)NCCCCCCNC(=O)c1ccc(-c2c3nc(c(-c4ccc(S(=O)(=O)[O-])cc4)c4ccc([nH]4)c(-c4ccc(S(=O)(=O)[O-])cc4)c4nc(c(-c5ccc(S(=O)(=O)[O-])cc5)c5ccc2[nH]5)C=C4)C=C3)cc1
REMARK SMILES IDX 24 1 23 2 22 3 21 4 19 5 20 6 3 8 4 9 2 10 1 11 5 12 6 13
REMARK SMILES IDX 7 15 8 16 9 17 17 18 10 19 16 20 11 21 15 22 12 23 14 24
REMARK SMILES IDX 13 25 18 26 25 28 26 29 27 30 28 31 29 32 30 34 31 35 32 36
REMARK SMILES IDX 90 37 33 38 89 39 34 40 35 41 36 42 83 43 37 44 88 45 82 46
REMARK SMILES IDX 84 47 38 48 87 49 81 50 80 51 39 53 69 54 50 55 68 56 51 57
REMARK SMILES IDX 54 58 67 59 85 60 52 61 53 62 66 64 86 65 55 66 40 67 41 68
REMARK SMILES IDX 49 69 42 70 48 71 43 72 44 73 45 74 46 75 47 76 70 77 71 78
REMARK SMILES IDX 79 79 72 80 78 81 73 82 74 83 75 84 76 85 77 86 56 87 57 88
REMARK SMILES IDX 65 89 58 90 64 91 59 92 60 93 61 94 62 95 63 96
REMARK H PARENT 21 7 5 14 18 27 28 33 84 52 54 63
REMARK Flexibility Score: inf
ROOT
ATOM      1  C   UNL A   1      38.123  20.944  25.485  1.00  0.00     0.002 C 
ENDROOT
BRANCH   1   2
ATOM      2  C   UNL A   1      36.689  21.095  24.968  1.00  0.00     0.021 C 
BRANCH   2   3
ATOM      3  C   UNL A   1      35.592  21.796  25.797  1.00  0.00     0.116 C 
BRANCH   3   4
ATOM      4  N   UNL A   1      34.218  21.276  25.820  1.00  0.00    -0.354 N 
ATOM      5  C   UNL A   1      32.973  21.788  25.485  1.00  0.00     0.245 C 
ATOM      6  O   UNL A   1      32.053  20.984  25.306  1.00  0.00    -0.272 OA
ATOM      7  H   UNL A   1      34.170  20.349  26.150  1.00  0.00     0.163 HD
BRANCH   5   8
ATOM      8  C   UNL A   1      32.773  23.287  25.252  1.00  0.00     0.116 C 
ATOM      9  C   UNL A   1      33.065  24.198  26.454  1.00  0.00     0.045 C 
BRANCH   8  10
ATOM     10  C   UNL A   1      31.241  23.420  24.923  1.00  0.00     0.035 C 
ATOM     11  C   UNL A   1      30.547  24.629  25.581  1.00  0.00     0.007 C 
ENDBRANCH   8  10
BRANCH   8  12
ATOM     12  N   UNL A   1      33.638  23.743  24.137  1.00  0.00    -0.338 N 
ATOM     13  C   UNL A   1      33.659  24.827  23.277  1.00  0.00     0.255 C 
ATOM     14  H   UNL A   1      34.381  23.120  23.967  1.00  0.00     0.164 HD
ATOM     15  O   UNL A   1      34.298  24.596  22.239  1.00  0.00    -0.269 OA
BRANCH  13  16
ATOM     16  C   UNL A   1      33.096  26.234  23.413  1.00  0.00     0.082 A 
ATOM     17  C   UNL A   1      33.613  26.959  24.507  1.00  0.00     0.018 A 
ATOM     18  C   UNL A   1      31.987  26.834  22.793  1.00  0.00     0.136 A 
ATOM     19  C   UNL A   1      33.026  28.152  24.974  1.00  0.00     0.010 A 
ATOM     20  C   UNL A   1      31.395  28.059  23.213  1.00  0.00     0.024 A 
ATOM     21  C   UNL A   1      31.898  28.701  24.350  1.00  0.00    -0.015 A 
ATOM     22  C   UNL A   1      30.248  28.602  22.579  1.00  0.00     0.012 A 
ATOM     23  C   UNL A   1      31.224  29.836  24.849  1.00  0.00     0.009 A 
ATOM     24  C   UNL A   1      29.591  29.722  23.078  1.00  0.00     0.001 A 
ATOM     25  C   UNL A   1      30.074  30.333  24.225  1.00  0.00     0.001 A 
BRANCH  18  26
ATOM     26  O   UNL A   1      31.221  26.226  21.854  1.00  0.00    -0.506 OA
ATOM     27  H   UNL A   1      30.289  26.311  21.882  1.00  0.00     0.293 HD
ENDBRANCH  18  26
ENDBRANCH  13  16
ENDBRANCH   8  12
ENDBRANCH   5   8
ENDBRANCH   3   4
ENDBRANCH   2   3
ENDBRANCH   1   2
BRANCH   1  28
ATOM     28  C   UNL A   1      38.777  22.174  26.102  1.00  0.00     0.002 C 
BRANCH  28  29
ATOM     29  C   UNL A   1      40.074  21.886  26.850  1.00  0.00     0.021 C 
BRANCH  29  30
ATOM     30  C   UNL A   1      40.912  23.117  27.179  1.00  0.00     0.116 C 
BRANCH  30  31
ATOM     31  N   UNL A   1      41.232  23.933  26.014  1.00  0.00    -0.352 N 
ATOM     32  C   UNL A   1      41.429  25.295  25.977  1.00  0.00     0.251 C 
ATOM     33  H   UNL A   1      41.318  23.455  25.158  1.00  0.00     0.163 HD
ATOM     34  O   UNL A   1      41.589  25.885  24.912  1.00  0.00    -0.269 OA
BRANCH  32  35
ATOM     35  C   UNL A   1      41.401  26.042  27.252  1.00  0.00     0.039 A 
ATOM     36  C   UNL A   1      42.466  26.887  27.571  1.00  0.00     0.014 A 
ATOM     37  C   UNL A   1      40.272  25.978  28.072  1.00  0.00     0.014 A 
ATOM     38  C   UNL A   1      42.363  27.729  28.680  1.00  0.00     0.010 A 
ATOM     39  C   UNL A   1      40.142  26.870  29.131  1.00  0.00     0.010 A 
ATOM     40  C   UNL A   1      41.185  27.756  29.445  1.00  0.00    -0.014 A 
BRANCH  40  41
ATOM     41  C   UNL A   1      41.018  28.700  30.581  1.00  0.00     0.031 A 
ATOM     42  C   UNL A   1      41.901  28.574  31.793  1.00  0.00     0.074 A 
ATOM     43  C   UNL A   1      40.030  29.617  30.556  1.00  0.00     0.049 A 
ATOM     44  N   UNL A   1      41.863  29.245  32.914  1.00  0.00    -0.248 NA
ATOM     45  C   UNL A   1      42.944  27.535  31.750  1.00  0.00     0.031 C 
ATOM     46  C   UNL A   1      39.076  29.809  29.461  1.00  0.00     0.029 A 
ATOM     47  N   UNL A   1      39.657  30.556  31.486  1.00  0.00    -0.354 N 
ATOM     48  C   UNL A   1      42.859  28.698  33.715  1.00  0.00     0.074 A 
ATOM     49  C   UNL A   1      43.447  27.605  32.973  1.00  0.00     0.031 C 
ATOM     50  C   UNL A   1      38.246  30.820  29.772  1.00  0.00     0.029 A 
ATOM     51  C   UNL A   1      38.583  31.323  31.100  1.00  0.00     0.049 A 
ATOM     52  H   UNL A   1      40.116  30.670  32.350  1.00  0.00     0.167 HD
ATOM     53  C   UNL A   1      43.264  29.082  34.949  1.00  0.00     0.031 A 
ATOM     54  C   UNL A   1      37.937  32.316  31.743  1.00  0.00     0.031 A 
ATOM     55  C   UNL A   1      42.693  30.183  35.675  1.00  0.00     0.049 A 
ATOM     56  C   UNL A   1      38.411  32.734  33.109  1.00  0.00     0.074 A 
ATOM     57  C   UNL A   1      43.072  30.691  36.906  1.00  0.00     0.029 A 
ATOM     58  N   UNL A   1      41.625  30.951  35.237  1.00  0.00    -0.354 N 
ATOM     59  N   UNL A   1      39.397  32.244  33.823  1.00  0.00    -0.248 NA
ATOM     60  C   UNL A   1      37.695  33.845  33.751  1.00  0.00     0.031 C 
ATOM     61  C   UNL A   1      42.203  31.738  37.232  1.00  0.00     0.029 A 
ATOM     62  C   UNL A   1      41.318  31.917  36.180  1.00  0.00     0.049 A 
ATOM     63  H   UNL A   1      41.152  30.827  34.382  1.00  0.00     0.167 HD
ATOM     64  C   UNL A   1      39.438  33.007  34.986  1.00  0.00     0.074 A 
ATOM     65  C   UNL A   1      38.387  33.997  34.873  1.00  0.00     0.031 C 
ATOM     66  C   UNL A   1      40.272  32.899  36.048  1.00  0.00     0.031 A 
BRANCH  53  67
ATOM     67  C   UNL A   1      44.383  28.303  35.587  1.00  0.00    -0.014 A 
ATOM     68  C   UNL A   1      45.726  28.678  35.402  1.00  0.00     0.010 A 
ATOM     69  C   UNL A   1      44.088  27.198  36.407  1.00  0.00     0.010 A 
ATOM     70  C   UNL A   1      46.756  27.937  35.988  1.00  0.00     0.020 A 
ATOM     71  C   UNL A   1      45.114  26.472  37.019  1.00  0.00     0.020 A 
ATOM     72  C   UNL A   1      46.443  26.836  36.790  1.00  0.00     0.054 A 
BRANCH  72  73
ATOM     73  S   UNL A   1      47.798  25.905  37.555  1.00  0.00     0.124 S 
ATOM     74  O   UNL A   1      48.754  25.810  36.454  1.00  0.00    -0.237 OA
ATOM     75  O   UNL A   1      48.199  26.771  38.660  1.00  0.00    -0.237 OA
ATOM     76  O   UNL A   1      47.175  24.645  37.949  1.00  0.00    -0.744 OA
ENDBRANCH  72  73
ENDBRANCH  53  67
BRANCH  54  77
ATOM     77  C   UNL A   1      36.786  33.002  31.094  1.00  0.00    -0.014 A 
ATOM     78  C   UNL A   1      35.485  32.857  31.611  1.00  0.00     0.010 A 
ATOM     79  C   UNL A   1      36.983  33.810  29.960  1.00  0.00     0.010 A 
ATOM     80  C   UNL A   1      34.402  33.487  30.993  1.00  0.00     0.020 A 
ATOM     81  C   UNL A   1      35.905  34.465  29.356  1.00  0.00     0.020 A 
ATOM     82  C   UNL A   1      34.619  34.289  29.869  1.00  0.00     0.054 A 
BRANCH  82  83
ATOM     83  S   UNL A   1      33.205  35.138  29.111  1.00  0.00     0.124 S 
ATOM     84  O   UNL A   1      32.785  34.179  28.095  1.00  0.00    -0.237 OA
ATOM     85  O   UNL A   1      32.295  35.306  30.241  1.00  0.00    -0.237 OA
ATOM     86  O   UNL A   1      33.787  36.378  28.600  1.00  0.00    -0.744 OA
ENDBRANCH  82  83
ENDBRANCH  54  77
BRANCH  66  87
ATOM     87  C   UNL A   1      40.113  33.900  37.161  1.00  0.00    -0.014 A 
ATOM     88  C   UNL A   1      39.325  33.616  38.291  1.00  0.00     0.010 A 
ATOM     89  C   UNL A   1      40.815  35.117  37.102  1.00  0.00     0.010 A 
ATOM     90  C   UNL A   1      39.222  34.544  39.329  1.00  0.00     0.020 A 
ATOM     91  C   UNL A   1      40.736  36.036  38.151  1.00  0.00     0.020 A 
ATOM     92  C   UNL A   1      39.929  35.749  39.252  1.00  0.00     0.054 A 
BRANCH  92  93
ATOM     93  S   UNL A   1      39.819  36.917  40.636  1.00  0.00     0.124 S 
ATOM     94  O   UNL A   1      38.393  36.884  40.948  1.00  0.00    -0.237 OA
ATOM     95  O   UNL A   1      40.695  36.311  41.637  1.00  0.00    -0.237 OA
ATOM     96  O   UNL A   1      40.306  38.173  40.069  1.00  0.00    -0.744 OA
ENDBRANCH  92  93
ENDBRANCH  66  87
ENDBRANCH  40  41
ENDBRANCH  32  35
ENDBRANCH  30  31
ENDBRANCH  29  30
ENDBRANCH  28  29
ENDBRANCH   1  28
TORSDOF 20
ENDMDL
