MODEL 1
REMARK VINA RESULT:     -13.2      0.000      0.000
REMARK SMILES COc1c(C)cccc1C(=O)NCc1ccc(C(=O)NCCCCCCNC(=O)c2ccc(-c3c4nc(c(-c5ccc(S(=O)(=O)[O-])cc5)c5ccc([nH]5)c(-c5ccc(S(=O)(=O)[O-])cc5)c5nc(c(-c6ccc(S(=O)(=O)[O-])cc6)c6ccc3[nH]6)C=C5)C=C4)cc2)cc1
REMARK SMILES IDX 23 1 22 2 21 3 20 4 18 5 19 6 17 8 14 9 15 10 91 11 16 12
REMARK SMILES IDX 90 13 13 14 12 15 10 16 11 17 9 19 3 20 4 21 5 22 6 23 8 24
REMARK SMILES IDX 7 25 2 26 1 27 24 28 25 29 26 30 27 31 28 32 29 34 30 35
REMARK SMILES IDX 31 36 89 37 32 38 88 39 33 40 34 41 35 42 82 43 36 44 87 45
REMARK SMILES IDX 81 46 83 47 37 48 86 49 80 50 79 51 38 53 68 54 49 55 67 56
REMARK SMILES IDX 50 57 53 58 66 59 84 60 51 61 52 62 65 64 85 65 54 66 39 67
REMARK SMILES IDX 40 68 48 69 41 70 47 71 42 72 43 73 44 74 45 75 46 76 69 77
REMARK SMILES IDX 70 78 78 79 71 80 77 81 72 82 73 83 74 84 75 85 76 86 55 87
REMARK SMILES IDX 56 88 64 89 57 90 63 91 58 92 59 93 60 94 61 95 62 96
REMARK H PARENT 20 7 12 18 27 33 83 52 53 63
REMARK Flexibility Score: inf
ROOT
ATOM      1  C   UNL A   1      31.808  27.652  25.683  1.00  0.00     0.002 C 
ENDROOT
BRANCH   1   2
ATOM      2  C   UNL A   1      32.571  27.882  24.373  1.00  0.00     0.021 C 
BRANCH   2   3
ATOM      3  C   UNL A   1      31.696  27.831  23.120  1.00  0.00     0.116 C 
BRANCH   3   4
ATOM      4  N   UNL A   1      32.444  27.333  21.986  1.00  0.00    -0.352 N 
ATOM      5  C   UNL A   1      32.680  26.053  21.569  1.00  0.00     0.251 C 
ATOM      6  O   UNL A   1      33.268  25.881  20.500  1.00  0.00    -0.269 OA
ATOM      7  H   UNL A   1      32.851  28.030  21.423  1.00  0.00     0.163 HD
BRANCH   5   8
ATOM      8  C   UNL A   1      32.213  24.863  22.332  1.00  0.00     0.039 A 
ATOM      9  C   UNL A   1      31.606  22.605  23.896  1.00  0.00    -0.029 A 
ATOM     10  C   UNL A   1      32.756  22.632  23.088  1.00  0.00     0.006 A 
ATOM     11  C   UNL A   1      30.747  23.703  23.896  1.00  0.00     0.006 A 
ATOM     12  C   UNL A   1      33.053  23.747  22.312  1.00  0.00     0.014 A 
ATOM     13  C   UNL A   1      31.064  24.835  23.134  1.00  0.00     0.014 A 
BRANCH   9  14
ATOM     14  C   UNL A   1      31.518  21.519  24.927  1.00  0.00     0.152 C 
BRANCH  14  15
ATOM     15  N   UNL A   1      31.571  21.884  26.313  1.00  0.00    -0.348 N 
ATOM     16  C   UNL A   1      32.638  22.441  26.983  1.00  0.00     0.255 C 
ATOM     17  O   UNL A   1      32.568  22.511  28.213  1.00  0.00    -0.269 OA
ATOM     18  H   UNL A   1      30.756  21.721  26.842  1.00  0.00     0.164 HD
BRANCH  16  19
ATOM     19  C   UNL A   1      33.830  23.047  26.297  1.00  0.00     0.082 A 
ATOM     20  C   UNL A   1      34.994  22.393  25.847  1.00  0.00     0.134 A 
ATOM     21  C   UNL A   1      35.951  23.075  25.066  1.00  0.00    -0.008 A 
ATOM     22  C   UNL A   1      37.097  22.347  24.419  1.00  0.00     0.048 C 
ATOM     23  C   UNL A   1      35.833  24.458  24.891  1.00  0.00     0.007 A 
ATOM     24  C   UNL A   1      33.744  24.439  26.099  1.00  0.00     0.018 A 
ATOM     25  C   UNL A   1      34.744  25.141  25.422  1.00  0.00     0.001 A 
BRANCH  20  26
ATOM     26  O   UNL A   1      35.218  21.060  26.062  1.00  0.00    -0.496 OA
ATOM     27  C   UNL A   1      34.764  20.256  24.978  1.00  0.00     0.278 C 
ENDBRANCH  20  26
ENDBRANCH  16  19
ENDBRANCH  14  15
ENDBRANCH   9  14
ENDBRANCH   5   8
ENDBRANCH   3   4
ENDBRANCH   2   3
ENDBRANCH   1   2
BRANCH   1  28
ATOM     28  C   UNL A   1      31.999  28.725  26.767  1.00  0.00     0.002 C 
BRANCH  28  29
ATOM     29  C   UNL A   1      32.989  29.842  26.428  1.00  0.00     0.021 C 
BRANCH  29  30
ATOM     30  C   UNL A   1      34.375  29.608  27.012  1.00  0.00     0.116 C 
BRANCH  30  31
ATOM     31  N   UNL A   1      35.042  30.847  27.379  1.00  0.00    -0.352 N 
ATOM     32  C   UNL A   1      36.073  30.968  28.299  1.00  0.00     0.251 C 
ATOM     33  H   UNL A   1      34.736  31.670  26.936  1.00  0.00     0.163 HD
ATOM     34  O   UNL A   1      36.288  31.963  28.954  1.00  0.00    -0.269 OA
BRANCH  32  35
ATOM     35  C   UNL A   1      37.024  29.836  28.308  1.00  0.00     0.039 A 
ATOM     36  C   UNL A   1      37.182  29.150  29.519  1.00  0.00     0.014 A 
ATOM     37  C   UNL A   1      37.926  29.685  27.261  1.00  0.00     0.014 A 
ATOM     38  C   UNL A   1      38.347  28.422  29.739  1.00  0.00     0.010 A 
ATOM     39  C   UNL A   1      39.116  29.034  27.514  1.00  0.00     0.010 A 
ATOM     40  C   UNL A   1      39.344  28.444  28.767  1.00  0.00    -0.014 A 
BRANCH  40  41
ATOM     41  C   UNL A   1      40.679  27.892  28.962  1.00  0.00     0.031 A 
ATOM     42  C   UNL A   1      40.920  26.467  28.639  1.00  0.00     0.074 A 
ATOM     43  C   UNL A   1      41.707  28.687  29.337  1.00  0.00     0.049 A 
ATOM     44  N   UNL A   1      41.936  25.785  29.046  1.00  0.00    -0.248 NA
ATOM     45  C   UNL A   1      39.978  25.670  27.856  1.00  0.00     0.031 C 
ATOM     46  C   UNL A   1      43.130  28.355  29.281  1.00  0.00     0.029 A 
ATOM     47  N   UNL A   1      41.680  29.890  30.047  1.00  0.00    -0.354 N 
ATOM     48  C   UNL A   1      41.958  24.607  28.337  1.00  0.00     0.074 A 
ATOM     49  C   UNL A   1      40.669  24.540  27.690  1.00  0.00     0.031 C 
ATOM     50  C   UNL A   1      43.781  29.124  30.168  1.00  0.00     0.029 A 
ATOM     51  C   UNL A   1      42.771  29.830  30.935  1.00  0.00     0.049 A 
ATOM     52  H   UNL A   1      41.032  30.624  29.949  1.00  0.00     0.167 HD
ATOM     53  C   UNL A   1      43.117  23.889  28.270  1.00  0.00     0.031 A 
ATOM     54  C   UNL A   1      42.637  29.772  32.296  1.00  0.00     0.031 A 
ATOM     55  C   UNL A   1      44.145  24.433  29.159  1.00  0.00     0.049 A 
ATOM     56  C   UNL A   1      43.257  28.526  32.925  1.00  0.00     0.074 A 
ATOM     57  C   UNL A   1      45.323  25.142  28.984  1.00  0.00     0.029 A 
ATOM     58  N   UNL A   1      43.866  24.497  30.515  1.00  0.00    -0.354 N 
ATOM     59  N   UNL A   1      43.845  27.572  32.255  1.00  0.00    -0.248 NA
ATOM     60  C   UNL A   1      43.176  28.212  34.354  1.00  0.00     0.031 C 
ATOM     61  C   UNL A   1      45.740  25.636  30.257  1.00  0.00     0.029 A 
ATOM     62  C   UNL A   1      44.827  25.210  31.204  1.00  0.00     0.049 A 
ATOM     63  H   UNL A   1      43.078  24.083  30.937  1.00  0.00     0.167 HD
ATOM     64  C   UNL A   1      44.152  26.531  33.092  1.00  0.00     0.074 A 
ATOM     65  C   UNL A   1      43.729  26.987  34.404  1.00  0.00     0.031 C 
ATOM     66  C   UNL A   1      44.677  25.353  32.644  1.00  0.00     0.031 A 
BRANCH  53  67
ATOM     67  C   UNL A   1      43.389  22.823  27.226  1.00  0.00    -0.014 A 
ATOM     68  C   UNL A   1      42.656  21.618  27.250  1.00  0.00     0.010 A 
ATOM     69  C   UNL A   1      44.387  22.911  26.237  1.00  0.00     0.010 A 
ATOM     70  C   UNL A   1      42.972  20.533  26.413  1.00  0.00     0.020 A 
ATOM     71  C   UNL A   1      44.738  21.828  25.417  1.00  0.00     0.020 A 
ATOM     72  C   UNL A   1      44.036  20.635  25.521  1.00  0.00     0.054 A 
BRANCH  72  73
ATOM     73  S   UNL A   1      44.497  19.204  24.511  1.00  0.00     0.124 S 
ATOM     74  O   UNL A   1      45.814  18.857  25.040  1.00  0.00    -0.237 OA
ATOM     75  O   UNL A   1      43.428  18.254  24.805  1.00  0.00    -0.237 OA
ATOM     76  O   UNL A   1      44.502  19.729  23.147  1.00  0.00    -0.744 OA
ENDBRANCH  72  73
ENDBRANCH  53  67
BRANCH  54  77
ATOM     77  C   UNL A   1      41.429  30.483  32.809  1.00  0.00    -0.014 A 
ATOM     78  C   UNL A   1      40.256  29.719  33.003  1.00  0.00     0.010 A 
ATOM     79  C   UNL A   1      41.554  31.712  33.479  1.00  0.00     0.010 A 
ATOM     80  C   UNL A   1      39.329  30.074  33.987  1.00  0.00     0.020 A 
ATOM     81  C   UNL A   1      40.614  32.078  34.454  1.00  0.00     0.020 A 
ATOM     82  C   UNL A   1      39.554  31.217  34.754  1.00  0.00     0.054 A 
BRANCH  82  83
ATOM     83  S   UNL A   1      38.555  31.458  36.256  1.00  0.00     0.124 S 
ATOM     84  O   UNL A   1      38.195  30.092  36.617  1.00  0.00    -0.237 OA
ATOM     85  O   UNL A   1      39.501  32.120  37.156  1.00  0.00    -0.237 OA
ATOM     86  O   UNL A   1      37.456  32.301  35.795  1.00  0.00    -0.744 OA
ENDBRANCH  82  83
ENDBRANCH  54  77
BRANCH  66  87
ATOM     87  C   UNL A   1      45.039  24.182  33.525  1.00  0.00    -0.014 A 
ATOM     88  C   UNL A   1      46.348  23.932  33.964  1.00  0.00     0.010 A 
ATOM     89  C   UNL A   1      44.059  23.208  33.834  1.00  0.00     0.010 A 
ATOM     90  C   UNL A   1      46.649  22.794  34.733  1.00  0.00     0.020 A 
ATOM     91  C   UNL A   1      44.351  22.065  34.582  1.00  0.00     0.020 A 
ATOM     92  C   UNL A   1      45.645  21.874  35.045  1.00  0.00     0.054 A 
BRANCH  92  93
ATOM     93  S   UNL A   1      46.056  20.402  36.016  1.00  0.00     0.124 S 
ATOM     94  O   UNL A   1      45.679  20.797  37.371  1.00  0.00    -0.237 OA
ATOM     95  O   UNL A   1      45.208  19.387  35.399  1.00  0.00    -0.237 OA
ATOM     96  O   UNL A   1      47.491  20.230  35.801  1.00  0.00    -0.744 OA
ENDBRANCH  92  93
ENDBRANCH  66  87
ENDBRANCH  40  41
ENDBRANCH  32  35
ENDBRANCH  30  31
ENDBRANCH  29  30
ENDBRANCH  28  29
ENDBRANCH   1  28
TORSDOF 20
ENDMDL
MODEL 2
REMARK VINA RESULT:     -11.9      2.184      2.981
REMARK SMILES COc1c(C)cccc1C(=O)NCc1ccc(C(=O)NCCCCCCNC(=O)c2ccc(-c3c4nc(c(-c5ccc(S(=O)(=O)[O-])cc5)c5ccc([nH]5)c(-c5ccc(S(=O)(=O)[O-])cc5)c5nc(c(-c6ccc(S(=O)(=O)[O-])cc6)c6ccc3[nH]6)C=C5)C=C4)cc2)cc1
REMARK SMILES IDX 23 1 22 2 21 3 20 4 18 5 19 6 17 8 14 9 15 10 91 11 16 12
REMARK SMILES IDX 90 13 13 14 12 15 10 16 11 17 9 19 3 20 4 21 5 22 6 23 8 24
REMARK SMILES IDX 7 25 2 26 1 27 24 28 25 29 26 30 27 31 28 32 29 34 30 35
REMARK SMILES IDX 31 36 89 37 32 38 88 39 33 40 34 41 35 42 82 43 36 44 87 45
REMARK SMILES IDX 81 46 83 47 37 48 86 49 80 50 79 51 38 53 68 54 49 55 67 56
REMARK SMILES IDX 50 57 53 58 66 59 84 60 51 61 52 62 65 64 85 65 54 66 39 67
REMARK SMILES IDX 40 68 48 69 41 70 47 71 42 72 43 73 44 74 45 75 46 76 69 77
REMARK SMILES IDX 70 78 78 79 71 80 77 81 72 82 73 83 74 84 75 85 76 86 55 87
REMARK SMILES IDX 56 88 64 89 57 90 63 91 58 92 59 93 60 94 61 95 62 96
REMARK H PARENT 20 7 12 18 27 33 83 52 53 63
REMARK Flexibility Score: inf
ROOT
ATOM      1  C   UNL A   1      33.882  27.222  24.282  1.00  0.00     0.002 C 
ENDROOT
BRANCH   1   2
ATOM      2  C   UNL A   1      33.396  28.096  23.119  1.00  0.00     0.021 C 
BRANCH   2   3
ATOM      3  C   UNL A   1      32.500  27.366  22.117  1.00  0.00     0.116 C 
BRANCH   3   4
ATOM      4  N   UNL A   1      31.127  27.806  22.234  1.00  0.00    -0.352 N 
ATOM      5  C   UNL A   1      30.111  27.353  23.030  1.00  0.00     0.251 C 
ATOM      6  O   UNL A   1      29.042  27.964  23.024  1.00  0.00    -0.269 OA
ATOM      7  H   UNL A   1      30.884  28.555  21.643  1.00  0.00     0.163 HD
BRANCH   5   8
ATOM      8  C   UNL A   1      30.265  26.180  23.933  1.00  0.00     0.039 A 
ATOM      9  C   UNL A   1      30.794  23.885  25.472  1.00  0.00    -0.029 A 
ATOM     10  C   UNL A   1      30.698  23.806  24.072  1.00  0.00     0.006 A 
ATOM     11  C   UNL A   1      30.595  25.114  26.099  1.00  0.00     0.006 A 
ATOM     12  C   UNL A   1      30.434  24.940  23.312  1.00  0.00     0.014 A 
ATOM     13  C   UNL A   1      30.356  26.259  25.329  1.00  0.00     0.014 A 
BRANCH   9  14
ATOM     14  C   UNL A   1      31.383  22.706  26.187  1.00  0.00     0.152 C 
BRANCH  14  15
ATOM     15  N   UNL A   1      31.481  21.459  25.485  1.00  0.00    -0.348 N 
ATOM     16  C   UNL A   1      32.449  21.093  24.575  1.00  0.00     0.255 C 
ATOM     17  O   UNL A   1      32.267  20.058  23.930  1.00  0.00    -0.269 OA
ATOM     18  H   UNL A   1      30.782  20.791  25.675  1.00  0.00     0.164 HD
BRANCH  16  19
ATOM     19  C   UNL A   1      33.746  21.831  24.395  1.00  0.00     0.082 A 
ATOM     20  C   UNL A   1      34.891  21.780  25.213  1.00  0.00     0.134 A 
ATOM     21  C   UNL A   1      36.094  22.401  24.814  1.00  0.00    -0.008 A 
ATOM     22  C   UNL A   1      37.373  22.196  25.580  1.00  0.00     0.048 C 
ATOM     23  C   UNL A   1      36.097  23.226  23.685  1.00  0.00     0.007 A 
ATOM     24  C   UNL A   1      33.788  22.668  23.263  1.00  0.00     0.018 A 
ATOM     25  C   UNL A   1      34.944  23.375  22.923  1.00  0.00     0.001 A 
BRANCH  20  26
ATOM     26  O   UNL A   1      34.930  21.065  26.380  1.00  0.00    -0.496 OA
ATOM     27  C   UNL A   1      34.468  21.824  27.493  1.00  0.00     0.278 C 
ENDBRANCH  20  26
ENDBRANCH  16  19
ENDBRANCH  14  15
ENDBRANCH   9  14
ENDBRANCH   5   8
ENDBRANCH   3   4
ENDBRANCH   2   3
ENDBRANCH   1   2
BRANCH   1  28
ATOM     28  C   UNL A   1      34.029  27.933  25.637  1.00  0.00     0.002 C 
BRANCH  28  29
ATOM     29  C   UNL A   1      32.721  28.352  26.312  1.00  0.00     0.021 C 
BRANCH  29  30
ATOM     30  C   UNL A   1      32.938  29.066  27.639  1.00  0.00     0.116 C 
BRANCH  30  31
ATOM     31  N   UNL A   1      33.332  30.455  27.467  1.00  0.00    -0.352 N 
ATOM     32  C   UNL A   1      34.395  31.077  28.105  1.00  0.00     0.251 C 
ATOM     33  H   UNL A   1      32.800  30.999  26.844  1.00  0.00     0.163 HD
ATOM     34  O   UNL A   1      34.439  32.261  28.358  1.00  0.00    -0.269 OA
BRANCH  32  35
ATOM     35  C   UNL A   1      35.579  30.216  28.310  1.00  0.00     0.039 A 
ATOM     36  C   UNL A   1      35.777  29.706  29.599  1.00  0.00     0.014 A 
ATOM     37  C   UNL A   1      36.587  30.191  27.353  1.00  0.00     0.014 A 
ATOM     38  C   UNL A   1      37.052  29.305  29.982  1.00  0.00     0.010 A 
ATOM     39  C   UNL A   1      37.866  29.874  27.762  1.00  0.00     0.010 A 
ATOM     40  C   UNL A   1      38.106  29.477  29.087  1.00  0.00    -0.014 A 
BRANCH  40  41
ATOM     41  C   UNL A   1      39.507  29.286  29.438  1.00  0.00     0.031 A 
ATOM     42  C   UNL A   1      40.179  28.026  29.046  1.00  0.00     0.074 A 
ATOM     43  C   UNL A   1      40.214  30.279  30.023  1.00  0.00     0.049 A 
ATOM     44  N   UNL A   1      41.288  27.600  29.547  1.00  0.00    -0.248 NA
ATOM     45  C   UNL A   1      39.605  27.102  28.070  1.00  0.00     0.031 C 
ATOM     46  C   UNL A   1      41.669  30.352  30.156  1.00  0.00     0.029 A 
ATOM     47  N   UNL A   1      39.761  31.340  30.812  1.00  0.00    -0.354 N 
ATOM     48  C   UNL A   1      41.730  26.562  28.760  1.00  0.00     0.074 A 
ATOM     49  C   UNL A   1      40.602  26.226  27.923  1.00  0.00     0.031 C 
ATOM     50  C   UNL A   1      41.962  31.159  31.188  1.00  0.00     0.029 A 
ATOM     51  C   UNL A   1      40.707  31.474  31.846  1.00  0.00     0.049 A 
ATOM     52  H   UNL A   1      38.950  31.879  30.674  1.00  0.00     0.167 HD
ATOM     53  C   UNL A   1      43.043  26.195  28.812  1.00  0.00     0.031 A 
ATOM     54  C   UNL A   1      40.428  31.224  33.162  1.00  0.00     0.031 A 
ATOM     55  C   UNL A   1      43.758  26.889  29.886  1.00  0.00     0.049 A 
ATOM     56  C   UNL A   1      41.293  30.127  33.780  1.00  0.00     0.074 A 
ATOM     57  C   UNL A   1      44.700  27.904  29.945  1.00  0.00     0.029 A 
ATOM     58  N   UNL A   1      43.308  26.718  31.185  1.00  0.00    -0.354 N 
ATOM     59  N   UNL A   1      42.205  29.451  33.134  1.00  0.00    -0.248 NA
ATOM     60  C   UNL A   1      41.129  29.639  35.152  1.00  0.00     0.031 C 
ATOM     61  C   UNL A   1      44.800  28.341  31.300  1.00  0.00     0.029 A 
ATOM     62  C   UNL A   1      43.936  27.579  32.063  1.00  0.00     0.049 A 
ATOM     63  H   UNL A   1      42.623  26.062  31.450  1.00  0.00     0.167 HD
ATOM     64  C   UNL A   1      42.688  28.441  33.925  1.00  0.00     0.074 A 
ATOM     65  C   UNL A   1      41.996  28.611  35.189  1.00  0.00     0.031 C 
ATOM     66  C   UNL A   1      43.575  27.508  33.471  1.00  0.00     0.031 A 
BRANCH  53  67
ATOM     67  C   UNL A   1      43.732  25.370  27.742  1.00  0.00    -0.014 A 
ATOM     68  C   UNL A   1      43.380  25.547  26.388  1.00  0.00     0.010 A 
ATOM     69  C   UNL A   1      44.683  24.365  28.000  1.00  0.00     0.010 A 
ATOM     70  C   UNL A   1      43.864  24.705  25.372  1.00  0.00     0.020 A 
ATOM     71  C   UNL A   1      45.152  23.493  27.004  1.00  0.00     0.020 A 
ATOM     72  C   UNL A   1      44.726  23.659  25.694  1.00  0.00     0.054 A 
BRANCH  72  73
ATOM     73  S   UNL A   1      45.273  22.520  24.396  1.00  0.00     0.124 S 
ATOM     74  O   UNL A   1      44.127  22.503  23.490  1.00  0.00    -0.237 OA
ATOM     75  O   UNL A   1      46.472  23.178  23.886  1.00  0.00    -0.237 OA
ATOM     76  O   UNL A   1      45.510  21.268  25.111  1.00  0.00    -0.744 OA
ENDBRANCH  72  73
ENDBRANCH  53  67
BRANCH  54  77
ATOM     77  C   UNL A   1      39.015  31.519  33.542  1.00  0.00    -0.014 A 
ATOM     78  C   UNL A   1      38.695  32.856  33.874  1.00  0.00     0.010 A 
ATOM     79  C   UNL A   1      37.977  30.649  33.169  1.00  0.00     0.010 A 
ATOM     80  C   UNL A   1      37.411  33.358  33.647  1.00  0.00     0.020 A 
ATOM     81  C   UNL A   1      36.684  31.149  32.959  1.00  0.00     0.020 A 
ATOM     82  C   UNL A   1      36.433  32.514  33.123  1.00  0.00     0.054 A 
BRANCH  82  83
ATOM     83  S   UNL A   1      34.898  33.261  32.491  1.00  0.00     0.124 S 
ATOM     84  O   UNL A   1      35.378  34.493  31.875  1.00  0.00    -0.237 OA
ATOM     85  O   UNL A   1      34.414  32.239  31.562  1.00  0.00    -0.237 OA
ATOM     86  O   UNL A   1      34.088  33.430  33.693  1.00  0.00    -0.744 OA
ENDBRANCH  82  83
ENDBRANCH  54  77
BRANCH  66  87
ATOM     87  C   UNL A   1      44.143  26.384  34.304  1.00  0.00    -0.014 A 
ATOM     88  C   UNL A   1      45.018  26.596  35.380  1.00  0.00     0.010 A 
ATOM     89  C   UNL A   1      43.900  25.041  33.927  1.00  0.00     0.010 A 
ATOM     90  C   UNL A   1      45.569  25.515  36.088  1.00  0.00     0.020 A 
ATOM     91  C   UNL A   1      44.457  23.959  34.613  1.00  0.00     0.020 A 
ATOM     92  C   UNL A   1      45.277  24.203  35.705  1.00  0.00     0.054 A 
BRANCH  92  93
ATOM     93  S   UNL A   1      46.017  22.823  36.615  1.00  0.00     0.124 S 
ATOM     94  O   UNL A   1      45.435  21.657  35.954  1.00  0.00    -0.237 OA
ATOM     95  O   UNL A   1      47.441  23.034  36.375  1.00  0.00    -0.237 OA
ATOM     96  O   UNL A   1      45.578  23.035  37.992  1.00  0.00    -0.744 OA
ENDBRANCH  92  93
ENDBRANCH  66  87
ENDBRANCH  40  41
ENDBRANCH  32  35
ENDBRANCH  30  31
ENDBRANCH  29  30
ENDBRANCH  28  29
ENDBRANCH   1  28
TORSDOF 20
ENDMDL
MODEL 3
REMARK VINA RESULT:     -10.9      2.452      3.129
REMARK SMILES COc1c(C)cccc1C(=O)NCc1ccc(C(=O)NCCCCCCNC(=O)c2ccc(-c3c4nc(c(-c5ccc(S(=O)(=O)[O-])cc5)c5ccc([nH]5)c(-c5ccc(S(=O)(=O)[O-])cc5)c5nc(c(-c6ccc(S(=O)(=O)[O-])cc6)c6ccc3[nH]6)C=C5)C=C4)cc2)cc1
REMARK SMILES IDX 23 1 22 2 21 3 20 4 18 5 19 6 17 8 14 9 15 10 91 11 16 12
REMARK SMILES IDX 90 13 13 14 12 15 10 16 11 17 9 19 3 20 4 21 5 22 6 23 8 24
REMARK SMILES IDX 7 25 2 26 1 27 24 28 25 29 26 30 27 31 28 32 29 34 30 35
REMARK SMILES IDX 31 36 89 37 32 38 88 39 33 40 34 41 35 42 82 43 36 44 87 45
REMARK SMILES IDX 81 46 83 47 37 48 86 49 80 50 79 51 38 53 68 54 49 55 67 56
REMARK SMILES IDX 50 57 53 58 66 59 84 60 51 61 52 62 65 64 85 65 54 66 39 67
REMARK SMILES IDX 40 68 48 69 41 70 47 71 42 72 43 73 44 74 45 75 46 76 69 77
REMARK SMILES IDX 70 78 78 79 71 80 77 81 72 82 73 83 74 84 75 85 76 86 55 87
REMARK SMILES IDX 56 88 64 89 57 90 63 91 58 92 59 93 60 94 61 95 62 96
REMARK H PARENT 20 7 12 18 27 33 83 52 53 63
REMARK Flexibility Score: inf
ROOT
ATOM      1  C   UNL A   1      31.759  28.131  27.396  1.00  0.00     0.002 C 
ENDROOT
BRANCH   1   2
ATOM      2  C   UNL A   1      31.790  27.143  26.223  1.00  0.00     0.021 C 
BRANCH   2   3
ATOM      3  C   UNL A   1      30.459  27.008  25.482  1.00  0.00     0.116 C 
BRANCH   3   4
ATOM      4  N   UNL A   1      30.562  27.526  24.135  1.00  0.00    -0.352 N 
ATOM      5  C   UNL A   1      30.949  26.916  22.974  1.00  0.00     0.251 C 
ATOM      6  O   UNL A   1      30.856  27.544  21.919  1.00  0.00    -0.269 OA
ATOM      7  H   UNL A   1      30.313  28.473  24.038  1.00  0.00     0.163 HD
BRANCH   5   8
ATOM      8  C   UNL A   1      31.434  25.509  22.933  1.00  0.00     0.039 A 
ATOM      9  C   UNL A   1      32.106  22.788  22.690  1.00  0.00    -0.029 A 
ATOM     10  C   UNL A   1      30.825  23.177  23.116  1.00  0.00     0.006 A 
ATOM     11  C   UNL A   1      33.059  23.769  22.412  1.00  0.00     0.006 A 
ATOM     12  C   UNL A   1      30.494  24.522  23.239  1.00  0.00     0.014 A 
ATOM     13  C   UNL A   1      32.713  25.122  22.512  1.00  0.00     0.014 A 
BRANCH   9  14
ATOM     14  C   UNL A   1      32.290  21.356  22.283  1.00  0.00     0.152 C 
BRANCH  14  15
ATOM     15  N   UNL A   1      32.063  20.333  23.263  1.00  0.00    -0.348 N 
ATOM     16  C   UNL A   1      32.524  20.311  24.561  1.00  0.00     0.255 C 
ATOM     17  O   UNL A   1      32.391  19.262  25.198  1.00  0.00    -0.269 OA
ATOM     18  H   UNL A   1      31.518  19.564  22.976  1.00  0.00     0.164 HD
BRANCH  16  19
ATOM     19  C   UNL A   1      33.089  21.511  25.267  1.00  0.00     0.082 A 
ATOM     20  C   UNL A   1      34.398  22.025  25.187  1.00  0.00     0.134 A 
ATOM     21  C   UNL A   1      34.727  23.263  25.779  1.00  0.00    -0.008 A 
ATOM     22  C   UNL A   1      36.062  23.914  25.541  1.00  0.00     0.048 C 
ATOM     23  C   UNL A   1      33.794  23.897  26.605  1.00  0.00     0.007 A 
ATOM     24  C   UNL A   1      32.174  22.179  26.104  1.00  0.00     0.018 A 
ATOM     25  C   UNL A   1      32.528  23.348  26.782  1.00  0.00     0.001 A 
BRANCH  20  26
ATOM     26  O   UNL A   1      35.387  21.408  24.470  1.00  0.00    -0.496 OA
ATOM     27  C   UNL A   1      36.318  20.730  25.308  1.00  0.00     0.278 C 
ENDBRANCH  20  26
ENDBRANCH  16  19
ENDBRANCH  14  15
ENDBRANCH   9  14
ENDBRANCH   5   8
ENDBRANCH   3   4
ENDBRANCH   2   3
ENDBRANCH   1   2
BRANCH   1  28
ATOM     28  C   UNL A   1      32.770  29.288  27.324  1.00  0.00     0.002 C 
BRANCH  28  29
ATOM     29  C   UNL A   1      34.228  28.913  27.601  1.00  0.00     0.021 C 
BRANCH  29  30
ATOM     30  C   UNL A   1      35.185  30.086  27.440  1.00  0.00     0.116 C 
BRANCH  30  31
ATOM     31  N   UNL A   1      35.514  30.715  28.710  1.00  0.00    -0.352 N 
ATOM     32  C   UNL A   1      36.217  30.120  29.747  1.00  0.00     0.251 C 
ATOM     33  H   UNL A   1      35.212  31.641  28.843  1.00  0.00     0.163 HD
ATOM     34  O   UNL A   1      36.077  30.407  30.916  1.00  0.00    -0.269 OA
BRANCH  32  35
ATOM     35  C   UNL A   1      37.299  29.211  29.315  1.00  0.00     0.039 A 
ATOM     36  C   UNL A   1      38.017  28.555  30.323  1.00  0.00     0.014 A 
ATOM     37  C   UNL A   1      37.765  29.267  28.006  1.00  0.00     0.014 A 
ATOM     38  C   UNL A   1      39.295  28.081  30.047  1.00  0.00     0.010 A 
ATOM     39  C   UNL A   1      39.064  28.873  27.759  1.00  0.00     0.010 A 
ATOM     40  C   UNL A   1      39.843  28.324  28.789  1.00  0.00    -0.014 A 
BRANCH  40  41
ATOM     41  C   UNL A   1      41.234  28.059  28.446  1.00  0.00     0.031 A 
ATOM     42  C   UNL A   1      41.681  26.655  28.299  1.00  0.00     0.074 A 
ATOM     43  C   UNL A   1      42.082  29.075  28.169  1.00  0.00     0.049 A 
ATOM     44  N   UNL A   1      42.912  26.273  28.307  1.00  0.00    -0.248 NA
ATOM     45  C   UNL A   1      40.742  25.542  28.180  1.00  0.00     0.031 C 
ATOM     46  C   UNL A   1      43.393  28.965  27.527  1.00  0.00     0.029 A 
ATOM     47  N   UNL A   1      42.038  30.405  28.595  1.00  0.00    -0.354 N 
ATOM     48  C   UNL A   1      42.946  24.966  27.880  1.00  0.00     0.074 A 
ATOM     49  C   UNL A   1      41.571  24.529  27.914  1.00  0.00     0.031 C 
ATOM     50  C   UNL A   1      44.126  30.035  27.873  1.00  0.00     0.029 A 
ATOM     51  C   UNL A   1      43.371  30.755  28.883  1.00  0.00     0.049 A 
ATOM     52  H   UNL A   1      41.242  30.976  28.678  1.00  0.00     0.167 HD
ATOM     53  C   UNL A   1      44.119  24.445  27.416  1.00  0.00     0.031 A 
ATOM     54  C   UNL A   1      43.822  31.043  30.143  1.00  0.00     0.031 A 
ATOM     55  C   UNL A   1      45.242  25.360  27.630  1.00  0.00     0.049 A 
ATOM     56  C   UNL A   1      44.943  30.123  30.623  1.00  0.00     0.074 A 
ATOM     57  C   UNL A   1      46.021  26.170  26.819  1.00  0.00     0.029 A 
ATOM     58  N   UNL A   1      45.533  25.741  28.931  1.00  0.00    -0.354 N 
ATOM     59  N   UNL A   1      45.432  29.127  29.933  1.00  0.00    -0.248 NA
ATOM     60  C   UNL A   1      45.534  30.194  31.962  1.00  0.00     0.031 C 
ATOM     61  C   UNL A   1      46.777  27.045  27.656  1.00  0.00     0.029 A 
ATOM     62  C   UNL A   1      46.472  26.752  28.972  1.00  0.00     0.049 A 
ATOM     63  H   UNL A   1      45.121  25.338  29.729  1.00  0.00     0.167 HD
ATOM     64  C   UNL A   1      46.309  28.409  30.702  1.00  0.00     0.074 A 
ATOM     65  C   UNL A   1      46.355  29.127  31.963  1.00  0.00     0.031 C 
ATOM     66  C   UNL A   1      46.890  27.250  30.273  1.00  0.00     0.031 A 
BRANCH  53  67
ATOM     67  C   UNL A   1      44.207  23.194  26.563  1.00  0.00    -0.014 A 
ATOM     68  C   UNL A   1      43.193  22.218  26.646  1.00  0.00     0.010 A 
ATOM     69  C   UNL A   1      45.284  22.885  25.710  1.00  0.00     0.010 A 
ATOM     70  C   UNL A   1      43.299  20.971  26.004  1.00  0.00     0.020 A 
ATOM     71  C   UNL A   1      45.422  21.635  25.088  1.00  0.00     0.020 A 
ATOM     72  C   UNL A   1      44.433  20.675  25.253  1.00  0.00     0.054 A 
BRANCH  72  73
ATOM     73  S   UNL A   1      44.606  19.035  24.506  1.00  0.00     0.124 S 
ATOM     74  O   UNL A   1      44.576  19.335  23.077  1.00  0.00    -0.237 OA
ATOM     75  O   UNL A   1      45.893  18.584  25.030  1.00  0.00    -0.237 OA
ATOM     76  O   UNL A   1      43.444  18.302  25.004  1.00  0.00    -0.744 OA
ENDBRANCH  72  73
ENDBRANCH  53  67
BRANCH  54  77
ATOM     77  C   UNL A   1      42.790  31.669  31.020  1.00  0.00    -0.014 A 
ATOM     78  C   UNL A   1      42.515  33.042  30.824  1.00  0.00     0.010 A 
ATOM     79  C   UNL A   1      41.837  30.876  31.682  1.00  0.00     0.010 A 
ATOM     80  C   UNL A   1      41.247  33.560  31.101  1.00  0.00     0.020 A 
ATOM     81  C   UNL A   1      40.571  31.402  31.977  1.00  0.00     0.020 A 
ATOM     82  C   UNL A   1      40.262  32.715  31.611  1.00  0.00     0.054 A 
BRANCH  82  83
ATOM     83  S   UNL A   1      38.539  33.302  31.614  1.00  0.00     0.124 S 
ATOM     84  O   UNL A   1      38.690  34.719  31.924  1.00  0.00    -0.237 OA
ATOM     85  O   UNL A   1      38.103  32.997  30.250  1.00  0.00    -0.237 OA
ATOM     86  O   UNL A   1      37.911  32.491  32.653  1.00  0.00    -0.744 OA
ENDBRANCH  82  83
ENDBRANCH  54  77
BRANCH  66  87
ATOM     87  C   UNL A   1      47.868  26.429  31.078  1.00  0.00    -0.014 A 
ATOM     88  C   UNL A   1      49.177  26.162  30.650  1.00  0.00     0.010 A 
ATOM     89  C   UNL A   1      47.433  25.782  32.260  1.00  0.00     0.010 A 
ATOM     90  C   UNL A   1      50.032  25.341  31.405  1.00  0.00     0.020 A 
ATOM     91  C   UNL A   1      48.269  24.949  33.008  1.00  0.00     0.020 A 
ATOM     92  C   UNL A   1      49.575  24.748  32.585  1.00  0.00     0.054 A 
BRANCH  92  93
ATOM     93  S   UNL A   1      50.684  23.673  33.530  1.00  0.00     0.124 S 
ATOM     94  O   UNL A   1      50.874  22.539  32.628  1.00  0.00    -0.237 OA
ATOM     95  O   UNL A   1      51.851  24.531  33.713  1.00  0.00    -0.237 OA
ATOM     96  O   UNL A   1      49.931  23.375  34.746  1.00  0.00    -0.744 OA
ENDBRANCH  92  93
ENDBRANCH  66  87
ENDBRANCH  40  41
ENDBRANCH  32  35
ENDBRANCH  30  31
ENDBRANCH  29  30
ENDBRANCH  28  29
ENDBRANCH   1  28
TORSDOF 20
ENDMDL
