MODEL 1
REMARK VINA RESULT:     -10.5      0.000      0.000
REMARK SMILES C[C@@](NC(=O)c1cc(Br)c[nH]1)(C(=O)NCCCCCCNC(=O)c1ccc(-c2c3nc(c(-c4ccc(S(=O)(=O)[O-])cc4)c4ccc([nH]4)c(-c4ccc(S(=O)(=O)[O-])cc4)c4nc(c(-c5ccc(S(=O)(=O)[O-])cc5)c5ccc2[nH]5)C=C4)C=C3)cc1)C(F)(F)F
REMARK SMILES IDX 18 1 17 2 16 3 15 4 14 5 12 6 13 7 2 9 1 10 3 11 4 12 5 14
REMARK SMILES IDX 6 15 7 16 11 17 8 18 10 19 9 21 84 22 85 23 86 24 87 25
REMARK SMILES IDX 19 26 20 27 21 28 22 29 23 31 24 32 25 33 83 34 26 35 82 36
REMARK SMILES IDX 27 37 28 38 29 39 76 40 30 41 81 42 75 43 77 44 31 45 80 46
REMARK SMILES IDX 74 47 73 48 32 50 62 51 43 52 61 53 44 54 47 55 60 56 78 57
REMARK SMILES IDX 45 58 46 59 59 61 79 62 48 63 33 64 34 65 42 66 35 67 41 68
REMARK SMILES IDX 36 69 37 70 38 71 39 72 40 73 63 74 64 75 72 76 65 77 71 78
REMARK SMILES IDX 66 79 67 80 68 81 69 82 70 83 49 84 50 85 58 86 51 87 57 88
REMARK SMILES IDX 52 89 53 90 54 91 55 92 56 93
REMARK H PARENT 14 8 3 13 11 20 21 30 77 49 47 60
REMARK Flexibility Score: inf
ROOT
ATOM      1  C   UNL A   1      33.311  28.767  24.823  1.00  0.00     0.002 C 
ENDROOT
BRANCH   1   2
ATOM      2  C   UNL A   1      33.822  28.385  23.430  1.00  0.00     0.002 C 
BRANCH   2   3
ATOM      3  C   UNL A   1      32.998  27.319  22.697  1.00  0.00     0.021 C 
BRANCH   3   4
ATOM      4  C   UNL A   1      33.251  25.889  23.170  1.00  0.00     0.116 C 
BRANCH   4   5
ATOM      5  N   UNL A   1      32.106  25.037  22.894  1.00  0.00    -0.354 N 
ATOM      6  C   UNL A   1      31.235  24.403  23.727  1.00  0.00     0.254 C 
ATOM      7  O   UNL A   1      30.342  23.748  23.181  1.00  0.00    -0.272 OA
ATOM      8  H   UNL A   1      31.931  24.891  21.937  1.00  0.00     0.163 HD
BRANCH   6   9
ATOM      9  C   UNL A   1      31.414  24.395  25.255  1.00  0.00     0.212 C 
ATOM     10  C   UNL A   1      30.616  23.193  25.809  1.00  0.00     0.056 C 
BRANCH   9  11
ATOM     11  N   UNL A   1      32.830  24.256  25.707  1.00  0.00    -0.329 N 
ATOM     12  C   UNL A   1      33.763  23.277  25.481  1.00  0.00     0.268 C 
ATOM     13  H   UNL A   1      33.151  25.000  26.268  1.00  0.00     0.165 HD
ATOM     14  O   UNL A   1      34.943  23.600  25.619  1.00  0.00    -0.268 OA
BRANCH  12  15
ATOM     15  C   UNL A   1      33.358  21.909  25.271  1.00  0.00     0.105 A 
ATOM     16  C   UNL A   1      33.025  21.338  24.047  1.00  0.00     0.049 A 
ATOM     17  N   UNL A   1      33.158  20.928  26.219  1.00  0.00    -0.356 N 
ATOM     18  C   UNL A   1      32.775  19.974  24.267  1.00  0.00     0.036 A 
ATOM     19  C   UNL A   1      32.872  19.731  25.610  1.00  0.00     0.098 A 
ATOM     20  H   UNL A   1      33.212  21.066  27.193  1.00  0.00     0.166 HD
ATOM     21  Br  UNL A   1      32.401  18.736  22.916  1.00  0.00    -0.049 Br
ENDBRANCH  12  15
ENDBRANCH   9  11
BRANCH   9  22
ATOM     22  C   UNL A   1      30.751  25.668  25.825  1.00  0.00     0.420 C 
ATOM     23  F   UNL A   1      29.523  25.450  26.343  1.00  0.00    -0.168 F 
ATOM     24  F   UNL A   1      31.507  26.169  26.841  1.00  0.00    -0.168 F 
ATOM     25  F   UNL A   1      30.647  26.659  24.906  1.00  0.00    -0.168 F 
ENDBRANCH   9  22
ENDBRANCH   6   9
ENDBRANCH   4   5
ENDBRANCH   3   4
ENDBRANCH   2   3
ENDBRANCH   1   2
BRANCH   1  26
ATOM     26  C   UNL A   1      34.068  28.146  25.999  1.00  0.00     0.021 C 
BRANCH  26  27
ATOM     27  C   UNL A   1      33.594  28.576  27.383  1.00  0.00     0.116 C 
BRANCH  27  28
ATOM     28  N   UNL A   1      33.620  30.018  27.571  1.00  0.00    -0.352 N 
ATOM     29  C   UNL A   1      34.642  30.801  28.051  1.00  0.00     0.251 C 
ATOM     30  H   UNL A   1      32.797  30.495  27.322  1.00  0.00     0.163 HD
ATOM     31  O   UNL A   1      34.462  31.998  28.251  1.00  0.00    -0.269 OA
BRANCH  29  32
ATOM     32  C   UNL A   1      35.949  30.184  28.360  1.00  0.00     0.039 A 
ATOM     33  C   UNL A   1      36.937  30.171  27.373  1.00  0.00     0.014 A 
ATOM     34  C   UNL A   1      36.206  29.648  29.625  1.00  0.00     0.014 A 
ATOM     35  C   UNL A   1      38.209  29.682  27.675  1.00  0.00     0.010 A 
ATOM     36  C   UNL A   1      37.490  29.213  29.942  1.00  0.00     0.010 A 
ATOM     37  C   UNL A   1      38.505  29.232  28.973  1.00  0.00    -0.014 A 
BRANCH  37  38
ATOM     38  C   UNL A   1      39.876  28.803  29.341  1.00  0.00     0.031 A 
ATOM     39  C   UNL A   1      40.809  29.752  30.037  1.00  0.00     0.074 A 
ATOM     40  C   UNL A   1      40.307  27.580  28.976  1.00  0.00     0.049 A 
ATOM     41  N   UNL A   1      42.059  29.576  30.382  1.00  0.00    -0.248 NA
ATOM     42  C   UNL A   1      40.275  31.083  30.368  1.00  0.00     0.031 C 
ATOM     43  C   UNL A   1      39.515  26.586  28.246  1.00  0.00     0.029 A 
ATOM     44  N   UNL A   1      41.522  26.969  29.155  1.00  0.00    -0.354 N 
ATOM     45  C   UNL A   1      42.465  30.774  30.956  1.00  0.00     0.074 A 
ATOM     46  C   UNL A   1      41.343  31.684  30.870  1.00  0.00     0.031 C 
ATOM     47  C   UNL A   1      40.262  25.487  28.052  1.00  0.00     0.029 A 
ATOM     48  C   UNL A   1      41.590  25.708  28.615  1.00  0.00     0.049 A 
ATOM     49  H   UNL A   1      42.275  27.395  29.625  1.00  0.00     0.167 HD
ATOM     50  C   UNL A   1      43.659  31.084  31.518  1.00  0.00     0.031 A 
ATOM     51  C   UNL A   1      42.609  24.828  28.568  1.00  0.00     0.031 A 
ATOM     52  C   UNL A   1      44.772  30.178  31.603  1.00  0.00     0.049 A 
ATOM     53  C   UNL A   1      43.921  25.187  29.202  1.00  0.00     0.074 A 
ATOM     54  C   UNL A   1      46.003  30.378  32.204  1.00  0.00     0.029 A 
ATOM     55  N   UNL A   1      44.793  28.899  31.065  1.00  0.00    -0.354 N 
ATOM     56  N   UNL A   1      44.265  26.301  29.804  1.00  0.00    -0.248 NA
ATOM     57  C   UNL A   1      44.980  24.169  29.161  1.00  0.00     0.031 C 
ATOM     58  C   UNL A   1      46.783  29.234  31.994  1.00  0.00     0.029 A 
ATOM     59  C   UNL A   1      46.022  28.306  31.299  1.00  0.00     0.049 A 
ATOM     60  H   UNL A   1      44.044  28.476  30.587  1.00  0.00     0.167 HD
ATOM     61  C   UNL A   1      45.578  26.116  30.221  1.00  0.00     0.074 A 
ATOM     62  C   UNL A   1      45.959  24.775  29.820  1.00  0.00     0.031 C 
ATOM     63  C   UNL A   1      46.393  26.979  30.877  1.00  0.00     0.031 A 
BRANCH  50  64
ATOM     64  C   UNL A   1      43.810  32.475  32.072  1.00  0.00    -0.014 A 
ATOM     65  C   UNL A   1      43.588  32.739  33.436  1.00  0.00     0.010 A 
ATOM     66  C   UNL A   1      44.167  33.535  31.220  1.00  0.00     0.010 A 
ATOM     67  C   UNL A   1      43.657  34.046  33.926  1.00  0.00     0.020 A 
ATOM     68  C   UNL A   1      44.263  34.840  31.710  1.00  0.00     0.020 A 
ATOM     69  C   UNL A   1      43.982  35.091  33.055  1.00  0.00     0.054 A 
BRANCH  69  70
ATOM     70  S   UNL A   1      44.043  36.783  33.706  1.00  0.00     0.124 S 
ATOM     71  O   UNL A   1      44.684  36.580  35.004  1.00  0.00    -0.237 OA
ATOM     72  O   UNL A   1      44.850  37.484  32.712  1.00  0.00    -0.237 OA
ATOM     73  O   UNL A   1      42.640  37.182  33.760  1.00  0.00    -0.744 OA
ENDBRANCH  69  70
ENDBRANCH  50  64
BRANCH  51  74
ATOM     74  C   UNL A   1      42.406  23.516  27.900  1.00  0.00    -0.014 A 
ATOM     75  C   UNL A   1      42.914  23.287  26.610  1.00  0.00     0.010 A 
ATOM     76  C   UNL A   1      41.757  22.468  28.579  1.00  0.00     0.010 A 
ATOM     77  C   UNL A   1      42.781  22.031  26.011  1.00  0.00     0.020 A 
ATOM     78  C   UNL A   1      41.641  21.205  27.992  1.00  0.00     0.020 A 
ATOM     79  C   UNL A   1      42.151  20.995  26.709  1.00  0.00     0.054 A 
BRANCH  79  80
ATOM     80  S   UNL A   1      42.073  19.348  25.953  1.00  0.00     0.124 S 
ATOM     81  O   UNL A   1      42.890  19.525  24.756  1.00  0.00    -0.237 OA
ATOM     82  O   UNL A   1      42.647  18.494  26.991  1.00  0.00    -0.237 OA
ATOM     83  O   UNL A   1      40.645  19.150  25.715  1.00  0.00    -0.744 OA
ENDBRANCH  79  80
ENDBRANCH  51  74
BRANCH  63  84
ATOM     84  C   UNL A   1      47.781  26.500  31.202  1.00  0.00    -0.014 A 
ATOM     85  C   UNL A   1      48.855  26.761  30.333  1.00  0.00     0.010 A 
ATOM     86  C   UNL A   1      48.023  25.827  32.412  1.00  0.00     0.010 A 
ATOM     87  C   UNL A   1      50.145  26.337  30.660  1.00  0.00     0.020 A 
ATOM     88  C   UNL A   1      49.315  25.419  32.752  1.00  0.00     0.020 A 
ATOM     89  C   UNL A   1      50.367  25.667  31.867  1.00  0.00     0.054 A 
BRANCH  89  90
ATOM     90  S   UNL A   1      52.058  25.168  32.293  1.00  0.00     0.124 S 
ATOM     91  O   UNL A   1      52.819  25.667  31.150  1.00  0.00    -0.237 OA
ATOM     92  O   UNL A   1      52.293  25.862  33.556  1.00  0.00    -0.237 OA
ATOM     93  O   UNL A   1      51.972  23.712  32.396  1.00  0.00    -0.744 OA
ENDBRANCH  89  90
ENDBRANCH  63  84
ENDBRANCH  37  38
ENDBRANCH  29  32
ENDBRANCH  27  28
ENDBRANCH  26  27
ENDBRANCH   1  26
TORSDOF 19
ENDMDL
MODEL 2
REMARK VINA RESULT:     -10.2      3.071      3.780
REMARK SMILES C[C@@](NC(=O)c1cc(Br)c[nH]1)(C(=O)NCCCCCCNC(=O)c1ccc(-c2c3nc(c(-c4ccc(S(=O)(=O)[O-])cc4)c4ccc([nH]4)c(-c4ccc(S(=O)(=O)[O-])cc4)c4nc(c(-c5ccc(S(=O)(=O)[O-])cc5)c5ccc2[nH]5)C=C4)C=C3)cc1)C(F)(F)F
REMARK SMILES IDX 18 1 17 2 16 3 15 4 14 5 12 6 13 7 2 9 1 10 3 11 4 12 5 14
REMARK SMILES IDX 6 15 7 16 11 17 8 18 10 19 9 21 84 22 85 23 86 24 87 25
REMARK SMILES IDX 19 26 20 27 21 28 22 29 23 31 24 32 25 33 83 34 26 35 82 36
REMARK SMILES IDX 27 37 28 38 29 39 76 40 30 41 81 42 75 43 77 44 31 45 80 46
REMARK SMILES IDX 74 47 73 48 32 50 62 51 43 52 61 53 44 54 47 55 60 56 78 57
REMARK SMILES IDX 45 58 46 59 59 61 79 62 48 63 33 64 34 65 42 66 35 67 41 68
REMARK SMILES IDX 36 69 37 70 38 71 39 72 40 73 63 74 64 75 72 76 65 77 71 78
REMARK SMILES IDX 66 79 67 80 68 81 69 82 70 83 49 84 50 85 58 86 51 87 57 88
REMARK SMILES IDX 52 89 53 90 54 91 55 92 56 93
REMARK H PARENT 14 8 3 13 11 20 21 30 77 49 47 60
REMARK Flexibility Score: inf
ROOT
ATOM      1  C   UNL A   1      34.083  29.281  27.340  1.00  0.00     0.002 C 
ENDROOT
BRANCH   1   2
ATOM      2  C   UNL A   1      33.678  28.715  25.975  1.00  0.00     0.002 C 
BRANCH   2   3
ATOM      3  C   UNL A   1      32.467  29.388  25.317  1.00  0.00     0.021 C 
BRANCH   3   4
ATOM      4  C   UNL A   1      32.156  28.889  23.907  1.00  0.00     0.116 C 
BRANCH   4   5
ATOM      5  N   UNL A   1      30.779  28.432  23.807  1.00  0.00    -0.354 N 
ATOM      6  C   UNL A   1      30.236  27.187  23.908  1.00  0.00     0.254 C 
ATOM      7  O   UNL A   1      29.009  27.120  23.786  1.00  0.00    -0.272 OA
ATOM      8  H   UNL A   1      30.125  29.147  23.636  1.00  0.00     0.163 HD
BRANCH   6   9
ATOM      9  C   UNL A   1      31.098  25.920  24.043  1.00  0.00     0.212 C 
ATOM     10  C   UNL A   1      30.277  24.738  23.479  1.00  0.00     0.056 C 
BRANCH   9  11
ATOM     11  N   UNL A   1      32.394  25.977  23.304  1.00  0.00    -0.329 N 
ATOM     12  C   UNL A   1      33.049  25.038  22.549  1.00  0.00     0.268 C 
ATOM     13  H   UNL A   1      32.861  26.841  23.371  1.00  0.00     0.165 HD
ATOM     14  O   UNL A   1      33.869  25.462  21.735  1.00  0.00    -0.268 OA
BRANCH  12  15
ATOM     15  C   UNL A   1      32.902  23.632  22.832  1.00  0.00     0.105 A 
ATOM     16  C   UNL A   1      33.391  22.973  23.956  1.00  0.00     0.049 A 
ATOM     17  N   UNL A   1      32.320  22.663  22.042  1.00  0.00    -0.356 N 
ATOM     18  C   UNL A   1      32.959  21.638  23.889  1.00  0.00     0.036 A 
ATOM     19  C   UNL A   1      32.289  21.463  22.709  1.00  0.00     0.098 A 
ATOM     20  H   UNL A   1      31.978  22.810  21.131  1.00  0.00     0.166 HD
ATOM     21  Br  UNL A   1      33.254  20.363  25.225  1.00  0.00    -0.049 Br
ENDBRANCH  12  15
ENDBRANCH   9  11
BRANCH   9  22
ATOM     22  C   UNL A   1      31.306  25.637  25.548  1.00  0.00     0.420 C 
ATOM     23  F   UNL A   1      30.810  24.445  25.944  1.00  0.00    -0.168 F 
ATOM     24  F   UNL A   1      32.637  25.607  25.833  1.00  0.00    -0.168 F 
ATOM     25  F   UNL A   1      30.771  26.597  26.338  1.00  0.00    -0.168 F 
ENDBRANCH   9  22
ENDBRANCH   6   9
ENDBRANCH   4   5
ENDBRANCH   3   4
ENDBRANCH   2   3
ENDBRANCH   1   2
BRANCH   1  26
ATOM     26  C   UNL A   1      34.452  30.766  27.358  1.00  0.00     0.021 C 
BRANCH  26  27
ATOM     27  C   UNL A   1      35.663  31.129  28.212  1.00  0.00     0.116 C 
BRANCH  27  28
ATOM     28  N   UNL A   1      35.463  30.859  29.626  1.00  0.00    -0.352 N 
ATOM     29  C   UNL A   1      36.365  30.375  30.543  1.00  0.00     0.251 C 
ATOM     30  H   UNL A   1      34.562  31.048  29.973  1.00  0.00     0.163 HD
ATOM     31  O   UNL A   1      36.002  30.099  31.681  1.00  0.00    -0.269 OA
BRANCH  29  32
ATOM     32  C   UNL A   1      37.768  30.153  30.135  1.00  0.00     0.039 A 
ATOM     33  C   UNL A   1      38.741  30.002  31.126  1.00  0.00     0.014 A 
ATOM     34  C   UNL A   1      38.115  30.064  28.783  1.00  0.00     0.014 A 
ATOM     35  C   UNL A   1      40.054  29.693  30.763  1.00  0.00     0.010 A 
ATOM     36  C   UNL A   1      39.411  29.701  28.426  1.00  0.00     0.010 A 
ATOM     37  C   UNL A   1      40.390  29.505  29.413  1.00  0.00    -0.014 A 
BRANCH  37  38
ATOM     38  C   UNL A   1      41.754  29.079  29.015  1.00  0.00     0.031 A 
ATOM     39  C   UNL A   1      42.880  30.072  28.973  1.00  0.00     0.074 A 
ATOM     40  C   UNL A   1      41.961  27.808  28.617  1.00  0.00     0.049 A 
ATOM     41  N   UNL A   1      44.120  29.898  28.595  1.00  0.00    -0.248 NA
ATOM     42  C   UNL A   1      42.563  31.449  29.387  1.00  0.00     0.031 C 
ATOM     43  C   UNL A   1      40.937  26.762  28.561  1.00  0.00     0.029 A 
ATOM     44  N   UNL A   1      43.098  27.185  28.170  1.00  0.00    -0.354 N 
ATOM     45  C   UNL A   1      44.728  31.142  28.711  1.00  0.00     0.074 A 
ATOM     46  C   UNL A   1      43.708  32.070  29.150  1.00  0.00     0.031 C 
ATOM     47  C   UNL A   1      41.497  25.625  28.117  1.00  0.00     0.029 A 
ATOM     48  C   UNL A   1      42.907  25.868  27.830  1.00  0.00     0.049 A 
ATOM     49  H   UNL A   1      43.969  27.639  28.099  1.00  0.00     0.167 HD
ATOM     50  C   UNL A   1      46.022  31.478  28.488  1.00  0.00     0.031 A 
ATOM     51  C   UNL A   1      43.766  24.956  27.334  1.00  0.00     0.031 A 
ATOM     52  C   UNL A   1      47.034  30.554  28.052  1.00  0.00     0.049 A 
ATOM     53  C   UNL A   1      45.197  25.346  27.100  1.00  0.00     0.074 A 
ATOM     54  C   UNL A   1      48.384  30.783  27.854  1.00  0.00     0.029 A 
ATOM     55  N   UNL A   1      46.805  29.221  27.741  1.00  0.00    -0.354 N 
ATOM     56  N   UNL A   1      45.772  26.511  27.282  1.00  0.00    -0.248 NA
ATOM     57  C   UNL A   1      46.098  24.297  26.603  1.00  0.00     0.031 C 
ATOM     58  C   UNL A   1      48.964  29.599  27.383  1.00  0.00     0.029 A 
ATOM     59  C   UNL A   1      47.983  28.621  27.330  1.00  0.00     0.049 A 
ATOM     60  H   UNL A   1      45.933  28.768  27.804  1.00  0.00     0.167 HD
ATOM     61  C   UNL A   1      47.105  26.335  26.931  1.00  0.00     0.074 A 
ATOM     62  C   UNL A   1      47.255  24.945  26.544  1.00  0.00     0.031 C 
ATOM     63  C   UNL A   1      48.112  27.242  26.929  1.00  0.00     0.031 A 
BRANCH  50  64
ATOM     64  C   UNL A   1      46.399  32.919  28.705  1.00  0.00    -0.014 A 
ATOM     65  C   UNL A   1      46.667  33.410  29.996  1.00  0.00     0.010 A 
ATOM     66  C   UNL A   1      46.477  33.797  27.609  1.00  0.00     0.010 A 
ATOM     67  C   UNL A   1      46.942  34.765  30.196  1.00  0.00     0.020 A 
ATOM     68  C   UNL A   1      46.777  35.148  27.801  1.00  0.00     0.020 A 
ATOM     69  C   UNL A   1      46.982  35.628  29.096  1.00  0.00     0.054 A 
BRANCH  69  70
ATOM     70  S   UNL A   1      47.318  37.388  29.380  1.00  0.00     0.124 S 
ATOM     71  O   UNL A   1      47.987  37.359  30.679  1.00  0.00    -0.237 OA
ATOM     72  O   UNL A   1      48.165  37.744  28.246  1.00  0.00    -0.237 OA
ATOM     73  O   UNL A   1      45.991  37.997  29.377  1.00  0.00    -0.744 OA
ENDBRANCH  69  70
ENDBRANCH  50  64
BRANCH  51  74
ATOM     74  C   UNL A   1      43.281  23.582  27.042  1.00  0.00    -0.014 A 
ATOM     75  C   UNL A   1      43.022  23.185  25.720  1.00  0.00     0.010 A 
ATOM     76  C   UNL A   1      43.137  22.646  28.082  1.00  0.00     0.010 A 
ATOM     77  C   UNL A   1      42.630  21.872  25.441  1.00  0.00     0.020 A 
ATOM     78  C   UNL A   1      42.765  21.327  27.805  1.00  0.00     0.020 A 
ATOM     79  C   UNL A   1      42.511  20.950  26.485  1.00  0.00     0.054 A 
BRANCH  79  80
ATOM     80  S   UNL A   1      42.095  19.228  26.091  1.00  0.00     0.124 S 
ATOM     81  O   UNL A   1      42.900  18.986  24.898  1.00  0.00    -0.237 OA
ATOM     82  O   UNL A   1      42.517  18.515  27.295  1.00  0.00    -0.237 OA
ATOM     83  O   UNL A   1      40.650  19.268  25.876  1.00  0.00    -0.744 OA
ENDBRANCH  79  80
ENDBRANCH  51  74
BRANCH  63  84
ATOM     84  C   UNL A   1      49.469  26.761  26.493  1.00  0.00    -0.014 A 
ATOM     85  C   UNL A   1      50.319  26.093  27.391  1.00  0.00     0.010 A 
ATOM     86  C   UNL A   1      49.876  26.933  25.159  1.00  0.00     0.010 A 
ATOM     87  C   UNL A   1      51.565  25.625  26.967  1.00  0.00     0.020 A 
ATOM     88  C   UNL A   1      51.113  26.448  24.726  1.00  0.00     0.020 A 
ATOM     89  C   UNL A   1      51.955  25.807  25.636  1.00  0.00     0.054 A 
BRANCH  89  90
ATOM     90  S   UNL A   1      53.557  25.148  25.097  1.00  0.00     0.124 S 
ATOM     91  O   UNL A   1      53.606  25.577  23.701  1.00  0.00    -0.237 OA
ATOM     92  O   UNL A   1      54.499  25.814  25.993  1.00  0.00    -0.237 OA
ATOM     93  O   UNL A   1      53.423  23.707  25.301  1.00  0.00    -0.744 OA
ENDBRANCH  89  90
ENDBRANCH  63  84
ENDBRANCH  37  38
ENDBRANCH  29  32
ENDBRANCH  27  28
ENDBRANCH  26  27
ENDBRANCH   1  26
TORSDOF 19
ENDMDL
MODEL 3
REMARK VINA RESULT:     -10.2      5.038      7.286
REMARK SMILES C[C@@](NC(=O)c1cc(Br)c[nH]1)(C(=O)NCCCCCCNC(=O)c1ccc(-c2c3nc(c(-c4ccc(S(=O)(=O)[O-])cc4)c4ccc([nH]4)c(-c4ccc(S(=O)(=O)[O-])cc4)c4nc(c(-c5ccc(S(=O)(=O)[O-])cc5)c5ccc2[nH]5)C=C4)C=C3)cc1)C(F)(F)F
REMARK SMILES IDX 18 1 17 2 16 3 15 4 14 5 12 6 13 7 2 9 1 10 3 11 4 12 5 14
REMARK SMILES IDX 6 15 7 16 11 17 8 18 10 19 9 21 84 22 85 23 86 24 87 25
REMARK SMILES IDX 19 26 20 27 21 28 22 29 23 31 24 32 25 33 83 34 26 35 82 36
REMARK SMILES IDX 27 37 28 38 29 39 76 40 30 41 81 42 75 43 77 44 31 45 80 46
REMARK SMILES IDX 74 47 73 48 32 50 62 51 43 52 61 53 44 54 47 55 60 56 78 57
REMARK SMILES IDX 45 58 46 59 59 61 79 62 48 63 33 64 34 65 42 66 35 67 41 68
REMARK SMILES IDX 36 69 37 70 38 71 39 72 40 73 63 74 64 75 72 76 65 77 71 78
REMARK SMILES IDX 66 79 67 80 68 81 69 82 70 83 49 84 50 85 58 86 51 87 57 88
REMARK SMILES IDX 52 89 53 90 54 91 55 92 56 93
REMARK H PARENT 14 8 3 13 11 20 21 30 77 49 47 60
REMARK Flexibility Score: inf
ROOT
ATOM      1  C   UNL A   1      36.362  34.018  28.790  1.00  0.00     0.002 C 
ENDROOT
BRANCH   1   2
ATOM      2  C   UNL A   1      37.614  33.556  29.542  1.00  0.00     0.002 C 
BRANCH   2   3
ATOM      3  C   UNL A   1      37.577  33.749  31.063  1.00  0.00     0.021 C 
BRANCH   3   4
ATOM      4  C   UNL A   1      37.354  32.464  31.858  1.00  0.00     0.116 C 
BRANCH   4   5
ATOM      5  N   UNL A   1      36.825  32.754  33.181  1.00  0.00    -0.354 N 
ATOM      6  C   UNL A   1      37.337  32.528  34.423  1.00  0.00     0.254 C 
ATOM      7  O   UNL A   1      36.643  32.905  35.372  1.00  0.00    -0.272 OA
ATOM      8  H   UNL A   1      35.943  33.189  33.179  1.00  0.00     0.163 HD
BRANCH   6   9
ATOM      9  C   UNL A   1      38.641  31.743  34.647  1.00  0.00     0.212 C 
ATOM     10  C   UNL A   1      38.592  31.160  36.077  1.00  0.00     0.056 C 
BRANCH   9  11
ATOM     11  N   UNL A   1      38.849  30.613  33.694  1.00  0.00    -0.329 N 
ATOM     12  C   UNL A   1      39.593  29.465  33.797  1.00  0.00     0.268 C 
ATOM     13  H   UNL A   1      38.367  30.708  32.840  1.00  0.00     0.165 HD
ATOM     14  O   UNL A   1      39.271  28.533  33.059  1.00  0.00    -0.268 OA
BRANCH  12  15
ATOM     15  C   UNL A   1      40.791  29.434  34.599  1.00  0.00     0.105 A 
ATOM     16  C   UNL A   1      42.069  29.771  34.166  1.00  0.00     0.049 A 
ATOM     17  N   UNL A   1      40.926  29.013  35.905  1.00  0.00    -0.356 N 
ATOM     18  C   UNL A   1      42.930  29.689  35.274  1.00  0.00     0.036 A 
ATOM     19  C   UNL A   1      42.209  29.232  36.343  1.00  0.00     0.098 A 
ATOM     20  H   UNL A   1      40.207  28.614  36.446  1.00  0.00     0.166 HD
ATOM     21  Br  UNL A   1      44.739  30.159  35.244  1.00  0.00    -0.049 Br
ENDBRANCH  12  15
ENDBRANCH   9  11
BRANCH   9  22
ATOM     22  C   UNL A   1      39.818  32.744  34.616  1.00  0.00     0.420 C 
ATOM     23  F   UNL A   1      40.394  32.860  33.401  1.00  0.00    -0.168 F 
ATOM     24  F   UNL A   1      39.375  33.989  34.946  1.00  0.00    -0.168 F 
ATOM     25  F   UNL A   1      40.787  32.438  35.512  1.00  0.00    -0.168 F 
ENDBRANCH   9  22
ENDBRANCH   6   9
ENDBRANCH   4   5
ENDBRANCH   3   4
ENDBRANCH   2   3
ENDBRANCH   1   2
BRANCH   1  26
ATOM     26  C   UNL A   1      35.035  33.805  29.522  1.00  0.00     0.021 C 
BRANCH  26  27
ATOM     27  C   UNL A   1      34.681  32.353  29.824  1.00  0.00     0.116 C 
BRANCH  27  28
ATOM     28  N   UNL A   1      34.040  31.679  28.706  1.00  0.00    -0.352 N 
ATOM     29  C   UNL A   1      34.542  30.684  27.902  1.00  0.00     0.251 C 
ATOM     30  H   UNL A   1      33.125  31.975  28.498  1.00  0.00     0.163 HD
ATOM     31  O   UNL A   1      33.907  30.298  26.927  1.00  0.00    -0.269 OA
BRANCH  29  32
ATOM     32  C   UNL A   1      35.871  30.110  28.200  1.00  0.00     0.039 A 
ATOM     33  C   UNL A   1      36.846  30.118  27.200  1.00  0.00     0.014 A 
ATOM     34  C   UNL A   1      36.161  29.594  29.467  1.00  0.00     0.014 A 
ATOM     35  C   UNL A   1      38.137  29.671  27.491  1.00  0.00     0.010 A 
ATOM     36  C   UNL A   1      37.462  29.203  29.771  1.00  0.00     0.010 A 
ATOM     37  C   UNL A   1      38.463  29.244  28.789  1.00  0.00    -0.014 A 
BRANCH  37  38
ATOM     38  C   UNL A   1      39.852  28.861  29.142  1.00  0.00     0.031 A 
ATOM     39  C   UNL A   1      40.772  29.853  29.793  1.00  0.00     0.074 A 
ATOM     40  C   UNL A   1      40.308  27.639  28.805  1.00  0.00     0.049 A 
ATOM     41  N   UNL A   1      42.032  29.719  30.119  1.00  0.00    -0.248 NA
ATOM     42  C   UNL A   1      40.209  31.179  30.095  1.00  0.00     0.031 C 
ATOM     43  C   UNL A   1      39.528  26.604  28.120  1.00  0.00     0.029 A 
ATOM     44  N   UNL A   1      41.541  27.065  28.978  1.00  0.00    -0.354 N 
ATOM     45  C   UNL A   1      42.417  30.944  30.651  1.00  0.00     0.074 A 
ATOM     46  C   UNL A   1      41.270  31.822  30.559  1.00  0.00     0.031 C 
ATOM     47  C   UNL A   1      40.300  25.520  27.943  1.00  0.00     0.029 A 
ATOM     48  C   UNL A   1      41.632  25.791  28.474  1.00  0.00     0.049 A 
ATOM     49  H   UNL A   1      42.292  27.524  29.422  1.00  0.00     0.167 HD
ATOM     50  C   UNL A   1      43.613  31.301  31.180  1.00  0.00     0.031 A 
ATOM     51  C   UNL A   1      42.673  24.936  28.432  1.00  0.00     0.031 A 
ATOM     52  C   UNL A   1      44.751  30.427  31.270  1.00  0.00     0.049 A 
ATOM     53  C   UNL A   1      43.987  25.347  29.031  1.00  0.00     0.074 A 
ATOM     54  C   UNL A   1      45.986  30.675  31.842  1.00  0.00     0.029 A 
ATOM     55  N   UNL A   1      44.795  29.134  30.769  1.00  0.00    -0.354 N 
ATOM     56  N   UNL A   1      44.312  26.487  29.594  1.00  0.00    -0.248 NA
ATOM     57  C   UNL A   1      45.070  24.355  29.000  1.00  0.00     0.031 C 
ATOM     58  C   UNL A   1      46.792  29.546  31.650  1.00  0.00     0.029 A 
ATOM     59  C   UNL A   1      46.043  28.579  30.996  1.00  0.00     0.049 A 
ATOM     60  H   UNL A   1      44.048  28.677  30.318  1.00  0.00     0.167 HD
ATOM     61  C   UNL A   1      45.637  26.347  29.991  1.00  0.00     0.074 A 
ATOM     62  C   UNL A   1      46.045  25.006  29.622  1.00  0.00     0.031 C 
ATOM     63  C   UNL A   1      46.441  27.250  30.606  1.00  0.00     0.031 A 
BRANCH  50  64
ATOM     64  C   UNL A   1      43.737  32.711  31.691  1.00  0.00    -0.014 A 
ATOM     65  C   UNL A   1      44.078  33.767  30.825  1.00  0.00     0.010 A 
ATOM     66  C   UNL A   1      43.521  32.986  33.053  1.00  0.00     0.010 A 
ATOM     67  C   UNL A   1      44.264  35.059  31.322  1.00  0.00     0.020 A 
ATOM     68  C   UNL A   1      43.681  34.283  33.550  1.00  0.00     0.020 A 
ATOM     69  C   UNL A   1      44.077  35.306  32.686  1.00  0.00     0.054 A 
BRANCH  69  70
ATOM     70  S   UNL A   1      44.347  36.986  33.314  1.00  0.00     0.124 S 
ATOM     71  O   UNL A   1      42.977  37.452  33.517  1.00  0.00    -0.237 OA
ATOM     72  O   UNL A   1      45.118  36.756  34.533  1.00  0.00    -0.237 OA
ATOM     73  O   UNL A   1      45.076  37.645  32.235  1.00  0.00    -0.744 OA
ENDBRANCH  69  70
ENDBRANCH  50  64
BRANCH  51  74
ATOM     74  C   UNL A   1      42.492  23.600  27.807  1.00  0.00    -0.014 A 
ATOM     75  C   UNL A   1      42.850  23.387  26.466  1.00  0.00     0.010 A 
ATOM     76  C   UNL A   1      42.019  22.517  28.572  1.00  0.00     0.010 A 
ATOM     77  C   UNL A   1      42.742  22.114  25.899  1.00  0.00     0.020 A 
ATOM     78  C   UNL A   1      41.929  21.239  28.015  1.00  0.00     0.020 A 
ATOM     79  C   UNL A   1      42.289  21.046  26.679  1.00  0.00     0.054 A 
BRANCH  79  80
ATOM     80  S   UNL A   1      42.248  19.384  25.953  1.00  0.00     0.124 S 
ATOM     81  O   UNL A   1      43.146  19.529  24.812  1.00  0.00    -0.237 OA
ATOM     82  O   UNL A   1      42.741  18.547  27.045  1.00  0.00    -0.237 OA
ATOM     83  O   UNL A   1      40.838  19.193  25.621  1.00  0.00    -0.744 OA
ENDBRANCH  79  80
ENDBRANCH  51  74
BRANCH  63  84
ATOM     84  C   UNL A   1      47.847  26.817  30.918  1.00  0.00    -0.014 A 
ATOM     85  C   UNL A   1      48.902  27.103  30.035  1.00  0.00     0.010 A 
ATOM     86  C   UNL A   1      48.123  26.162  32.131  1.00  0.00     0.010 A 
ATOM     87  C   UNL A   1      50.208  26.721  30.349  1.00  0.00     0.020 A 
ATOM     88  C   UNL A   1      49.432  25.797  32.459  1.00  0.00     0.020 A 
ATOM     89  C   UNL A   1      50.465  26.068  31.559  1.00  0.00     0.054 A 
BRANCH  89  90
ATOM     90  S   UNL A   1      52.175  25.625  31.968  1.00  0.00     0.124 S 
ATOM     91  O   UNL A   1      52.054  24.204  32.281  1.00  0.00    -0.237 OA
ATOM     92  O   UNL A   1      52.894  25.938  30.736  1.00  0.00    -0.237 OA
ATOM     93  O   UNL A   1      52.493  26.488  33.104  1.00  0.00    -0.744 OA
ENDBRANCH  89  90
ENDBRANCH  63  84
ENDBRANCH  37  38
ENDBRANCH  29  32
ENDBRANCH  27  28
ENDBRANCH  26  27
ENDBRANCH   1  26
TORSDOF 19
ENDMDL
