MODEL 1
REMARK VINA RESULT:     -12.4      0.000      0.000
REMARK SMILES C/C(=N\NC(N)=O)c1nnn(-c2ccc(C(=O)NCCCCCCNC(=O)c3ccc(-c4c5nc(c(-c6ccc(S(=O)(=O)[O-])cc6)c6ccc([nH]6)c(-c6ccc(S(=O)(=O)[O-])cc6)c6nc(c(-c7ccc(S(=O)(=O)[O-])cc7)c7ccc4[nH]7)C=C6)C=C5)cc3)cc2)c1C
REMARK SMILES IDX 21 1 20 2 19 3 18 4 16 5 17 6 15 8 12 9 13 10 89 11 14 12
REMARK SMILES IDX 88 13 11 14 8 15 9 16 90 17 10 18 91 19 2 20 1 21 3 22 4 23
REMARK SMILES IDX 5 24 6 26 7 27 22 30 23 31 24 32 25 33 26 34 27 36 28 37
REMARK SMILES IDX 29 38 87 39 30 40 86 41 31 42 32 43 33 44 80 45 34 46 85 47
REMARK SMILES IDX 79 48 81 49 35 50 84 51 78 52 77 53 36 55 66 56 47 57 65 58
REMARK SMILES IDX 48 59 51 60 64 61 82 62 49 63 50 64 63 66 83 67 52 68 37 69
REMARK SMILES IDX 38 70 46 71 39 72 45 73 40 74 41 75 42 76 43 77 44 78 67 79
REMARK SMILES IDX 68 80 76 81 69 82 75 83 70 84 71 85 72 86 73 87 74 88 53 89
REMARK SMILES IDX 54 90 62 91 55 92 61 93 56 94 57 95 58 96 59 97 60 98
REMARK H PARENT 18 7 4 25 6 28 6 29 25 35 81 54 51 65
REMARK Flexibility Score: inf
ROOT
ATOM      1  C   UNL A   1      34.822  30.788  27.954  1.00  0.00     0.002 C 
ENDROOT
BRANCH   1   2
ATOM      2  C   UNL A   1      34.033  30.110  26.827  1.00  0.00     0.021 C 
BRANCH   2   3
ATOM      3  C   UNL A   1      32.594  29.755  27.212  1.00  0.00     0.116 C 
BRANCH   3   4
ATOM      4  N   UNL A   1      31.662  30.242  26.210  1.00  0.00    -0.352 N 
ATOM      5  C   UNL A   1      31.233  29.737  25.007  1.00  0.00     0.251 C 
ATOM      6  O   UNL A   1      30.370  30.372  24.401  1.00  0.00    -0.269 OA
ATOM      7  H   UNL A   1      31.254  31.107  26.440  1.00  0.00     0.163 HD
BRANCH   5   8
ATOM      8  C   UNL A   1      31.690  28.427  24.460  1.00  0.00     0.039 A 
ATOM      9  C   UNL A   1      32.471  25.824  23.813  1.00  0.00     0.067 A 
ATOM     10  C   UNL A   1      31.120  26.090  24.042  1.00  0.00     0.029 A 
ATOM     11  C   UNL A   1      33.404  26.861  23.768  1.00  0.00     0.029 A 
ATOM     12  C   UNL A   1      30.742  27.389  24.398  1.00  0.00     0.016 A 
ATOM     13  C   UNL A   1      32.995  28.168  24.035  1.00  0.00     0.016 A 
BRANCH   9  14
ATOM     14  N   UNL A   1      32.913  24.492  23.732  1.00  0.00    -0.217 N 
ATOM     15  C   UNL A   1      33.560  22.467  24.193  1.00  0.00     0.132 A 
ATOM     16  N   UNL A   1      33.220  22.530  22.868  1.00  0.00    -0.128 NA
ATOM     17  C   UNL A   1      33.317  23.691  24.788  1.00  0.00     0.071 A 
ATOM     18  N   UNL A   1      32.738  23.742  22.623  1.00  0.00    -0.061 NA
ATOM     19  C   UNL A   1      33.271  24.085  26.216  1.00  0.00     0.069 C 
BRANCH  15  20
ATOM     20  C   UNL A   1      33.854  21.210  24.857  1.00  0.00     0.087 C 
ATOM     21  C   UNL A   1      35.312  20.845  24.936  1.00  0.00     0.071 C 
ATOM     22  N   UNL A   1      32.828  20.567  25.330  1.00  0.00    -0.174 NA
BRANCH  22  23
ATOM     23  N   UNL A   1      32.929  19.360  25.962  1.00  0.00    -0.229 N 
ATOM     24  C   UNL A   1      32.742  18.109  25.419  1.00  0.00     0.332 C 
ATOM     25  H   UNL A   1      33.163  19.388  26.919  1.00  0.00     0.195 HD
ATOM     26  N   UNL A   1      32.942  17.113  26.329  1.00  0.00    -0.350 N 
ATOM     27  O   UNL A   1      32.450  17.828  24.265  1.00  0.00    -0.247 OA
ATOM     28  H   UNL A   1      33.177  17.336  27.259  1.00  0.00     0.161 HD
ATOM     29  H   UNL A   1      32.852  16.172  26.057  1.00  0.00     0.161 HD
ENDBRANCH  22  23
ENDBRANCH  15  20
ENDBRANCH   9  14
ENDBRANCH   5   8
ENDBRANCH   3   4
ENDBRANCH   2   3
ENDBRANCH   1   2
BRANCH   1  30
ATOM     30  C   UNL A   1      35.105  32.287  27.767  1.00  0.00     0.002 C 
BRANCH  30  31
ATOM     31  C   UNL A   1      33.965  33.252  28.127  1.00  0.00     0.021 C 
BRANCH  31  32
ATOM     32  C   UNL A   1      34.429  34.646  28.527  1.00  0.00     0.116 C 
BRANCH  32  33
ATOM     33  N   UNL A   1      33.957  35.023  29.858  1.00  0.00    -0.352 N 
ATOM     34  C   UNL A   1      34.185  34.411  31.077  1.00  0.00     0.251 C 
ATOM     35  H   UNL A   1      33.396  35.831  29.891  1.00  0.00     0.163 HD
ATOM     36  O   UNL A   1      33.424  34.606  32.012  1.00  0.00    -0.269 OA
BRANCH  34  37
ATOM     37  C   UNL A   1      35.351  33.519  31.232  1.00  0.00     0.039 A 
ATOM     38  C   UNL A   1      35.186  32.142  31.409  1.00  0.00     0.014 A 
ATOM     39  C   UNL A   1      36.625  34.074  31.198  1.00  0.00     0.014 A 
ATOM     40  C   UNL A   1      36.318  31.331  31.466  1.00  0.00     0.010 A 
ATOM     41  C   UNL A   1      37.727  33.265  31.083  1.00  0.00     0.010 A 
ATOM     42  C   UNL A   1      37.590  31.897  31.274  1.00  0.00    -0.014 A 
BRANCH  42  43
ATOM     43  C   UNL A   1      38.775  31.054  31.149  1.00  0.00     0.031 A 
ATOM     44  C   UNL A   1      39.481  30.813  32.430  1.00  0.00     0.074 A 
ATOM     45  C   UNL A   1      39.109  30.370  30.033  1.00  0.00     0.049 A 
ATOM     46  N   UNL A   1      40.573  31.370  32.833  1.00  0.00    -0.248 NA
ATOM     47  C   UNL A   1      38.811  29.997  33.456  1.00  0.00     0.031 C 
ATOM     48  C   UNL A   1      38.354  30.254  28.779  1.00  0.00     0.029 A 
ATOM     49  N   UNL A   1      40.159  29.529  29.825  1.00  0.00    -0.354 N 
ATOM     50  C   UNL A   1      40.875  30.760  34.043  1.00  0.00     0.074 A 
ATOM     51  C   UNL A   1      39.657  30.125  34.481  1.00  0.00     0.031 C 
ATOM     52  C   UNL A   1      38.837  29.222  28.053  1.00  0.00     0.029 A 
ATOM     53  C   UNL A   1      40.039  28.726  28.695  1.00  0.00     0.049 A 
ATOM     54  H   UNL A   1      40.938  29.492  30.425  1.00  0.00     0.167 HD
ATOM     55  C   UNL A   1      42.169  30.552  34.419  1.00  0.00     0.031 A 
ATOM     56  C   UNL A   1      40.861  27.714  28.320  1.00  0.00     0.031 A 
ATOM     57  C   UNL A   1      43.090  31.302  33.596  1.00  0.00     0.049 A 
ATOM     58  C   UNL A   1      42.162  27.940  28.991  1.00  0.00     0.074 A 
ATOM     59  C   UNL A   1      43.236  32.632  33.252  1.00  0.00     0.029 A 
ATOM     60  N   UNL A   1      43.797  30.589  32.653  1.00  0.00    -0.354 N 
ATOM     61  N   UNL A   1      42.941  28.948  28.713  1.00  0.00    -0.248 NA
ATOM     62  C   UNL A   1      42.404  27.303  30.274  1.00  0.00     0.031 C 
ATOM     63  C   UNL A   1      43.615  32.619  31.876  1.00  0.00     0.029 A 
ATOM     64  C   UNL A   1      43.760  31.290  31.477  1.00  0.00     0.049 A 
ATOM     65  H   UNL A   1      44.250  29.728  32.800  1.00  0.00     0.167 HD
ATOM     66  C   UNL A   1      43.437  29.357  29.941  1.00  0.00     0.074 A 
ATOM     67  C   UNL A   1      43.173  28.237  30.843  1.00  0.00     0.031 C 
ATOM     68  C   UNL A   1      43.756  30.667  30.168  1.00  0.00     0.031 A 
BRANCH  55  69
ATOM     69  C   UNL A   1      42.618  29.333  35.194  1.00  0.00    -0.014 A 
ATOM     70  C   UNL A   1      43.589  29.495  36.204  1.00  0.00     0.010 A 
ATOM     71  C   UNL A   1      42.350  28.013  34.775  1.00  0.00     0.010 A 
ATOM     72  C   UNL A   1      44.313  28.402  36.699  1.00  0.00     0.020 A 
ATOM     73  C   UNL A   1      43.030  26.912  35.297  1.00  0.00     0.020 A 
ATOM     74  C   UNL A   1      44.035  27.119  36.229  1.00  0.00     0.054 A 
BRANCH  74  75
ATOM     75  S   UNL A   1      45.041  25.727  36.795  1.00  0.00     0.124 S 
ATOM     76  O   UNL A   1      46.360  26.340  36.903  1.00  0.00    -0.237 OA
ATOM     77  O   UNL A   1      44.396  25.375  38.056  1.00  0.00    -0.237 OA
ATOM     78  O   UNL A   1      44.889  24.742  35.726  1.00  0.00    -0.744 OA
ENDBRANCH  74  75
ENDBRANCH  55  69
BRANCH  56  79
ATOM     79  C   UNL A   1      40.527  26.445  27.627  1.00  0.00    -0.014 A 
ATOM     80  C   UNL A   1      41.444  25.845  26.743  1.00  0.00     0.010 A 
ATOM     81  C   UNL A   1      39.434  25.670  28.064  1.00  0.00     0.010 A 
ATOM     82  C   UNL A   1      41.320  24.493  26.379  1.00  0.00     0.020 A 
ATOM     83  C   UNL A   1      39.299  24.324  27.698  1.00  0.00     0.020 A 
ATOM     84  C   UNL A   1      40.260  23.734  26.881  1.00  0.00     0.054 A 
BRANCH  84  85
ATOM     85  S   UNL A   1      40.222  21.941  26.579  1.00  0.00     0.124 S 
ATOM     86  O   UNL A   1      40.494  21.396  27.905  1.00  0.00    -0.237 OA
ATOM     87  O   UNL A   1      38.868  21.732  26.074  1.00  0.00    -0.237 OA
ATOM     88  O   UNL A   1      41.283  21.738  25.594  1.00  0.00    -0.744 OA
ENDBRANCH  84  85
ENDBRANCH  56  79
BRANCH  68  89
ATOM     89  C   UNL A   1      43.908  31.584  28.975  1.00  0.00    -0.014 A 
ATOM     90  C   UNL A   1      43.603  32.960  28.981  1.00  0.00     0.010 A 
ATOM     91  C   UNL A   1      44.480  31.035  27.813  1.00  0.00     0.010 A 
ATOM     92  C   UNL A   1      43.814  33.749  27.839  1.00  0.00     0.020 A 
ATOM     93  C   UNL A   1      44.714  31.818  26.680  1.00  0.00     0.020 A 
ATOM     94  C   UNL A   1      44.362  33.168  26.691  1.00  0.00     0.054 A 
BRANCH  94  95
ATOM     95  S   UNL A   1      44.630  34.186  25.213  1.00  0.00     0.124 S 
ATOM     96  O   UNL A   1      44.516  33.212  24.132  1.00  0.00    -0.237 OA
ATOM     97  O   UNL A   1      43.549  35.166  25.294  1.00  0.00    -0.237 OA
ATOM     98  O   UNL A   1      45.970  34.739  25.408  1.00  0.00    -0.744 OA
ENDBRANCH  94  95
ENDBRANCH  68  89
ENDBRANCH  42  43
ENDBRANCH  34  37
ENDBRANCH  32  33
ENDBRANCH  31  32
ENDBRANCH  30  31
ENDBRANCH   1  30
TORSDOF 19
ENDMDL
MODEL 2
REMARK VINA RESULT:     -11.8      3.049      4.594
REMARK SMILES C/C(=N\NC(N)=O)c1nnn(-c2ccc(C(=O)NCCCCCCNC(=O)c3ccc(-c4c5nc(c(-c6ccc(S(=O)(=O)[O-])cc6)c6ccc([nH]6)c(-c6ccc(S(=O)(=O)[O-])cc6)c6nc(c(-c7ccc(S(=O)(=O)[O-])cc7)c7ccc4[nH]7)C=C6)C=C5)cc3)cc2)c1C
REMARK SMILES IDX 21 1 20 2 19 3 18 4 16 5 17 6 15 8 12 9 13 10 89 11 14 12
REMARK SMILES IDX 88 13 11 14 8 15 9 16 90 17 10 18 91 19 2 20 1 21 3 22 4 23
REMARK SMILES IDX 5 24 6 26 7 27 22 30 23 31 24 32 25 33 26 34 27 36 28 37
REMARK SMILES IDX 29 38 87 39 30 40 86 41 31 42 32 43 33 44 80 45 34 46 85 47
REMARK SMILES IDX 79 48 81 49 35 50 84 51 78 52 77 53 36 55 66 56 47 57 65 58
REMARK SMILES IDX 48 59 51 60 64 61 82 62 49 63 50 64 63 66 83 67 52 68 37 69
REMARK SMILES IDX 38 70 46 71 39 72 45 73 40 74 41 75 42 76 43 77 44 78 67 79
REMARK SMILES IDX 68 80 76 81 69 82 75 83 70 84 71 85 72 86 73 87 74 88 53 89
REMARK SMILES IDX 54 90 62 91 55 92 61 93 56 94 57 95 58 96 59 97 60 98
REMARK H PARENT 18 7 4 25 6 28 6 29 25 35 81 54 51 65
REMARK Flexibility Score: inf
ROOT
ATOM      1  C   UNL A   1      31.058  27.338  24.957  1.00  0.00     0.002 C 
ENDROOT
BRANCH   1   2
ATOM      2  C   UNL A   1      31.261  26.027  25.726  1.00  0.00     0.021 C 
BRANCH   2   3
ATOM      3  C   UNL A   1      31.382  24.797  24.821  1.00  0.00     0.116 C 
BRANCH   3   4
ATOM      4  N   UNL A   1      31.991  25.153  23.551  1.00  0.00    -0.352 N 
ATOM      5  C   UNL A   1      33.264  25.019  23.053  1.00  0.00     0.251 C 
ATOM      6  O   UNL A   1      33.456  25.373  21.890  1.00  0.00    -0.269 OA
ATOM      7  H   UNL A   1      31.364  25.575  22.920  1.00  0.00     0.163 HD
BRANCH   5   8
ATOM      8  C   UNL A   1      34.377  24.386  23.816  1.00  0.00     0.039 A 
ATOM      9  C   UNL A   1      36.619  23.582  25.276  1.00  0.00     0.067 A 
ATOM     10  C   UNL A   1      35.624  24.325  25.914  1.00  0.00     0.029 A 
ATOM     11  C   UNL A   1      36.439  23.125  23.969  1.00  0.00     0.029 A 
ATOM     12  C   UNL A   1      34.521  24.752  25.168  1.00  0.00     0.016 A 
ATOM     13  C   UNL A   1      35.289  23.482  23.266  1.00  0.00     0.016 A 
BRANCH   9  14
ATOM     14  N   UNL A   1      37.855  23.382  25.915  1.00  0.00    -0.217 N 
ATOM     15  C   UNL A   1      39.751  22.565  26.602  1.00  0.00     0.132 A 
ATOM     16  N   UNL A   1      39.718  23.905  26.886  1.00  0.00    -0.128 NA
ATOM     17  C   UNL A   1      38.597  22.212  25.926  1.00  0.00     0.071 A 
ATOM     18  N   UNL A   1      38.601  24.408  26.377  1.00  0.00    -0.061 NA
ATOM     19  C   UNL A   1      38.246  20.978  25.184  1.00  0.00     0.069 C 
BRANCH  15  20
ATOM     20  C   UNL A   1      40.953  21.768  26.766  1.00  0.00     0.087 C 
ATOM     21  C   UNL A   1      41.788  22.095  27.973  1.00  0.00     0.071 C 
ATOM     22  N   UNL A   1      41.146  20.849  25.867  1.00  0.00    -0.174 NA
BRANCH  22  23
ATOM     23  N   UNL A   1      42.239  20.028  25.862  1.00  0.00    -0.229 N 
ATOM     24  C   UNL A   1      42.565  19.059  26.784  1.00  0.00     0.332 C 
ATOM     25  H   UNL A   1      42.866  20.142  25.111  1.00  0.00     0.195 HD
ATOM     26  N   UNL A   1      43.719  18.405  26.464  1.00  0.00    -0.350 N 
ATOM     27  O   UNL A   1      41.945  18.739  27.788  1.00  0.00    -0.247 OA
ATOM     28  H   UNL A   1      44.221  18.660  25.656  1.00  0.00     0.161 HD
ATOM     29  H   UNL A   1      44.050  17.679  27.039  1.00  0.00     0.161 HD
ENDBRANCH  22  23
ENDBRANCH  15  20
ENDBRANCH   9  14
ENDBRANCH   5   8
ENDBRANCH   3   4
ENDBRANCH   2   3
ENDBRANCH   1   2
BRANCH   1  30
ATOM     30  C   UNL A   1      31.937  28.518  25.400  1.00  0.00     0.002 C 
BRANCH  30  31
ATOM     31  C   UNL A   1      33.323  28.169  25.966  1.00  0.00     0.021 C 
BRANCH  31  32
ATOM     32  C   UNL A   1      33.573  28.692  27.373  1.00  0.00     0.116 C 
BRANCH  32  33
ATOM     33  N   UNL A   1      33.401  30.141  27.460  1.00  0.00    -0.352 N 
ATOM     34  C   UNL A   1      34.251  31.097  27.985  1.00  0.00     0.251 C 
ATOM     35  H   UNL A   1      32.556  30.486  27.092  1.00  0.00     0.163 HD
ATOM     36  O   UNL A   1      33.812  32.181  28.336  1.00  0.00    -0.269 OA
BRANCH  34  37
ATOM     37  C   UNL A   1      35.689  30.791  28.119  1.00  0.00     0.039 A 
ATOM     38  C   UNL A   1      36.524  31.586  28.910  1.00  0.00     0.014 A 
ATOM     39  C   UNL A   1      36.203  29.690  27.443  1.00  0.00     0.014 A 
ATOM     40  C   UNL A   1      37.855  31.207  29.073  1.00  0.00     0.010 A 
ATOM     41  C   UNL A   1      37.459  29.224  27.738  1.00  0.00     0.010 A 
ATOM     42  C   UNL A   1      38.312  30.006  28.504  1.00  0.00    -0.014 A 
BRANCH  42  43
ATOM     43  C   UNL A   1      39.645  29.493  28.805  1.00  0.00     0.031 A 
ATOM     44  C   UNL A   1      39.852  29.153  30.234  1.00  0.00     0.074 A 
ATOM     45  C   UNL A   1      40.558  29.148  27.871  1.00  0.00     0.049 A 
ATOM     46  N   UNL A   1      40.500  29.842  31.112  1.00  0.00    -0.248 NA
ATOM     47  C   UNL A   1      39.110  28.012  30.796  1.00  0.00     0.031 C 
ATOM     48  C   UNL A   1      40.401  29.132  26.411  1.00  0.00     0.029 A 
ATOM     49  N   UNL A   1      41.803  28.624  28.041  1.00  0.00    -0.354 N 
ATOM     50  C   UNL A   1      40.484  29.075  32.269  1.00  0.00     0.074 A 
ATOM     51  C   UNL A   1      39.430  28.108  32.089  1.00  0.00     0.031 C 
ATOM     52  C   UNL A   1      41.398  28.408  25.856  1.00  0.00     0.029 A 
ATOM     53  C   UNL A   1      42.356  28.069  26.892  1.00  0.00     0.049 A 
ATOM     54  H   UNL A   1      42.273  28.637  28.906  1.00  0.00     0.167 HD
ATOM     55  C   UNL A   1      41.540  29.086  33.131  1.00  0.00     0.031 A 
ATOM     56  C   UNL A   1      43.513  27.366  26.797  1.00  0.00     0.031 A 
ATOM     57  C   UNL A   1      42.445  30.177  32.850  1.00  0.00     0.049 A 
ATOM     58  C   UNL A   1      44.338  27.731  27.971  1.00  0.00     0.074 A 
ATOM     59  C   UNL A   1      42.320  31.548  32.734  1.00  0.00     0.029 A 
ATOM     60  N   UNL A   1      43.629  29.852  32.226  1.00  0.00    -0.354 N 
ATOM     61  N   UNL A   1      44.838  28.922  28.148  1.00  0.00    -0.248 NA
ATOM     62  C   UNL A   1      44.250  26.910  29.167  1.00  0.00     0.031 C 
ATOM     63  C   UNL A   1      43.177  31.908  31.650  1.00  0.00     0.029 A 
ATOM     64  C   UNL A   1      43.839  30.757  31.218  1.00  0.00     0.049 A 
ATOM     65  H   UNL A   1      44.220  29.102  32.463  1.00  0.00     0.167 HD
ATOM     66  C   UNL A   1      44.693  29.165  29.505  1.00  0.00     0.074 A 
ATOM     67  C   UNL A   1      44.442  27.852  30.096  1.00  0.00     0.031 C 
ATOM     68  C   UNL A   1      44.510  30.436  29.975  1.00  0.00     0.031 A 
BRANCH  55  69
ATOM     69  C   UNL A   1      41.994  27.863  33.897  1.00  0.00    -0.014 A 
ATOM     70  C   UNL A   1      41.773  27.819  35.289  1.00  0.00     0.010 A 
ATOM     71  C   UNL A   1      42.881  26.906  33.363  1.00  0.00     0.010 A 
ATOM     72  C   UNL A   1      42.472  26.923  36.109  1.00  0.00     0.020 A 
ATOM     73  C   UNL A   1      43.545  25.976  34.163  1.00  0.00     0.020 A 
ATOM     74  C   UNL A   1      43.365  26.016  35.537  1.00  0.00     0.054 A 
BRANCH  74  75
ATOM     75  S   UNL A   1      44.340  24.933  36.607  1.00  0.00     0.124 S 
ATOM     76  O   UNL A   1      43.990  25.433  37.932  1.00  0.00    -0.237 OA
ATOM     77  O   UNL A   1      43.818  23.613  36.265  1.00  0.00    -0.237 OA
ATOM     78  O   UNL A   1      45.716  25.184  36.181  1.00  0.00    -0.744 OA
ENDBRANCH  74  75
ENDBRANCH  55  69
BRANCH  56  79
ATOM     79  C   UNL A   1      43.846  26.228  25.905  1.00  0.00    -0.014 A 
ATOM     80  C   UNL A   1      45.170  26.014  25.477  1.00  0.00     0.010 A 
ATOM     81  C   UNL A   1      42.920  25.182  25.721  1.00  0.00     0.010 A 
ATOM     82  C   UNL A   1      45.572  24.769  24.963  1.00  0.00     0.020 A 
ATOM     83  C   UNL A   1      43.312  23.942  25.201  1.00  0.00     0.020 A 
ATOM     84  C   UNL A   1      44.644  23.731  24.853  1.00  0.00     0.054 A 
BRANCH  84  85
ATOM     85  S   UNL A   1      45.213  22.068  24.389  1.00  0.00     0.124 S 
ATOM     86  O   UNL A   1      44.843  21.275  25.557  1.00  0.00    -0.237 OA
ATOM     87  O   UNL A   1      44.450  21.798  23.173  1.00  0.00    -0.237 OA
ATOM     88  O   UNL A   1      46.650  22.242  24.187  1.00  0.00    -0.744 OA
ENDBRANCH  84  85
ENDBRANCH  56  79
BRANCH  68  89
ATOM     89  C   UNL A   1      44.830  31.593  29.054  1.00  0.00    -0.014 A 
ATOM     90  C   UNL A   1      43.865  32.374  28.386  1.00  0.00     0.010 A 
ATOM     91  C   UNL A   1      46.182  31.963  28.936  1.00  0.00     0.010 A 
ATOM     92  C   UNL A   1      44.249  33.458  27.581  1.00  0.00     0.020 A 
ATOM     93  C   UNL A   1      46.570  33.054  28.155  1.00  0.00     0.020 A 
ATOM     94  C   UNL A   1      45.604  33.786  27.466  1.00  0.00     0.054 A 
BRANCH  94  95
ATOM     95  S   UNL A   1      46.100  35.184  26.421  1.00  0.00     0.124 S 
ATOM     96  O   UNL A   1      44.882  35.986  26.363  1.00  0.00    -0.237 OA
ATOM     97  O   UNL A   1      47.207  35.773  27.172  1.00  0.00    -0.237 OA
ATOM     98  O   UNL A   1      46.487  34.556  25.159  1.00  0.00    -0.744 OA
ENDBRANCH  94  95
ENDBRANCH  68  89
ENDBRANCH  42  43
ENDBRANCH  34  37
ENDBRANCH  32  33
ENDBRANCH  31  32
ENDBRANCH  30  31
ENDBRANCH   1  30
TORSDOF 19
ENDMDL
MODEL 3
REMARK VINA RESULT:     -11.3      5.194      9.794
REMARK SMILES C/C(=N\NC(N)=O)c1nnn(-c2ccc(C(=O)NCCCCCCNC(=O)c3ccc(-c4c5nc(c(-c6ccc(S(=O)(=O)[O-])cc6)c6ccc([nH]6)c(-c6ccc(S(=O)(=O)[O-])cc6)c6nc(c(-c7ccc(S(=O)(=O)[O-])cc7)c7ccc4[nH]7)C=C6)C=C5)cc3)cc2)c1C
REMARK SMILES IDX 21 1 20 2 19 3 18 4 16 5 17 6 15 8 12 9 13 10 89 11 14 12
REMARK SMILES IDX 88 13 11 14 8 15 9 16 90 17 10 18 91 19 2 20 1 21 3 22 4 23
REMARK SMILES IDX 5 24 6 26 7 27 22 30 23 31 24 32 25 33 26 34 27 36 28 37
REMARK SMILES IDX 29 38 87 39 30 40 86 41 31 42 32 43 33 44 80 45 34 46 85 47
REMARK SMILES IDX 79 48 81 49 35 50 84 51 78 52 77 53 36 55 66 56 47 57 65 58
REMARK SMILES IDX 48 59 51 60 64 61 82 62 49 63 50 64 63 66 83 67 52 68 37 69
REMARK SMILES IDX 38 70 46 71 39 72 45 73 40 74 41 75 42 76 43 77 44 78 67 79
REMARK SMILES IDX 68 80 76 81 69 82 75 83 70 84 71 85 72 86 73 87 74 88 53 89
REMARK SMILES IDX 54 90 62 91 55 92 61 93 56 94 57 95 58 96 59 97 60 98
REMARK H PARENT 18 7 4 25 6 28 6 29 25 35 81 54 51 65
REMARK Flexibility Score: inf
ROOT
ATOM      1  C   UNL A   1      44.362  31.733  32.936  1.00  0.00     0.002 C 
ENDROOT
BRANCH   1   2
ATOM      2  C   UNL A   1      44.924  30.847  34.055  1.00  0.00     0.021 C 
BRANCH   2   3
ATOM      3  C   UNL A   1      44.514  31.299  35.459  1.00  0.00     0.116 C 
BRANCH   3   4
ATOM      4  N   UNL A   1      43.895  30.206  36.189  1.00  0.00    -0.352 N 
ATOM      5  C   UNL A   1      42.589  29.828  36.378  1.00  0.00     0.251 C 
ATOM      6  O   UNL A   1      42.385  28.794  37.014  1.00  0.00    -0.269 OA
ATOM      7  H   UNL A   1      44.543  29.616  36.637  1.00  0.00     0.163 HD
BRANCH   5   8
ATOM      8  C   UNL A   1      41.433  30.551  35.775  1.00  0.00     0.039 A 
ATOM      9  C   UNL A   1      39.200  32.054  35.026  1.00  0.00     0.067 A 
ATOM     10  C   UNL A   1      40.378  32.717  35.374  1.00  0.00     0.029 A 
ATOM     11  C   UNL A   1      39.171  30.662  34.916  1.00  0.00     0.029 A 
ATOM     12  C   UNL A   1      41.481  31.958  35.779  1.00  0.00     0.016 A 
ATOM     13  C   UNL A   1      40.309  29.922  35.235  1.00  0.00     0.016 A 
BRANCH   9  14
ATOM     14  N   UNL A   1      38.006  32.783  34.888  1.00  0.00    -0.217 N 
ATOM     15  C   UNL A   1      36.285  33.856  34.100  1.00  0.00     0.132 A 
ATOM     16  N   UNL A   1      36.044  33.536  35.410  1.00  0.00    -0.128 NA
ATOM     17  C   UNL A   1      37.508  33.336  33.719  1.00  0.00     0.071 A 
ATOM     18  N   UNL A   1      37.058  32.800  35.848  1.00  0.00    -0.061 NA
ATOM     19  C   UNL A   1      38.120  33.177  32.378  1.00  0.00     0.069 C 
BRANCH  15  20
ATOM     20  C   UNL A   1      35.258  34.411  33.237  1.00  0.00     0.087 C 
ATOM     21  C   UNL A   1      34.228  33.433  32.743  1.00  0.00     0.071 C 
ATOM     22  N   UNL A   1      35.335  35.690  33.020  1.00  0.00    -0.174 NA
BRANCH  22  23
ATOM     23  N   UNL A   1      34.462  36.365  32.214  1.00  0.00    -0.229 N 
ATOM     24  C   UNL A   1      33.873  37.587  32.451  1.00  0.00     0.332 C 
ATOM     25  H   UNL A   1      34.226  35.927  31.364  1.00  0.00     0.195 HD
ATOM     26  N   UNL A   1      33.065  37.982  31.425  1.00  0.00    -0.350 N 
ATOM     27  O   UNL A   1      34.014  38.311  33.427  1.00  0.00    -0.247 OA
ATOM     28  H   UNL A   1      32.950  37.401  30.638  1.00  0.00     0.161 HD
ATOM     29  H   UNL A   1      32.599  38.847  31.470  1.00  0.00     0.161 HD
ENDBRANCH  22  23
ENDBRANCH  15  20
ENDBRANCH   9  14
ENDBRANCH   5   8
ENDBRANCH   3   4
ENDBRANCH   2   3
ENDBRANCH   1   2
BRANCH   1  30
ATOM     30  C   UNL A   1      45.050  33.094  32.749  1.00  0.00     0.002 C 
BRANCH  30  31
ATOM     31  C   UNL A   1      44.129  34.315  32.597  1.00  0.00     0.021 C 
BRANCH  31  32
ATOM     32  C   UNL A   1      42.723  34.109  33.142  1.00  0.00     0.116 C 
BRANCH  32  33
ATOM     33  N   UNL A   1      41.699  34.604  32.224  1.00  0.00    -0.352 N 
ATOM     34  C   UNL A   1      41.315  34.116  30.989  1.00  0.00     0.251 C 
ATOM     35  H   UNL A   1      41.210  35.402  32.531  1.00  0.00     0.163 HD
ATOM     36  O   UNL A   1      40.743  34.844  30.193  1.00  0.00    -0.269 OA
BRANCH  34  37
ATOM     37  C   UNL A   1      41.609  32.711  30.643  1.00  0.00     0.039 A 
ATOM     38  C   UNL A   1      42.600  32.391  29.711  1.00  0.00     0.014 A 
ATOM     39  C   UNL A   1      40.879  31.704  31.265  1.00  0.00     0.014 A 
ATOM     40  C   UNL A   1      42.899  31.049  29.481  1.00  0.00     0.010 A 
ATOM     41  C   UNL A   1      41.286  30.398  31.168  1.00  0.00     0.010 A 
ATOM     42  C   UNL A   1      42.255  30.054  30.236  1.00  0.00    -0.014 A 
BRANCH  42  43
ATOM     43  C   UNL A   1      42.672  28.657  30.147  1.00  0.00     0.031 A 
ATOM     44  C   UNL A   1      43.358  28.155  31.363  1.00  0.00     0.074 A 
ATOM     45  C   UNL A   1      42.303  27.813  29.160  1.00  0.00     0.049 A 
ATOM     46  N   UNL A   1      44.625  27.969  31.520  1.00  0.00    -0.248 NA
ATOM     47  C   UNL A   1      42.572  28.010  32.600  1.00  0.00     0.031 C 
ATOM     48  C   UNL A   1      41.378  28.065  28.048  1.00  0.00     0.029 A 
ATOM     49  N   UNL A   1      42.598  26.492  29.006  1.00  0.00    -0.354 N 
ATOM     50  C   UNL A   1      44.763  27.414  32.785  1.00  0.00     0.074 A 
ATOM     51  C   UNL A   1      43.528  27.692  33.476  1.00  0.00     0.031 C 
ATOM     52  C   UNL A   1      41.007  26.891  27.492  1.00  0.00     0.029 A 
ATOM     53  C   UNL A   1      41.800  25.828  28.080  1.00  0.00     0.049 A 
ATOM     54  H   UNL A   1      43.316  26.045  29.509  1.00  0.00     0.167 HD
ATOM     55  C   UNL A   1      45.739  26.499  33.046  1.00  0.00     0.031 A 
ATOM     56  C   UNL A   1      41.780  24.496  27.823  1.00  0.00     0.031 A 
ATOM     57  C   UNL A   1      46.725  26.458  31.991  1.00  0.00     0.049 A 
ATOM     58  C   UNL A   1      43.076  23.947  28.283  1.00  0.00     0.074 A 
ATOM     59  C   UNL A   1      47.540  27.389  31.374  1.00  0.00     0.029 A 
ATOM     60  N   UNL A   1      46.670  25.381  31.135  1.00  0.00    -0.354 N 
ATOM     61  N   UNL A   1      44.215  24.245  27.724  1.00  0.00    -0.248 NA
ATOM     62  C   UNL A   1      43.167  23.414  29.631  1.00  0.00     0.031 C 
ATOM     63  C   UNL A   1      47.541  27.024  29.994  1.00  0.00     0.029 A 
ATOM     64  C   UNL A   1      46.800  25.849  29.854  1.00  0.00     0.049 A 
ATOM     65  H   UNL A   1      46.558  24.439  31.398  1.00  0.00     0.167 HD
ATOM     66  C   UNL A   1      45.102  24.379  28.781  1.00  0.00     0.074 A 
ATOM     67  C   UNL A   1      44.433  23.737  29.912  1.00  0.00     0.031 C 
ATOM     68  C   UNL A   1      46.160  25.241  28.705  1.00  0.00     0.031 A 
BRANCH  55  69
ATOM     69  C   UNL A   1      45.548  25.334  33.992  1.00  0.00    -0.014 A 
ATOM     70  C   UNL A   1      46.411  25.219  35.102  1.00  0.00     0.010 A 
ATOM     71  C   UNL A   1      44.765  24.206  33.675  1.00  0.00     0.010 A 
ATOM     72  C   UNL A   1      46.543  24.009  35.797  1.00  0.00     0.020 A 
ATOM     73  C   UNL A   1      44.852  23.012  34.391  1.00  0.00     0.020 A 
ATOM     74  C   UNL A   1      45.770  22.910  35.425  1.00  0.00     0.054 A 
BRANCH  74  75
ATOM     75  S   UNL A   1      46.019  21.324  36.257  1.00  0.00     0.124 S 
ATOM     76  O   UNL A   1      47.453  21.120  36.080  1.00  0.00    -0.237 OA
ATOM     77  O   UNL A   1      45.580  21.620  37.617  1.00  0.00    -0.237 OA
ATOM     78  O   UNL A   1      45.155  20.410  35.512  1.00  0.00    -0.744 OA
ENDBRANCH  74  75
ENDBRANCH  55  69
BRANCH  56  79
ATOM     79  C   UNL A   1      40.635  23.634  27.439  1.00  0.00    -0.014 A 
ATOM     80  C   UNL A   1      39.345  24.177  27.286  1.00  0.00     0.010 A 
ATOM     81  C   UNL A   1      40.867  22.341  26.930  1.00  0.00     0.010 A 
ATOM     82  C   UNL A   1      38.349  23.486  26.574  1.00  0.00     0.020 A 
ATOM     83  C   UNL A   1      39.876  21.643  26.227  1.00  0.00     0.020 A 
ATOM     84  C   UNL A   1      38.631  22.232  26.026  1.00  0.00     0.054 A 
BRANCH  84  85
ATOM     85  S   UNL A   1      37.414  21.440  24.932  1.00  0.00     0.124 S 
ATOM     86  O   UNL A   1      37.286  22.413  23.852  1.00  0.00    -0.237 OA
ATOM     87  O   UNL A   1      38.072  20.185  24.579  1.00  0.00    -0.237 OA
ATOM     88  O   UNL A   1      36.232  21.297  25.782  1.00  0.00    -0.744 OA
ENDBRANCH  84  85
ENDBRANCH  56  79
BRANCH  68  89
ATOM     89  C   UNL A   1      46.561  25.765  27.344  1.00  0.00    -0.014 A 
ATOM     90  C   UNL A   1      45.946  26.852  26.693  1.00  0.00     0.010 A 
ATOM     91  C   UNL A   1      47.686  25.176  26.736  1.00  0.00     0.010 A 
ATOM     92  C   UNL A   1      46.409  27.300  25.446  1.00  0.00     0.020 A 
ATOM     93  C   UNL A   1      48.167  25.631  25.506  1.00  0.00     0.020 A 
ATOM     94  C   UNL A   1      47.515  26.679  24.857  1.00  0.00     0.054 A 
BRANCH  94  95
ATOM     95  S   UNL A   1      48.111  27.254  23.242  1.00  0.00     0.124 S 
ATOM     96  O   UNL A   1      48.290  26.007  22.506  1.00  0.00    -0.237 OA
ATOM     97  O   UNL A   1      47.019  28.108  22.779  1.00  0.00    -0.237 OA
ATOM     98  O   UNL A   1      49.348  27.966  23.561  1.00  0.00    -0.744 OA
ENDBRANCH  94  95
ENDBRANCH  68  89
ENDBRANCH  42  43
ENDBRANCH  34  37
ENDBRANCH  32  33
ENDBRANCH  31  32
ENDBRANCH  30  31
ENDBRANCH   1  30
TORSDOF 19
ENDMDL
