MODEL 1
REMARK VINA RESULT:     -12.2      0.000      0.000
REMARK SMILES CC(=O)O[C@@H]1CC[C@@]23C(=O)O[C@]4(CC[C@]2(O)C1)[C@H]3CC[C@]1(C)[C@H](C(=O)NCCCCCCNC(=O)c2ccc(-c3c5nc(c(-c6ccc(S(=O)(=O)[O-])cc6)c6ccc([nH]6)c(-c6ccc(S(=O)(=O)[O-])cc6)c6nc(c(-c7ccc(S(=O)(=O)[O-])cc7)c7ccc3[nH]7)C=C6)C=C5)cc2)CC[C@@H]14
REMARK SMILES IDX 30 1 29 2 28 3 27 4 26 5 24 6 25 7 23 9 5 10 6 11 17 12 7 13
REMARK SMILES IDX 15 14 8 15 14 16 9 17 18 18 13 19 10 20 11 21 12 22 19 23
REMARK SMILES IDX 98 24 20 25 21 26 97 27 22 28 96 29 4 30 2 31 1 32 3 33
REMARK SMILES IDX 16 34 31 36 32 37 33 38 34 39 35 41 36 42 37 43 95 44 38 45
REMARK SMILES IDX 94 46 39 47 40 48 41 49 88 50 42 51 93 52 87 53 89 54 43 55
REMARK SMILES IDX 92 56 86 57 85 58 44 60 74 61 55 62 73 63 56 64 59 65 72 66
REMARK SMILES IDX 90 67 57 68 58 69 71 71 91 72 60 73 45 74 46 75 54 76 47 77
REMARK SMILES IDX 53 78 48 79 49 80 50 81 51 82 52 83 75 84 76 85 84 86 77 87
REMARK SMILES IDX 83 88 78 89 79 90 80 91 81 92 82 93 61 94 62 95 70 96 63 97
REMARK SMILES IDX 69 98 64 99 65 100 66 101 67 102 68 103
REMARK H PARENT 26 8 16 35 33 40 89 59 59 70
REMARK Flexibility Score: inf
ROOT
ATOM      1  C   UNL A   1      35.716  32.024  27.658  1.00  0.00     0.002 C 
ENDROOT
BRANCH   1   2
ATOM      2  C   UNL A   1      34.511  31.094  27.811  1.00  0.00     0.002 C 
BRANCH   2   3
ATOM      3  C   UNL A   1      34.831  29.614  27.602  1.00  0.00     0.021 C 
BRANCH   3   4
ATOM      4  C   UNL A   1      33.654  28.788  27.055  1.00  0.00     0.116 C 
BRANCH   4   5
ATOM      5  N   UNL A   1      32.602  29.688  26.628  1.00  0.00    -0.356 N 
ATOM      6  C   UNL A   1      31.644  29.602  25.679  1.00  0.00     0.223 C 
ATOM      7  O   UNL A   1      31.117  30.680  25.365  1.00  0.00    -0.275 OA
ATOM      8  H   UNL A   1      32.581  30.534  27.132  1.00  0.00     0.163 HD
BRANCH   6   9
ATOM      9  C   UNL A   1      31.094  28.316  25.054  1.00  0.00     0.085 C 
ATOM     10  C   UNL A   1      34.086  20.981  25.618  1.00  0.00     0.179 C 
ATOM     11  C   UNL A   1      34.104  22.195  26.517  1.00  0.00     0.047 C 
ATOM     12  C   UNL A   1      34.754  21.419  24.298  1.00  0.00     0.081 C 
ATOM     13  C   UNL A   1      33.300  23.293  25.853  1.00  0.00     0.026 C 
ATOM     14  C   UNL A   1      34.198  22.715  23.627  1.00  0.00     0.085 C 
ATOM     15  C   UNL A   1      34.074  23.943  24.470  1.00  0.00     0.103 C 
ATOM     16  C   UNL A   1      32.701  22.522  23.111  1.00  0.00     0.041 C 
ATOM     17  C   UNL A   1      34.239  25.172  25.207  1.00  0.00     0.316 C 
ATOM     18  C   UNL A   1      33.403  25.044  23.238  1.00  0.00     0.054 C 
ATOM     19  C   UNL A   1      31.615  23.651  23.591  1.00  0.00     0.052 C 
ATOM     20  O   UNL A   1      35.157  25.653  25.846  1.00  0.00    -0.251 OA
ATOM     21  O   UNL A   1      32.875  25.552  25.229  1.00  0.00    -0.458 OA
ATOM     22  C   UNL A   1      32.166  25.114  23.995  1.00  0.00     0.120 C 
ATOM     23  C   UNL A   1      33.904  26.466  22.859  1.00  0.00     0.009 C 
ATOM     24  C   UNL A   1      31.086  26.163  23.836  1.00  0.00     0.040 C 
ATOM     25  C   UNL A   1      33.154  27.677  23.478  1.00  0.00     0.008 C 
ATOM     26  C   UNL A   1      31.624  27.625  23.733  1.00  0.00    -0.014 C 
ATOM     27  C   UNL A   1      30.226  26.121  25.132  1.00  0.00     0.009 C 
ATOM     28  C   UNL A   1      30.909  28.320  22.551  1.00  0.00     0.012 C 
ATOM     29  C   UNL A   1      30.794  27.204  26.048  1.00  0.00     0.014 C 
BRANCH  10  30
ATOM     30  O   UNL A   1      32.776  20.422  25.301  1.00  0.00    -0.462 OA
BRANCH  30  31
ATOM     31  C   UNL A   1      32.553  19.104  25.049  1.00  0.00     0.302 C 
ATOM     32  C   UNL A   1      32.493  18.846  23.570  1.00  0.00     0.139 C 
ATOM     33  O   UNL A   1      32.381  18.220  25.873  1.00  0.00    -0.253 OA
ENDBRANCH  30  31
ENDBRANCH  10  30
BRANCH  14  34
ATOM     34  O   UNL A   1      35.053  22.994  22.512  1.00  0.00    -0.389 OA
ATOM     35  H   UNL A   1      35.978  22.971  22.802  1.00  0.00     0.211 HD
ENDBRANCH  14  34
ENDBRANCH   6   9
ENDBRANCH   4   5
ENDBRANCH   3   4
ENDBRANCH   2   3
ENDBRANCH   1   2
BRANCH   1  36
ATOM     36  C   UNL A   1      35.797  33.153  28.690  1.00  0.00     0.021 C 
BRANCH  36  37
ATOM     37  C   UNL A   1      36.741  32.879  29.858  1.00  0.00     0.116 C 
BRANCH  37  38
ATOM     38  N   UNL A   1      36.238  31.814  30.715  1.00  0.00    -0.352 N 
ATOM     39  C   UNL A   1      36.739  30.553  30.909  1.00  0.00     0.251 C 
ATOM     40  H   UNL A   1      35.425  32.031  31.227  1.00  0.00     0.163 HD
ATOM     41  O   UNL A   1      36.059  29.694  31.465  1.00  0.00    -0.269 OA
BRANCH  39  42
ATOM     42  C   UNL A   1      38.102  30.234  30.439  1.00  0.00     0.039 A 
ATOM     43  C   UNL A   1      39.135  30.109  31.370  1.00  0.00     0.014 A 
ATOM     44  C   UNL A   1      38.354  30.065  29.074  1.00  0.00     0.014 A 
ATOM     45  C   UNL A   1      40.415  29.760  30.936  1.00  0.00     0.010 A 
ATOM     46  C   UNL A   1      39.613  29.652  28.651  1.00  0.00     0.010 A 
ATOM     47  C   UNL A   1      40.657  29.501  29.577  1.00  0.00    -0.014 A 
BRANCH  47  48
ATOM     48  C   UNL A   1      41.996  29.080  29.095  1.00  0.00     0.031 A 
ATOM     49  C   UNL A   1      43.113  30.085  29.007  1.00  0.00     0.074 A 
ATOM     50  C   UNL A   1      42.186  27.815  28.671  1.00  0.00     0.049 A 
ATOM     51  N   UNL A   1      44.324  29.932  28.535  1.00  0.00    -0.248 NA
ATOM     52  C   UNL A   1      42.823  31.445  29.488  1.00  0.00     0.031 C 
ATOM     53  C   UNL A   1      41.171  26.758  28.676  1.00  0.00     0.029 A 
ATOM     54  N   UNL A   1      43.296  27.204  28.143  1.00  0.00    -0.354 N 
ATOM     55  C   UNL A   1      44.932  31.177  28.646  1.00  0.00     0.074 A 
ATOM     56  C   UNL A   1      43.942  32.084  29.184  1.00  0.00     0.031 C 
ATOM     57  C   UNL A   1      41.713  25.627  28.198  1.00  0.00     0.029 A 
ATOM     58  C   UNL A   1      43.095  25.886  27.810  1.00  0.00     0.049 A 
ATOM     59  H   UNL A   1      44.155  27.668  28.016  1.00  0.00     0.167 HD
ATOM     60  C   UNL A   1      46.204  31.529  28.344  1.00  0.00     0.031 A 
ATOM     61  C   UNL A   1      43.927  24.989  27.245  1.00  0.00     0.031 A 
ATOM     62  C   UNL A   1      47.186  30.620  27.818  1.00  0.00     0.049 A 
ATOM     63  C   UNL A   1      45.330  25.409  26.900  1.00  0.00     0.074 A 
ATOM     64  C   UNL A   1      48.517  30.864  27.527  1.00  0.00     0.029 A 
ATOM     65  N   UNL A   1      46.946  29.290  27.503  1.00  0.00    -0.354 N 
ATOM     66  N   UNL A   1      45.905  26.576  27.065  1.00  0.00    -0.248 NA
ATOM     67  C   UNL A   1      46.201  24.388  26.300  1.00  0.00     0.031 C 
ATOM     68  C   UNL A   1      49.065  29.698  26.985  1.00  0.00     0.029 A 
ATOM     69  C   UNL A   1      48.095  28.709  26.998  1.00  0.00     0.049 A 
ATOM     70  H   UNL A   1      46.083  28.829  27.622  1.00  0.00     0.167 HD
ATOM     71  C   UNL A   1      47.212  26.422  26.619  1.00  0.00     0.074 A 
ATOM     72  C   UNL A   1      47.347  25.045  26.187  1.00  0.00     0.031 C 
ATOM     73  C   UNL A   1      48.213  27.335  26.576  1.00  0.00     0.031 A 
BRANCH  60  74
ATOM     74  C   UNL A   1      46.602  32.965  28.570  1.00  0.00    -0.014 A 
ATOM     75  C   UNL A   1      47.156  33.384  29.794  1.00  0.00     0.010 A 
ATOM     76  C   UNL A   1      46.455  33.903  27.531  1.00  0.00     0.010 A 
ATOM     77  C   UNL A   1      47.511  34.721  29.990  1.00  0.00     0.020 A 
ATOM     78  C   UNL A   1      46.838  35.235  27.713  1.00  0.00     0.020 A 
ATOM     79  C   UNL A   1      47.347  35.639  28.950  1.00  0.00     0.054 A 
BRANCH  79  80
ATOM     80  S   UNL A   1      47.836  37.364  29.227  1.00  0.00     0.124 S 
ATOM     81  O   UNL A   1      49.277  37.308  28.994  1.00  0.00    -0.237 OA
ATOM     82  O   UNL A   1      47.064  38.081  28.216  1.00  0.00    -0.237 OA
ATOM     83  O   UNL A   1      47.438  37.619  30.609  1.00  0.00    -0.744 OA
ENDBRANCH  79  80
ENDBRANCH  60  74
BRANCH  61  84
ATOM     84  C   UNL A   1      43.456  23.602  26.982  1.00  0.00    -0.014 A 
ATOM     85  C   UNL A   1      43.246  23.157  25.664  1.00  0.00     0.010 A 
ATOM     86  C   UNL A   1      43.227  22.712  28.047  1.00  0.00     0.010 A 
ATOM     87  C   UNL A   1      42.796  21.857  25.418  1.00  0.00     0.020 A 
ATOM     88  C   UNL A   1      42.806  21.402  27.804  1.00  0.00     0.020 A 
ATOM     89  C   UNL A   1      42.580  20.986  26.490  1.00  0.00     0.054 A 
BRANCH  89  90
ATOM     90  S   UNL A   1      42.039  19.290  26.145  1.00  0.00     0.124 S 
ATOM     91  O   UNL A   1      42.413  18.596  27.373  1.00  0.00    -0.237 OA
ATOM     92  O   UNL A   1      40.604  19.455  25.921  1.00  0.00    -0.237 OA
ATOM     93  O   UNL A   1      42.808  18.921  24.957  1.00  0.00    -0.744 OA
ENDBRANCH  89  90
ENDBRANCH  61  84
BRANCH  73  94
ATOM     94  C   UNL A   1      49.558  26.873  26.080  1.00  0.00    -0.014 A 
ATOM     95  C   UNL A   1      49.916  26.986  24.725  1.00  0.00     0.010 A 
ATOM     96  C   UNL A   1      50.502  26.384  27.002  1.00  0.00     0.010 A 
ATOM     97  C   UNL A   1      51.188  26.595  24.297  1.00  0.00     0.020 A 
ATOM     98  C   UNL A   1      51.784  26.019  26.582  1.00  0.00     0.020 A 
ATOM     99  C   UNL A   1      52.114  26.117  25.230  1.00  0.00     0.054 A 
BRANCH  99 100
ATOM    100  S   UNL A   1      53.777  25.673  24.657  1.00  0.00     0.124 S 
ATOM    101  O   UNL A   1      53.715  24.214  24.643  1.00  0.00    -0.237 OA
ATOM    102  O   UNL A   1      53.845  26.311  23.344  1.00  0.00    -0.237 OA
ATOM    103  O   UNL A   1      54.659  26.250  25.669  1.00  0.00    -0.744 OA
ENDBRANCH  99 100
ENDBRANCH  73  94
ENDBRANCH  47  48
ENDBRANCH  39  42
ENDBRANCH  37  38
ENDBRANCH  36  37
ENDBRANCH   1  36
TORSDOF 19
ENDMDL
MODEL 2
REMARK VINA RESULT:     -12.1      0.405      7.706
REMARK SMILES CC(=O)O[C@@H]1CC[C@@]23C(=O)O[C@]4(CC[C@]2(O)C1)[C@H]3CC[C@]1(C)[C@H](C(=O)NCCCCCCNC(=O)c2ccc(-c3c5nc(c(-c6ccc(S(=O)(=O)[O-])cc6)c6ccc([nH]6)c(-c6ccc(S(=O)(=O)[O-])cc6)c6nc(c(-c7ccc(S(=O)(=O)[O-])cc7)c7ccc3[nH]7)C=C6)C=C5)cc2)CC[C@@H]14
REMARK SMILES IDX 30 1 29 2 28 3 27 4 26 5 24 6 25 7 23 9 5 10 6 11 17 12 7 13
REMARK SMILES IDX 15 14 8 15 14 16 9 17 18 18 13 19 10 20 11 21 12 22 19 23
REMARK SMILES IDX 98 24 20 25 21 26 97 27 22 28 96 29 4 30 2 31 1 32 3 33
REMARK SMILES IDX 16 34 31 36 32 37 33 38 34 39 35 41 36 42 37 43 95 44 38 45
REMARK SMILES IDX 94 46 39 47 40 48 41 49 88 50 42 51 93 52 87 53 89 54 43 55
REMARK SMILES IDX 92 56 86 57 85 58 44 60 74 61 55 62 73 63 56 64 59 65 72 66
REMARK SMILES IDX 90 67 57 68 58 69 71 71 91 72 60 73 45 74 46 75 54 76 47 77
REMARK SMILES IDX 53 78 48 79 49 80 50 81 51 82 52 83 75 84 76 85 84 86 77 87
REMARK SMILES IDX 83 88 78 89 79 90 80 91 81 92 82 93 61 94 62 95 70 96 63 97
REMARK SMILES IDX 69 98 64 99 65 100 66 101 67 102 68 103
REMARK H PARENT 26 8 16 35 33 40 89 59 59 70
REMARK Flexibility Score: inf
ROOT
ATOM      1  C   UNL A   1      35.928  31.940  27.882  1.00  0.00     0.002 C 
ENDROOT
BRANCH   1   2
ATOM      2  C   UNL A   1      34.662  31.084  27.809  1.00  0.00     0.002 C 
BRANCH   2   3
ATOM      3  C   UNL A   1      34.925  29.579  27.739  1.00  0.00     0.021 C 
BRANCH   3   4
ATOM      4  C   UNL A   1      33.847  28.787  26.981  1.00  0.00     0.116 C 
BRANCH   4   5
ATOM      5  N   UNL A   1      32.749  29.676  26.656  1.00  0.00    -0.356 N 
ATOM      6  C   UNL A   1      31.731  29.597  25.770  1.00  0.00     0.223 C 
ATOM      7  O   UNL A   1      31.161  30.672  25.529  1.00  0.00    -0.275 OA
ATOM      8  H   UNL A   1      32.743  30.503  27.189  1.00  0.00     0.163 HD
BRANCH   6   9
ATOM      9  C   UNL A   1      31.169  28.320  25.139  1.00  0.00     0.085 C 
ATOM     10  C   UNL A   1      34.116  20.961  25.630  1.00  0.00     0.179 C 
ATOM     11  C   UNL A   1      34.147  22.169  26.539  1.00  0.00     0.047 C 
ATOM     12  C   UNL A   1      34.779  21.405  24.309  1.00  0.00     0.081 C 
ATOM     13  C   UNL A   1      33.347  23.277  25.887  1.00  0.00     0.026 C 
ATOM     14  C   UNL A   1      34.228  22.709  23.651  1.00  0.00     0.085 C 
ATOM     15  C   UNL A   1      34.117  23.932  24.504  1.00  0.00     0.103 C 
ATOM     16  C   UNL A   1      32.726  22.530  23.144  1.00  0.00     0.041 C 
ATOM     17  C   UNL A   1      34.294  25.154  25.249  1.00  0.00     0.316 C 
ATOM     18  C   UNL A   1      33.445  25.046  23.284  1.00  0.00     0.054 C 
ATOM     19  C   UNL A   1      31.651  23.663  23.638  1.00  0.00     0.052 C 
ATOM     20  O   UNL A   1      35.219  25.624  25.886  1.00  0.00    -0.251 OA
ATOM     21  O   UNL A   1      32.933  25.543  25.282  1.00  0.00    -0.458 OA
ATOM     22  C   UNL A   1      32.214  25.118  24.049  1.00  0.00     0.120 C 
ATOM     23  C   UNL A   1      33.953  26.468  22.913  1.00  0.00     0.009 C 
ATOM     24  C   UNL A   1      31.140  26.176  23.905  1.00  0.00     0.040 C 
ATOM     25  C   UNL A   1      33.215  27.679  23.545  1.00  0.00     0.008 C 
ATOM     26  C   UNL A   1      31.686  27.635  23.809  1.00  0.00    -0.014 C 
ATOM     27  C   UNL A   1      30.287  26.130  25.206  1.00  0.00     0.009 C 
ATOM     28  C   UNL A   1      30.970  28.344  22.636  1.00  0.00     0.012 C 
ATOM     29  C   UNL A   1      30.868  27.202  26.126  1.00  0.00     0.014 C 
BRANCH  10  30
ATOM     30  O   UNL A   1      32.801  20.413  25.317  1.00  0.00    -0.462 OA
BRANCH  30  31
ATOM     31  C   UNL A   1      32.564  19.095  25.079  1.00  0.00     0.302 C 
ATOM     32  C   UNL A   1      32.427  18.834  23.606  1.00  0.00     0.139 C 
ATOM     33  O   UNL A   1      32.433  18.213  25.914  1.00  0.00    -0.253 OA
ENDBRANCH  30  31
ENDBRANCH  10  30
BRANCH  14  34
ATOM     34  O   UNL A   1      35.077  22.991  22.534  1.00  0.00    -0.389 OA
ATOM     35  H   UNL A   1      35.470  23.872  22.641  1.00  0.00     0.211 HD
ENDBRANCH  14  34
ENDBRANCH   6   9
ENDBRANCH   4   5
ENDBRANCH   3   4
ENDBRANCH   2   3
ENDBRANCH   1   2
BRANCH   1  36
ATOM     36  C   UNL A   1      35.894  33.058  28.929  1.00  0.00     0.021 C 
BRANCH  36  37
ATOM     37  C   UNL A   1      36.914  32.904  30.055  1.00  0.00     0.116 C 
BRANCH  37  38
ATOM     38  N   UNL A   1      36.482  31.924  31.041  1.00  0.00    -0.352 N 
ATOM     39  C   UNL A   1      36.959  30.658  31.267  1.00  0.00     0.251 C 
ATOM     40  H   UNL A   1      35.743  32.209  31.626  1.00  0.00     0.163 HD
ATOM     41  O   UNL A   1      36.322  29.870  31.960  1.00  0.00    -0.269 OA
BRANCH  39  42
ATOM     42  C   UNL A   1      38.244  30.250  30.666  1.00  0.00     0.039 A 
ATOM     43  C   UNL A   1      38.340  30.119  29.280  1.00  0.00     0.014 A 
ATOM     44  C   UNL A   1      39.352  29.992  31.480  1.00  0.00     0.014 A 
ATOM     45  C   UNL A   1      39.565  29.780  28.703  1.00  0.00     0.010 A 
ATOM     46  C   UNL A   1      40.587  29.722  30.900  1.00  0.00     0.010 A 
ATOM     47  C   UNL A   1      40.704  29.607  29.507  1.00  0.00    -0.014 A 
BRANCH  47  48
ATOM     48  C   UNL A   1      42.030  29.297  28.916  1.00  0.00     0.031 A 
ATOM     49  C   UNL A   1      42.322  27.908  28.415  1.00  0.00     0.074 A 
ATOM     50  C   UNL A   1      42.990  30.242  28.896  1.00  0.00     0.049 A 
ATOM     51  N   UNL A   1      43.441  27.420  27.944  1.00  0.00    -0.248 NA
ATOM     52  C   UNL A   1      41.220  26.935  28.473  1.00  0.00     0.031 C 
ATOM     53  C   UNL A   1      42.838  31.615  29.383  1.00  0.00     0.029 A 
ATOM     54  N   UNL A   1      44.290  30.188  28.457  1.00  0.00    -0.354 N 
ATOM     55  C   UNL A   1      43.183  26.083  27.669  1.00  0.00     0.074 A 
ATOM     56  C   UNL A   1      41.818  25.824  28.070  1.00  0.00     0.031 C 
ATOM     57  C   UNL A   1      43.990  32.278  29.195  1.00  0.00     0.029 A 
ATOM     58  C   UNL A   1      44.975  31.369  28.618  1.00  0.00     0.049 A 
ATOM     59  H   UNL A   1      44.692  29.380  28.065  1.00  0.00     0.167 HD
ATOM     60  C   UNL A   1      44.003  25.157  27.116  1.00  0.00     0.031 A 
ATOM     61  C   UNL A   1      46.257  31.682  28.343  1.00  0.00     0.031 A 
ATOM     62  C   UNL A   1      45.357  25.423  26.711  1.00  0.00     0.049 A 
ATOM     63  C   UNL A   1      47.155  30.632  27.747  1.00  0.00     0.074 A 
ATOM     64  C   UNL A   1      46.255  24.568  26.094  1.00  0.00     0.029 A 
ATOM     65  N   UNL A   1      46.012  26.634  26.882  1.00  0.00    -0.354 N 
ATOM     66  N   UNL A   1      46.876  29.388  27.440  1.00  0.00    -0.248 NA
ATOM     67  C   UNL A   1      48.538  31.030  27.451  1.00  0.00     0.031 C 
ATOM     68  C   UNL A   1      47.468  25.246  25.943  1.00  0.00     0.029 A 
ATOM     69  C   UNL A   1      47.308  26.543  26.406  1.00  0.00     0.049 A 
ATOM     70  H   UNL A   1      45.612  27.440  27.284  1.00  0.00     0.167 HD
ATOM     71  C   UNL A   1      48.039  28.864  26.888  1.00  0.00     0.074 A 
ATOM     72  C   UNL A   1      49.021  29.929  26.892  1.00  0.00     0.031 C 
ATOM     73  C   UNL A   1      48.271  27.615  26.415  1.00  0.00     0.031 A 
BRANCH  60  74
ATOM     74  C   UNL A   1      43.455  23.766  26.925  1.00  0.00    -0.014 A 
ATOM     75  C   UNL A   1      43.045  23.312  25.658  1.00  0.00     0.010 A 
ATOM     76  C   UNL A   1      43.385  22.887  28.021  1.00  0.00     0.010 A 
ATOM     77  C   UNL A   1      42.531  22.022  25.499  1.00  0.00     0.020 A 
ATOM     78  C   UNL A   1      42.900  21.585  27.861  1.00  0.00     0.020 A 
ATOM     79  C   UNL A   1      42.459  21.168  26.603  1.00  0.00     0.054 A 
BRANCH  79  80
ATOM     80  S   UNL A   1      41.806  19.492  26.363  1.00  0.00     0.124 S 
ATOM     81  O   UNL A   1      42.250  18.821  27.582  1.00  0.00    -0.237 OA
ATOM     82  O   UNL A   1      40.368  19.721  26.260  1.00  0.00    -0.237 OA
ATOM     83  O   UNL A   1      42.452  19.040  25.134  1.00  0.00    -0.744 OA
ENDBRANCH  79  80
ENDBRANCH  60  74
BRANCH  61  84
ATOM     84  C   UNL A   1      46.762  33.056  28.617  1.00  0.00    -0.014 A 
ATOM     85  C   UNL A   1      46.688  34.054  27.629  1.00  0.00     0.010 A 
ATOM     86  C   UNL A   1      47.310  33.377  29.872  1.00  0.00     0.010 A 
ATOM     87  C   UNL A   1      47.170  35.341  27.885  1.00  0.00     0.020 A 
ATOM     88  C   UNL A   1      47.766  34.670  30.141  1.00  0.00     0.020 A 
ATOM     89  C   UNL A   1      47.705  35.641  29.140  1.00  0.00     0.054 A 
BRANCH  89  90
ATOM     90  S   UNL A   1      48.285  37.330  29.463  1.00  0.00     0.124 S 
ATOM     91  O   UNL A   1      49.375  37.465  28.502  1.00  0.00    -0.237 OA
ATOM     92  O   UNL A   1      47.094  38.130  29.188  1.00  0.00    -0.237 OA
ATOM     93  O   UNL A   1      48.689  37.289  30.868  1.00  0.00    -0.744 OA
ENDBRANCH  89  90
ENDBRANCH  61  84
BRANCH  73  94
ATOM     94  C   UNL A   1      49.628  27.335  25.823  1.00  0.00    -0.014 A 
ATOM     95  C   UNL A   1      50.690  26.869  26.619  1.00  0.00     0.010 A 
ATOM     96  C   UNL A   1      49.819  27.475  24.436  1.00  0.00     0.010 A 
ATOM     97  C   UNL A   1      51.926  26.570  26.038  1.00  0.00     0.020 A 
ATOM     98  C   UNL A   1      51.044  27.149  23.849  1.00  0.00     0.020 A 
ATOM     99  C   UNL A   1      52.093  26.710  24.657  1.00  0.00     0.054 A 
BRANCH  99 100
ATOM    100  S   UNL A   1      53.689  26.257  23.922  1.00  0.00     0.124 S 
ATOM    101  O   UNL A   1      53.323  26.003  22.531  1.00  0.00    -0.237 OA
ATOM    102  O   UNL A   1      54.498  27.452  24.150  1.00  0.00    -0.237 OA
ATOM    103  O   UNL A   1      54.100  25.080  24.684  1.00  0.00    -0.744 OA
ENDBRANCH  99 100
ENDBRANCH  73  94
ENDBRANCH  47  48
ENDBRANCH  39  42
ENDBRANCH  37  38
ENDBRANCH  36  37
ENDBRANCH   1  36
TORSDOF 19
ENDMDL
MODEL 3
REMARK VINA RESULT:     -12.0      5.882     11.684
REMARK SMILES CC(=O)O[C@@H]1CC[C@@]23C(=O)O[C@]4(CC[C@]2(O)C1)[C@H]3CC[C@]1(C)[C@H](C(=O)NCCCCCCNC(=O)c2ccc(-c3c5nc(c(-c6ccc(S(=O)(=O)[O-])cc6)c6ccc([nH]6)c(-c6ccc(S(=O)(=O)[O-])cc6)c6nc(c(-c7ccc(S(=O)(=O)[O-])cc7)c7ccc3[nH]7)C=C6)C=C5)cc2)CC[C@@H]14
REMARK SMILES IDX 30 1 29 2 28 3 27 4 26 5 24 6 25 7 23 9 5 10 6 11 17 12 7 13
REMARK SMILES IDX 15 14 8 15 14 16 9 17 18 18 13 19 10 20 11 21 12 22 19 23
REMARK SMILES IDX 98 24 20 25 21 26 97 27 22 28 96 29 4 30 2 31 1 32 3 33
REMARK SMILES IDX 16 34 31 36 32 37 33 38 34 39 35 41 36 42 37 43 95 44 38 45
REMARK SMILES IDX 94 46 39 47 40 48 41 49 88 50 42 51 93 52 87 53 89 54 43 55
REMARK SMILES IDX 92 56 86 57 85 58 44 60 74 61 55 62 73 63 56 64 59 65 72 66
REMARK SMILES IDX 90 67 57 68 58 69 71 71 91 72 60 73 45 74 46 75 54 76 47 77
REMARK SMILES IDX 53 78 48 79 49 80 50 81 51 82 52 83 75 84 76 85 84 86 77 87
REMARK SMILES IDX 83 88 78 89 79 90 80 91 81 92 82 93 61 94 62 95 70 96 63 97
REMARK SMILES IDX 69 98 64 99 65 100 66 101 67 102 68 103
REMARK H PARENT 26 8 16 35 33 40 89 59 59 70
REMARK Flexibility Score: inf
ROOT
ATOM      1  C   UNL A   1      40.150  22.029  26.348  1.00  0.00     0.002 C 
ENDROOT
BRANCH   1   2
ATOM      2  C   UNL A   1      38.678  22.359  26.600  1.00  0.00     0.002 C 
BRANCH   2   3
ATOM      3  C   UNL A   1      38.169  23.579  25.832  1.00  0.00     0.021 C 
BRANCH   3   4
ATOM      4  C   UNL A   1      36.884  23.322  25.026  1.00  0.00     0.116 C 
BRANCH   4   5
ATOM      5  N   UNL A   1      36.700  21.893  24.873  1.00  0.00    -0.356 N 
ATOM      6  C   UNL A   1      35.604  21.116  24.720  1.00  0.00     0.223 C 
ATOM      7  O   UNL A   1      35.782  19.908  24.942  1.00  0.00    -0.275 OA
ATOM      8  H   UNL A   1      37.543  21.385  24.881  1.00  0.00     0.163 HD
BRANCH   6   9
ATOM      9  C   UNL A   1      34.232  21.567  24.211  1.00  0.00     0.085 C 
ATOM     10  C   UNL A   1      31.498  28.993  23.550  1.00  0.00     0.179 C 
ATOM     11  C   UNL A   1      32.873  28.370  23.482  1.00  0.00     0.047 C 
ATOM     12  C   UNL A   1      30.943  28.650  24.949  1.00  0.00     0.081 C 
ATOM     13  C   UNL A   1      32.725  26.871  23.643  1.00  0.00     0.026 C 
ATOM     14  C   UNL A   1      30.980  27.146  25.367  1.00  0.00     0.085 C 
ATOM     15  C   UNL A   1      32.274  26.411  25.230  1.00  0.00     0.103 C 
ATOM     16  C   UNL A   1      30.004  26.256  24.472  1.00  0.00     0.041 C 
ATOM     17  C   UNL A   1      33.579  25.813  25.369  1.00  0.00     0.316 C 
ATOM     18  C   UNL A   1      31.735  24.814  25.811  1.00  0.00     0.054 C 
ATOM     19  C   UNL A   1      30.662  24.920  23.787  1.00  0.00     0.052 C 
ATOM     20  O   UNL A   1      34.627  26.186  25.864  1.00  0.00    -0.251 OA
ATOM     21  O   UNL A   1      33.379  24.736  24.472  1.00  0.00    -0.458 OA
ATOM     22  C   UNL A   1      31.964  24.270  24.485  1.00  0.00     0.120 C 
ATOM     23  C   UNL A   1      32.400  23.923  26.899  1.00  0.00     0.009 C 
ATOM     24  C   UNL A   1      32.090  22.802  24.136  1.00  0.00     0.040 C 
ATOM     25  C   UNL A   1      33.316  22.766  26.415  1.00  0.00     0.008 C 
ATOM     26  C   UNL A   1      33.000  21.989  25.109  1.00  0.00    -0.014 C 
ATOM     27  C   UNL A   1      32.788  22.729  22.747  1.00  0.00     0.009 C 
ATOM     28  C   UNL A   1      32.258  20.685  25.488  1.00  0.00     0.012 C 
ATOM     29  C   UNL A   1      34.276  22.531  23.035  1.00  0.00     0.014 C 
BRANCH  10  30
ATOM     30  O   UNL A   1      30.529  28.548  22.555  1.00  0.00    -0.462 OA
BRANCH  30  31
ATOM     31  C   UNL A   1      29.477  29.299  22.129  1.00  0.00     0.302 C 
ATOM     32  C   UNL A   1      28.245  28.997  22.935  1.00  0.00     0.139 C 
ATOM     33  O   UNL A   1      29.472  30.094  21.202  1.00  0.00    -0.253 OA
ENDBRANCH  30  31
ENDBRANCH  10  30
BRANCH  14  34
ATOM     34  O   UNL A   1      30.551  27.094  26.733  1.00  0.00    -0.389 OA
ATOM     35  H   UNL A   1      31.233  27.489  27.299  1.00  0.00     0.211 HD
ENDBRANCH  14  34
ENDBRANCH   6   9
ENDBRANCH   4   5
ENDBRANCH   3   4
ENDBRANCH   2   3
ENDBRANCH   1   2
BRANCH   1  36
ATOM     36  C   UNL A   1      41.053  22.111  27.583  1.00  0.00     0.021 C 
BRANCH  36  37
ATOM     37  C   UNL A   1      42.141  23.179  27.505  1.00  0.00     0.116 C 
BRANCH  37  38
ATOM     38  N   UNL A   1      42.030  23.969  26.286  1.00  0.00    -0.352 N 
ATOM     39  C   UNL A   1      41.614  25.267  26.132  1.00  0.00     0.251 C 
ATOM     40  H   UNL A   1      42.289  23.506  25.457  1.00  0.00     0.163 HD
ATOM     41  O   UNL A   1      41.337  25.702  25.019  1.00  0.00    -0.269 OA
BRANCH  39  42
ATOM     42  C   UNL A   1      41.499  26.136  27.321  1.00  0.00     0.039 A 
ATOM     43  C   UNL A   1      42.476  27.105  27.556  1.00  0.00     0.014 A 
ATOM     44  C   UNL A   1      40.425  25.984  28.203  1.00  0.00     0.014 A 
ATOM     45  C   UNL A   1      42.347  27.962  28.651  1.00  0.00     0.010 A 
ATOM     46  C   UNL A   1      40.263  26.881  29.254  1.00  0.00     0.010 A 
ATOM     47  C   UNL A   1      41.225  27.874  29.492  1.00  0.00    -0.014 A 
BRANCH  47  48
ATOM     48  C   UNL A   1      41.037  28.804  30.633  1.00  0.00     0.031 A 
ATOM     49  C   UNL A   1      41.895  28.668  31.862  1.00  0.00     0.074 A 
ATOM     50  C   UNL A   1      40.052  29.722  30.591  1.00  0.00     0.049 A 
ATOM     51  N   UNL A   1      41.829  29.326  32.990  1.00  0.00    -0.248 NA
ATOM     52  C   UNL A   1      42.948  27.640  31.827  1.00  0.00     0.031 C 
ATOM     53  C   UNL A   1      39.133  29.929  29.469  1.00  0.00     0.029 A 
ATOM     54  N   UNL A   1      39.649  30.647  31.523  1.00  0.00    -0.354 N 
ATOM     55  C   UNL A   1      42.816  28.782  33.803  1.00  0.00     0.074 A 
ATOM     56  C   UNL A   1      43.433  27.707  33.057  1.00  0.00     0.031 C 
ATOM     57  C   UNL A   1      38.292  30.932  29.768  1.00  0.00     0.029 A 
ATOM     58  C   UNL A   1      38.580  31.409  31.117  1.00  0.00     0.049 A 
ATOM     59  H   UNL A   1      40.087  30.753  32.398  1.00  0.00     0.167 HD
ATOM     60  C   UNL A   1      43.187  29.153  35.052  1.00  0.00     0.031 A 
ATOM     61  C   UNL A   1      37.898  32.375  31.763  1.00  0.00     0.031 A 
ATOM     62  C   UNL A   1      42.575  30.228  35.786  1.00  0.00     0.049 A 
ATOM     63  C   UNL A   1      38.315  32.757  33.157  1.00  0.00     0.074 A 
ATOM     64  C   UNL A   1      42.910  30.718  37.036  1.00  0.00     0.029 A 
ATOM     65  N   UNL A   1      41.499  30.982  35.336  1.00  0.00    -0.354 N 
ATOM     66  N   UNL A   1      39.289  32.269  33.889  1.00  0.00    -0.248 NA
ATOM     67  C   UNL A   1      37.549  33.827  33.811  1.00  0.00     0.031 C 
ATOM     68  C   UNL A   1      42.003  31.730  37.365  1.00  0.00     0.029 A 
ATOM     69  C   UNL A   1      41.143  31.915  36.294  1.00  0.00     0.049 A 
ATOM     70  H   UNL A   1      41.055  30.868  34.464  1.00  0.00     0.167 HD
ATOM     71  C   UNL A   1      39.271  32.993  35.076  1.00  0.00     0.074 A 
ATOM     72  C   UNL A   1      38.198  33.960  34.960  1.00  0.00     0.031 C 
ATOM     73  C   UNL A   1      40.074  32.872  36.161  1.00  0.00     0.031 A 
BRANCH  60  74
ATOM     74  C   UNL A   1      44.304  28.382  35.706  1.00  0.00    -0.014 A 
ATOM     75  C   UNL A   1      45.645  28.784  35.567  1.00  0.00     0.010 A 
ATOM     76  C   UNL A   1      44.006  27.260  36.502  1.00  0.00     0.010 A 
ATOM     77  C   UNL A   1      46.670  28.052  36.172  1.00  0.00     0.020 A 
ATOM     78  C   UNL A   1      45.026  26.544  37.135  1.00  0.00     0.020 A 
ATOM     79  C   UNL A   1      46.355  26.935  36.950  1.00  0.00     0.054 A 
BRANCH  79  80
ATOM     80  S   UNL A   1      47.705  26.016  37.740  1.00  0.00     0.124 S 
ATOM     81  O   UNL A   1      48.437  25.506  36.584  1.00  0.00    -0.237 OA
ATOM     82  O   UNL A   1      48.389  27.052  38.510  1.00  0.00    -0.237 OA
ATOM     83  O   UNL A   1      47.016  25.004  38.536  1.00  0.00    -0.744 OA
ENDBRANCH  79  80
ENDBRANCH  60  74
BRANCH  61  84
ATOM     84  C   UNL A   1      36.757  33.056  31.092  1.00  0.00    -0.014 A 
ATOM     85  C   UNL A   1      36.980  33.914  30.001  1.00  0.00     0.010 A 
ATOM     86  C   UNL A   1      35.438  32.841  31.533  1.00  0.00     0.010 A 
ATOM     87  C   UNL A   1      35.909  34.560  29.376  1.00  0.00     0.020 A 
ATOM     88  C   UNL A   1      34.362  33.461  30.892  1.00  0.00     0.020 A 
ATOM     89  C   UNL A   1      34.606  34.328  29.825  1.00  0.00     0.054 A 
BRANCH  89  90
ATOM     90  S   UNL A   1      33.228  35.143  28.972  1.00  0.00     0.124 S 
ATOM     91  O   UNL A   1      32.318  35.435  30.075  1.00  0.00    -0.237 OA
ATOM     92  O   UNL A   1      33.876  36.301  28.360  1.00  0.00    -0.237 OA
ATOM     93  O   UNL A   1      32.764  34.128  28.028  1.00  0.00    -0.744 OA
ENDBRANCH  89  90
ENDBRANCH  61  84
BRANCH  73  94
ATOM     94  C   UNL A   1      39.854  33.832  37.300  1.00  0.00    -0.014 A 
ATOM     95  C   UNL A   1      40.435  35.113  37.299  1.00  0.00     0.010 A 
ATOM     96  C   UNL A   1      38.995  33.469  38.354  1.00  0.00     0.010 A 
ATOM     97  C   UNL A   1      40.178  36.005  38.344  1.00  0.00     0.020 A 
ATOM     98  C   UNL A   1      38.713  34.368  39.386  1.00  0.00     0.020 A 
ATOM     99  C   UNL A   1      39.316  35.627  39.379  1.00  0.00     0.054 A 
BRANCH  99 100
ATOM    100  S   UNL A   1      38.952  36.825  40.691  1.00  0.00     0.124 S 
ATOM    101  O   UNL A   1      38.114  36.041  41.596  1.00  0.00    -0.237 OA
ATOM    102  O   UNL A   1      40.281  37.159  41.198  1.00  0.00    -0.237 OA
ATOM    103  O   UNL A   1      38.268  37.910  39.991  1.00  0.00    -0.744 OA
ENDBRANCH  99 100
ENDBRANCH  73  94
ENDBRANCH  47  48
ENDBRANCH  39  42
ENDBRANCH  37  38
ENDBRANCH  36  37
ENDBRANCH   1  36
TORSDOF 19
ENDMDL
