MODEL 1
REMARK VINA RESULT:     -11.6      0.000      0.000
REMARK SMILES O=C(NCCCCCCNC(=O)c1ccc(-c2c3nc(c(-c4ccc(S(=O)(=O)[O-])cc4)c4ccc([nH]4)c(-c4ccc(S(=O)(=O)[O-])cc4)c4nc(c(-c5ccc(S(=O)(=O)[O-])cc5)c5ccc2[nH]5)C=C4)C=C3)cc1)c1ccc(N[C@H]2OC[C@@H](O)[C@@H](O)[C@H]2O)cc1
REMARK SMILES IDX 6 1 5 2 4 3 3 4 1 5 2 6 73 8 74 9 88 10 75 11 87 12 76 13
REMARK SMILES IDX 77 14 78 16 79 17 85 18 80 19 83 20 81 21 86 22 84 24 82 26
REMARK SMILES IDX 7 28 8 29 9 30 10 31 11 32 12 34 13 35 14 36 72 37 15 38
REMARK SMILES IDX 71 39 16 40 17 41 18 42 65 43 19 44 70 45 64 46 66 47 20 48
REMARK SMILES IDX 69 49 63 50 62 51 21 53 51 54 32 55 50 56 33 57 36 58 49 59
REMARK SMILES IDX 67 60 34 61 35 62 48 64 68 65 37 66 22 67 23 68 31 69 24 70
REMARK SMILES IDX 30 71 25 72 26 73 27 74 28 75 29 76 52 77 53 78 61 79 54 80
REMARK SMILES IDX 60 81 55 82 56 83 57 84 58 85 59 86 38 87 39 88 47 89 40 90
REMARK SMILES IDX 46 91 41 92 42 93 43 94 44 95 45 96
REMARK H PARENT 3 7 77 15 86 23 84 25 82 27 10 33 66 52 36 63
REMARK Flexibility Score: inf
ROOT
ATOM      1  C   UNL A   1      34.957  23.350  26.506  1.00  0.00     0.002 C 
ENDROOT
BRANCH   1   2
ATOM      2  C   UNL A   1      35.005  21.857  26.843  1.00  0.00     0.021 C 
BRANCH   2   3
ATOM      3  C   UNL A   1      33.689  21.261  27.334  1.00  0.00     0.116 C 
BRANCH   3   4
ATOM      4  N   UNL A   1      33.262  20.131  26.523  1.00  0.00    -0.352 N 
ATOM      5  O   UNL A   1      32.148  19.111  24.837  1.00  0.00    -0.269 OA
ATOM      6  C   UNL A   1      32.591  20.146  25.325  1.00  0.00     0.251 C 
ATOM      7  H   UNL A   1      33.483  19.240  26.879  1.00  0.00     0.163 HD
BRANCH   6   8
ATOM      8  C   UNL A   1      32.396  21.434  24.631  1.00  0.00     0.039 A 
ATOM      9  C   UNL A   1      33.186  21.760  23.531  1.00  0.00     0.016 A 
ATOM     10  C   UNL A   1      31.420  22.321  25.079  1.00  0.00     0.016 A 
ATOM     11  C   UNL A   1      33.058  23.016  22.938  1.00  0.00     0.026 A 
ATOM     12  C   UNL A   1      31.291  23.572  24.463  1.00  0.00     0.026 A 
ATOM     13  C   UNL A   1      32.134  23.958  23.408  1.00  0.00     0.036 A 
BRANCH  13  14
ATOM     14  N   UNL A   1      31.963  25.209  22.829  1.00  0.00    -0.358 N 
ATOM     15  H   UNL A   1      32.267  25.346  21.903  1.00  0.00     0.163 HD
BRANCH  14  16
ATOM     16  C   UNL A   1      31.352  26.327  23.536  1.00  0.00     0.244 C 
ATOM     17  O   UNL A   1      32.244  26.758  24.568  1.00  0.00    -0.353 OA
ATOM     18  C   UNL A   1      31.162  27.508  22.556  1.00  0.00     0.195 C 
ATOM     19  C   UNL A   1      31.685  27.793  25.384  1.00  0.00     0.197 C 
ATOM     20  C   UNL A   1      30.563  28.694  23.327  1.00  0.00     0.178 C 
ATOM     21  C   UNL A   1      31.418  29.051  24.555  1.00  0.00     0.171 C 
BRANCH  18  22
ATOM     22  O   UNL A   1      32.449  27.887  22.004  1.00  0.00    -0.386 OA
ATOM     23  H   UNL A   1      32.690  28.771  22.321  1.00  0.00     0.211 HD
ENDBRANCH  18  22
BRANCH  20  24
ATOM     24  O   UNL A   1      30.449  29.830  22.467  1.00  0.00    -0.387 OA
ATOM     25  H   UNL A   1      31.198  29.847  21.850  1.00  0.00     0.211 HD
ENDBRANCH  20  24
BRANCH  21  26
ATOM     26  O   UNL A   1      32.666  29.621  24.129  1.00  0.00    -0.388 OA
ATOM     27  H   UNL A   1      33.397  29.056  24.422  1.00  0.00     0.211 HD
ENDBRANCH  21  26
ENDBRANCH  14  16
ENDBRANCH  13  14
ENDBRANCH   6   8
ENDBRANCH   3   4
ENDBRANCH   2   3
ENDBRANCH   1   2
BRANCH   1  28
ATOM     28  C   UNL A   1      35.957  23.820  25.446  1.00  0.00     0.002 C 
BRANCH  28  29
ATOM     29  C   UNL A   1      37.387  23.294  25.600  1.00  0.00     0.021 C 
BRANCH  29  30
ATOM     30  C   UNL A   1      38.305  24.138  26.480  1.00  0.00     0.116 C 
BRANCH  30  31
ATOM     31  N   UNL A   1      39.707  23.999  26.124  1.00  0.00    -0.352 N 
ATOM     32  C   UNL A   1      40.785  24.757  26.511  1.00  0.00     0.251 C 
ATOM     33  H   UNL A   1      39.914  23.253  25.516  1.00  0.00     0.163 HD
ATOM     34  O   UNL A   1      41.880  24.571  25.987  1.00  0.00    -0.269 OA
BRANCH  32  35
ATOM     35  C   UNL A   1      40.626  25.815  27.534  1.00  0.00     0.039 A 
ATOM     36  C   UNL A   1      39.653  25.651  28.524  1.00  0.00     0.014 A 
ATOM     37  C   UNL A   1      41.418  26.966  27.516  1.00  0.00     0.014 A 
ATOM     38  C   UNL A   1      39.516  26.611  29.530  1.00  0.00     0.010 A 
ATOM     39  C   UNL A   1      41.322  27.892  28.555  1.00  0.00     0.010 A 
ATOM     40  C   UNL A   1      40.372  27.723  29.573  1.00  0.00    -0.014 A 
BRANCH  40  41
ATOM     41  C   UNL A   1      40.293  28.714  30.679  1.00  0.00     0.031 A 
ATOM     42  C   UNL A   1      41.176  28.575  31.890  1.00  0.00     0.074 A 
ATOM     43  C   UNL A   1      39.379  29.704  30.622  1.00  0.00     0.049 A 
ATOM     44  N   UNL A   1      41.205  29.304  32.976  1.00  0.00    -0.248 NA
ATOM     45  C   UNL A   1      42.136  27.460  31.890  1.00  0.00     0.031 C 
ATOM     46  C   UNL A   1      38.439  29.930  29.521  1.00  0.00     0.029 A 
ATOM     47  N   UNL A   1      39.085  30.704  31.516  1.00  0.00    -0.354 N 
ATOM     48  C   UNL A   1      42.164  28.723  33.798  1.00  0.00     0.074 A 
ATOM     49  C   UNL A   1      42.670  27.562  33.099  1.00  0.00     0.031 C 
ATOM     50  C   UNL A   1      37.693  31.013  29.793  1.00  0.00     0.029 A 
ATOM     51  C   UNL A   1      38.072  31.536  31.102  1.00  0.00     0.049 A 
ATOM     52  H   UNL A   1      39.556  30.814  32.373  1.00  0.00     0.167 HD
ATOM     53  C   UNL A   1      42.595  29.127  35.017  1.00  0.00     0.031 A 
ATOM     54  C   UNL A   1      37.506  32.598  31.708  1.00  0.00     0.031 A 
ATOM     55  C   UNL A   1      42.111  30.298  35.700  1.00  0.00     0.049 A 
ATOM     56  C   UNL A   1      38.003  33.026  33.062  1.00  0.00     0.074 A 
ATOM     57  C   UNL A   1      42.539  30.828  36.904  1.00  0.00     0.029 A 
ATOM     58  N   UNL A   1      41.093  31.118  35.241  1.00  0.00    -0.354 N 
ATOM     59  N   UNL A   1      38.959  32.501  33.790  1.00  0.00    -0.248 NA
ATOM     60  C   UNL A   1      37.351  34.194  33.669  1.00  0.00     0.031 C 
ATOM     61  C   UNL A   1      41.748  31.944  37.197  1.00  0.00     0.029 A 
ATOM     62  C   UNL A   1      40.861  32.136  36.150  1.00  0.00     0.049 A 
ATOM     63  H   UNL A   1      40.606  30.995  34.395  1.00  0.00     0.167 HD
ATOM     64  C   UNL A   1      39.043  33.294  34.930  1.00  0.00     0.074 A 
ATOM     65  C   UNL A   1      38.049  34.338  34.789  1.00  0.00     0.031 C 
ATOM     66  C   UNL A   1      39.871  33.171  35.995  1.00  0.00     0.031 A 
BRANCH  53  67
ATOM     67  C   UNL A   1      43.644  28.291  35.701  1.00  0.00    -0.014 A 
ATOM     68  C   UNL A   1      45.011  28.598  35.584  1.00  0.00     0.010 A 
ATOM     69  C   UNL A   1      43.250  27.214  36.518  1.00  0.00     0.010 A 
ATOM     70  C   UNL A   1      45.968  27.822  36.243  1.00  0.00     0.020 A 
ATOM     71  C   UNL A   1      44.204  26.452  37.198  1.00  0.00     0.020 A 
ATOM     72  C   UNL A   1      45.558  26.752  37.044  1.00  0.00     0.054 A 
BRANCH  72  73
ATOM     73  S   UNL A   1      46.821  25.779  37.911  1.00  0.00     0.124 S 
ATOM     74  O   UNL A   1      47.110  24.728  36.939  1.00  0.00    -0.237 OA
ATOM     75  O   UNL A   1      47.889  26.753  38.120  1.00  0.00    -0.237 OA
ATOM     76  O   UNL A   1      46.141  25.334  39.125  1.00  0.00    -0.744 OA
ENDBRANCH  72  73
ENDBRANCH  53  67
BRANCH  54  77
ATOM     77  C   UNL A   1      36.411  33.347  31.033  1.00  0.00    -0.014 A 
ATOM     78  C   UNL A   1      35.184  33.553  31.688  1.00  0.00     0.010 A 
ATOM     79  C   UNL A   1      36.588  33.853  29.733  1.00  0.00     0.010 A 
ATOM     80  C   UNL A   1      34.144  34.230  31.045  1.00  0.00     0.020 A 
ATOM     81  C   UNL A   1      35.559  34.553  29.096  1.00  0.00     0.020 A 
ATOM     82  C   UNL A   1      34.338  34.724  29.752  1.00  0.00     0.054 A 
BRANCH  82  83
ATOM     83  S   UNL A   1      32.990  35.635  28.949  1.00  0.00     0.124 S 
ATOM     84  O   UNL A   1      32.157  36.009  30.088  1.00  0.00    -0.237 OA
ATOM     85  O   UNL A   1      33.695  36.733  28.293  1.00  0.00    -0.237 OA
ATOM     86  O   UNL A   1      32.408  34.649  28.042  1.00  0.00    -0.744 OA
ENDBRANCH  82  83
ENDBRANCH  54  77
BRANCH  66  87
ATOM     87  C   UNL A   1      39.767  34.210  37.078  1.00  0.00    -0.014 A 
ATOM     88  C   UNL A   1      40.293  35.502  36.901  1.00  0.00     0.010 A 
ATOM     89  C   UNL A   1      39.086  33.902  38.271  1.00  0.00     0.010 A 
ATOM     90  C   UNL A   1      40.165  36.460  37.911  1.00  0.00     0.020 A 
ATOM     91  C   UNL A   1      38.934  34.865  39.271  1.00  0.00     0.020 A 
ATOM     92  C   UNL A   1      39.487  36.135  39.090  1.00  0.00     0.054 A 
BRANCH  92  93
ATOM     93  S   UNL A   1      39.294  37.407  40.368  1.00  0.00     0.124 S 
ATOM     94  O   UNL A   1      38.531  36.698  41.390  1.00  0.00    -0.237 OA
ATOM     95  O   UNL A   1      40.677  37.720  40.722  1.00  0.00    -0.237 OA
ATOM     96  O   UNL A   1      38.576  38.479  39.684  1.00  0.00    -0.744 OA
ENDBRANCH  92  93
ENDBRANCH  66  87
ENDBRANCH  40  41
ENDBRANCH  32  35
ENDBRANCH  30  31
ENDBRANCH  29  30
ENDBRANCH  28  29
ENDBRANCH   1  28
TORSDOF 21
ENDMDL
MODEL 2
REMARK VINA RESULT:     -11.5      6.466     12.350
REMARK SMILES O=C(NCCCCCCNC(=O)c1ccc(-c2c3nc(c(-c4ccc(S(=O)(=O)[O-])cc4)c4ccc([nH]4)c(-c4ccc(S(=O)(=O)[O-])cc4)c4nc(c(-c5ccc(S(=O)(=O)[O-])cc5)c5ccc2[nH]5)C=C4)C=C3)cc1)c1ccc(N[C@H]2OC[C@@H](O)[C@@H](O)[C@H]2O)cc1
REMARK SMILES IDX 6 1 5 2 4 3 3 4 1 5 2 6 73 8 74 9 88 10 75 11 87 12 76 13
REMARK SMILES IDX 77 14 78 16 79 17 85 18 80 19 83 20 81 21 86 22 84 24 82 26
REMARK SMILES IDX 7 28 8 29 9 30 10 31 11 32 12 34 13 35 14 36 72 37 15 38
REMARK SMILES IDX 71 39 16 40 17 41 18 42 65 43 19 44 70 45 64 46 66 47 20 48
REMARK SMILES IDX 69 49 63 50 62 51 21 53 51 54 32 55 50 56 33 57 36 58 49 59
REMARK SMILES IDX 67 60 34 61 35 62 48 64 68 65 37 66 22 67 23 68 31 69 24 70
REMARK SMILES IDX 30 71 25 72 26 73 27 74 28 75 29 76 52 77 53 78 61 79 54 80
REMARK SMILES IDX 60 81 55 82 56 83 57 84 58 85 59 86 38 87 39 88 47 89 40 90
REMARK SMILES IDX 46 91 41 92 42 93 43 94 44 95 45 96
REMARK H PARENT 3 7 77 15 86 23 84 25 82 27 10 33 66 52 36 63
REMARK Flexibility Score: inf
ROOT
ATOM      1  C   UNL A   1      32.199  27.827  26.665  1.00  0.00     0.002 C 
ENDROOT
BRANCH   1   2
ATOM      2  C   UNL A   1      31.447  27.891  25.333  1.00  0.00     0.021 C 
BRANCH   2   3
ATOM      3  C   UNL A   1      31.504  26.617  24.495  1.00  0.00     0.116 C 
BRANCH   3   4
ATOM      4  N   UNL A   1      32.236  26.809  23.252  1.00  0.00    -0.352 N 
ATOM      5  O   UNL A   1      33.871  26.397  21.741  1.00  0.00    -0.269 OA
ATOM      6  C   UNL A   1      33.225  26.022  22.715  1.00  0.00     0.251 C 
ATOM      7  H   UNL A   1      31.991  27.605  22.729  1.00  0.00     0.163 HD
BRANCH   6   8
ATOM      8  C   UNL A   1      33.514  24.714  23.335  1.00  0.00     0.039 A 
ATOM      9  C   UNL A   1      32.880  23.565  22.867  1.00  0.00     0.016 A 
ATOM     10  C   UNL A   1      34.422  24.632  24.388  1.00  0.00     0.016 A 
ATOM     11  C   UNL A   1      33.089  22.349  23.516  1.00  0.00     0.026 A 
ATOM     12  C   UNL A   1      34.635  23.401  25.020  1.00  0.00     0.026 A 
ATOM     13  C   UNL A   1      33.943  22.245  24.622  1.00  0.00     0.036 A 
BRANCH  13  14
ATOM     14  N   UNL A   1      34.192  21.048  25.280  1.00  0.00    -0.358 N 
ATOM     15  H   UNL A   1      34.504  21.078  26.214  1.00  0.00     0.163 HD
BRANCH  14  16
ATOM     16  C   UNL A   1      34.010  19.748  24.647  1.00  0.00     0.244 C 
ATOM     17  O   UNL A   1      35.152  18.936  24.933  1.00  0.00    -0.353 OA
ATOM     18  C   UNL A   1      32.773  19.051  25.259  1.00  0.00     0.195 C 
ATOM     19  C   UNL A   1      35.110  17.670  24.268  1.00  0.00     0.197 C 
ATOM     20  C   UNL A   1      32.624  17.663  24.618  1.00  0.00     0.178 C 
ATOM     21  C   UNL A   1      33.917  16.843  24.754  1.00  0.00     0.171 C 
BRANCH  18  22
ATOM     22  O   UNL A   1      32.962  18.907  26.691  1.00  0.00    -0.386 OA
ATOM     23  H   UNL A   1      32.263  19.389  27.159  1.00  0.00     0.211 HD
ENDBRANCH  18  22
BRANCH  20  24
ATOM     24  O   UNL A   1      31.535  16.960  25.219  1.00  0.00    -0.387 OA
ATOM     25  H   UNL A   1      31.580  17.056  26.184  1.00  0.00     0.211 HD
ENDBRANCH  20  24
BRANCH  21  26
ATOM     26  O   UNL A   1      34.115  16.473  26.128  1.00  0.00    -0.388 OA
ATOM     27  H   UNL A   1      34.074  15.508  26.213  1.00  0.00     0.211 HD
ENDBRANCH  21  26
ENDBRANCH  14  16
ENDBRANCH  13  14
ENDBRANCH   6   8
ENDBRANCH   3   4
ENDBRANCH   2   3
ENDBRANCH   1   2
BRANCH   1  28
ATOM     28  C   UNL A   1      33.704  28.101  26.588  1.00  0.00     0.002 C 
BRANCH  28  29
ATOM     29  C   UNL A   1      34.152  29.487  27.059  1.00  0.00     0.021 C 
BRANCH  29  30
ATOM     30  C   UNL A   1      35.518  29.540  27.739  1.00  0.00     0.116 C 
BRANCH  30  31
ATOM     31  N   UNL A   1      35.426  29.819  29.161  1.00  0.00    -0.352 N 
ATOM     32  C   UNL A   1      36.403  29.767  30.126  1.00  0.00     0.251 C 
ATOM     33  H   UNL A   1      34.534  30.084  29.481  1.00  0.00     0.163 HD
ATOM     34  O   UNL A   1      36.099  29.899  31.308  1.00  0.00    -0.269 OA
BRANCH  32  35
ATOM     35  C   UNL A   1      37.813  29.524  29.748  1.00  0.00     0.039 A 
ATOM     36  C   UNL A   1      38.708  29.093  30.731  1.00  0.00     0.014 A 
ATOM     37  C   UNL A   1      38.259  29.730  28.439  1.00  0.00     0.014 A 
ATOM     38  C   UNL A   1      40.033  28.808  30.389  1.00  0.00     0.010 A 
ATOM     39  C   UNL A   1      39.564  29.387  28.087  1.00  0.00     0.010 A 
ATOM     40  C   UNL A   1      40.464  28.921  29.058  1.00  0.00    -0.014 A 
BRANCH  40  41
ATOM     41  C   UNL A   1      41.848  28.549  28.661  1.00  0.00     0.031 A 
ATOM     42  C   UNL A   1      42.931  29.593  28.610  1.00  0.00     0.074 A 
ATOM     43  C   UNL A   1      42.115  27.283  28.284  1.00  0.00     0.049 A 
ATOM     44  N   UNL A   1      44.177  29.469  28.229  1.00  0.00    -0.248 NA
ATOM     45  C   UNL A   1      42.561  30.958  29.018  1.00  0.00     0.031 C 
ATOM     46  C   UNL A   1      41.147  26.183  28.256  1.00  0.00     0.029 A 
ATOM     47  N   UNL A   1      43.281  26.706  27.846  1.00  0.00    -0.354 N 
ATOM     48  C   UNL A   1      44.732  30.740  28.327  1.00  0.00     0.074 A 
ATOM     49  C   UNL A   1      43.679  31.627  28.770  1.00  0.00     0.031 C 
ATOM     50  C   UNL A   1      41.765  25.062  27.849  1.00  0.00     0.029 A 
ATOM     51  C   UNL A   1      43.160  25.368  27.549  1.00  0.00     0.049 A 
ATOM     52  H   UNL A   1      44.125  27.203  27.752  1.00  0.00     0.167 HD
ATOM     53  C   UNL A   1      46.006  31.131  28.084  1.00  0.00     0.031 A 
ATOM     54  C   UNL A   1      44.067  24.487  27.084  1.00  0.00     0.031 A 
ATOM     55  C   UNL A   1      47.060  30.243  27.670  1.00  0.00     0.049 A 
ATOM     56  C   UNL A   1      45.475  24.948  26.822  1.00  0.00     0.074 A 
ATOM     57  C   UNL A   1      48.399  30.533  27.471  1.00  0.00     0.029 A 
ATOM     58  N   UNL A   1      46.897  28.896  27.391  1.00  0.00    -0.354 N 
ATOM     59  N   UNL A   1      45.995  26.140  26.987  1.00  0.00    -0.248 NA
ATOM     60  C   UNL A   1      46.420  23.940  26.320  1.00  0.00     0.031 C 
ATOM     61  C   UNL A   1      49.037  29.371  27.026  1.00  0.00     0.029 A 
ATOM     62  C   UNL A   1      48.105  28.345  26.997  1.00  0.00     0.049 A 
ATOM     63  H   UNL A   1      46.049  28.402  27.463  1.00  0.00     0.167 HD
ATOM     64  C   UNL A   1      47.335  26.019  26.637  1.00  0.00     0.074 A 
ATOM     65  C   UNL A   1      47.548  24.636  26.262  1.00  0.00     0.031 C 
ATOM     66  C   UNL A   1      48.304  26.967  26.631  1.00  0.00     0.031 A 
BRANCH  53  67
ATOM     67  C   UNL A   1      46.334  32.591  28.254  1.00  0.00    -0.014 A 
ATOM     68  C   UNL A   1      46.490  33.436  27.141  1.00  0.00     0.010 A 
ATOM     69  C   UNL A   1      46.433  33.135  29.548  1.00  0.00     0.010 A 
ATOM     70  C   UNL A   1      46.774  34.792  27.319  1.00  0.00     0.020 A 
ATOM     71  C   UNL A   1      46.691  34.496  29.729  1.00  0.00     0.020 A 
ATOM     72  C   UNL A   1      46.876  35.313  28.613  1.00  0.00     0.054 A 
BRANCH  72  73
ATOM     73  S   UNL A   1      47.216  37.085  28.814  1.00  0.00     0.124 S 
ATOM     74  O   UNL A   1      48.603  37.176  28.364  1.00  0.00    -0.237 OA
ATOM     75  O   UNL A   1      46.228  37.704  27.935  1.00  0.00    -0.237 OA
ATOM     76  O   UNL A   1      47.008  37.316  30.242  1.00  0.00    -0.744 OA
ENDBRANCH  72  73
ENDBRANCH  53  67
BRANCH  54  77
ATOM     77  C   UNL A   1      43.678  23.070  26.848  1.00  0.00    -0.014 A 
ATOM     78  C   UNL A   1      43.908  22.470  25.597  1.00  0.00     0.010 A 
ATOM     79  C   UNL A   1      43.072  22.317  27.869  1.00  0.00     0.010 A 
ATOM     80  C   UNL A   1      43.517  21.148  25.364  1.00  0.00     0.020 A 
ATOM     81  C   UNL A   1      42.703  20.987  27.648  1.00  0.00     0.020 A 
ATOM     82  C   UNL A   1      42.915  20.416  26.391  1.00  0.00     0.054 A 
BRANCH  82  83
ATOM     83  S   UNL A   1      42.451  18.689  26.082  1.00  0.00     0.124 S 
ATOM     84  O   UNL A   1      42.666  18.079  27.390  1.00  0.00    -0.237 OA
ATOM     85  O   UNL A   1      41.058  18.807  25.659  1.00  0.00    -0.237 OA
ATOM     86  O   UNL A   1      43.378  18.271  25.033  1.00  0.00    -0.744 OA
ENDBRANCH  82  83
ENDBRANCH  54  77
BRANCH  66  87
ATOM     87  C   UNL A   1      49.692  26.537  26.242  1.00  0.00    -0.014 A 
ATOM     88  C   UNL A   1      50.174  26.727  24.936  1.00  0.00     0.010 A 
ATOM     89  C   UNL A   1      50.543  25.982  27.216  1.00  0.00     0.010 A 
ATOM     90  C   UNL A   1      51.476  26.343  24.601  1.00  0.00     0.020 A 
ATOM     91  C   UNL A   1      51.853  25.620  26.891  1.00  0.00     0.020 A 
ATOM     92  C   UNL A   1      52.307  25.791  25.581  1.00  0.00     0.054 A 
BRANCH  92  93
ATOM     93  S   UNL A   1      54.006  25.341  25.136  1.00  0.00     0.124 S 
ATOM     94  O   UNL A   1      54.257  26.202  23.985  1.00  0.00    -0.237 OA
ATOM     95  O   UNL A   1      54.754  25.675  26.346  1.00  0.00    -0.237 OA
ATOM     96  O   UNL A   1      53.920  23.913  24.840  1.00  0.00    -0.744 OA
ENDBRANCH  92  93
ENDBRANCH  66  87
ENDBRANCH  40  41
ENDBRANCH  32  35
ENDBRANCH  30  31
ENDBRANCH  29  30
ENDBRANCH  28  29
ENDBRANCH   1  28
TORSDOF 21
ENDMDL
MODEL 3
REMARK VINA RESULT:     -11.4      0.592      8.118
REMARK SMILES O=C(NCCCCCCNC(=O)c1ccc(-c2c3nc(c(-c4ccc(S(=O)(=O)[O-])cc4)c4ccc([nH]4)c(-c4ccc(S(=O)(=O)[O-])cc4)c4nc(c(-c5ccc(S(=O)(=O)[O-])cc5)c5ccc2[nH]5)C=C4)C=C3)cc1)c1ccc(N[C@H]2OC[C@@H](O)[C@@H](O)[C@H]2O)cc1
REMARK SMILES IDX 6 1 5 2 4 3 3 4 1 5 2 6 73 8 74 9 88 10 75 11 87 12 76 13
REMARK SMILES IDX 77 14 78 16 79 17 85 18 80 19 83 20 81 21 86 22 84 24 82 26
REMARK SMILES IDX 7 28 8 29 9 30 10 31 11 32 12 34 13 35 14 36 72 37 15 38
REMARK SMILES IDX 71 39 16 40 17 41 18 42 65 43 19 44 70 45 64 46 66 47 20 48
REMARK SMILES IDX 69 49 63 50 62 51 21 53 51 54 32 55 50 56 33 57 36 58 49 59
REMARK SMILES IDX 67 60 34 61 35 62 48 64 68 65 37 66 22 67 23 68 31 69 24 70
REMARK SMILES IDX 30 71 25 72 26 73 27 74 28 75 29 76 52 77 53 78 61 79 54 80
REMARK SMILES IDX 60 81 55 82 56 83 57 84 58 85 59 86 38 87 39 88 47 89 40 90
REMARK SMILES IDX 46 91 41 92 42 93 43 94 44 95 45 96
REMARK H PARENT 3 7 77 15 86 23 84 25 82 27 10 33 66 52 36 63
REMARK Flexibility Score: inf
ROOT
ATOM      1  C   UNL A   1      34.917  23.539  26.337  1.00  0.00     0.002 C 
ENDROOT
BRANCH   1   2
ATOM      2  C   UNL A   1      35.023  22.097  26.842  1.00  0.00     0.021 C 
BRANCH   2   3
ATOM      3  C   UNL A   1      33.717  21.490  27.347  1.00  0.00     0.116 C 
BRANCH   3   4
ATOM      4  N   UNL A   1      33.319  20.324  26.574  1.00  0.00    -0.352 N 
ATOM      5  O   UNL A   1      32.205  19.216  24.943  1.00  0.00    -0.269 OA
ATOM      6  C   UNL A   1      32.614  20.281  25.396  1.00  0.00     0.251 C 
ATOM      7  H   UNL A   1      33.590  19.452  26.942  1.00  0.00     0.163 HD
BRANCH   6   8
ATOM      8  C   UNL A   1      32.340  21.543  24.681  1.00  0.00     0.039 A 
ATOM      9  C   UNL A   1      31.308  22.375  25.106  1.00  0.00     0.016 A 
ATOM     10  C   UNL A   1      33.118  21.899  23.581  1.00  0.00     0.016 A 
ATOM     11  C   UNL A   1      30.997  23.519  24.372  1.00  0.00     0.026 A 
ATOM     12  C   UNL A   1      32.805  23.059  22.863  1.00  0.00     0.026 A 
ATOM     13  C   UNL A   1      31.715  23.869  23.221  1.00  0.00     0.036 A 
BRANCH  13  14
ATOM     14  N   UNL A   1      31.448  25.011  22.476  1.00  0.00    -0.358 N 
ATOM     15  H   UNL A   1      31.579  24.980  21.501  1.00  0.00     0.163 HD
BRANCH  14  16
ATOM     16  C   UNL A   1      30.982  26.253  23.079  1.00  0.00     0.244 C 
ATOM     17  O   UNL A   1      31.812  26.555  24.204  1.00  0.00    -0.353 OA
ATOM     18  C   UNL A   1      31.137  27.405  22.059  1.00  0.00     0.195 C 
ATOM     19  C   UNL A   1      31.369  27.710  24.924  1.00  0.00     0.197 C 
ATOM     20  C   UNL A   1      30.688  28.715  22.726  1.00  0.00     0.178 C 
ATOM     21  C   UNL A   1      31.445  28.959  24.042  1.00  0.00     0.171 C 
BRANCH  18  22
ATOM     22  O   UNL A   1      32.529  27.513  21.663  1.00  0.00    -0.386 OA
ATOM     23  H   UNL A   1      32.588  27.980  20.816  1.00  0.00     0.211 HD
ENDBRANCH  18  22
BRANCH  20  24
ATOM     24  O   UNL A   1      30.893  29.813  21.835  1.00  0.00    -0.387 OA
ATOM     25  H   UNL A   1      31.800  30.147  21.935  1.00  0.00     0.211 HD
ENDBRANCH  20  24
BRANCH  21  26
ATOM     26  O   UNL A   1      32.820  29.268  23.762  1.00  0.00    -0.388 OA
ATOM     27  H   UNL A   1      32.864  30.007  23.136  1.00  0.00     0.211 HD
ENDBRANCH  21  26
ENDBRANCH  14  16
ENDBRANCH  13  14
ENDBRANCH   6   8
ENDBRANCH   3   4
ENDBRANCH   2   3
ENDBRANCH   1   2
BRANCH   1  28
ATOM     28  C   UNL A   1      36.085  24.025  25.475  1.00  0.00     0.002 C 
BRANCH  28  29
ATOM     29  C   UNL A   1      37.454  23.427  25.812  1.00  0.00     0.021 C 
BRANCH  29  30
ATOM     30  C   UNL A   1      38.402  24.348  26.576  1.00  0.00     0.116 C 
BRANCH  30  31
ATOM     31  N   UNL A   1      39.609  24.655  25.829  1.00  0.00    -0.352 N 
ATOM     32  C   UNL A   1      40.581  25.591  26.088  1.00  0.00     0.251 C 
ATOM     33  H   UNL A   1      39.752  24.114  25.021  1.00  0.00     0.163 HD
ATOM     34  O   UNL A   1      41.461  25.801  25.257  1.00  0.00    -0.269 OA
BRANCH  32  35
ATOM     35  C   UNL A   1      40.555  26.365  27.349  1.00  0.00     0.039 A 
ATOM     36  C   UNL A   1      41.422  27.453  27.489  1.00  0.00     0.014 A 
ATOM     37  C   UNL A   1      39.694  26.019  28.395  1.00  0.00     0.014 A 
ATOM     38  C   UNL A   1      41.382  28.230  28.649  1.00  0.00     0.010 A 
ATOM     39  C   UNL A   1      39.612  26.831  29.525  1.00  0.00     0.010 A 
ATOM     40  C   UNL A   1      40.454  27.946  29.663  1.00  0.00    -0.014 A 
BRANCH  40  41
ATOM     41  C   UNL A   1      40.344  28.808  30.871  1.00  0.00     0.031 A 
ATOM     42  C   UNL A   1      39.327  29.917  30.923  1.00  0.00     0.074 A 
ATOM     43  C   UNL A   1      41.203  28.633  31.894  1.00  0.00     0.049 A 
ATOM     44  N   UNL A   1      39.127  30.806  31.862  1.00  0.00    -0.248 NA
ATOM     45  C   UNL A   1      38.436  30.059  29.761  1.00  0.00     0.031 C 
ATOM     46  C   UNL A   1      42.258  27.617  31.954  1.00  0.00     0.029 A 
ATOM     47  N   UNL A   1      41.331  29.309  33.082  1.00  0.00    -0.354 N 
ATOM     48  C   UNL A   1      38.106  31.627  31.396  1.00  0.00     0.074 A 
ATOM     49  C   UNL A   1      37.753  31.151  30.076  1.00  0.00     0.031 C 
ATOM     50  C   UNL A   1      42.906  27.721  33.126  1.00  0.00     0.029 A 
ATOM     51  C   UNL A   1      42.342  28.834  33.884  1.00  0.00     0.049 A 
ATOM     52  H   UNL A   1      40.754  30.066  33.335  1.00  0.00     0.167 HD
ATOM     53  C   UNL A   1      37.508  32.673  32.016  1.00  0.00     0.031 A 
ATOM     54  C   UNL A   1      42.771  29.248  35.092  1.00  0.00     0.031 A 
ATOM     55  C   UNL A   1      37.841  33.128  33.339  1.00  0.00     0.049 A 
ATOM     56  C   UNL A   1      42.090  30.412  35.758  1.00  0.00     0.074 A 
ATOM     57  C   UNL A   1      37.241  34.132  34.079  1.00  0.00     0.029 A 
ATOM     58  N   UNL A   1      38.863  32.613  34.121  1.00  0.00    -0.354 N 
ATOM     59  N   UNL A   1      41.081  31.131  35.327  1.00  0.00    -0.248 NA
ATOM     60  C   UNL A   1      42.599  30.814  37.076  1.00  0.00     0.031 C 
ATOM     61  C   UNL A   1      37.930  34.255  35.290  1.00  0.00     0.029 A 
ATOM     62  C   UNL A   1      38.927  33.294  35.324  1.00  0.00     0.049 A 
ATOM     63  H   UNL A   1      39.456  31.871  33.859  1.00  0.00     0.167 HD
ATOM     64  C   UNL A   1      40.816  32.052  36.335  1.00  0.00     0.074 A 
ATOM     65  C   UNL A   1      41.763  31.791  37.400  1.00  0.00     0.031 C 
ATOM     66  C   UNL A   1      39.872  33.022  36.377  1.00  0.00     0.031 A 
BRANCH  53  67
ATOM     67  C   UNL A   1      36.430  33.407  31.264  1.00  0.00    -0.014 A 
ATOM     68  C   UNL A   1      36.696  34.032  30.033  1.00  0.00     0.010 A 
ATOM     69  C   UNL A   1      35.117  33.423  31.772  1.00  0.00     0.010 A 
ATOM     70  C   UNL A   1      35.677  34.691  29.340  1.00  0.00     0.020 A 
ATOM     71  C   UNL A   1      34.090  34.059  31.068  1.00  0.00     0.020 A 
ATOM     72  C   UNL A   1      34.381  34.703  29.864  1.00  0.00     0.054 A 
BRANCH  72  73
ATOM     73  S   UNL A   1      33.071  35.541  28.929  1.00  0.00     0.124 S 
ATOM     74  O   UNL A   1      32.473  34.430  28.190  1.00  0.00    -0.237 OA
ATOM     75  O   UNL A   1      32.239  36.114  29.984  1.00  0.00    -0.237 OA
ATOM     76  O   UNL A   1      33.796  36.512  28.113  1.00  0.00    -0.744 OA
ENDBRANCH  72  73
ENDBRANCH  53  67
BRANCH  54  77
ATOM     77  C   UNL A   1      43.899  28.547  35.764  1.00  0.00    -0.014 A 
ATOM     78  C   UNL A   1      43.648  27.468  36.632  1.00  0.00     0.010 A 
ATOM     79  C   UNL A   1      45.226  28.956  35.546  1.00  0.00     0.010 A 
ATOM     80  C   UNL A   1      44.703  26.827  37.287  1.00  0.00     0.020 A 
ATOM     81  C   UNL A   1      46.286  28.301  36.180  1.00  0.00     0.020 A 
ATOM     82  C   UNL A   1      46.016  27.249  37.058  1.00  0.00     0.054 A 
BRANCH  82  83
ATOM     83  S   UNL A   1      47.375  26.379  37.887  1.00  0.00     0.124 S 
ATOM     84  O   UNL A   1      46.853  26.223  39.241  1.00  0.00    -0.237 OA
ATOM     85  O   UNL A   1      47.488  25.150  37.106  1.00  0.00    -0.237 OA
ATOM     86  O   UNL A   1      48.501  27.300  37.750  1.00  0.00    -0.744 OA
ENDBRANCH  82  83
ENDBRANCH  54  77
BRANCH  66  87
ATOM     87  C   UNL A   1      39.786  33.853  37.628  1.00  0.00    -0.014 A 
ATOM     88  C   UNL A   1      40.525  35.041  37.765  1.00  0.00     0.010 A 
ATOM     89  C   UNL A   1      38.912  33.464  38.660  1.00  0.00     0.010 A 
ATOM     90  C   UNL A   1      40.413  35.812  38.925  1.00  0.00     0.020 A 
ATOM     91  C   UNL A   1      38.778  34.245  39.810  1.00  0.00     0.020 A 
ATOM     92  C   UNL A   1      39.541  35.408  39.942  1.00  0.00     0.054 A 
BRANCH  92  93
ATOM     93  S   UNL A   1      39.378  36.447  41.419  1.00  0.00     0.124 S 
ATOM     94  O   UNL A   1      40.617  36.157  42.133  1.00  0.00    -0.237 OA
ATOM     95  O   UNL A   1      39.277  37.792  40.857  1.00  0.00    -0.237 OA
ATOM     96  O   UNL A   1      38.159  35.954  42.057  1.00  0.00    -0.744 OA
ENDBRANCH  92  93
ENDBRANCH  66  87
ENDBRANCH  40  41
ENDBRANCH  32  35
ENDBRANCH  30  31
ENDBRANCH  29  30
ENDBRANCH  28  29
ENDBRANCH   1  28
TORSDOF 21
ENDMDL
