MODEL 1
REMARK VINA RESULT:     -10.6      0.000      0.000
REMARK SMILES COc1ccc(C(=O)N[C@H](C(=O)NCCCCCCNC(=O)c2ccc(-c3c4nc(c(-c5ccc(S(=O)(=O)[O-])cc5)c5ccc([nH]5)c(-c5ccc(S(=O)(=O)[O-])cc5)c5nc(c(-c6ccc(S(=O)(=O)[O-])cc6)c6ccc3[nH]6)C=C5)C=C4)cc2)C2=C(C)N=N[C@H]2C)c(F)c1F
REMARK SMILES IDX 16 1 15 2 14 3 13 4 11 5 12 6 10 8 9 9 7 10 8 11 6 13 3 14
REMARK SMILES IDX 4 15 92 16 5 17 90 18 93 19 91 20 2 21 1 22 83 23 84 24
REMARK SMILES IDX 88 25 85 26 86 27 87 28 89 29 17 30 18 31 19 32 20 33 21 34
REMARK SMILES IDX 22 36 23 37 24 38 82 39 25 40 81 41 26 42 27 43 28 44 75 45
REMARK SMILES IDX 29 46 80 47 74 48 76 49 30 50 79 51 73 52 72 53 31 55 61 56
REMARK SMILES IDX 42 57 60 58 43 59 46 60 59 61 77 62 44 63 45 64 58 66 78 67
REMARK SMILES IDX 47 68 32 69 33 70 41 71 34 72 40 73 35 74 36 75 37 76 38 77
REMARK SMILES IDX 39 78 62 79 63 80 71 81 64 82 70 83 65 84 66 85 67 86 68 87
REMARK SMILES IDX 69 88 48 89 49 90 57 91 50 92 56 93 51 94 52 95 53 96 54 97
REMARK SMILES IDX 55 98
REMARK H PARENT 13 7 9 12 20 35 76 54 46 65
REMARK Flexibility Score: inf
ROOT
ATOM      1  C   UNL A   1      34.522  31.162  27.857  1.00  0.00     0.002 C 
ENDROOT
BRANCH   1   2
ATOM      2  C   UNL A   1      35.247  29.823  27.682  1.00  0.00     0.021 C 
BRANCH   2   3
ATOM      3  C   UNL A   1      34.444  28.737  26.963  1.00  0.00     0.116 C 
BRANCH   3   4
ATOM      4  N   UNL A   1      33.097  28.628  27.499  1.00  0.00    -0.354 N 
ATOM      5  C   UNL A   1      32.141  27.668  27.340  1.00  0.00     0.247 C 
ATOM      6  O   UNL A   1      31.038  27.886  27.861  1.00  0.00    -0.272 OA
ATOM      7  H   UNL A   1      32.828  29.379  28.077  1.00  0.00     0.163 HD
BRANCH   5   8
ATOM      8  C   UNL A   1      32.397  26.354  26.522  1.00  0.00     0.202 C 
BRANCH   8   9
ATOM      9  N   UNL A   1      31.222  25.541  26.864  1.00  0.00    -0.336 N 
ATOM     10  C   UNL A   1      30.892  24.219  26.797  1.00  0.00     0.255 C 
ATOM     11  O   UNL A   1      29.804  23.862  27.251  1.00  0.00    -0.269 OA
ATOM     12  H   UNL A   1      30.490  26.086  27.234  1.00  0.00     0.165 HD
BRANCH  10  13
ATOM     13  C   UNL A   1      31.701  23.205  26.099  1.00  0.00     0.078 A 
ATOM     14  C   UNL A   1      33.355  21.261  24.938  1.00  0.00     0.157 A 
ATOM     15  C   UNL A   1      33.555  21.625  26.268  1.00  0.00     0.050 A 
ATOM     16  C   UNL A   1      32.375  21.912  24.184  1.00  0.00     0.201 A 
ATOM     17  C   UNL A   1      32.731  22.594  26.844  1.00  0.00     0.021 A 
ATOM     18  C   UNL A   1      31.560  22.885  24.756  1.00  0.00     0.175 A 
ATOM     19  F   UNL A   1      32.211  21.598  22.890  1.00  0.00    -0.200 F 
ATOM     20  F   UNL A   1      30.686  23.538  23.976  1.00  0.00    -0.203 F 
BRANCH  14  21
ATOM     21  O   UNL A   1      34.159  20.351  24.308  1.00  0.00    -0.494 OA
ATOM     22  C   UNL A   1      33.825  19.001  24.630  1.00  0.00     0.278 C 
ENDBRANCH  14  21
ENDBRANCH  10  13
ENDBRANCH   8   9
BRANCH   8  23
ATOM     23  C   UNL A   1      32.498  26.586  25.039  1.00  0.00     0.011 C 
ATOM     24  C   UNL A   1      33.316  26.136  24.073  1.00  0.00     0.064 C 
ATOM     25  C   UNL A   1      31.646  27.603  24.334  1.00  0.00     0.156 C 
ATOM     26  C   UNL A   1      34.387  25.108  24.085  1.00  0.00     0.069 C 
ATOM     27  N   UNL A   1      33.146  26.796  22.881  1.00  0.00    -0.160 NA
ATOM     28  N   UNL A   1      32.259  27.674  22.984  1.00  0.00    -0.181 NA
ATOM     29  C   UNL A   1      30.188  27.189  24.132  1.00  0.00     0.040 C 
ENDBRANCH   8  23
ENDBRANCH   5   8
ENDBRANCH   3   4
ENDBRANCH   2   3
ENDBRANCH   1   2
BRANCH   1  30
ATOM     30  C   UNL A   1      35.436  32.391  27.858  1.00  0.00     0.002 C 
BRANCH  30  31
ATOM     31  C   UNL A   1      34.728  33.750  27.783  1.00  0.00     0.021 C 
BRANCH  31  32
ATOM     32  C   UNL A   1      33.218  33.716  28.010  1.00  0.00     0.116 C 
BRANCH  32  33
ATOM     33  N   UNL A   1      32.779  34.800  28.874  1.00  0.00    -0.352 N 
ATOM     34  C   UNL A   1      33.175  35.077  30.158  1.00  0.00     0.251 C 
ATOM     35  H   UNL A   1      32.113  35.414  28.489  1.00  0.00     0.163 HD
ATOM     36  O   UNL A   1      32.540  35.876  30.847  1.00  0.00    -0.269 OA
BRANCH  34  37
ATOM     37  C   UNL A   1      34.365  34.401  30.713  1.00  0.00     0.039 A 
ATOM     38  C   UNL A   1      35.630  34.949  30.497  1.00  0.00     0.014 A 
ATOM     39  C   UNL A   1      34.222  33.221  31.452  1.00  0.00     0.014 A 
ATOM     40  C   UNL A   1      36.752  34.343  31.066  1.00  0.00     0.010 A 
ATOM     41  C   UNL A   1      35.335  32.650  32.064  1.00  0.00     0.010 A 
ATOM     42  C   UNL A   1      36.612  33.201  31.873  1.00  0.00    -0.014 A 
BRANCH  42  43
ATOM     43  C   UNL A   1      37.788  32.566  32.520  1.00  0.00     0.031 A 
ATOM     44  C   UNL A   1      38.481  31.407  31.855  1.00  0.00     0.074 A 
ATOM     45  C   UNL A   1      38.194  32.988  33.734  1.00  0.00     0.049 A 
ATOM     46  N   UNL A   1      39.484  30.688  32.288  1.00  0.00    -0.248 NA
ATOM     47  C   UNL A   1      37.964  30.989  30.542  1.00  0.00     0.031 C 
ATOM     48  C   UNL A   1      37.582  34.076  34.500  1.00  0.00     0.029 A 
ATOM     49  N   UNL A   1      39.214  32.547  34.540  1.00  0.00    -0.354 N 
ATOM     50  C   UNL A   1      39.707  29.724  31.311  1.00  0.00     0.074 A 
ATOM     51  C   UNL A   1      38.706  29.922  30.286  1.00  0.00     0.031 C 
ATOM     52  C   UNL A   1      38.251  34.231  35.655  1.00  0.00     0.029 A 
ATOM     53  C   UNL A   1      39.314  33.232  35.727  1.00  0.00     0.049 A 
ATOM     54  H   UNL A   1      39.816  31.809  34.291  1.00  0.00     0.167 HD
ATOM     55  C   UNL A   1      40.669  28.770  31.263  1.00  0.00     0.031 A 
ATOM     56  C   UNL A   1      40.162  33.073  36.762  1.00  0.00     0.031 A 
ATOM     57  C   UNL A   1      41.670  28.582  32.278  1.00  0.00     0.049 A 
ATOM     58  C   UNL A   1      41.219  32.005  36.690  1.00  0.00     0.074 A 
ATOM     59  C   UNL A   1      42.721  27.681  32.295  1.00  0.00     0.029 A 
ATOM     60  N   UNL A   1      41.745  29.305  33.460  1.00  0.00    -0.354 N 
ATOM     61  N   UNL A   1      41.453  31.145  35.727  1.00  0.00    -0.248 NA
ATOM     62  C   UNL A   1      42.132  31.893  37.836  1.00  0.00     0.031 C 
ATOM     63  C   UNL A   1      43.404  27.828  33.507  1.00  0.00     0.029 A 
ATOM     64  C   UNL A   1      42.810  28.857  34.222  1.00  0.00     0.049 A 
ATOM     65  H   UNL A   1      41.132  30.030  33.717  1.00  0.00     0.167 HD
ATOM     66  C   UNL A   1      42.556  30.406  36.141  1.00  0.00     0.074 A 
ATOM     67  C   UNL A   1      42.949  30.930  37.435  1.00  0.00     0.031 C 
ATOM     68  C   UNL A   1      43.187  29.387  35.508  1.00  0.00     0.031 A 
BRANCH  55  69
ATOM     69  C   UNL A   1      40.677  27.853  30.069  1.00  0.00    -0.014 A 
ATOM     70  C   UNL A   1      39.660  26.899  29.880  1.00  0.00     0.010 A 
ATOM     71  C   UNL A   1      41.695  27.966  29.104  1.00  0.00     0.010 A 
ATOM     72  C   UNL A   1      39.686  26.044  28.775  1.00  0.00     0.020 A 
ATOM     73  C   UNL A   1      41.709  27.131  27.983  1.00  0.00     0.020 A 
ATOM     74  C   UNL A   1      40.715  26.162  27.836  1.00  0.00     0.054 A 
BRANCH  74  75
ATOM     75  S   UNL A   1      40.717  25.049  26.404  1.00  0.00     0.124 S 
ATOM     76  O   UNL A   1      41.110  25.951  25.323  1.00  0.00    -0.237 OA
ATOM     77  O   UNL A   1      41.712  24.047  26.777  1.00  0.00    -0.237 OA
ATOM     78  O   UNL A   1      39.341  24.563  26.339  1.00  0.00    -0.744 OA
ENDBRANCH  74  75
ENDBRANCH  55  69
BRANCH  56  79
ATOM     79  C   UNL A   1      40.056  33.961  37.952  1.00  0.00    -0.014 A 
ATOM     80  C   UNL A   1      40.857  35.112  38.055  1.00  0.00     0.010 A 
ATOM     81  C   UNL A   1      39.139  33.671  38.979  1.00  0.00     0.010 A 
ATOM     82  C   UNL A   1      40.753  35.949  39.170  1.00  0.00     0.020 A 
ATOM     83  C   UNL A   1      39.015  34.520  40.083  1.00  0.00     0.020 A 
ATOM     84  C   UNL A   1      39.831  35.649  40.175  1.00  0.00     0.054 A 
BRANCH  84  85
ATOM     85  S   UNL A   1      39.670  36.782  41.585  1.00  0.00     0.124 S 
ATOM     86  O   UNL A   1      38.902  37.878  41.007  1.00  0.00    -0.237 OA
ATOM     87  O   UNL A   1      38.965  35.963  42.569  1.00  0.00    -0.237 OA
ATOM     88  O   UNL A   1      41.055  37.096  41.927  1.00  0.00    -0.744 OA
ENDBRANCH  84  85
ENDBRANCH  56  79
BRANCH  68  89
ATOM     89  C   UNL A   1      44.389  28.787  36.187  1.00  0.00    -0.014 A 
ATOM     90  C   UNL A   1      45.674  29.329  36.003  1.00  0.00     0.010 A 
ATOM     91  C   UNL A   1      44.220  27.703  37.067  1.00  0.00     0.010 A 
ATOM     92  C   UNL A   1      46.772  28.778  36.668  1.00  0.00     0.020 A 
ATOM     93  C   UNL A   1      45.312  27.167  37.753  1.00  0.00     0.020 A 
ATOM     94  C   UNL A   1      46.585  27.700  37.539  1.00  0.00     0.054 A 
BRANCH  94  95
ATOM     95  S   UNL A   1      48.019  27.036  38.429  1.00  0.00     0.124 S 
ATOM     96  O   UNL A   1      47.745  25.602  38.419  1.00  0.00    -0.237 OA
ATOM     97  O   UNL A   1      49.141  27.467  37.599  1.00  0.00    -0.237 OA
ATOM     98  O   UNL A   1      47.940  27.677  39.740  1.00  0.00    -0.744 OA
ENDBRANCH  94  95
ENDBRANCH  68  89
ENDBRANCH  42  43
ENDBRANCH  34  37
ENDBRANCH  32  33
ENDBRANCH  31  32
ENDBRANCH  30  31
ENDBRANCH   1  30
TORSDOF 20
ENDMDL
MODEL 2
REMARK VINA RESULT:     -10.5      1.169      7.942
REMARK SMILES COc1ccc(C(=O)N[C@H](C(=O)NCCCCCCNC(=O)c2ccc(-c3c4nc(c(-c5ccc(S(=O)(=O)[O-])cc5)c5ccc([nH]5)c(-c5ccc(S(=O)(=O)[O-])cc5)c5nc(c(-c6ccc(S(=O)(=O)[O-])cc6)c6ccc3[nH]6)C=C5)C=C4)cc2)C2=C(C)N=N[C@H]2C)c(F)c1F
REMARK SMILES IDX 16 1 15 2 14 3 13 4 11 5 12 6 10 8 9 9 7 10 8 11 6 13 3 14
REMARK SMILES IDX 4 15 92 16 5 17 90 18 93 19 91 20 2 21 1 22 83 23 84 24
REMARK SMILES IDX 88 25 85 26 86 27 87 28 89 29 17 30 18 31 19 32 20 33 21 34
REMARK SMILES IDX 22 36 23 37 24 38 82 39 25 40 81 41 26 42 27 43 28 44 75 45
REMARK SMILES IDX 29 46 80 47 74 48 76 49 30 50 79 51 73 52 72 53 31 55 61 56
REMARK SMILES IDX 42 57 60 58 43 59 46 60 59 61 77 62 44 63 45 64 58 66 78 67
REMARK SMILES IDX 47 68 32 69 33 70 41 71 34 72 40 73 35 74 36 75 37 76 38 77
REMARK SMILES IDX 39 78 62 79 63 80 71 81 64 82 70 83 65 84 66 85 67 86 68 87
REMARK SMILES IDX 69 88 48 89 49 90 57 91 50 92 56 93 51 94 52 95 53 96 54 97
REMARK SMILES IDX 55 98
REMARK H PARENT 13 7 9 12 20 35 76 54 46 65
REMARK Flexibility Score: inf
ROOT
ATOM      1  C   UNL A   1      35.475  30.780  28.108  1.00  0.00     0.002 C 
ENDROOT
BRANCH   1   2
ATOM      2  C   UNL A   1      34.707  30.230  26.901  1.00  0.00     0.021 C 
BRANCH   2   3
ATOM      3  C   UNL A   1      34.338  28.747  26.986  1.00  0.00     0.116 C 
BRANCH   3   4
ATOM      4  N   UNL A   1      33.054  28.555  27.641  1.00  0.00    -0.354 N 
ATOM      5  C   UNL A   1      32.001  27.743  27.333  1.00  0.00     0.247 C 
ATOM      6  O   UNL A   1      30.987  27.854  28.037  1.00  0.00    -0.272 OA
ATOM      7  H   UNL A   1      32.921  29.108  28.444  1.00  0.00     0.163 HD
BRANCH   5   8
ATOM      8  C   UNL A   1      32.042  26.728  26.139  1.00  0.00     0.202 C 
BRANCH   8   9
ATOM      9  N   UNL A   1      31.166  25.650  26.616  1.00  0.00    -0.336 N 
ATOM     10  C   UNL A   1      31.238  24.290  26.694  1.00  0.00     0.255 C 
ATOM     11  O   UNL A   1      30.312  23.682  27.233  1.00  0.00    -0.269 OA
ATOM     12  H   UNL A   1      30.313  25.995  26.968  1.00  0.00     0.165 HD
BRANCH  10  13
ATOM     13  C   UNL A   1      32.296  23.487  26.057  1.00  0.00     0.078 A 
ATOM     14  C   UNL A   1      34.436  22.021  24.990  1.00  0.00     0.157 A 
ATOM     15  C   UNL A   1      34.612  22.722  26.181  1.00  0.00     0.050 A 
ATOM     16  C   UNL A   1      33.217  22.107  24.312  1.00  0.00     0.201 A 
ATOM     17  C   UNL A   1      33.545  23.452  26.710  1.00  0.00     0.021 A 
ATOM     18  C   UNL A   1      32.156  22.844  24.835  1.00  0.00     0.175 A 
ATOM     19  F   UNL A   1      33.058  21.473  23.140  1.00  0.00    -0.200 F 
ATOM     20  F   UNL A   1      31.032  22.962  24.113  1.00  0.00    -0.203 F 
BRANCH  14  21
ATOM     21  O   UNL A   1      35.456  21.326  24.401  1.00  0.00    -0.494 OA
ATOM     22  C   UNL A   1      36.745  21.808  24.781  1.00  0.00     0.278 C 
ENDBRANCH  14  21
ENDBRANCH  10  13
ENDBRANCH   8   9
BRANCH   8  23
ATOM     23  C   UNL A   1      31.548  27.312  24.844  1.00  0.00     0.011 C 
ATOM     24  C   UNL A   1      31.197  28.546  24.444  1.00  0.00     0.064 C 
ATOM     25  C   UNL A   1      31.206  26.450  23.662  1.00  0.00     0.156 C 
ATOM     26  C   UNL A   1      31.287  29.865  25.120  1.00  0.00     0.069 C 
ATOM     27  N   UNL A   1      30.605  28.558  23.206  1.00  0.00    -0.160 NA
ATOM     28  N   UNL A   1      30.530  27.397  22.741  1.00  0.00    -0.181 NA
ATOM     29  C   UNL A   1      32.413  25.891  22.906  1.00  0.00     0.040 C 
ENDBRANCH   8  23
ENDBRANCH   5   8
ENDBRANCH   3   4
ENDBRANCH   2   3
ENDBRANCH   1   2
BRANCH   1  30
ATOM     30  C   UNL A   1      35.442  32.305  28.248  1.00  0.00     0.002 C 
BRANCH  30  31
ATOM     31  C   UNL A   1      34.060  32.958  28.122  1.00  0.00     0.021 C 
BRANCH  31  32
ATOM     32  C   UNL A   1      34.057  34.486  28.084  1.00  0.00     0.116 C 
BRANCH  32  33
ATOM     33  N   UNL A   1      33.182  35.047  29.100  1.00  0.00    -0.352 N 
ATOM     34  C   UNL A   1      33.241  34.880  30.461  1.00  0.00     0.251 C 
ATOM     35  H   UNL A   1      32.454  35.622  28.770  1.00  0.00     0.163 HD
ATOM     36  O   UNL A   1      32.293  35.215  31.171  1.00  0.00    -0.269 OA
BRANCH  34  37
ATOM     37  C   UNL A   1      34.449  34.285  31.067  1.00  0.00     0.039 A 
ATOM     38  C   UNL A   1      34.358  33.048  31.707  1.00  0.00     0.014 A 
ATOM     39  C   UNL A   1      35.675  34.957  30.996  1.00  0.00     0.014 A 
ATOM     40  C   UNL A   1      35.509  32.456  32.233  1.00  0.00     0.010 A 
ATOM     41  C   UNL A   1      36.829  34.340  31.472  1.00  0.00     0.010 A 
ATOM     42  C   UNL A   1      36.758  33.087  32.100  1.00  0.00    -0.014 A 
BRANCH  42  43
ATOM     43  C   UNL A   1      37.999  32.455  32.616  1.00  0.00     0.031 A 
ATOM     44  C   UNL A   1      38.470  32.749  34.015  1.00  0.00     0.074 A 
ATOM     45  C   UNL A   1      38.735  31.666  31.809  1.00  0.00     0.049 A 
ATOM     46  N   UNL A   1      39.553  32.339  34.623  1.00  0.00    -0.248 NA
ATOM     47  C   UNL A   1      37.624  33.638  34.828  1.00  0.00     0.031 C 
ATOM     48  C   UNL A   1      38.407  31.335  30.420  1.00  0.00     0.029 A 
ATOM     49  N   UNL A   1      39.918  31.007  32.036  1.00  0.00    -0.354 N 
ATOM     50  C   UNL A   1      39.527  32.933  35.881  1.00  0.00     0.074 A 
ATOM     51  C   UNL A   1      38.346  33.765  35.931  1.00  0.00     0.031 C 
ATOM     52  C   UNL A   1      39.353  30.519  29.927  1.00  0.00     0.029 A 
ATOM     53  C   UNL A   1      40.372  30.298  30.950  1.00  0.00     0.049 A 
ATOM     54  H   UNL A   1      40.395  31.040  32.896  1.00  0.00     0.167 HD
ATOM     55  C   UNL A   1      40.400  32.785  36.907  1.00  0.00     0.031 A 
ATOM     56  C   UNL A   1      41.487  29.558  30.790  1.00  0.00     0.031 A 
ATOM     57  C   UNL A   1      41.569  31.948  36.859  1.00  0.00     0.049 A 
ATOM     58  C   UNL A   1      42.443  29.411  31.942  1.00  0.00     0.074 A 
ATOM     59  C   UNL A   1      42.483  31.688  37.865  1.00  0.00     0.029 A 
ATOM     60  N   UNL A   1      41.987  31.237  35.744  1.00  0.00    -0.354 N 
ATOM     61  N   UNL A   1      42.368  29.930  33.144  1.00  0.00    -0.248 NA
ATOM     62  C   UNL A   1      43.629  28.572  31.719  1.00  0.00     0.031 C 
ATOM     63  C   UNL A   1      43.480  30.856  37.345  1.00  0.00     0.029 A 
ATOM     64  C   UNL A   1      43.157  30.555  36.030  1.00  0.00     0.049 A 
ATOM     65  H   UNL A   1      41.520  31.219  34.878  1.00  0.00     0.167 HD
ATOM     66  C   UNL A   1      43.482  29.459  33.829  1.00  0.00     0.074 A 
ATOM     67  C   UNL A   1      44.209  28.605  32.911  1.00  0.00     0.031 C 
ATOM     68  C   UNL A   1      43.869  29.710  35.104  1.00  0.00     0.031 A 
BRANCH  55  69
ATOM     69  C   UNL A   1      40.120  33.554  38.171  1.00  0.00    -0.014 A 
ATOM     70  C   UNL A   1      39.306  33.016  39.184  1.00  0.00     0.010 A 
ATOM     71  C   UNL A   1      40.704  34.820  38.365  1.00  0.00     0.010 A 
ATOM     72  C   UNL A   1      39.043  33.746  40.346  1.00  0.00     0.020 A 
ATOM     73  C   UNL A   1      40.466  35.542  39.538  1.00  0.00     0.020 A 
ATOM     74  C   UNL A   1      39.621  35.009  40.513  1.00  0.00     0.054 A 
BRANCH  74  75
ATOM     75  S   UNL A   1      39.274  35.930  42.036  1.00  0.00     0.124 S 
ATOM     76  O   UNL A   1      40.366  35.496  42.904  1.00  0.00    -0.237 OA
ATOM     77  O   UNL A   1      39.339  37.321  41.593  1.00  0.00    -0.237 OA
ATOM     78  O   UNL A   1      37.945  35.466  42.428  1.00  0.00    -0.744 OA
ENDBRANCH  74  75
ENDBRANCH  55  69
BRANCH  56  79
ATOM     79  C   UNL A   1      41.749  28.884  29.490  1.00  0.00    -0.014 A 
ATOM     80  C   UNL A   1      42.166  29.630  28.372  1.00  0.00     0.010 A 
ATOM     81  C   UNL A   1      41.603  27.490  29.366  1.00  0.00     0.010 A 
ATOM     82  C   UNL A   1      42.417  28.996  27.152  1.00  0.00     0.020 A 
ATOM     83  C   UNL A   1      41.879  26.850  28.154  1.00  0.00     0.020 A 
ATOM     84  C   UNL A   1      42.275  27.610  27.052  1.00  0.00     0.054 A 
BRANCH  84  85
ATOM     85  S   UNL A   1      42.664  26.800  25.474  1.00  0.00     0.124 S 
ATOM     86  O   UNL A   1      42.747  27.936  24.563  1.00  0.00    -0.237 OA
ATOM     87  O   UNL A   1      43.929  26.129  25.767  1.00  0.00    -0.237 OA
ATOM     88  O   UNL A   1      41.529  25.905  25.262  1.00  0.00    -0.744 OA
ENDBRANCH  84  85
ENDBRANCH  56  79
BRANCH  68  89
ATOM     89  C   UNL A   1      45.120  29.031  35.596  1.00  0.00    -0.014 A 
ATOM     90  C   UNL A   1      45.071  27.752  36.178  1.00  0.00     0.010 A 
ATOM     91  C   UNL A   1      46.365  29.659  35.418  1.00  0.00     0.010 A 
ATOM     92  C   UNL A   1      46.246  27.124  36.598  1.00  0.00     0.020 A 
ATOM     93  C   UNL A   1      47.545  29.022  35.814  1.00  0.00     0.020 A 
ATOM     94  C   UNL A   1      47.476  27.763  36.413  1.00  0.00     0.054 A 
BRANCH  94  95
ATOM     95  S   UNL A   1      48.991  26.906  36.922  1.00  0.00     0.124 S 
ATOM     96  O   UNL A   1      48.485  25.586  37.286  1.00  0.00    -0.237 OA
ATOM     97  O   UNL A   1      49.810  26.953  35.713  1.00  0.00    -0.237 OA
ATOM     98  O   UNL A   1      49.488  27.712  38.035  1.00  0.00    -0.744 OA
ENDBRANCH  94  95
ENDBRANCH  68  89
ENDBRANCH  42  43
ENDBRANCH  34  37
ENDBRANCH  32  33
ENDBRANCH  31  32
ENDBRANCH  30  31
ENDBRANCH   1  30
TORSDOF 20
ENDMDL
MODEL 3
REMARK VINA RESULT:     -10.4      1.880      3.016
REMARK SMILES COc1ccc(C(=O)N[C@H](C(=O)NCCCCCCNC(=O)c2ccc(-c3c4nc(c(-c5ccc(S(=O)(=O)[O-])cc5)c5ccc([nH]5)c(-c5ccc(S(=O)(=O)[O-])cc5)c5nc(c(-c6ccc(S(=O)(=O)[O-])cc6)c6ccc3[nH]6)C=C5)C=C4)cc2)C2=C(C)N=N[C@H]2C)c(F)c1F
REMARK SMILES IDX 16 1 15 2 14 3 13 4 11 5 12 6 10 8 9 9 7 10 8 11 6 13 3 14
REMARK SMILES IDX 4 15 92 16 5 17 90 18 93 19 91 20 2 21 1 22 83 23 84 24
REMARK SMILES IDX 88 25 85 26 86 27 87 28 89 29 17 30 18 31 19 32 20 33 21 34
REMARK SMILES IDX 22 36 23 37 24 38 82 39 25 40 81 41 26 42 27 43 28 44 75 45
REMARK SMILES IDX 29 46 80 47 74 48 76 49 30 50 79 51 73 52 72 53 31 55 61 56
REMARK SMILES IDX 42 57 60 58 43 59 46 60 59 61 77 62 44 63 45 64 58 66 78 67
REMARK SMILES IDX 47 68 32 69 33 70 41 71 34 72 40 73 35 74 36 75 37 76 38 77
REMARK SMILES IDX 39 78 62 79 63 80 71 81 64 82 70 83 65 84 66 85 67 86 68 87
REMARK SMILES IDX 69 88 48 89 49 90 57 91 50 92 56 93 51 94 52 95 53 96 54 97
REMARK SMILES IDX 55 98
REMARK H PARENT 13 7 9 12 20 35 76 54 46 65
REMARK Flexibility Score: inf
ROOT
ATOM      1  C   UNL A   1      32.245  27.816  26.795  1.00  0.00     0.002 C 
ENDROOT
BRANCH   1   2
ATOM      2  C   UNL A   1      31.091  26.826  26.602  1.00  0.00     0.021 C 
BRANCH   2   3
ATOM      3  C   UNL A   1      31.504  25.356  26.502  1.00  0.00     0.116 C 
BRANCH   3   4
ATOM      4  N   UNL A   1      30.861  24.699  25.376  1.00  0.00    -0.354 N 
ATOM      5  C   UNL A   1      31.095  24.782  24.034  1.00  0.00     0.247 C 
ATOM      6  O   UNL A   1      30.321  24.158  23.293  1.00  0.00    -0.272 OA
ATOM      7  H   UNL A   1      30.129  24.089  25.625  1.00  0.00     0.163 HD
BRANCH   5   8
ATOM      8  C   UNL A   1      32.266  25.636  23.436  1.00  0.00     0.202 C 
BRANCH   8   9
ATOM      9  N   UNL A   1      32.608  24.886  22.219  1.00  0.00    -0.336 N 
ATOM     10  C   UNL A   1      33.315  23.758  21.929  1.00  0.00     0.255 C 
ATOM     11  O   UNL A   1      33.342  23.364  20.762  1.00  0.00    -0.269 OA
ATOM     12  H   UNL A   1      32.231  25.304  21.410  1.00  0.00     0.165 HD
BRANCH  10  13
ATOM     13  C   UNL A   1      34.159  23.045  22.904  1.00  0.00     0.078 A 
ATOM     14  C   UNL A   1      35.928  21.773  24.670  1.00  0.00     0.157 A 
ATOM     15  C   UNL A   1      36.427  22.672  23.730  1.00  0.00     0.050 A 
ATOM     16  C   UNL A   1      34.563  21.472  24.681  1.00  0.00     0.201 A 
ATOM     17  C   UNL A   1      35.545  23.303  22.850  1.00  0.00     0.021 A 
ATOM     18  C   UNL A   1      33.685  22.094  23.797  1.00  0.00     0.175 A 
ATOM     19  F   UNL A   1      34.085  20.572  25.553  1.00  0.00    -0.200 F 
ATOM     20  F   UNL A   1      32.398  21.718  23.790  1.00  0.00    -0.203 F 
BRANCH  14  21
ATOM     21  O   UNL A   1      36.748  21.092  25.528  1.00  0.00    -0.494 OA
ATOM     22  C   UNL A   1      38.022  21.715  25.687  1.00  0.00     0.278 C 
ENDBRANCH  14  21
ENDBRANCH  10  13
ENDBRANCH   8   9
BRANCH   8  23
ATOM     23  C   UNL A   1      31.870  27.052  23.122  1.00  0.00     0.011 C 
ATOM     24  C   UNL A   1      30.702  27.716  23.093  1.00  0.00     0.064 C 
ATOM     25  C   UNL A   1      32.857  28.056  22.596  1.00  0.00     0.156 C 
ATOM     26  C   UNL A   1      29.330  27.316  23.497  1.00  0.00     0.069 C 
ATOM     27  N   UNL A   1      30.813  28.968  22.543  1.00  0.00    -0.160 NA
ATOM     28  N   UNL A   1      31.993  29.192  22.190  1.00  0.00    -0.181 NA
ATOM     29  C   UNL A   1      33.835  28.600  23.638  1.00  0.00     0.040 C 
ENDBRANCH   8  23
ENDBRANCH   5   8
ENDBRANCH   3   4
ENDBRANCH   2   3
ENDBRANCH   1   2
BRANCH   1  30
ATOM     30  C   UNL A   1      31.834  29.181  27.354  1.00  0.00     0.002 C 
BRANCH  30  31
ATOM     31  C   UNL A   1      32.400  30.403  26.618  1.00  0.00     0.021 C 
BRANCH  31  32
ATOM     32  C   UNL A   1      33.421  31.225  27.403  1.00  0.00     0.116 C 
BRANCH  32  33
ATOM     33  N   UNL A   1      33.016  32.617  27.519  1.00  0.00    -0.352 N 
ATOM     34  C   UNL A   1      33.471  33.564  28.401  1.00  0.00     0.251 C 
ATOM     35  H   UNL A   1      32.328  32.918  26.883  1.00  0.00     0.163 HD
ATOM     36  O   UNL A   1      32.864  34.626  28.543  1.00  0.00    -0.269 OA
BRANCH  34  37
ATOM     37  C   UNL A   1      34.692  33.295  29.189  1.00  0.00     0.039 A 
ATOM     38  C   UNL A   1      34.622  32.448  30.296  1.00  0.00     0.014 A 
ATOM     39  C   UNL A   1      35.907  33.884  28.824  1.00  0.00     0.014 A 
ATOM     40  C   UNL A   1      35.784  32.148  31.010  1.00  0.00     0.010 A 
ATOM     41  C   UNL A   1      37.073  33.540  29.503  1.00  0.00     0.010 A 
ATOM     42  C   UNL A   1      37.023  32.673  30.606  1.00  0.00    -0.014 A 
BRANCH  42  43
ATOM     43  C   UNL A   1      38.276  32.333  31.327  1.00  0.00     0.031 A 
ATOM     44  C   UNL A   1      39.215  31.301  30.762  1.00  0.00     0.074 A 
ATOM     45  C   UNL A   1      38.541  32.905  32.518  1.00  0.00     0.049 A 
ATOM     46  N   UNL A   1      40.325  30.830  31.270  1.00  0.00    -0.248 NA
ATOM     47  C   UNL A   1      38.845  30.703  29.469  1.00  0.00     0.031 C 
ATOM     48  C   UNL A   1      37.692  33.892  33.190  1.00  0.00     0.029 A 
ATOM     49  N   UNL A   1      39.596  32.733  33.379  1.00  0.00    -0.354 N 
ATOM     50  C   UNL A   1      40.776  29.871  30.369  1.00  0.00     0.074 A 
ATOM     51  C   UNL A   1      39.797  29.796  29.307  1.00  0.00     0.031 C 
ATOM     52  C   UNL A   1      38.270  34.252  34.348  1.00  0.00     0.029 A 
ATOM     53  C   UNL A   1      39.510  33.498  34.518  1.00  0.00     0.049 A 
ATOM     54  H   UNL A   1      40.344  32.119  33.198  1.00  0.00     0.167 HD
ATOM     55  C   UNL A   1      41.911  29.133  30.413  1.00  0.00     0.031 A 
ATOM     56  C   UNL A   1      40.331  33.581  35.583  1.00  0.00     0.031 A 
ATOM     57  C   UNL A   1      42.889  29.217  31.464  1.00  0.00     0.049 A 
ATOM     58  C   UNL A   1      41.583  32.749  35.612  1.00  0.00     0.074 A 
ATOM     59  C   UNL A   1      44.098  28.552  31.571  1.00  0.00     0.029 A 
ATOM     60  N   UNL A   1      42.770  30.013  32.594  1.00  0.00    -0.354 N 
ATOM     61  N   UNL A   1      42.024  31.895  34.719  1.00  0.00    -0.248 NA
ATOM     62  C   UNL A   1      42.454  32.898  36.786  1.00  0.00     0.031 C 
ATOM     63  C   UNL A   1      44.689  28.911  32.787  1.00  0.00     0.029 A 
ATOM     64  C   UNL A   1      43.872  29.841  33.413  1.00  0.00     0.049 A 
ATOM     65  H   UNL A   1      42.013  30.613  32.784  1.00  0.00     0.167 HD
ATOM     66  C   UNL A   1      43.236  31.424  35.212  1.00  0.00     0.074 A 
ATOM     67  C   UNL A   1      43.464  32.097  36.475  1.00  0.00     0.031 C 
ATOM     68  C   UNL A   1      44.084  30.517  34.668  1.00  0.00     0.031 A 
BRANCH  55  69
ATOM     69  C   UNL A   1      42.151  28.162  29.287  1.00  0.00    -0.014 A 
ATOM     70  C   UNL A   1      41.599  26.868  29.314  1.00  0.00     0.010 A 
ATOM     71  C   UNL A   1      42.909  28.558  28.169  1.00  0.00     0.010 A 
ATOM     72  C   UNL A   1      41.841  25.972  28.269  1.00  0.00     0.020 A 
ATOM     73  C   UNL A   1      43.130  27.674  27.109  1.00  0.00     0.020 A 
ATOM     74  C   UNL A   1      42.610  26.380  27.175  1.00  0.00     0.054 A 
BRANCH  74  75
ATOM     75  S   UNL A   1      42.896  25.202  25.825  1.00  0.00     0.124 S 
ATOM     76  O   UNL A   1      44.347  25.037  25.874  1.00  0.00    -0.237 OA
ATOM     77  O   UNL A   1      42.117  24.039  26.243  1.00  0.00    -0.237 OA
ATOM     78  O   UNL A   1      42.388  25.896  24.645  1.00  0.00    -0.744 OA
ENDBRANCH  74  75
ENDBRANCH  55  69
BRANCH  56  79
ATOM     79  C   UNL A   1      40.000  34.502  36.704  1.00  0.00    -0.014 A 
ATOM     80  C   UNL A   1      39.293  34.034  37.826  1.00  0.00     0.010 A 
ATOM     81  C   UNL A   1      40.408  35.848  36.665  1.00  0.00     0.010 A 
ATOM     82  C   UNL A   1      38.988  34.898  38.881  1.00  0.00     0.020 A 
ATOM     83  C   UNL A   1      40.126  36.708  37.731  1.00  0.00     0.020 A 
ATOM     84  C   UNL A   1      39.408  36.228  38.828  1.00  0.00     0.054 A 
BRANCH  84  85
ATOM     85  S   UNL A   1      39.052  37.318  40.236  1.00  0.00     0.124 S 
ATOM     86  O   UNL A   1      38.323  36.427  41.132  1.00  0.00    -0.237 OA
ATOM     87  O   UNL A   1      40.389  37.707  40.680  1.00  0.00    -0.237 OA
ATOM     88  O   UNL A   1      38.265  38.395  39.642  1.00  0.00    -0.744 OA
ENDBRANCH  84  85
ENDBRANCH  56  79
BRANCH  68  89
ATOM     89  C   UNL A   1      45.354  30.218  35.418  1.00  0.00    -0.014 A 
ATOM     90  C   UNL A   1      45.427  29.147  36.326  1.00  0.00     0.010 A 
ATOM     91  C   UNL A   1      46.506  30.983  35.164  1.00  0.00     0.010 A 
ATOM     92  C   UNL A   1      46.624  28.865  36.988  1.00  0.00     0.020 A 
ATOM     93  C   UNL A   1      47.712  30.687  35.805  1.00  0.00     0.020 A 
ATOM     94  C   UNL A   1      47.760  29.637  36.723  1.00  0.00     0.054 A 
BRANCH  94  95
ATOM     95  S   UNL A   1      49.315  29.219  37.557  1.00  0.00     0.124 S 
ATOM     96  O   UNL A   1      49.295  30.119  38.706  1.00  0.00    -0.237 OA
ATOM     97  O   UNL A   1      49.145  27.801  37.866  1.00  0.00    -0.237 OA
ATOM     98  O   UNL A   1      50.336  29.513  36.553  1.00  0.00    -0.744 OA
ENDBRANCH  94  95
ENDBRANCH  68  89
ENDBRANCH  42  43
ENDBRANCH  34  37
ENDBRANCH  32  33
ENDBRANCH  31  32
ENDBRANCH  30  31
ENDBRANCH   1  30
TORSDOF 20
ENDMDL
