MODEL 1
REMARK VINA RESULT:     -12.4      0.000      0.000
REMARK SMILES C[C@H]1[C@H](C)CC[C@@]2(C(=O)NCCCCCCNC(=O)c3ccc(-c4c5nc(c(-c6ccc(S(=O)(=O)[O-])cc6)c6ccc([nH]6)c(-c6ccc(S(=O)(=O)[O-])cc6)c6nc(c(-c7ccc(S(=O)(=O)[O-])cc7)c7ccc4[nH]7)C=C6)C=C5)cc3)CC[C@@]3(C)C(=CC[C@@H]4[C@@]5(C)CC[C@H](O)C(C)(C)[C@@H]5CC[C@]43C)[C@H]12
REMARK SMILES IDX 14 1 13 2 12 3 11 4 10 5 8 6 9 7 7 9 1 10 2 11 3 12 102 13
REMARK SMILES IDX 4 14 5 15 84 16 6 17 80 18 82 19 85 20 81 21 83 22 100 23
REMARK SMILES IDX 86 24 87 25 99 26 101 27 88 28 98 29 89 30 90 31 97 32 91 33
REMARK SMILES IDX 94 34 92 35 95 36 96 37 93 38 15 40 16 41 17 42 18 43 19 45
REMARK SMILES IDX 20 46 21 47 79 48 22 49 78 50 23 51 24 52 25 53 72 54 26 55
REMARK SMILES IDX 77 56 71 57 73 58 27 59 76 60 70 61 69 62 28 64 58 65 39 66
REMARK SMILES IDX 57 67 40 68 43 69 56 70 74 71 41 72 42 73 55 75 75 76 44 77
REMARK SMILES IDX 29 78 30 79 38 80 31 81 37 82 32 83 33 84 34 85 35 86 36 87
REMARK SMILES IDX 59 88 60 89 68 90 61 91 67 92 62 93 63 94 64 95 65 96 66 97
REMARK SMILES IDX 45 98 46 99 54 100 47 101 53 102 48 103 49 104 50 105 51 106
REMARK SMILES IDX 52 107
REMARK H PARENT 10 8 93 39 17 44 73 63 43 74
REMARK Flexibility Score: inf
ROOT
ATOM      1  C   UNL A   1      39.937  22.324  27.220  1.00  0.00     0.002 C 
ENDROOT
BRANCH   1   2
ATOM      2  C   UNL A   1      38.907  22.641  26.130  1.00  0.00     0.002 C 
BRANCH   2   3
ATOM      3  C   UNL A   1      38.181  23.994  26.144  1.00  0.00     0.021 C 
BRANCH   3   4
ATOM      4  C   UNL A   1      36.667  24.020  25.905  1.00  0.00     0.116 C 
BRANCH   4   5
ATOM      5  N   UNL A   1      35.929  22.918  26.498  1.00  0.00    -0.356 N 
ATOM      6  C   UNL A   1      35.033  22.040  25.941  1.00  0.00     0.226 C 
ATOM      7  O   UNL A   1      34.036  21.832  26.649  1.00  0.00    -0.274 OA
ATOM      8  H   UNL A   1      36.099  22.778  27.457  1.00  0.00     0.163 HD
BRANCH   6   9
ATOM      9  C   UNL A   1      35.208  21.277  24.565  1.00  0.00     0.056 C 
ATOM     10  C   UNL A   1      32.211  18.723  24.153  1.00  0.00     0.008 C 
ATOM     11  C   UNL A   1      33.498  19.342  24.722  1.00  0.00    -0.003 C 
ATOM     12  C   UNL A   1      34.677  18.316  24.654  1.00  0.00    -0.011 C 
ATOM     13  C   UNL A   1      33.881  20.672  24.008  1.00  0.00     0.034 C 
ATOM     14  C   UNL A   1      34.462  17.050  25.497  1.00  0.00     0.008 C 
ATOM     15  C   UNL A   1      36.053  18.863  25.059  1.00  0.00     0.005 C 
ATOM     16  C   UNL A   1      32.897  21.865  23.989  1.00  0.00    -0.063 C 
ATOM     17  C   UNL A   1      36.373  20.278  24.643  1.00  0.00     0.018 C 
ATOM     18  C   UNL A   1      35.681  22.306  23.464  1.00  0.00     0.018 C 
ATOM     19  C   UNL A   1      33.177  22.980  22.926  1.00  0.00    -0.006 C 
ATOM     20  C   UNL A   1      32.075  22.073  25.040  1.00  0.00    -0.027 C 
ATOM     21  C   UNL A   1      34.688  23.382  23.009  1.00  0.00     0.013 C 
ATOM     22  C   UNL A   1      32.914  22.412  21.509  1.00  0.00     0.017 C 
ATOM     23  C   UNL A   1      32.240  24.296  23.185  1.00  0.00    -0.020 C 
ATOM     24  C   UNL A   1      31.616  23.439  25.474  1.00  0.00     0.032 C 
ATOM     25  C   UNL A   1      32.379  24.563  24.726  1.00  0.00     0.006 C 
ATOM     26  C   UNL A   1      32.655  25.534  22.346  1.00  0.00     0.008 C 
ATOM     27  C   UNL A   1      30.758  24.015  22.775  1.00  0.00     0.012 C 
ATOM     28  C   UNL A   1      32.249  26.025  25.313  1.00  0.00    -0.025 C 
ATOM     29  C   UNL A   1      32.063  26.848  22.884  1.00  0.00     0.005 C 
ATOM     30  C   UNL A   1      30.850  26.194  25.930  1.00  0.00     0.012 C 
ATOM     31  C   UNL A   1      33.319  26.178  26.449  1.00  0.00     0.010 C 
ATOM     32  C   UNL A   1      32.657  27.127  24.268  1.00  0.00     0.003 C 
ATOM     33  C   UNL A   1      33.376  27.572  27.071  1.00  0.00     0.033 C 
ATOM     34  C   UNL A   1      32.562  28.611  24.793  1.00  0.00    -0.006 C 
ATOM     35  C   UNL A   1      33.478  28.720  26.056  1.00  0.00     0.120 C 
ATOM     36  C   UNL A   1      31.126  29.115  25.058  1.00  0.00     0.014 C 
ATOM     37  C   UNL A   1      33.131  29.600  23.737  1.00  0.00     0.014 C 
BRANCH  35  38
ATOM     38  O   UNL A   1      33.272  29.958  26.739  1.00  0.00    -0.393 OA
ATOM     39  H   UNL A   1      33.010  30.640  26.100  1.00  0.00     0.210 HD
ENDBRANCH  35  38
ENDBRANCH   6   9
ENDBRANCH   4   5
ENDBRANCH   3   4
ENDBRANCH   2   3
ENDBRANCH   1   2
BRANCH   1  40
ATOM     40  C   UNL A   1      41.385  22.074  26.804  1.00  0.00     0.021 C 
BRANCH  40  41
ATOM     41  C   UNL A   1      42.374  23.224  26.919  1.00  0.00     0.116 C 
BRANCH  41  42
ATOM     42  N   UNL A   1      42.367  24.126  25.785  1.00  0.00    -0.352 N 
ATOM     43  C   UNL A   1      42.156  25.484  25.761  1.00  0.00     0.251 C 
ATOM     44  H   UNL A   1      42.537  23.708  24.910  1.00  0.00     0.163 HD
ATOM     45  O   UNL A   1      42.104  26.071  24.679  1.00  0.00    -0.269 OA
BRANCH  43  46
ATOM     46  C   UNL A   1      41.951  26.242  27.019  1.00  0.00     0.039 A 
ATOM     47  C   UNL A   1      42.815  27.301  27.314  1.00  0.00     0.014 A 
ATOM     48  C   UNL A   1      40.920  25.923  27.908  1.00  0.00     0.014 A 
ATOM     49  C   UNL A   1      42.610  28.070  28.462  1.00  0.00     0.010 A 
ATOM     50  C   UNL A   1      40.665  26.743  29.006  1.00  0.00     0.010 A 
ATOM     51  C   UNL A   1      41.512  27.821  29.301  1.00  0.00    -0.014 A 
BRANCH  51  52
ATOM     52  C   UNL A   1      41.245  28.676  30.489  1.00  0.00     0.031 A 
ATOM     53  C   UNL A   1      42.084  28.536  31.733  1.00  0.00     0.074 A 
ATOM     54  C   UNL A   1      40.221  29.555  30.463  1.00  0.00     0.049 A 
ATOM     55  N   UNL A   1      41.991  29.183  32.867  1.00  0.00    -0.248 NA
ATOM     56  C   UNL A   1      43.150  27.521  31.709  1.00  0.00     0.031 C 
ATOM     57  C   UNL A   1      39.307  29.754  29.334  1.00  0.00     0.029 A 
ATOM     58  N   UNL A   1      39.775  30.444  31.409  1.00  0.00    -0.354 N 
ATOM     59  C   UNL A   1      42.975  28.647  33.692  1.00  0.00     0.074 A 
ATOM     60  C   UNL A   1      43.613  27.583  32.949  1.00  0.00     0.031 C 
ATOM     61  C   UNL A   1      38.437  30.730  29.640  1.00  0.00     0.029 A 
ATOM     62  C   UNL A   1      38.698  31.196  30.999  1.00  0.00     0.049 A 
ATOM     63  H   UNL A   1      40.187  30.535  32.298  1.00  0.00     0.167 HD
ATOM     64  C   UNL A   1      43.331  29.020  34.944  1.00  0.00     0.031 A 
ATOM     65  C   UNL A   1      37.997  32.149  31.641  1.00  0.00     0.031 A 
ATOM     66  C   UNL A   1      42.695  30.084  35.677  1.00  0.00     0.049 A 
ATOM     67  C   UNL A   1      38.401  32.537  33.039  1.00  0.00     0.074 A 
ATOM     68  C   UNL A   1      43.016  30.575  36.930  1.00  0.00     0.029 A 
ATOM     69  N   UNL A   1      41.609  30.818  35.226  1.00  0.00    -0.354 N 
ATOM     70  N   UNL A   1      39.381  32.066  33.772  1.00  0.00    -0.248 NA
ATOM     71  C   UNL A   1      37.613  33.593  33.689  1.00  0.00     0.031 C 
ATOM     72  C   UNL A   1      42.084  31.563  37.263  1.00  0.00     0.029 A 
ATOM     73  C   UNL A   1      41.228  31.738  36.187  1.00  0.00     0.049 A 
ATOM     74  H   UNL A   1      41.173  30.702  34.350  1.00  0.00     0.167 HD
ATOM     75  C   UNL A   1      39.345  32.789  34.960  1.00  0.00     0.074 A 
ATOM     76  C   UNL A   1      38.258  33.739  34.837  1.00  0.00     0.031 C 
ATOM     77  C   UNL A   1      40.141  32.676  36.053  1.00  0.00     0.031 A 
BRANCH  64  78
ATOM     78  C   UNL A   1      44.455  28.264  35.607  1.00  0.00    -0.014 A 
ATOM     79  C   UNL A   1      44.215  27.067  36.309  1.00  0.00     0.010 A 
ATOM     80  C   UNL A   1      45.777  28.731  35.489  1.00  0.00     0.010 A 
ATOM     81  C   UNL A   1      45.268  26.379  36.916  1.00  0.00     0.020 A 
ATOM     82  C   UNL A   1      46.838  28.027  36.068  1.00  0.00     0.020 A 
ATOM     83  C   UNL A   1      46.572  26.863  36.793  1.00  0.00     0.054 A 
BRANCH  83  84
ATOM     84  S   UNL A   1      47.922  25.934  37.572  1.00  0.00     0.124 S 
ATOM     85  O   UNL A   1      48.559  26.960  38.394  1.00  0.00    -0.237 OA
ATOM     86  O   UNL A   1      47.209  24.894  38.309  1.00  0.00    -0.237 OA
ATOM     87  O   UNL A   1      48.716  25.461  36.442  1.00  0.00    -0.744 OA
ENDBRANCH  83  84
ENDBRANCH  64  78
BRANCH  65  88
ATOM     88  C   UNL A   1      36.848  32.815  30.963  1.00  0.00    -0.014 A 
ATOM     89  C   UNL A   1      37.065  33.783  29.967  1.00  0.00     0.010 A 
ATOM     90  C   UNL A   1      35.527  32.472  31.304  1.00  0.00     0.010 A 
ATOM     91  C   UNL A   1      35.983  34.408  29.338  1.00  0.00     0.020 A 
ATOM     92  C   UNL A   1      34.443  33.071  30.656  1.00  0.00     0.020 A 
ATOM     93  C   UNL A   1      34.678  34.045  29.685  1.00  0.00     0.054 A 
BRANCH  93  94
ATOM     94  S   UNL A   1      33.291  34.834  28.820  1.00  0.00     0.124 S 
ATOM     95  O   UNL A   1      32.382  35.141  29.920  1.00  0.00    -0.237 OA
ATOM     96  O   UNL A   1      33.930  35.985  28.187  1.00  0.00    -0.237 OA
ATOM     97  O   UNL A   1      32.831  33.799  27.896  1.00  0.00    -0.744 OA
ENDBRANCH  93  94
ENDBRANCH  65  88
BRANCH  77  98
ATOM     98  C   UNL A   1      39.892  33.627  37.194  1.00  0.00    -0.014 A 
ATOM     99  C   UNL A   1      40.367  34.950  37.161  1.00  0.00     0.010 A 
ATOM    100  C   UNL A   1      39.121  33.204  38.292  1.00  0.00     0.010 A 
ATOM    101  C   UNL A   1      40.103  35.822  38.222  1.00  0.00     0.020 A 
ATOM    102  C   UNL A   1      38.827  34.081  39.338  1.00  0.00     0.020 A 
ATOM    103  C   UNL A   1      39.334  35.381  39.303  1.00  0.00     0.054 A 
BRANCH 103 104
ATOM    104  S   UNL A   1      38.970  36.545  40.645  1.00  0.00     0.124 S 
ATOM    105  O   UNL A   1      37.919  35.846  41.378  1.00  0.00    -0.237 OA
ATOM    106  O   UNL A   1      40.254  36.651  41.333  1.00  0.00    -0.237 OA
ATOM    107  O   UNL A   1      38.543  37.757  39.947  1.00  0.00    -0.744 OA
ENDBRANCH 103 104
ENDBRANCH  77  98
ENDBRANCH  51  52
ENDBRANCH  43  46
ENDBRANCH  41  42
ENDBRANCH  40  41
ENDBRANCH   1  40
TORSDOF 17
ENDMDL
MODEL 2
REMARK VINA RESULT:     -12.3      5.578     11.612
REMARK SMILES C[C@H]1[C@H](C)CC[C@@]2(C(=O)NCCCCCCNC(=O)c3ccc(-c4c5nc(c(-c6ccc(S(=O)(=O)[O-])cc6)c6ccc([nH]6)c(-c6ccc(S(=O)(=O)[O-])cc6)c6nc(c(-c7ccc(S(=O)(=O)[O-])cc7)c7ccc4[nH]7)C=C6)C=C5)cc3)CC[C@@]3(C)C(=CC[C@@H]4[C@@]5(C)CC[C@H](O)C(C)(C)[C@@H]5CC[C@]43C)[C@H]12
REMARK SMILES IDX 14 1 13 2 12 3 11 4 10 5 8 6 9 7 7 9 1 10 2 11 3 12 102 13
REMARK SMILES IDX 4 14 5 15 84 16 6 17 80 18 82 19 85 20 81 21 83 22 100 23
REMARK SMILES IDX 86 24 87 25 99 26 101 27 88 28 98 29 89 30 90 31 97 32 91 33
REMARK SMILES IDX 94 34 92 35 95 36 96 37 93 38 15 40 16 41 17 42 18 43 19 45
REMARK SMILES IDX 20 46 21 47 79 48 22 49 78 50 23 51 24 52 25 53 72 54 26 55
REMARK SMILES IDX 77 56 71 57 73 58 27 59 76 60 70 61 69 62 28 64 58 65 39 66
REMARK SMILES IDX 57 67 40 68 43 69 56 70 74 71 41 72 42 73 55 75 75 76 44 77
REMARK SMILES IDX 29 78 30 79 38 80 31 81 37 82 32 83 33 84 34 85 35 86 36 87
REMARK SMILES IDX 59 88 60 89 68 90 61 91 67 92 62 93 63 94 64 95 65 96 66 97
REMARK SMILES IDX 45 98 46 99 54 100 47 101 53 102 48 103 49 104 50 105 51 106
REMARK SMILES IDX 52 107
REMARK H PARENT 10 8 93 39 17 44 73 63 43 74
REMARK Flexibility Score: inf
ROOT
ATOM      1  C   UNL A   1      34.650  32.223  28.386  1.00  0.00     0.002 C 
ENDROOT
BRANCH   1   2
ATOM      2  C   UNL A   1      34.624  31.107  27.336  1.00  0.00     0.002 C 
BRANCH   2   3
ATOM      3  C   UNL A   1      34.422  29.651  27.782  1.00  0.00     0.021 C 
BRANCH   3   4
ATOM      4  C   UNL A   1      34.413  28.549  26.717  1.00  0.00     0.116 C 
BRANCH   4   5
ATOM      5  N   UNL A   1      34.001  28.975  25.390  1.00  0.00    -0.356 N 
ATOM      6  C   UNL A   1      32.819  28.791  24.719  1.00  0.00     0.226 C 
ATOM      7  O   UNL A   1      32.967  28.477  23.529  1.00  0.00    -0.274 OA
ATOM      8  H   UNL A   1      34.684  29.478  24.891  1.00  0.00     0.163 HD
BRANCH   6   9
ATOM      9  C   UNL A   1      31.367  29.000  25.315  1.00  0.00     0.056 C 
ATOM     10  C   UNL A   1      28.779  29.084  22.319  1.00  0.00     0.008 C 
ATOM     11  C   UNL A   1      29.929  29.539  23.233  1.00  0.00    -0.003 C 
ATOM     12  C   UNL A   1      29.630  30.955  23.827  1.00  0.00    -0.011 C 
ATOM     13  C   UNL A   1      30.223  28.515  24.369  1.00  0.00     0.034 C 
ATOM     14  C   UNL A   1      29.518  32.071  22.776  1.00  0.00     0.008 C 
ATOM     15  C   UNL A   1      30.636  31.460  24.872  1.00  0.00     0.005 C 
ATOM     16  C   UNL A   1      30.603  27.054  24.030  1.00  0.00    -0.063 C 
ATOM     17  C   UNL A   1      31.193  30.437  25.830  1.00  0.00     0.018 C 
ATOM     18  C   UNL A   1      31.217  28.122  26.620  1.00  0.00     0.018 C 
ATOM     19  C   UNL A   1      30.476  26.016  25.194  1.00  0.00    -0.006 C 
ATOM     20  C   UNL A   1      31.309  26.788  22.911  1.00  0.00    -0.027 C 
ATOM     21  C   UNL A   1      31.187  26.597  26.463  1.00  0.00     0.013 C 
ATOM     22  C   UNL A   1      28.979  25.816  25.539  1.00  0.00     0.017 C 
ATOM     23  C   UNL A   1      31.154  24.583  24.788  1.00  0.00    -0.020 C 
ATOM     24  C   UNL A   1      32.285  25.647  22.801  1.00  0.00     0.032 C 
ATOM     25  C   UNL A   1      32.544  24.981  24.178  1.00  0.00     0.006 C 
ATOM     26  C   UNL A   1      31.309  23.604  25.982  1.00  0.00     0.008 C 
ATOM     27  C   UNL A   1      30.264  23.817  23.758  1.00  0.00     0.012 C 
ATOM     28  C   UNL A   1      33.785  24.007  24.275  1.00  0.00    -0.025 C 
ATOM     29  C   UNL A   1      32.299  22.462  25.697  1.00  0.00     0.005 C 
ATOM     30  C   UNL A   1      33.970  23.295  22.923  1.00  0.00     0.012 C 
ATOM     31  C   UNL A   1      35.055  24.880  24.560  1.00  0.00     0.010 C 
ATOM     32  C   UNL A   1      33.700  23.056  25.525  1.00  0.00     0.003 C 
ATOM     33  C   UNL A   1      36.337  24.074  24.761  1.00  0.00     0.033 C 
ATOM     34  C   UNL A   1      34.915  22.063  25.690  1.00  0.00    -0.006 C 
ATOM     35  C   UNL A   1      36.217  22.927  25.774  1.00  0.00     0.120 C 
ATOM     36  C   UNL A   1      35.003  20.960  24.612  1.00  0.00     0.014 C 
ATOM     37  C   UNL A   1      34.804  21.286  27.032  1.00  0.00     0.014 C 
BRANCH  35  38
ATOM     38  O   UNL A   1      37.385  22.109  25.684  1.00  0.00    -0.393 OA
ATOM     39  H   UNL A   1      37.639  22.008  24.753  1.00  0.00     0.210 HD
ENDBRANCH  35  38
ENDBRANCH   6   9
ENDBRANCH   4   5
ENDBRANCH   3   4
ENDBRANCH   2   3
ENDBRANCH   1   2
BRANCH   1  40
ATOM     40  C   UNL A   1      35.909  33.079  28.511  1.00  0.00     0.021 C 
BRANCH  40  41
ATOM     41  C   UNL A   1      36.795  32.876  29.731  1.00  0.00     0.116 C 
BRANCH  41  42
ATOM     42  N   UNL A   1      36.251  31.959  30.712  1.00  0.00    -0.352 N 
ATOM     43  C   UNL A   1      36.744  30.746  31.129  1.00  0.00     0.251 C 
ATOM     44  H   UNL A   1      35.412  32.245  31.140  1.00  0.00     0.163 HD
ATOM     45  O   UNL A   1      36.089  30.064  31.919  1.00  0.00    -0.269 OA
BRANCH  43  46
ATOM     46  C   UNL A   1      38.033  30.231  30.606  1.00  0.00     0.039 A 
ATOM     47  C   UNL A   1      38.195  30.108  29.223  1.00  0.00     0.014 A 
ATOM     48  C   UNL A   1      39.080  29.872  31.460  1.00  0.00     0.014 A 
ATOM     49  C   UNL A   1      39.418  29.684  28.699  1.00  0.00     0.010 A 
ATOM     50  C   UNL A   1      40.325  29.531  30.934  1.00  0.00     0.010 A 
ATOM     51  C   UNL A   1      40.507  29.424  29.548  1.00  0.00    -0.014 A 
BRANCH  51  52
ATOM     52  C   UNL A   1      41.833  29.037  28.997  1.00  0.00     0.031 A 
ATOM     53  C   UNL A   1      42.940  30.053  28.888  1.00  0.00     0.074 A 
ATOM     54  C   UNL A   1      42.032  27.776  28.558  1.00  0.00     0.049 A 
ATOM     55  N   UNL A   1      44.154  29.904  28.423  1.00  0.00    -0.248 NA
ATOM     56  C   UNL A   1      42.637  31.423  29.338  1.00  0.00     0.031 C 
ATOM     57  C   UNL A   1      41.027  26.709  28.567  1.00  0.00     0.029 A 
ATOM     58  N   UNL A   1      43.142  27.177  28.018  1.00  0.00    -0.354 N 
ATOM     59  C   UNL A   1      44.752  31.157  28.513  1.00  0.00     0.074 A 
ATOM     60  C   UNL A   1      43.750  32.067  29.022  1.00  0.00     0.031 C 
ATOM     61  C   UNL A   1      41.578  25.580  28.095  1.00  0.00     0.029 A 
ATOM     62  C   UNL A   1      42.959  25.849  27.706  1.00  0.00     0.049 A 
ATOM     63  H   UNL A   1      43.991  27.653  27.868  1.00  0.00     0.167 HD
ATOM     64  C   UNL A   1      46.026  31.514  28.220  1.00  0.00     0.031 A 
ATOM     65  C   UNL A   1      43.804  24.949  27.166  1.00  0.00     0.031 A 
ATOM     66  C   UNL A   1      47.021  30.603  27.719  1.00  0.00     0.049 A 
ATOM     67  C   UNL A   1      45.210  25.373  26.835  1.00  0.00     0.074 A 
ATOM     68  C   UNL A   1      48.354  30.853  27.443  1.00  0.00     0.029 A 
ATOM     69  N   UNL A   1      46.794  29.269  27.417  1.00  0.00    -0.354 N 
ATOM     70  N   UNL A   1      45.775  26.546  26.996  1.00  0.00    -0.248 NA
ATOM     71  C   UNL A   1      46.094  24.349  26.263  1.00  0.00     0.031 C 
ATOM     72  C   UNL A   1      48.916  29.687  26.914  1.00  0.00     0.029 A 
ATOM     73  C   UNL A   1      47.953  28.691  26.929  1.00  0.00     0.049 A 
ATOM     74  H   UNL A   1      45.934  28.802  27.532  1.00  0.00     0.167 HD
ATOM     75  C   UNL A   1      47.090  26.392  26.571  1.00  0.00     0.074 A 
ATOM     76  C   UNL A   1      47.239  25.010  26.164  1.00  0.00     0.031 C 
ATOM     77  C   UNL A   1      48.085  27.313  26.523  1.00  0.00     0.031 A 
BRANCH  64  78
ATOM     78  C   UNL A   1      46.412  32.957  28.426  1.00  0.00    -0.014 A 
ATOM     79  C   UNL A   1      46.979  33.395  29.638  1.00  0.00     0.010 A 
ATOM     80  C   UNL A   1      46.248  33.882  27.379  1.00  0.00     0.010 A 
ATOM     81  C   UNL A   1      47.333  34.735  29.813  1.00  0.00     0.020 A 
ATOM     82  C   UNL A   1      46.631  35.218  27.538  1.00  0.00     0.020 A 
ATOM     83  C   UNL A   1      47.155  35.639  28.762  1.00  0.00     0.054 A 
BRANCH  83  84
ATOM     84  S   UNL A   1      47.646  37.367  29.011  1.00  0.00     0.124 S 
ATOM     85  O   UNL A   1      49.102  37.261  29.071  1.00  0.00    -0.237 OA
ATOM     86  O   UNL A   1      47.114  38.025  27.820  1.00  0.00    -0.237 OA
ATOM     87  O   UNL A   1      46.997  37.736  30.266  1.00  0.00    -0.744 OA
ENDBRANCH  83  84
ENDBRANCH  64  78
BRANCH  65  88
ATOM     88  C   UNL A   1      43.345  23.553  26.917  1.00  0.00    -0.014 A 
ATOM     89  C   UNL A   1      43.092  23.102  25.610  1.00  0.00     0.010 A 
ATOM     90  C   UNL A   1      43.172  22.661  27.991  1.00  0.00     0.010 A 
ATOM     91  C   UNL A   1      42.656  21.791  25.383  1.00  0.00     0.020 A 
ATOM     92  C   UNL A   1      42.767  21.341  27.767  1.00  0.00     0.020 A 
ATOM     93  C   UNL A   1      42.500  20.919  26.464  1.00  0.00     0.054 A 
BRANCH  93  94
ATOM     94  S   UNL A   1      41.982  19.210  26.141  1.00  0.00     0.124 S 
ATOM     95  O   UNL A   1      40.551  19.366  25.900  1.00  0.00    -0.237 OA
ATOM     96  O   UNL A   1      42.786  18.854  24.974  1.00  0.00    -0.237 OA
ATOM     97  O   UNL A   1      42.338  18.506  27.371  1.00  0.00    -0.744 OA
ENDBRANCH  93  94
ENDBRANCH  65  88
BRANCH  77  98
ATOM     98  C   UNL A   1      49.437  26.851  26.046  1.00  0.00    -0.014 A 
ATOM     99  C   UNL A   1      49.864  27.077  24.726  1.00  0.00     0.010 A 
ATOM    100  C   UNL A   1      50.315  26.229  26.953  1.00  0.00     0.010 A 
ATOM    101  C   UNL A   1      51.133  26.659  24.313  1.00  0.00     0.020 A 
ATOM    102  C   UNL A   1      51.596  25.840  26.554  1.00  0.00     0.020 A 
ATOM    103  C   UNL A   1      51.991  26.045  25.230  1.00  0.00     0.054 A 
BRANCH 103 104
ATOM    104  S   UNL A   1      53.647  25.552  24.679  1.00  0.00     0.124 S 
ATOM    105  O   UNL A   1      53.680  26.071  23.315  1.00  0.00    -0.237 OA
ATOM    106  O   UNL A   1      54.517  26.235  25.633  1.00  0.00    -0.237 OA
ATOM    107  O   UNL A   1      53.631  24.095  24.792  1.00  0.00    -0.744 OA
ENDBRANCH 103 104
ENDBRANCH  77  98
ENDBRANCH  51  52
ENDBRANCH  43  46
ENDBRANCH  41  42
ENDBRANCH  40  41
ENDBRANCH   1  40
TORSDOF 17
ENDMDL
MODEL 3
REMARK VINA RESULT:     -12.2      5.572      9.806
REMARK SMILES C[C@H]1[C@H](C)CC[C@@]2(C(=O)NCCCCCCNC(=O)c3ccc(-c4c5nc(c(-c6ccc(S(=O)(=O)[O-])cc6)c6ccc([nH]6)c(-c6ccc(S(=O)(=O)[O-])cc6)c6nc(c(-c7ccc(S(=O)(=O)[O-])cc7)c7ccc4[nH]7)C=C6)C=C5)cc3)CC[C@@]3(C)C(=CC[C@@H]4[C@@]5(C)CC[C@H](O)C(C)(C)[C@@H]5CC[C@]43C)[C@H]12
REMARK SMILES IDX 14 1 13 2 12 3 11 4 10 5 8 6 9 7 7 9 1 10 2 11 3 12 102 13
REMARK SMILES IDX 4 14 5 15 84 16 6 17 80 18 82 19 85 20 81 21 83 22 100 23
REMARK SMILES IDX 86 24 87 25 99 26 101 27 88 28 98 29 89 30 90 31 97 32 91 33
REMARK SMILES IDX 94 34 92 35 95 36 96 37 93 38 15 40 16 41 17 42 18 43 19 45
REMARK SMILES IDX 20 46 21 47 79 48 22 49 78 50 23 51 24 52 25 53 72 54 26 55
REMARK SMILES IDX 77 56 71 57 73 58 27 59 76 60 70 61 69 62 28 64 58 65 39 66
REMARK SMILES IDX 57 67 40 68 43 69 56 70 74 71 41 72 42 73 55 75 75 76 44 77
REMARK SMILES IDX 29 78 30 79 38 80 31 81 37 82 32 83 33 84 34 85 35 86 36 87
REMARK SMILES IDX 59 88 60 89 68 90 61 91 67 92 62 93 63 94 64 95 65 96 66 97
REMARK SMILES IDX 45 98 46 99 54 100 47 101 53 102 48 103 49 104 50 105 51 106
REMARK SMILES IDX 52 107
REMARK H PARENT 10 8 93 39 17 44 73 63 43 74
REMARK Flexibility Score: inf
ROOT
ATOM      1  C   UNL A   1      39.904  22.873  26.766  1.00  0.00     0.002 C 
ENDROOT
BRANCH   1   2
ATOM      2  C   UNL A   1      38.735  23.862  26.842  1.00  0.00     0.002 C 
BRANCH   2   3
ATOM      3  C   UNL A   1      37.832  24.063  25.617  1.00  0.00     0.021 C 
BRANCH   3   4
ATOM      4  C   UNL A   1      36.313  24.089  25.818  1.00  0.00     0.116 C 
BRANCH   4   5
ATOM      5  N   UNL A   1      35.752  22.905  26.447  1.00  0.00    -0.356 N 
ATOM      6  C   UNL A   1      34.945  21.919  25.937  1.00  0.00     0.226 C 
ATOM      7  O   UNL A   1      34.023  21.590  26.697  1.00  0.00    -0.274 OA
ATOM      8  H   UNL A   1      35.991  22.791  27.395  1.00  0.00     0.163 HD
BRANCH   6   9
ATOM      9  C   UNL A   1      35.140  21.179  24.551  1.00  0.00     0.056 C 
ATOM     10  C   UNL A   1      32.156  18.624  24.061  1.00  0.00     0.008 C 
ATOM     11  C   UNL A   1      33.434  19.237  24.655  1.00  0.00    -0.003 C 
ATOM     12  C   UNL A   1      34.617  18.216  24.585  1.00  0.00    -0.011 C 
ATOM     13  C   UNL A   1      33.821  20.580  23.968  1.00  0.00     0.034 C 
ATOM     14  C   UNL A   1      34.396  16.935  25.404  1.00  0.00     0.008 C 
ATOM     15  C   UNL A   1      35.987  18.760  25.015  1.00  0.00     0.005 C 
ATOM     16  C   UNL A   1      32.834  21.770  23.956  1.00  0.00    -0.063 C 
ATOM     17  C   UNL A   1      36.306  20.183  24.627  1.00  0.00     0.018 C 
ATOM     18  C   UNL A   1      35.623  22.228  23.473  1.00  0.00     0.018 C 
ATOM     19  C   UNL A   1      33.123  22.903  22.915  1.00  0.00    -0.006 C 
ATOM     20  C   UNL A   1      31.999  21.958  25.000  1.00  0.00    -0.027 C 
ATOM     21  C   UNL A   1      34.632  23.308  23.023  1.00  0.00     0.013 C 
ATOM     22  C   UNL A   1      32.879  22.357  21.486  1.00  0.00     0.017 C 
ATOM     23  C   UNL A   1      32.179  24.211  23.185  1.00  0.00    -0.020 C 
ATOM     24  C   UNL A   1      31.530  23.316  25.451  1.00  0.00     0.032 C 
ATOM     25  C   UNL A   1      32.299  24.454  24.731  1.00  0.00     0.006 C 
ATOM     26  C   UNL A   1      32.600  25.464  22.371  1.00  0.00     0.008 C 
ATOM     27  C   UNL A   1      30.703  23.933  22.752  1.00  0.00     0.012 C 
ATOM     28  C   UNL A   1      32.156  25.905  25.340  1.00  0.00    -0.025 C 
ATOM     29  C   UNL A   1      31.997  26.768  22.923  1.00  0.00     0.005 C 
ATOM     30  C   UNL A   1      30.749  26.060  25.943  1.00  0.00     0.012 C 
ATOM     31  C   UNL A   1      33.212  26.043  26.491  1.00  0.00     0.010 C 
ATOM     32  C   UNL A   1      32.573  27.025  24.319  1.00  0.00     0.003 C 
ATOM     33  C   UNL A   1      33.257  27.427  27.137  1.00  0.00     0.033 C 
ATOM     34  C   UNL A   1      32.467  28.500  24.867  1.00  0.00    -0.006 C 
ATOM     35  C   UNL A   1      33.368  28.591  26.142  1.00  0.00     0.120 C 
ATOM     36  C   UNL A   1      31.026  28.996  25.123  1.00  0.00     0.014 C 
ATOM     37  C   UNL A   1      33.046  29.508  23.834  1.00  0.00     0.014 C 
BRANCH  35  38
ATOM     38  O   UNL A   1      33.150  29.818  26.843  1.00  0.00    -0.393 OA
ATOM     39  H   UNL A   1      33.533  30.552  26.337  1.00  0.00     0.210 HD
ENDBRANCH  35  38
ENDBRANCH   6   9
ENDBRANCH   4   5
ENDBRANCH   3   4
ENDBRANCH   2   3
ENDBRANCH   1   2
BRANCH   1  40
ATOM     40  C   UNL A   1      39.665  21.510  26.120  1.00  0.00     0.021 C 
BRANCH  40  41
ATOM     41  C   UNL A   1      40.084  20.268  26.892  1.00  0.00     0.116 C 
BRANCH  41  42
ATOM     42  N   UNL A   1      41.034  19.428  26.190  1.00  0.00    -0.352 N 
ATOM     43  C   UNL A   1      42.299  19.734  25.749  1.00  0.00     0.251 C 
ATOM     44  H   UNL A   1      40.731  18.510  26.004  1.00  0.00     0.163 HD
ATOM     45  O   UNL A   1      42.929  18.904  25.090  1.00  0.00    -0.269 OA
BRANCH  43  46
ATOM     46  C   UNL A   1      42.896  21.063  26.023  1.00  0.00     0.039 A 
ATOM     47  C   UNL A   1      43.074  21.951  24.957  1.00  0.00     0.014 A 
ATOM     48  C   UNL A   1      43.279  21.444  27.313  1.00  0.00     0.014 A 
ATOM     49  C   UNL A   1      43.578  23.232  25.194  1.00  0.00     0.010 A 
ATOM     50  C   UNL A   1      43.701  22.750  27.559  1.00  0.00     0.010 A 
ATOM     51  C   UNL A   1      43.864  23.657  26.502  1.00  0.00    -0.014 A 
BRANCH  51  52
ATOM     52  C   UNL A   1      44.338  25.041  26.773  1.00  0.00     0.031 A 
ATOM     53  C   UNL A   1      43.378  26.090  27.270  1.00  0.00     0.074 A 
ATOM     54  C   UNL A   1      45.625  25.365  26.533  1.00  0.00     0.049 A 
ATOM     55  N   UNL A   1      43.605  27.349  27.548  1.00  0.00    -0.248 NA
ATOM     56  C   UNL A   1      41.977  25.680  27.460  1.00  0.00     0.031 C 
ATOM     57  C   UNL A   1      46.644  24.451  26.009  1.00  0.00     0.029 A 
ATOM     58  N   UNL A   1      46.300  26.549  26.698  1.00  0.00    -0.354 N 
ATOM     59  C   UNL A   1      42.377  27.881  27.930  1.00  0.00     0.074 A 
ATOM     60  C   UNL A   1      41.400  26.824  27.794  1.00  0.00     0.031 C 
ATOM     61  C   UNL A   1      47.819  25.097  25.933  1.00  0.00     0.029 A 
ATOM     62  C   UNL A   1      47.632  26.481  26.358  1.00  0.00     0.049 A 
ATOM     63  H   UNL A   1      45.871  27.371  27.030  1.00  0.00     0.167 HD
ATOM     64  C   UNL A   1      42.093  29.128  28.376  1.00  0.00     0.031 A 
ATOM     65  C   UNL A   1      48.594  27.423  26.382  1.00  0.00     0.031 A 
ATOM     66  C   UNL A   1      43.071  30.175  28.516  1.00  0.00     0.049 A 
ATOM     67  C   UNL A   1      48.251  28.806  26.868  1.00  0.00     0.074 A 
ATOM     68  C   UNL A   1      42.895  31.455  29.010  1.00  0.00     0.029 A 
ATOM     69  N   UNL A   1      44.407  30.064  28.160  1.00  0.00    -0.354 N 
ATOM     70  N   UNL A   1      47.098  29.266  27.293  1.00  0.00    -0.248 NA
ATOM     71  C   UNL A   1      49.340  29.791  26.889  1.00  0.00     0.031 C 
ATOM     72  C   UNL A   1      44.110  32.138  28.893  1.00  0.00     0.029 A 
ATOM     73  C   UNL A   1      45.060  31.261  28.394  1.00  0.00     0.049 A 
ATOM     74  H   UNL A   1      44.828  29.252  27.793  1.00  0.00     0.167 HD
ATOM     75  C   UNL A   1      47.332  30.587  27.660  1.00  0.00     0.074 A 
ATOM     76  C   UNL A   1      48.737  30.844  27.422  1.00  0.00     0.031 C 
ATOM     77  C   UNL A   1      46.460  31.504  28.149  1.00  0.00     0.031 A 
BRANCH  64  78
ATOM     78  C   UNL A   1      40.660  29.432  28.738  1.00  0.00    -0.014 A 
ATOM     79  C   UNL A   1      40.290  29.735  30.062  1.00  0.00     0.010 A 
ATOM     80  C   UNL A   1      39.676  29.458  27.733  1.00  0.00     0.010 A 
ATOM     81  C   UNL A   1      38.959  30.015  30.379  1.00  0.00     0.020 A 
ATOM     82  C   UNL A   1      38.348  29.770  28.041  1.00  0.00     0.020 A 
ATOM     83  C   UNL A   1      37.996  30.029  29.368  1.00  0.00     0.054 A 
BRANCH  83  84
ATOM     84  S   UNL A   1      36.280  30.420  29.807  1.00  0.00     0.124 S 
ATOM     85  O   UNL A   1      36.345  31.864  30.021  1.00  0.00    -0.237 OA
ATOM     86  O   UNL A   1      35.541  29.994  28.621  1.00  0.00    -0.237 OA
ATOM     87  O   UNL A   1      36.038  29.624  31.008  1.00  0.00    -0.744 OA
ENDBRANCH  83  84
ENDBRANCH  64  78
BRANCH  65  88
ATOM     88  C   UNL A   1      49.979  27.086  25.946  1.00  0.00    -0.014 A 
ATOM     89  C   UNL A   1      50.363  27.228  24.600  1.00  0.00     0.010 A 
ATOM     90  C   UNL A   1      50.927  26.630  26.880  1.00  0.00     0.010 A 
ATOM     91  C   UNL A   1      51.662  26.904  24.195  1.00  0.00     0.020 A 
ATOM     92  C   UNL A   1      52.235  26.335  26.486  1.00  0.00     0.020 A 
ATOM     93  C   UNL A   1      52.591  26.463  25.142  1.00  0.00     0.054 A 
BRANCH  93  94
ATOM     94  S   UNL A   1      54.284  26.096  24.602  1.00  0.00     0.124 S 
ATOM     95  O   UNL A   1      55.064  27.066  25.365  1.00  0.00    -0.237 OA
ATOM     96  O   UNL A   1      54.445  24.700  25.001  1.00  0.00    -0.237 OA
ATOM     97  O   UNL A   1      54.239  26.324  23.159  1.00  0.00    -0.744 OA
ENDBRANCH  93  94
ENDBRANCH  65  88
BRANCH  77  98
ATOM     98  C   UNL A   1      47.006  32.864  28.497  1.00  0.00    -0.014 A 
ATOM     99  C   UNL A   1      46.944  33.933  27.585  1.00  0.00     0.010 A 
ATOM    100  C   UNL A   1      47.538  33.089  29.780  1.00  0.00     0.010 A 
ATOM    101  C   UNL A   1      47.436  35.193  27.938  1.00  0.00     0.020 A 
ATOM    102  C   UNL A   1      48.000  34.355  30.149  1.00  0.00     0.020 A 
ATOM    103  C   UNL A   1      47.959  35.395  29.219  1.00  0.00     0.054 A 
BRANCH 103 104
ATOM    104  S   UNL A   1      48.550  37.050  29.667  1.00  0.00     0.124 S 
ATOM    105  O   UNL A   1      49.975  36.958  29.361  1.00  0.00    -0.237 OA
ATOM    106  O   UNL A   1      47.773  37.917  28.785  1.00  0.00    -0.237 OA
ATOM    107  O   UNL A   1      48.223  37.163  31.087  1.00  0.00    -0.744 OA
ENDBRANCH 103 104
ENDBRANCH  77  98
ENDBRANCH  51  52
ENDBRANCH  43  46
ENDBRANCH  41  42
ENDBRANCH  40  41
ENDBRANCH   1  40
TORSDOF 17
ENDMDL
