MODEL 1
REMARK VINA RESULT:     -12.3      0.000      0.000
REMARK SMILES Cc1ccccc1OCCN1C(=O)CC[C@H](C(=O)NCCCCCCNC(=O)c2ccc(-c3c4nc(c(-c5ccc(S(=O)(=O)[O-])cc5)c5ccc([nH]5)c(-c5ccc(S(=O)(=O)[O-])cc5)c5nc(c(-c6ccc(S(=O)(=O)[O-])cc6)c6ccc3[nH]6)C=C5)C=C4)cc2)[C@@H]1c1ccco1
REMARK SMILES IDX 22 1 21 2 20 3 19 4 17 5 18 6 16 8 11 9 12 10 89 11 13 12
REMARK SMILES IDX 14 13 15 14 10 15 9 16 8 17 7 18 1 19 2 20 3 21 4 22 6 23
REMARK SMILES IDX 5 24 90 25 91 26 94 27 92 28 93 29 23 30 24 31 25 32 26 33
REMARK SMILES IDX 27 34 28 36 29 37 30 38 88 39 31 40 87 41 32 42 33 43 34 44
REMARK SMILES IDX 81 45 35 46 86 47 80 48 82 49 36 50 85 51 79 52 78 53 37 55
REMARK SMILES IDX 67 56 48 57 66 58 49 59 52 60 65 61 83 62 50 63 51 64 64 66
REMARK SMILES IDX 84 67 53 68 38 69 39 70 47 71 40 72 46 73 41 74 42 75 43 76
REMARK SMILES IDX 44 77 45 78 68 79 69 80 77 81 70 82 76 83 71 84 72 85 73 86
REMARK SMILES IDX 74 87 75 88 54 89 55 90 63 91 56 92 62 93 57 94 58 95 59 96
REMARK SMILES IDX 60 97 61 98
REMARK H PARENT 19 7 26 35 82 54 52 65
REMARK Flexibility Score: inf
ROOT
ATOM      1  C   UNL A   1      33.732  29.131  24.692  1.00  0.00     0.002 C 
ENDROOT
BRANCH   1   2
ATOM      2  C   UNL A   1      33.759  29.178  23.160  1.00  0.00     0.021 C 
BRANCH   2   3
ATOM      3  C   UNL A   1      34.166  27.901  22.438  1.00  0.00     0.116 C 
BRANCH   3   4
ATOM      4  N   UNL A   1      33.118  27.239  21.690  1.00  0.00    -0.356 N 
ATOM      5  C   UNL A   1      31.858  26.918  22.106  1.00  0.00     0.225 C 
ATOM      6  O   UNL A   1      30.993  26.752  21.238  1.00  0.00    -0.275 OA
ATOM      7  H   UNL A   1      33.342  26.990  20.764  1.00  0.00     0.163 HD
BRANCH   5   8
ATOM      8  C   UNL A   1      31.483  26.752  23.582  1.00  0.00     0.109 C 
ATOM      9  N   UNL A   1      31.598  25.313  25.644  1.00  0.00    -0.328 N 
ATOM     10  C   UNL A   1      30.224  25.310  25.841  1.00  0.00     0.223 C 
ATOM     11  C   UNL A   1      32.196  25.612  24.329  1.00  0.00     0.164 C 
ATOM     12  O   UNL A   1      29.691  24.845  26.849  1.00  0.00    -0.275 OA
ATOM     13  C   UNL A   1      29.369  25.835  24.715  1.00  0.00     0.101 C 
ATOM     14  C   UNL A   1      29.998  26.943  23.893  1.00  0.00     0.026 C 
BRANCH   9  15
ATOM     15  C   UNL A   1      32.441  24.726  26.693  1.00  0.00     0.162 C 
BRANCH  15  16
ATOM     16  C   UNL A   1      32.651  23.209  26.593  1.00  0.00     0.251 C 
BRANCH  16  17
ATOM     17  O   UNL A   1      33.911  22.715  27.057  1.00  0.00    -0.491 OA
BRANCH  17  18
ATOM     18  C   UNL A   1      34.925  22.579  26.149  1.00  0.00     0.122 A 
ATOM     19  C   UNL A   1      34.251  20.274  25.267  1.00  0.00     0.048 C 
ATOM     20  C   UNL A   1      35.129  21.488  25.293  1.00  0.00    -0.009 A 
ATOM     21  C   UNL A   1      36.227  21.520  24.413  1.00  0.00     0.007 A 
ATOM     22  C   UNL A   1      37.138  22.577  24.425  1.00  0.00     0.001 A 
ATOM     23  C   UNL A   1      35.872  23.613  26.187  1.00  0.00     0.047 A 
ATOM     24  C   UNL A   1      36.968  23.620  25.325  1.00  0.00     0.004 A 
ENDBRANCH  17  18
ENDBRANCH  16  17
ENDBRANCH  15  16
ENDBRANCH   9  15
BRANCH  11  25
ATOM     25  C   UNL A   1      32.385  24.334  23.566  1.00  0.00     0.127 A 
ATOM     26  C   UNL A   1      33.475  23.783  22.917  1.00  0.00     0.048 A 
ATOM     27  O   UNL A   1      31.331  23.465  23.503  1.00  0.00    -0.467 OA
ATOM     28  C   UNL A   1      33.065  22.513  22.445  1.00  0.00     0.042 A 
ATOM     29  C   UNL A   1      31.756  22.361  22.838  1.00  0.00     0.195 A 
ENDBRANCH  11  25
ENDBRANCH   5   8
ENDBRANCH   3   4
ENDBRANCH   2   3
ENDBRANCH   1   2
BRANCH   1  30
ATOM     30  C   UNL A   1      32.533  29.744  25.437  1.00  0.00     0.002 C 
BRANCH  30  31
ATOM     31  C   UNL A   1      32.748  30.309  26.843  1.00  0.00     0.021 C 
BRANCH  31  32
ATOM     32  C   UNL A   1      34.084  29.997  27.489  1.00  0.00     0.116 C 
BRANCH  32  33
ATOM     33  N   UNL A   1      35.093  31.040  27.393  1.00  0.00    -0.352 N 
ATOM     34  C   UNL A   1      36.045  31.143  28.421  1.00  0.00     0.251 C 
ATOM     35  H   UNL A   1      35.109  31.658  26.627  1.00  0.00     0.163 HD
ATOM     36  O   UNL A   1      36.082  32.004  29.248  1.00  0.00    -0.269 OA
BRANCH  34  37
ATOM     37  C   UNL A   1      36.919  29.941  28.501  1.00  0.00     0.039 A 
ATOM     38  C   UNL A   1      37.024  29.221  29.689  1.00  0.00     0.014 A 
ATOM     39  C   UNL A   1      37.840  29.772  27.467  1.00  0.00     0.014 A 
ATOM     40  C   UNL A   1      38.150  28.422  29.901  1.00  0.00     0.010 A 
ATOM     41  C   UNL A   1      39.001  29.074  27.726  1.00  0.00     0.010 A 
ATOM     42  C   UNL A   1      39.176  28.420  28.953  1.00  0.00    -0.014 A 
BRANCH  42  43
ATOM     43  C   UNL A   1      40.507  27.852  29.166  1.00  0.00     0.031 A 
ATOM     44  C   UNL A   1      40.809  26.460  28.735  1.00  0.00     0.074 A 
ATOM     45  C   UNL A   1      41.519  28.628  29.619  1.00  0.00     0.049 A 
ATOM     46  N   UNL A   1      41.825  25.776  29.148  1.00  0.00    -0.248 NA
ATOM     47  C   UNL A   1      39.950  25.704  27.824  1.00  0.00     0.031 C 
ATOM     48  C   UNL A   1      42.949  28.348  29.488  1.00  0.00     0.029 A 
ATOM     49  N   UNL A   1      41.477  29.730  30.475  1.00  0.00    -0.354 N 
ATOM     50  C   UNL A   1      41.913  24.646  28.367  1.00  0.00     0.074 A 
ATOM     51  C   UNL A   1      40.690  24.614  27.601  1.00  0.00     0.031 C 
ATOM     52  C   UNL A   1      43.608  29.018  30.444  1.00  0.00     0.029 A 
ATOM     53  C   UNL A   1      42.612  29.635  31.299  1.00  0.00     0.049 A 
ATOM     54  H   UNL A   1      40.788  30.434  30.496  1.00  0.00     0.167 HD
ATOM     55  C   UNL A   1      43.063  23.916  28.346  1.00  0.00     0.031 A 
ATOM     56  C   UNL A   1      42.589  29.565  32.663  1.00  0.00     0.031 A 
ATOM     57  C   UNL A   1      44.068  24.442  29.257  1.00  0.00     0.049 A 
ATOM     58  C   UNL A   1      43.321  28.362  33.218  1.00  0.00     0.074 A 
ATOM     59  C   UNL A   1      45.169  25.265  29.082  1.00  0.00     0.029 A 
ATOM     60  N   UNL A   1      43.858  24.344  30.623  1.00  0.00    -0.354 N 
ATOM     61  N   UNL A   1      43.715  27.359  32.484  1.00  0.00    -0.248 NA
ATOM     62  C   UNL A   1      43.615  28.154  34.635  1.00  0.00     0.031 C 
ATOM     63  C   UNL A   1      45.587  25.713  30.360  1.00  0.00     0.029 A 
ATOM     64  C   UNL A   1      44.753  25.144  31.305  1.00  0.00     0.049 A 
ATOM     65  H   UNL A   1      43.170  23.782  31.048  1.00  0.00     0.167 HD
ATOM     66  C   UNL A   1      44.265  26.389  33.279  1.00  0.00     0.074 A 
ATOM     67  C   UNL A   1      44.201  26.942  34.618  1.00  0.00     0.031 C 
ATOM     68  C   UNL A   1      44.703  25.206  32.758  1.00  0.00     0.031 A 
BRANCH  55  69
ATOM     69  C   UNL A   1      43.366  22.868  27.304  1.00  0.00    -0.014 A 
ATOM     70  C   UNL A   1      42.667  21.642  27.330  1.00  0.00     0.010 A 
ATOM     71  C   UNL A   1      44.340  23.013  26.299  1.00  0.00     0.010 A 
ATOM     72  C   UNL A   1      42.987  20.586  26.467  1.00  0.00     0.020 A 
ATOM     73  C   UNL A   1      44.697  21.950  25.454  1.00  0.00     0.020 A 
ATOM     74  C   UNL A   1      44.023  20.737  25.550  1.00  0.00     0.054 A 
BRANCH  74  75
ATOM     75  S   UNL A   1      44.478  19.330  24.504  1.00  0.00     0.124 S 
ATOM     76  O   UNL A   1      44.413  19.901  23.161  1.00  0.00    -0.237 OA
ATOM     77  O   UNL A   1      45.817  19.002  24.985  1.00  0.00    -0.237 OA
ATOM     78  O   UNL A   1      43.450  18.333  24.798  1.00  0.00    -0.744 OA
ENDBRANCH  74  75
ENDBRANCH  55  69
BRANCH  56  79
ATOM     79  C   UNL A   1      41.406  30.218  33.287  1.00  0.00    -0.014 A 
ATOM     80  C   UNL A   1      41.498  31.606  33.521  1.00  0.00     0.010 A 
ATOM     81  C   UNL A   1      40.136  29.625  33.167  1.00  0.00     0.010 A 
ATOM     82  C   UNL A   1      40.365  32.415  33.411  1.00  0.00     0.020 A 
ATOM     83  C   UNL A   1      38.998  30.437  33.067  1.00  0.00     0.020 A 
ATOM     84  C   UNL A   1      39.139  31.828  33.097  1.00  0.00     0.054 A 
BRANCH  84  85
ATOM     85  S   UNL A   1      37.794  32.911  32.523  1.00  0.00     0.124 S 
ATOM     86  O   UNL A   1      36.629  32.038  32.597  1.00  0.00    -0.237 OA
ATOM     87  O   UNL A   1      37.836  33.997  33.506  1.00  0.00    -0.237 OA
ATOM     88  O   UNL A   1      38.219  33.286  31.177  1.00  0.00    -0.744 OA
ENDBRANCH  84  85
ENDBRANCH  56  79
BRANCH  68  89
ATOM     89  C   UNL A   1      45.166  23.994  33.529  1.00  0.00    -0.014 A 
ATOM     90  C   UNL A   1      46.457  23.838  34.052  1.00  0.00     0.010 A 
ATOM     91  C   UNL A   1      44.207  23.011  33.878  1.00  0.00     0.010 A 
ATOM     92  C   UNL A   1      46.787  22.732  34.851  1.00  0.00     0.020 A 
ATOM     93  C   UNL A   1      44.514  21.928  34.706  1.00  0.00     0.020 A 
ATOM     94  C   UNL A   1      45.814  21.784  35.173  1.00  0.00     0.054 A 
BRANCH  94  95
ATOM     95  S   UNL A   1      46.220  20.405  36.275  1.00  0.00     0.124 S 
ATOM     96  O   UNL A   1      45.711  20.885  37.556  1.00  0.00    -0.237 OA
ATOM     97  O   UNL A   1      45.483  19.286  35.690  1.00  0.00    -0.237 OA
ATOM     98  O   UNL A   1      47.673  20.304  36.172  1.00  0.00    -0.744 OA
ENDBRANCH  94  95
ENDBRANCH  68  89
ENDBRANCH  42  43
ENDBRANCH  34  37
ENDBRANCH  32  33
ENDBRANCH  31  32
ENDBRANCH  30  31
ENDBRANCH   1  30
TORSDOF 21
ENDMDL
MODEL 2
REMARK VINA RESULT:     -11.9      1.609      2.231
REMARK SMILES Cc1ccccc1OCCN1C(=O)CC[C@H](C(=O)NCCCCCCNC(=O)c2ccc(-c3c4nc(c(-c5ccc(S(=O)(=O)[O-])cc5)c5ccc([nH]5)c(-c5ccc(S(=O)(=O)[O-])cc5)c5nc(c(-c6ccc(S(=O)(=O)[O-])cc6)c6ccc3[nH]6)C=C5)C=C4)cc2)[C@@H]1c1ccco1
REMARK SMILES IDX 22 1 21 2 20 3 19 4 17 5 18 6 16 8 11 9 12 10 89 11 13 12
REMARK SMILES IDX 14 13 15 14 10 15 9 16 8 17 7 18 1 19 2 20 3 21 4 22 6 23
REMARK SMILES IDX 5 24 90 25 91 26 94 27 92 28 93 29 23 30 24 31 25 32 26 33
REMARK SMILES IDX 27 34 28 36 29 37 30 38 88 39 31 40 87 41 32 42 33 43 34 44
REMARK SMILES IDX 81 45 35 46 86 47 80 48 82 49 36 50 85 51 79 52 78 53 37 55
REMARK SMILES IDX 67 56 48 57 66 58 49 59 52 60 65 61 83 62 50 63 51 64 64 66
REMARK SMILES IDX 84 67 53 68 38 69 39 70 47 71 40 72 46 73 41 74 42 75 43 76
REMARK SMILES IDX 44 77 45 78 68 79 69 80 77 81 70 82 76 83 71 84 72 85 73 86
REMARK SMILES IDX 74 87 75 88 54 89 55 90 63 91 56 92 62 93 57 94 58 95 59 96
REMARK SMILES IDX 60 97 61 98
REMARK H PARENT 19 7 26 35 82 54 52 65
REMARK Flexibility Score: inf
ROOT
ATOM      1  C   UNL A   1      33.274  29.167  24.616  1.00  0.00     0.002 C 
ENDROOT
BRANCH   1   2
ATOM      2  C   UNL A   1      33.504  29.124  23.101  1.00  0.00     0.021 C 
BRANCH   2   3
ATOM      3  C   UNL A   1      33.731  27.755  22.476  1.00  0.00     0.116 C 
BRANCH   3   4
ATOM      4  N   UNL A   1      32.538  27.040  22.075  1.00  0.00    -0.356 N 
ATOM      5  C   UNL A   1      31.593  26.459  22.870  1.00  0.00     0.225 C 
ATOM      6  O   UNL A   1      30.471  26.276  22.387  1.00  0.00    -0.275 OA
ATOM      7  H   UNL A   1      32.389  26.963  21.104  1.00  0.00     0.163 HD
BRANCH   5   8
ATOM      8  C   UNL A   1      31.869  26.028  24.315  1.00  0.00     0.109 C 
ATOM      9  N   UNL A   1      32.814  24.276  25.854  1.00  0.00    -0.328 N 
ATOM     10  C   UNL A   1      31.650  24.158  26.600  1.00  0.00     0.223 C 
ATOM     11  C   UNL A   1      32.812  24.825  24.485  1.00  0.00     0.164 C 
ATOM     12  O   UNL A   1      31.581  23.501  27.639  1.00  0.00    -0.275 OA
ATOM     13  C   UNL A   1      30.410  24.812  26.042  1.00  0.00     0.101 C 
ATOM     14  C   UNL A   1      30.654  26.076  25.242  1.00  0.00     0.026 C 
BRANCH   9  15
ATOM     15  C   UNL A   1      34.010  23.574  26.338  1.00  0.00     0.162 C 
BRANCH  15  16
ATOM     16  C   UNL A   1      35.349  24.150  25.856  1.00  0.00     0.251 C 
BRANCH  16  17
ATOM     17  O   UNL A   1      36.139  23.297  25.023  1.00  0.00    -0.491 OA
BRANCH  17  18
ATOM     18  C   UNL A   1      37.355  22.882  25.492  1.00  0.00     0.122 A 
ATOM     19  C   UNL A   1      37.152  20.436  24.767  1.00  0.00     0.048 C 
ATOM     20  C   UNL A   1      37.879  21.585  25.396  1.00  0.00    -0.009 A 
ATOM     21  C   UNL A   1      39.158  21.336  25.931  1.00  0.00     0.007 A 
ATOM     22  C   UNL A   1      39.871  22.330  26.602  1.00  0.00     0.001 A 
ATOM     23  C   UNL A   1      38.058  23.860  26.209  1.00  0.00     0.047 A 
ATOM     24  C   UNL A   1      39.314  23.593  26.754  1.00  0.00     0.004 A 
ENDBRANCH  17  18
ENDBRANCH  16  17
ENDBRANCH  15  16
ENDBRANCH   9  15
BRANCH  11  25
ATOM     25  C   UNL A   1      32.643  23.705  23.501  1.00  0.00     0.127 A 
ATOM     26  C   UNL A   1      33.226  23.440  22.275  1.00  0.00     0.048 A 
ATOM     27  O   UNL A   1      31.805  22.678  23.837  1.00  0.00    -0.467 OA
ATOM     28  C   UNL A   1      32.724  22.186  21.851  1.00  0.00     0.042 A 
ATOM     29  C   UNL A   1      31.873  21.758  22.842  1.00  0.00     0.195 A 
ENDBRANCH  11  25
ENDBRANCH   5   8
ENDBRANCH   3   4
ENDBRANCH   2   3
ENDBRANCH   1   2
BRANCH   1  30
ATOM     30  C   UNL A   1      31.916  29.657  25.152  1.00  0.00     0.002 C 
BRANCH  30  31
ATOM     31  C   UNL A   1      31.886  30.483  26.440  1.00  0.00     0.021 C 
BRANCH  31  32
ATOM     32  C   UNL A   1      33.108  30.375  27.330  1.00  0.00     0.116 C 
BRANCH  32  33
ATOM     33  N   UNL A   1      33.918  31.578  27.444  1.00  0.00    -0.352 N 
ATOM     34  C   UNL A   1      34.688  31.755  28.605  1.00  0.00     0.251 C 
ATOM     35  H   UNL A   1      33.926  32.251  26.725  1.00  0.00     0.163 HD
ATOM     36  O   UNL A   1      34.458  32.538  29.476  1.00  0.00    -0.269 OA
BRANCH  34  37
ATOM     37  C   UNL A   1      35.745  30.716  28.743  1.00  0.00     0.039 A 
ATOM     38  C   UNL A   1      35.910  30.032  29.946  1.00  0.00     0.014 A 
ATOM     39  C   UNL A   1      36.730  30.697  27.757  1.00  0.00     0.014 A 
ATOM     40  C   UNL A   1      37.141  29.433  30.222  1.00  0.00     0.010 A 
ATOM     41  C   UNL A   1      37.977  30.204  28.080  1.00  0.00     0.010 A 
ATOM     42  C   UNL A   1      38.199  29.596  29.324  1.00  0.00    -0.014 A 
BRANCH  42  43
ATOM     43  C   UNL A   1      39.593  29.259  29.608  1.00  0.00     0.031 A 
ATOM     44  C   UNL A   1      40.195  28.016  29.054  1.00  0.00     0.074 A 
ATOM     45  C   UNL A   1      40.395  30.141  30.250  1.00  0.00     0.049 A 
ATOM     46  N   UNL A   1      41.289  27.482  29.489  1.00  0.00    -0.248 NA
ATOM     47  C   UNL A   1      39.576  27.243  27.977  1.00  0.00     0.031 C 
ATOM     48  C   UNL A   1      41.857  30.149  30.238  1.00  0.00     0.029 A 
ATOM     49  N   UNL A   1      40.069  31.092  31.218  1.00  0.00    -0.354 N 
ATOM     50  C   UNL A   1      41.658  26.501  28.597  1.00  0.00     0.074 A 
ATOM     51  C   UNL A   1      40.530  26.346  27.709  1.00  0.00     0.031 C 
ATOM     52  C   UNL A   1      42.293  30.795  31.327  1.00  0.00     0.029 A 
ATOM     53  C   UNL A   1      41.130  31.100  32.140  1.00  0.00     0.049 A 
ATOM     54  H   UNL A   1      39.256  31.649  31.247  1.00  0.00     0.167 HD
ATOM     55  C   UNL A   1      42.927  26.004  28.612  1.00  0.00     0.031 A 
ATOM     56  C   UNL A   1      41.012  30.846  33.477  1.00  0.00     0.031 A 
ATOM     57  C   UNL A   1      43.733  26.580  29.678  1.00  0.00     0.049 A 
ATOM     58  C   UNL A   1      41.918  29.735  33.962  1.00  0.00     0.074 A 
ATOM     59  C   UNL A   1      44.662  27.607  29.713  1.00  0.00     0.029 A 
ATOM     60  N   UNL A   1      43.437  26.265  30.994  1.00  0.00    -0.354 N 
ATOM     61  N   UNL A   1      42.559  28.928  33.164  1.00  0.00    -0.248 NA
ATOM     62  C   UNL A   1      42.133  29.399  35.369  1.00  0.00     0.031 C 
ATOM     63  C   UNL A   1      44.881  27.951  31.071  1.00  0.00     0.029 A 
ATOM     64  C   UNL A   1      44.100  27.118  31.852  1.00  0.00     0.049 A 
ATOM     65  H   UNL A   1      42.840  25.535  31.276  1.00  0.00     0.167 HD
ATOM     66  C   UNL A   1      43.222  27.979  33.894  1.00  0.00     0.074 A 
ATOM     67  C   UNL A   1      42.943  28.328  35.274  1.00  0.00     0.031 C 
ATOM     68  C   UNL A   1      43.923  26.977  33.290  1.00  0.00     0.031 A 
BRANCH  55  69
ATOM     69  C   UNL A   1      43.511  25.178  27.493  1.00  0.00    -0.014 A 
ATOM     70  C   UNL A   1      43.324  23.779  27.494  1.00  0.00     0.010 A 
ATOM     71  C   UNL A   1      44.276  25.707  26.437  1.00  0.00     0.010 A 
ATOM     72  C   UNL A   1      43.942  22.945  26.553  1.00  0.00     0.020 A 
ATOM     73  C   UNL A   1      44.932  24.881  25.511  1.00  0.00     0.020 A 
ATOM     74  C   UNL A   1      44.768  23.501  25.581  1.00  0.00     0.054 A 
BRANCH  74  75
ATOM     75  S   UNL A   1      45.628  22.399  24.428  1.00  0.00     0.124 S 
ATOM     76  O   UNL A   1      46.189  21.387  25.319  1.00  0.00    -0.237 OA
ATOM     77  O   UNL A   1      44.544  21.944  23.562  1.00  0.00    -0.237 OA
ATOM     78  O   UNL A   1      46.613  23.269  23.788  1.00  0.00    -0.744 OA
ENDBRANCH  74  75
ENDBRANCH  55  69
BRANCH  56  79
ATOM     79  C   UNL A   1      39.678  31.182  34.044  1.00  0.00    -0.014 A 
ATOM     80  C   UNL A   1      39.561  32.429  34.693  1.00  0.00     0.010 A 
ATOM     81  C   UNL A   1      38.524  30.565  33.530  1.00  0.00     0.010 A 
ATOM     82  C   UNL A   1      38.365  33.146  34.628  1.00  0.00     0.020 A 
ATOM     83  C   UNL A   1      37.320  31.282  33.474  1.00  0.00     0.020 A 
ATOM     84  C   UNL A   1      37.281  32.600  33.940  1.00  0.00     0.054 A 
BRANCH  84  85
ATOM     85  S   UNL A   1      35.911  33.707  33.484  1.00  0.00     0.124 S 
ATOM     86  O   UNL A   1      36.352  34.994  34.008  1.00  0.00    -0.237 OA
ATOM     87  O   UNL A   1      35.896  33.588  32.024  1.00  0.00    -0.237 OA
ATOM     88  O   UNL A   1      34.762  33.110  34.158  1.00  0.00    -0.744 OA
ENDBRANCH  84  85
ENDBRANCH  56  79
BRANCH  68  89
ATOM     89  C   UNL A   1      44.550  25.779  33.960  1.00  0.00    -0.014 A 
ATOM     90  C   UNL A   1      45.918  25.659  34.241  1.00  0.00     0.010 A 
ATOM     91  C   UNL A   1      43.697  24.771  34.474  1.00  0.00     0.010 A 
ATOM     92  C   UNL A   1      46.417  24.564  34.964  1.00  0.00     0.020 A 
ATOM     93  C   UNL A   1      44.178  23.698  35.229  1.00  0.00     0.020 A 
ATOM     94  C   UNL A   1      45.544  23.590  35.453  1.00  0.00     0.054 A 
BRANCH  94  95
ATOM     95  S   UNL A   1      46.180  22.224  36.458  1.00  0.00     0.124 S 
ATOM     96  O   UNL A   1      47.612  22.290  36.182  1.00  0.00    -0.237 OA
ATOM     97  O   UNL A   1      45.789  22.602  37.816  1.00  0.00    -0.237 OA
ATOM     98  O   UNL A   1      45.488  21.056  35.922  1.00  0.00    -0.744 OA
ENDBRANCH  94  95
ENDBRANCH  68  89
ENDBRANCH  42  43
ENDBRANCH  34  37
ENDBRANCH  32  33
ENDBRANCH  31  32
ENDBRANCH  30  31
ENDBRANCH   1  30
TORSDOF 21
ENDMDL
MODEL 3
REMARK VINA RESULT:     -11.7      4.314     10.686
REMARK SMILES Cc1ccccc1OCCN1C(=O)CC[C@H](C(=O)NCCCCCCNC(=O)c2ccc(-c3c4nc(c(-c5ccc(S(=O)(=O)[O-])cc5)c5ccc([nH]5)c(-c5ccc(S(=O)(=O)[O-])cc5)c5nc(c(-c6ccc(S(=O)(=O)[O-])cc6)c6ccc3[nH]6)C=C5)C=C4)cc2)[C@@H]1c1ccco1
REMARK SMILES IDX 22 1 21 2 20 3 19 4 17 5 18 6 16 8 11 9 12 10 89 11 13 12
REMARK SMILES IDX 14 13 15 14 10 15 9 16 8 17 7 18 1 19 2 20 3 21 4 22 6 23
REMARK SMILES IDX 5 24 90 25 91 26 94 27 92 28 93 29 23 30 24 31 25 32 26 33
REMARK SMILES IDX 27 34 28 36 29 37 30 38 88 39 31 40 87 41 32 42 33 43 34 44
REMARK SMILES IDX 81 45 35 46 86 47 80 48 82 49 36 50 85 51 79 52 78 53 37 55
REMARK SMILES IDX 67 56 48 57 66 58 49 59 52 60 65 61 83 62 50 63 51 64 64 66
REMARK SMILES IDX 84 67 53 68 38 69 39 70 47 71 40 72 46 73 41 74 42 75 43 76
REMARK SMILES IDX 44 77 45 78 68 79 69 80 77 81 70 82 76 83 71 84 72 85 73 86
REMARK SMILES IDX 74 87 75 88 54 89 55 90 63 91 56 92 62 93 57 94 58 95 59 96
REMARK SMILES IDX 60 97 61 98
REMARK H PARENT 19 7 26 35 82 54 52 65
REMARK Flexibility Score: inf
ROOT
ATOM      1  C   UNL A   1      35.388  21.526  26.109  1.00  0.00     0.002 C 
ENDROOT
BRANCH   1   2
ATOM      2  C   UNL A   1      35.028  20.949  24.735  1.00  0.00     0.021 C 
BRANCH   2   3
ATOM      3  C   UNL A   1      33.671  20.272  24.606  1.00  0.00     0.116 C 
BRANCH   3   4
ATOM      4  N   UNL A   1      32.543  21.019  25.121  1.00  0.00    -0.356 N 
ATOM      5  C   UNL A   1      32.073  22.232  24.707  1.00  0.00     0.225 C 
ATOM      6  O   UNL A   1      30.895  22.507  24.960  1.00  0.00    -0.275 OA
ATOM      7  H   UNL A   1      32.052  20.599  25.864  1.00  0.00     0.163 HD
BRANCH   5   8
ATOM      8  C   UNL A   1      32.939  23.251  23.958  1.00  0.00     0.109 C 
ATOM      9  N   UNL A   1      33.405  25.675  23.469  1.00  0.00    -0.328 N 
ATOM     10  C   UNL A   1      33.334  25.516  22.093  1.00  0.00     0.223 C 
ATOM     11  C   UNL A   1      32.779  24.716  24.399  1.00  0.00     0.164 C 
ATOM     12  O   UNL A   1      33.639  26.404  21.297  1.00  0.00    -0.275 OA
ATOM     13  C   UNL A   1      32.779  24.209  21.581  1.00  0.00     0.101 C 
ATOM     14  C   UNL A   1      33.066  23.003  22.455  1.00  0.00     0.026 C 
BRANCH   9  15
ATOM     15  C   UNL A   1      33.861  26.972  23.985  1.00  0.00     0.162 C 
BRANCH  15  16
ATOM     16  C   UNL A   1      34.247  26.989  25.470  1.00  0.00     0.251 C 
BRANCH  16  17
ATOM     17  O   UNL A   1      33.219  27.381  26.385  1.00  0.00    -0.491 OA
BRANCH  17  18
ATOM     18  C   UNL A   1      32.997  28.717  26.572  1.00  0.00     0.122 A 
ATOM     19  C   UNL A   1      31.025  28.937  24.956  1.00  0.00     0.048 C 
ATOM     20  C   UNL A   1      32.000  29.484  25.953  1.00  0.00    -0.009 A 
ATOM     21  C   UNL A   1      31.911  30.853  26.271  1.00  0.00     0.007 A 
ATOM     22  C   UNL A   1      32.827  31.460  27.132  1.00  0.00     0.001 A 
ATOM     23  C   UNL A   1      33.941  29.346  27.397  1.00  0.00     0.047 A 
ATOM     24  C   UNL A   1      33.854  30.707  27.685  1.00  0.00     0.004 A 
ENDBRANCH  17  18
ENDBRANCH  16  17
ENDBRANCH  15  16
ENDBRANCH   9  15
BRANCH  11  25
ATOM     25  C   UNL A   1      31.383  25.166  24.713  1.00  0.00     0.127 A 
ATOM     26  C   UNL A   1      30.294  25.466  23.914  1.00  0.00     0.048 A 
ATOM     27  O   UNL A   1      31.025  25.271  26.028  1.00  0.00    -0.467 OA
ATOM     28  C   UNL A   1      29.219  25.759  24.789  1.00  0.00     0.042 A 
ATOM     29  C   UNL A   1      29.712  25.613  26.064  1.00  0.00     0.195 A 
ENDBRANCH  11  25
ENDBRANCH   5   8
ENDBRANCH   3   4
ENDBRANCH   2   3
ENDBRANCH   1   2
BRANCH   1  30
ATOM     30  C   UNL A   1      35.573  23.048  26.255  1.00  0.00     0.002 C 
BRANCH  30  31
ATOM     31  C   UNL A   1      36.941  23.657  25.945  1.00  0.00     0.021 C 
BRANCH  31  32
ATOM     32  C   UNL A   1      38.081  22.676  25.751  1.00  0.00     0.116 C 
BRANCH  32  33
ATOM     33  N   UNL A   1      38.930  22.453  26.911  1.00  0.00    -0.352 N 
ATOM     34  C   UNL A   1      40.059  23.272  27.077  1.00  0.00     0.251 C 
ATOM     35  H   UNL A   1      38.718  21.746  27.563  1.00  0.00     0.163 HD
ATOM     36  O   UNL A   1      41.192  22.931  26.920  1.00  0.00    -0.269 OA
BRANCH  34  37
ATOM     37  C   UNL A   1      39.692  24.698  27.293  1.00  0.00     0.039 A 
ATOM     38  C   UNL A   1      40.228  25.696  26.481  1.00  0.00     0.014 A 
ATOM     39  C   UNL A   1      39.070  25.004  28.503  1.00  0.00     0.014 A 
ATOM     40  C   UNL A   1      40.265  27.009  26.955  1.00  0.00     0.010 A 
ATOM     41  C   UNL A   1      39.212  26.278  29.013  1.00  0.00     0.010 A 
ATOM     42  C   UNL A   1      39.835  27.280  28.256  1.00  0.00    -0.014 A 
BRANCH  42  43
ATOM     43  C   UNL A   1      40.065  28.537  28.966  1.00  0.00     0.031 A 
ATOM     44  C   UNL A   1      39.076  29.645  28.874  1.00  0.00     0.074 A 
ATOM     45  C   UNL A   1      41.100  28.658  29.830  1.00  0.00     0.049 A 
ATOM     46  N   UNL A   1      39.327  30.872  29.195  1.00  0.00    -0.248 NA
ATOM     47  C   UNL A   1      37.718  29.460  28.364  1.00  0.00     0.031 C 
ATOM     48  C   UNL A   1      41.224  29.649  30.898  1.00  0.00     0.029 A 
ATOM     49  N   UNL A   1      42.355  28.048  29.801  1.00  0.00    -0.354 N 
ATOM     50  C   UNL A   1      38.130  31.553  29.212  1.00  0.00     0.074 A 
ATOM     51  C   UNL A   1      37.168  30.650  28.626  1.00  0.00     0.031 C 
ATOM     52  C   UNL A   1      42.522  29.799  31.198  1.00  0.00     0.029 A 
ATOM     53  C   UNL A   1      43.277  29.014  30.239  1.00  0.00     0.049 A 
ATOM     54  H   UNL A   1      42.554  27.122  29.527  1.00  0.00     0.167 HD
ATOM     55  C   UNL A   1      38.038  32.762  29.834  1.00  0.00     0.031 A 
ATOM     56  C   UNL A   1      44.348  29.463  29.520  1.00  0.00     0.031 A 
ATOM     57  C   UNL A   1      39.317  33.206  30.369  1.00  0.00     0.049 A 
ATOM     58  C   UNL A   1      44.372  30.967  29.348  1.00  0.00     0.074 A 
ATOM     59  C   UNL A   1      39.886  33.153  31.631  1.00  0.00     0.029 A 
ATOM     60  N   UNL A   1      40.326  33.569  29.492  1.00  0.00    -0.354 N 
ATOM     61  N   UNL A   1      43.360  31.739  29.629  1.00  0.00    -0.248 NA
ATOM     62  C   UNL A   1      45.499  31.717  28.796  1.00  0.00     0.031 C 
ATOM     63  C   UNL A   1      41.270  33.432  31.497  1.00  0.00     0.029 A 
ATOM     64  C   UNL A   1      41.529  33.672  30.161  1.00  0.00     0.049 A 
ATOM     65  H   UNL A   1      40.202  33.732  28.528  1.00  0.00     0.167 HD
ATOM     66  C   UNL A   1      43.653  33.033  29.287  1.00  0.00     0.074 A 
ATOM     67  C   UNL A   1      45.014  32.973  28.789  1.00  0.00     0.031 C 
ATOM     68  C   UNL A   1      42.734  34.031  29.428  1.00  0.00     0.031 A 
BRANCH  55  69
ATOM     69  C   UNL A   1      36.728  33.424  30.179  1.00  0.00    -0.014 A 
ATOM     70  C   UNL A   1      35.862  33.829  29.141  1.00  0.00     0.010 A 
ATOM     71  C   UNL A   1      36.306  33.701  31.492  1.00  0.00     0.010 A 
ATOM     72  C   UNL A   1      34.690  34.556  29.391  1.00  0.00     0.020 A 
ATOM     73  C   UNL A   1      35.155  34.462  31.755  1.00  0.00     0.020 A 
ATOM     74  C   UNL A   1      34.358  34.894  30.699  1.00  0.00     0.054 A 
BRANCH  74  75
ATOM     75  S   UNL A   1      32.887  35.909  30.994  1.00  0.00     0.124 S 
ATOM     76  O   UNL A   1      32.300  36.009  29.660  1.00  0.00    -0.237 OA
ATOM     77  O   UNL A   1      32.137  35.103  31.954  1.00  0.00    -0.237 OA
ATOM     78  O   UNL A   1      33.430  37.160  31.522  1.00  0.00    -0.744 OA
ENDBRANCH  74  75
ENDBRANCH  55  69
BRANCH  56  79
ATOM     79  C   UNL A   1      44.883  28.475  28.544  1.00  0.00    -0.014 A 
ATOM     80  C   UNL A   1      44.242  28.412  27.289  1.00  0.00     0.010 A 
ATOM     81  C   UNL A   1      46.211  28.028  28.658  1.00  0.00     0.010 A 
ATOM     82  C   UNL A   1      44.976  28.127  26.136  1.00  0.00     0.020 A 
ATOM     83  C   UNL A   1      46.946  27.732  27.502  1.00  0.00     0.020 A 
ATOM     84  C   UNL A   1      46.344  27.876  26.247  1.00  0.00     0.054 A 
BRANCH  84  85
ATOM     85  S   UNL A   1      47.354  27.953  24.735  1.00  0.00     0.124 S 
ATOM     86  O   UNL A   1      47.189  26.617  24.175  1.00  0.00    -0.237 OA
ATOM     87  O   UNL A   1      46.708  29.037  23.992  1.00  0.00    -0.237 OA
ATOM     88  O   UNL A   1      48.687  28.265  25.240  1.00  0.00    -0.744 OA
ENDBRANCH  84  85
ENDBRANCH  56  79
BRANCH  68  89
ATOM     89  C   UNL A   1      42.860  35.452  28.937  1.00  0.00    -0.014 A 
ATOM     90  C   UNL A   1      43.352  36.513  29.709  1.00  0.00     0.010 A 
ATOM     91  C   UNL A   1      42.606  35.717  27.567  1.00  0.00     0.010 A 
ATOM     92  C   UNL A   1      43.542  37.789  29.154  1.00  0.00     0.020 A 
ATOM     93  C   UNL A   1      42.831  36.972  26.994  1.00  0.00     0.020 A 
ATOM     94  C   UNL A   1      43.280  38.010  27.800  1.00  0.00     0.054 A 
BRANCH  94  95
ATOM     95  S   UNL A   1      43.609  39.633  27.066  1.00  0.00     0.124 S 
ATOM     96  O   UNL A   1      44.823  39.374  26.297  1.00  0.00    -0.237 OA
ATOM     97  O   UNL A   1      42.409  39.886  26.271  1.00  0.00    -0.237 OA
ATOM     98  O   UNL A   1      43.772  40.504  28.227  1.00  0.00    -0.744 OA
ENDBRANCH  94  95
ENDBRANCH  68  89
ENDBRANCH  42  43
ENDBRANCH  34  37
ENDBRANCH  32  33
ENDBRANCH  31  32
ENDBRANCH  30  31
ENDBRANCH   1  30
TORSDOF 21
ENDMDL
