MODEL 1
REMARK VINA RESULT:     -10.9      0.000      0.000
REMARK SMILES O=C(NCCCCCCNC(=O)c1ccc(-c2c3nc(c(-c4ccc(S(=O)(=O)[O-])cc4)c4ccc([nH]4)c(-c4ccc(S(=O)(=O)[O-])cc4)c4nc(c(-c5ccc(S(=O)(=O)[O-])cc5)c5ccc2[nH]5)C=C4)C=C3)cc1)C1=Cc2cc(S(F)(F)(F)(F)F)ccc2O[C@@H]1C(F)(F)F
REMARK SMILES IDX 7 1 6 2 5 3 4 4 3 5 1 6 2 7 73 9 74 10 88 11 75 12 87 13
REMARK SMILES IDX 76 14 86 15 77 16 85 17 84 18 89 19 90 20 91 21 92 22 78 23
REMARK SMILES IDX 79 24 80 25 81 26 82 27 83 28 8 29 9 30 10 31 11 32 12 34
REMARK SMILES IDX 13 35 14 36 72 37 15 38 71 39 16 40 17 41 18 42 65 43 19 44
REMARK SMILES IDX 70 45 64 46 66 47 20 48 69 49 63 50 62 51 21 53 51 54 32 55
REMARK SMILES IDX 50 56 33 57 36 58 49 59 67 60 34 61 35 62 48 64 68 65 37 66
REMARK SMILES IDX 22 67 23 68 31 69 24 70 30 71 25 72 26 73 27 74 28 75 29 76
REMARK SMILES IDX 52 77 53 78 61 79 54 80 60 81 55 82 56 83 57 84 58 85 59 86
REMARK SMILES IDX 38 87 39 88 47 89 40 90 46 91 41 92 42 93 43 94 44 95 45 96
REMARK H PARENT 3 8 10 33 66 52 36 63
REMARK Flexibility Score: inf
ROOT
ATOM      1  C   UNL A   1      33.919  25.216  25.757  1.00  0.00     0.002 C 
ENDROOT
BRANCH   1   2
ATOM      2  C   UNL A   1      32.468  24.936  25.401  1.00  0.00     0.002 C 
BRANCH   2   3
ATOM      3  C   UNL A   1      31.565  25.881  26.178  1.00  0.00     0.021 C 
BRANCH   3   4
ATOM      4  C   UNL A   1      30.459  26.387  25.267  1.00  0.00     0.116 C 
BRANCH   4   5
ATOM      5  N   UNL A   1      30.853  26.195  23.864  1.00  0.00    -0.352 N 
ATOM      6  O   UNL A   1      30.892  27.066  21.654  1.00  0.00    -0.270 OA
ATOM      7  C   UNL A   1      30.552  27.233  22.867  1.00  0.00     0.251 C 
ATOM      8  H   UNL A   1      31.318  25.371  23.592  1.00  0.00     0.163 HD
BRANCH   7   9
ATOM      9  C   UNL A   1      29.832  28.504  23.287  1.00  0.00     0.067 C 
ATOM     10  C   UNL A   1      30.469  29.421  24.064  1.00  0.00     0.025 C 
ATOM     11  C   UNL A   1      28.401  28.750  22.837  1.00  0.00     0.314 C 
ATOM     12  C   UNL A   1      31.900  29.174  24.512  1.00  0.00     0.019 A 
ATOM     13  O   UNL A   1      32.365  28.363  22.328  1.00  0.00    -0.475 OA
ATOM     14  C   UNL A   1      32.247  29.397  25.835  1.00  0.00     0.036 A 
ATOM     15  C   UNL A   1      32.790  28.733  23.632  1.00  0.00     0.128 A 
ATOM     16  C   UNL A   1      33.643  29.398  26.069  1.00  0.00     0.107 A 
ATOM     17  C   UNL A   1      34.118  28.629  23.970  1.00  0.00     0.048 A 
ATOM     18  C   UNL A   1      34.541  28.891  25.244  1.00  0.00     0.028 A 
BRANCH  11  19
ATOM     19  C   UNL A   1      28.340  30.030  22.020  1.00  0.00     0.429 C 
ATOM     20  F   UNL A   1      27.576  29.836  20.948  1.00  0.00    -0.167 F 
ATOM     21  F   UNL A   1      27.824  31.007  22.761  1.00  0.00    -0.167 F 
ATOM     22  F   UNL A   1      29.568  30.369  21.634  1.00  0.00    -0.167 F 
ENDBRANCH  11  19
BRANCH  16  23
ATOM     23  S   UNL A   1      34.239  30.146  27.605  1.00  0.00     0.310 S 
ATOM     24  F   UNL A   1      35.668  30.439  26.982  1.00  0.00    -0.094 F 
ATOM     25  F   UNL A   1      34.795  28.739  28.044  1.00  0.00    -0.094 F 
ATOM     26  F   UNL A   1      34.751  30.790  28.924  1.00  0.00    -0.094 F 
ATOM     27  F   UNL A   1      33.801  31.573  27.087  1.00  0.00    -0.094 F 
ATOM     28  F   UNL A   1      33.816  29.527  26.213  1.00  0.00    -0.094 F 
ENDBRANCH  16  23
ENDBRANCH   7   9
ENDBRANCH   4   5
ENDBRANCH   3   4
ENDBRANCH   2   3
ENDBRANCH   1   2
BRANCH   1  29
ATOM     29  C   UNL A   1      34.743  23.955  25.554  1.00  0.00     0.021 C 
BRANCH  29  30
ATOM     30  C   UNL A   1      36.219  24.316  25.514  1.00  0.00     0.116 C 
BRANCH  30  31
ATOM     31  N   UNL A   1      37.023  23.087  25.450  1.00  0.00    -0.352 N 
ATOM     32  C   UNL A   1      38.358  23.049  26.064  1.00  0.00     0.251 C 
ATOM     33  H   UNL A   1      36.667  22.289  24.996  1.00  0.00     0.163 HD
ATOM     34  O   UNL A   1      39.054  21.987  26.007  1.00  0.00    -0.269 OA
BRANCH  32  35
ATOM     35  C   UNL A   1      38.908  24.281  26.764  1.00  0.00     0.039 A 
ATOM     36  C   UNL A   1      39.670  25.188  26.047  1.00  0.00     0.014 A 
ATOM     37  C   UNL A   1      38.649  24.466  28.054  1.00  0.00     0.014 A 
ATOM     38  C   UNL A   1      40.361  26.122  26.856  1.00  0.00     0.010 A 
ATOM     39  C   UNL A   1      39.256  25.482  28.750  1.00  0.00     0.010 A 
ATOM     40  C   UNL A   1      40.068  26.381  28.117  1.00  0.00    -0.014 A 
BRANCH  40  41
ATOM     41  C   UNL A   1      40.607  27.613  28.826  1.00  0.00     0.031 A 
ATOM     42  C   UNL A   1      41.914  27.570  29.314  1.00  0.00     0.074 A 
ATOM     43  C   UNL A   1      39.770  28.710  28.949  1.00  0.00     0.049 A 
ATOM     44  N   UNL A   1      42.585  28.544  29.932  1.00  0.00    -0.248 NA
ATOM     45  C   UNL A   1      42.792  26.394  29.215  1.00  0.00     0.031 C 
ATOM     46  C   UNL A   1      38.454  28.765  28.452  1.00  0.00     0.029 A 
ATOM     47  N   UNL A   1      40.042  29.916  29.555  1.00  0.00    -0.354 N 
ATOM     48  C   UNL A   1      43.818  28.134  30.234  1.00  0.00     0.074 A 
ATOM     49  C   UNL A   1      43.967  26.744  29.783  1.00  0.00     0.031 C 
ATOM     50  C   UNL A   1      37.936  29.982  28.764  1.00  0.00     0.029 A 
ATOM     51  C   UNL A   1      38.919  30.708  29.461  1.00  0.00     0.049 A 
ATOM     52  H   UNL A   1      40.892  30.169  29.983  1.00  0.00     0.167 HD
ATOM     53  C   UNL A   1      44.825  28.865  30.865  1.00  0.00     0.031 A 
ATOM     54  C   UNL A   1      38.743  31.992  29.950  1.00  0.00     0.031 A 
ATOM     55  C   UNL A   1      44.663  30.166  31.316  1.00  0.00     0.049 A 
ATOM     56  C   UNL A   1      39.732  32.705  30.633  1.00  0.00     0.074 A 
ATOM     57  C   UNL A   1      45.670  30.920  31.947  1.00  0.00     0.029 A 
ATOM     58  N   UNL A   1      43.532  30.949  31.243  1.00  0.00    -0.354 N 
ATOM     59  N   UNL A   1      40.978  32.309  30.900  1.00  0.00    -0.248 NA
ATOM     60  C   UNL A   1      39.546  34.054  31.184  1.00  0.00     0.031 C 
ATOM     61  C   UNL A   1      45.151  32.139  32.260  1.00  0.00     0.029 A 
ATOM     62  C   UNL A   1      43.811  32.164  31.830  1.00  0.00     0.049 A 
ATOM     63  H   UNL A   1      42.672  30.686  30.841  1.00  0.00     0.167 HD
ATOM     64  C   UNL A   1      41.634  33.269  31.554  1.00  0.00     0.074 A 
ATOM     65  C   UNL A   1      40.721  34.402  31.753  1.00  0.00     0.031 C 
ATOM     66  C   UNL A   1      42.960  33.247  31.991  1.00  0.00     0.031 A 
BRANCH  53  67
ATOM     67  C   UNL A   1      46.175  28.199  31.071  1.00  0.00    -0.014 A 
ATOM     68  C   UNL A   1      46.353  27.480  32.242  1.00  0.00     0.010 A 
ATOM     69  C   UNL A   1      47.139  28.284  30.162  1.00  0.00     0.010 A 
ATOM     70  C   UNL A   1      47.698  27.121  32.496  1.00  0.00     0.020 A 
ATOM     71  C   UNL A   1      48.395  27.791  30.425  1.00  0.00     0.020 A 
ATOM     72  C   UNL A   1      48.657  27.121  31.587  1.00  0.00     0.054 A 
BRANCH  72  73
ATOM     73  S   UNL A   1      50.234  26.278  31.866  1.00  0.00     0.124 S 
ATOM     74  O   UNL A   1      50.769  25.742  30.536  1.00  0.00    -0.237 OA
ATOM     75  O   UNL A   1      51.242  27.266  32.459  1.00  0.00    -0.237 OA
ATOM     76  O   UNL A   1      50.002  24.979  32.952  1.00  0.00    -0.744 OA
ENDBRANCH  72  73
ENDBRANCH  53  67
BRANCH  54  77
ATOM     77  C   UNL A   1      37.398  32.666  29.729  1.00  0.00    -0.014 A 
ATOM     78  C   UNL A   1      37.042  33.166  28.487  1.00  0.00     0.010 A 
ATOM     79  C   UNL A   1      36.591  32.786  30.776  1.00  0.00     0.010 A 
ATOM     80  C   UNL A   1      35.930  34.039  28.518  1.00  0.00     0.020 A 
ATOM     81  C   UNL A   1      35.449  33.545  30.696  1.00  0.00     0.020 A 
ATOM     82  C   UNL A   1      35.067  34.118  29.515  1.00  0.00     0.054 A 
BRANCH  82  83
ATOM     83  S   UNL A   1      33.466  34.941  29.327  1.00  0.00     0.124 S 
ATOM     84  O   UNL A   1      32.717  34.910  30.661  1.00  0.00    -0.237 OA
ATOM     85  O   UNL A   1      33.685  36.393  28.898  1.00  0.00    -0.237 OA
ATOM     86  O   UNL A   1      32.544  34.128  28.136  1.00  0.00    -0.744 OA
ENDBRANCH  82  83
ENDBRANCH  54  77
BRANCH  66  87
ATOM     87  C   UNL A   1      43.504  34.485  32.685  1.00  0.00    -0.014 A 
ATOM     88  C   UNL A   1      43.395  34.594  34.062  1.00  0.00     0.010 A 
ATOM     89  C   UNL A   1      44.075  35.439  31.960  1.00  0.00     0.010 A 
ATOM     90  C   UNL A   1      43.662  35.892  34.556  1.00  0.00     0.020 A 
ATOM     91  C   UNL A   1      44.435  36.633  32.538  1.00  0.00     0.020 A 
ATOM     92  C   UNL A   1      44.300  36.833  33.884  1.00  0.00     0.054 A 
BRANCH  92  93
ATOM     93  S   UNL A   1      44.961  38.308  34.699  1.00  0.00     0.124 S 
ATOM     94  O   UNL A   1      44.914  38.115  36.217  1.00  0.00    -0.237 OA
ATOM     95  O   UNL A   1      46.409  38.528  34.259  1.00  0.00    -0.237 OA
ATOM     96  O   UNL A   1      44.019  39.669  34.269  1.00  0.00    -0.744 OA
ENDBRANCH  92  93
ENDBRANCH  66  87
ENDBRANCH  40  41
ENDBRANCH  32  35
ENDBRANCH  30  31
ENDBRANCH  29  30
ENDBRANCH   1  29
TORSDOF 18
ENDMDL
MODEL 2
REMARK VINA RESULT:     -10.9      0.332      7.904
REMARK SMILES O=C(NCCCCCCNC(=O)c1ccc(-c2c3nc(c(-c4ccc(S(=O)(=O)[O-])cc4)c4ccc([nH]4)c(-c4ccc(S(=O)(=O)[O-])cc4)c4nc(c(-c5ccc(S(=O)(=O)[O-])cc5)c5ccc2[nH]5)C=C4)C=C3)cc1)C1=Cc2cc(S(F)(F)(F)(F)F)ccc2O[C@@H]1C(F)(F)F
REMARK SMILES IDX 7 1 6 2 5 3 4 4 3 5 1 6 2 7 73 9 74 10 88 11 75 12 87 13
REMARK SMILES IDX 76 14 86 15 77 16 85 17 84 18 89 19 90 20 91 21 92 22 78 23
REMARK SMILES IDX 79 24 80 25 81 26 82 27 83 28 8 29 9 30 10 31 11 32 12 34
REMARK SMILES IDX 13 35 14 36 72 37 15 38 71 39 16 40 17 41 18 42 65 43 19 44
REMARK SMILES IDX 70 45 64 46 66 47 20 48 69 49 63 50 62 51 21 53 51 54 32 55
REMARK SMILES IDX 50 56 33 57 36 58 49 59 67 60 34 61 35 62 48 64 68 65 37 66
REMARK SMILES IDX 22 67 23 68 31 69 24 70 30 71 25 72 26 73 27 74 28 75 29 76
REMARK SMILES IDX 52 77 53 78 61 79 54 80 60 81 55 82 56 83 57 84 58 85 59 86
REMARK SMILES IDX 38 87 39 88 47 89 40 90 46 91 41 92 42 93 43 94 44 95 45 96
REMARK H PARENT 3 8 10 33 66 52 36 63
REMARK Flexibility Score: inf
ROOT
ATOM      1  C   UNL A   1      33.883  25.266  25.661  1.00  0.00     0.002 C 
ENDROOT
BRANCH   1   2
ATOM      2  C   UNL A   1      32.426  24.891  25.443  1.00  0.00     0.002 C 
BRANCH   2   3
ATOM      3  C   UNL A   1      31.533  25.891  26.160  1.00  0.00     0.021 C 
BRANCH   3   4
ATOM      4  C   UNL A   1      30.392  26.300  25.242  1.00  0.00     0.116 C 
BRANCH   4   5
ATOM      5  N   UNL A   1      30.818  26.164  23.841  1.00  0.00    -0.352 N 
ATOM      6  O   UNL A   1      30.896  27.119  21.667  1.00  0.00    -0.270 OA
ATOM      7  C   UNL A   1      30.529  27.237  22.878  1.00  0.00     0.251 C 
ATOM      8  H   UNL A   1      31.296  25.355  23.548  1.00  0.00     0.163 HD
BRANCH   7   9
ATOM      9  C   UNL A   1      29.789  28.485  23.330  1.00  0.00     0.067 C 
ATOM     10  C   UNL A   1      30.417  29.401  24.115  1.00  0.00     0.025 C 
ATOM     11  C   UNL A   1      28.348  28.710  22.904  1.00  0.00     0.314 C 
ATOM     12  C   UNL A   1      31.859  29.176  24.540  1.00  0.00     0.019 A 
ATOM     13  O   UNL A   1      32.311  28.413  22.336  1.00  0.00    -0.475 OA
ATOM     14  C   UNL A   1      32.219  29.382  25.862  1.00  0.00     0.036 A 
ATOM     15  C   UNL A   1      32.745  28.769  23.640  1.00  0.00     0.128 A 
ATOM     16  C   UNL A   1      33.618  29.408  26.078  1.00  0.00     0.107 A 
ATOM     17  C   UNL A   1      34.080  28.687  23.959  1.00  0.00     0.048 A 
ATOM     18  C   UNL A   1      34.515  28.934  25.232  1.00  0.00     0.028 A 
BRANCH  11  19
ATOM     19  C   UNL A   1      28.250  30.003  22.110  1.00  0.00     0.429 C 
ATOM     20  F   UNL A   1      29.470  30.488  21.900  1.00  0.00    -0.167 F 
ATOM     21  F   UNL A   1      27.662  29.762  20.941  1.00  0.00    -0.167 F 
ATOM     22  F   UNL A   1      27.530  30.889  22.793  1.00  0.00    -0.167 F 
ENDBRANCH  11  19
BRANCH  16  23
ATOM     23  S   UNL A   1      34.219  30.141  27.620  1.00  0.00     0.310 S 
ATOM     24  F   UNL A   1      35.619  30.510  26.972  1.00  0.00    -0.094 F 
ATOM     25  F   UNL A   1      34.843  28.748  28.008  1.00  0.00    -0.094 F 
ATOM     26  F   UNL A   1      34.735  30.772  28.943  1.00  0.00    -0.094 F 
ATOM     27  F   UNL A   1      33.711  31.561  27.150  1.00  0.00    -0.094 F 
ATOM     28  F   UNL A   1      33.789  29.540  26.221  1.00  0.00    -0.094 F 
ENDBRANCH  16  23
ENDBRANCH   7   9
ENDBRANCH   4   5
ENDBRANCH   3   4
ENDBRANCH   2   3
ENDBRANCH   1   2
BRANCH   1  29
ATOM     29  C   UNL A   1      34.769  24.081  25.316  1.00  0.00     0.021 C 
BRANCH  29  30
ATOM     30  C   UNL A   1      36.210  24.405  25.675  1.00  0.00     0.116 C 
BRANCH  30  31
ATOM     31  N   UNL A   1      37.031  23.192  25.547  1.00  0.00    -0.352 N 
ATOM     32  C   UNL A   1      38.394  23.166  26.101  1.00  0.00     0.251 C 
ATOM     33  H   UNL A   1      36.670  22.399  25.092  1.00  0.00     0.163 HD
ATOM     34  O   UNL A   1      39.105  22.118  25.990  1.00  0.00    -0.269 OA
BRANCH  32  35
ATOM     35  C   UNL A   1      38.952  24.392  26.804  1.00  0.00     0.039 A 
ATOM     36  C   UNL A   1      39.750  25.277  26.099  1.00  0.00     0.014 A 
ATOM     37  C   UNL A   1      38.667  24.594  28.086  1.00  0.00     0.014 A 
ATOM     38  C   UNL A   1      40.441  26.203  26.916  1.00  0.00     0.010 A 
ATOM     39  C   UNL A   1      39.279  25.603  28.788  1.00  0.00     0.010 A 
ATOM     40  C   UNL A   1      40.124  26.479  28.168  1.00  0.00    -0.014 A 
BRANCH  40  41
ATOM     41  C   UNL A   1      40.672  27.706  28.879  1.00  0.00     0.031 A 
ATOM     42  C   UNL A   1      39.841  28.821  28.996  1.00  0.00     0.074 A 
ATOM     43  C   UNL A   1      41.965  27.648  29.373  1.00  0.00     0.049 A 
ATOM     44  N   UNL A   1      40.111  29.977  29.606  1.00  0.00    -0.248 NA
ATOM     45  C   UNL A   1      38.481  28.897  28.443  1.00  0.00     0.031 C 
ATOM     46  C   UNL A   1      42.805  26.523  29.267  1.00  0.00     0.029 A 
ATOM     47  N   UNL A   1      42.660  28.633  30.036  1.00  0.00    -0.354 N 
ATOM     48  C   UNL A   1      39.062  30.797  29.524  1.00  0.00     0.074 A 
ATOM     49  C   UNL A   1      38.000  30.117  28.770  1.00  0.00     0.031 C 
ATOM     50  C   UNL A   1      43.995  26.830  29.848  1.00  0.00     0.029 A 
ATOM     51  C   UNL A   1      43.917  28.151  30.327  1.00  0.00     0.049 A 
ATOM     52  H   UNL A   1      42.319  29.529  30.263  1.00  0.00     0.167 HD
ATOM     53  C   UNL A   1      38.947  32.084  30.051  1.00  0.00     0.031 A 
ATOM     54  C   UNL A   1      44.951  28.812  30.971  1.00  0.00     0.031 A 
ATOM     55  C   UNL A   1      39.967  32.728  30.733  1.00  0.00     0.049 A 
ATOM     56  C   UNL A   1      44.857  30.122  31.448  1.00  0.00     0.074 A 
ATOM     57  C   UNL A   1      39.865  34.023  31.278  1.00  0.00     0.029 A 
ATOM     58  N   UNL A   1      41.232  32.255  31.003  1.00  0.00    -0.354 N 
ATOM     59  N   UNL A   1      43.794  30.927  31.401  1.00  0.00    -0.248 NA
ATOM     60  C   UNL A   1      45.957  30.843  32.103  1.00  0.00     0.031 C 
ATOM     61  C   UNL A   1      41.057  34.331  31.859  1.00  0.00     0.029 A 
ATOM     62  C   UNL A   1      41.921  33.234  31.687  1.00  0.00     0.049 A 
ATOM     63  H   UNL A   1      41.584  31.371  30.750  1.00  0.00     0.167 HD
ATOM     64  C   UNL A   1      44.079  32.097  31.975  1.00  0.00     0.074 A 
ATOM     65  C   UNL A   1      45.477  32.063  32.428  1.00  0.00     0.031 C 
ATOM     66  C   UNL A   1      43.229  33.192  32.143  1.00  0.00     0.031 A 
BRANCH  53  67
ATOM     67  C   UNL A   1      37.631  32.821  29.867  1.00  0.00    -0.014 A 
ATOM     68  C   UNL A   1      36.752  32.823  30.937  1.00  0.00     0.010 A 
ATOM     69  C   UNL A   1      37.340  33.453  28.736  1.00  0.00     0.010 A 
ATOM     70  C   UNL A   1      35.453  33.282  30.613  1.00  0.00     0.020 A 
ATOM     71  C   UNL A   1      36.093  33.997  28.539  1.00  0.00     0.020 A 
ATOM     72  C   UNL A   1      35.155  33.983  29.534  1.00  0.00     0.054 A 
BRANCH  72  73
ATOM     73  S   UNL A   1      33.588  34.875  29.380  1.00  0.00     0.124 S 
ATOM     74  O   UNL A   1      32.668  34.127  28.411  1.00  0.00    -0.237 OA
ATOM     75  O   UNL A   1      32.917  34.967  30.752  1.00  0.00    -0.237 OA
ATOM     76  O   UNL A   1      33.885  36.449  28.782  1.00  0.00    -0.744 OA
ENDBRANCH  72  73
ENDBRANCH  53  67
BRANCH  54  77
ATOM     77  C   UNL A   1      46.263  28.069  31.171  1.00  0.00    -0.014 A 
ATOM     78  C   UNL A   1      47.248  28.079  30.196  1.00  0.00     0.010 A 
ATOM     79  C   UNL A   1      46.417  27.385  32.298  1.00  0.00     0.010 A 
ATOM     80  C   UNL A   1      48.246  27.094  30.380  1.00  0.00     0.020 A 
ATOM     81  C   UNL A   1      47.490  26.543  32.464  1.00  0.00     0.020 A 
ATOM     82  C   UNL A   1      48.471  26.458  31.515  1.00  0.00     0.054 A 
BRANCH  82  83
ATOM     83  S   UNL A   1      49.995  25.525  31.799  1.00  0.00     0.124 S 
ATOM     84  O   UNL A   1      49.722  24.391  32.790  1.00  0.00    -0.237 OA
ATOM     85  O   UNL A   1      50.488  24.937  30.475  1.00  0.00    -0.237 OA
ATOM     86  O   UNL A   1      51.190  26.567  32.440  1.00  0.00    -0.744 OA
ENDBRANCH  82  83
ENDBRANCH  54  77
BRANCH  66  87
ATOM     87  C   UNL A   1      43.771  34.412  32.869  1.00  0.00    -0.014 A 
ATOM     88  C   UNL A   1      43.654  34.491  34.247  1.00  0.00     0.010 A 
ATOM     89  C   UNL A   1      44.348  35.382  32.170  1.00  0.00     0.010 A 
ATOM     90  C   UNL A   1      43.921  35.777  34.772  1.00  0.00     0.020 A 
ATOM     91  C   UNL A   1      44.707  36.562  32.776  1.00  0.00     0.020 A 
ATOM     92  C   UNL A   1      44.564  36.731  34.126  1.00  0.00     0.054 A 
BRANCH  92  93
ATOM     93  S   UNL A   1      45.223  38.185  34.979  1.00  0.00     0.124 S 
ATOM     94  O   UNL A   1      44.079  39.149  35.301  1.00  0.00    -0.237 OA
ATOM     95  O   UNL A   1      45.904  37.750  36.278  1.00  0.00    -0.237 OA
ATOM     96  O   UNL A   1      46.362  38.970  33.973  1.00  0.00    -0.744 OA
ENDBRANCH  92  93
ENDBRANCH  66  87
ENDBRANCH  40  41
ENDBRANCH  32  35
ENDBRANCH  30  31
ENDBRANCH  29  30
ENDBRANCH   1  29
TORSDOF 18
ENDMDL
MODEL 3
REMARK VINA RESULT:     -10.8      2.774      8.325
REMARK SMILES O=C(NCCCCCCNC(=O)c1ccc(-c2c3nc(c(-c4ccc(S(=O)(=O)[O-])cc4)c4ccc([nH]4)c(-c4ccc(S(=O)(=O)[O-])cc4)c4nc(c(-c5ccc(S(=O)(=O)[O-])cc5)c5ccc2[nH]5)C=C4)C=C3)cc1)C1=Cc2cc(S(F)(F)(F)(F)F)ccc2O[C@@H]1C(F)(F)F
REMARK SMILES IDX 7 1 6 2 5 3 4 4 3 5 1 6 2 7 73 9 74 10 88 11 75 12 87 13
REMARK SMILES IDX 76 14 86 15 77 16 85 17 84 18 89 19 90 20 91 21 92 22 78 23
REMARK SMILES IDX 79 24 80 25 81 26 82 27 83 28 8 29 9 30 10 31 11 32 12 34
REMARK SMILES IDX 13 35 14 36 72 37 15 38 71 39 16 40 17 41 18 42 65 43 19 44
REMARK SMILES IDX 70 45 64 46 66 47 20 48 69 49 63 50 62 51 21 53 51 54 32 55
REMARK SMILES IDX 50 56 33 57 36 58 49 59 67 60 34 61 35 62 48 64 68 65 37 66
REMARK SMILES IDX 22 67 23 68 31 69 24 70 30 71 25 72 26 73 27 74 28 75 29 76
REMARK SMILES IDX 52 77 53 78 61 79 54 80 60 81 55 82 56 83 57 84 58 85 59 86
REMARK SMILES IDX 38 87 39 88 47 89 40 90 46 91 41 92 42 93 43 94 44 95 45 96
REMARK H PARENT 3 8 10 33 66 52 36 63
REMARK Flexibility Score: inf
ROOT
ATOM      1  C   UNL A   1      34.836  23.996  23.787  1.00  0.00     0.002 C 
ENDROOT
BRANCH   1   2
ATOM      2  C   UNL A   1      34.034  25.261  23.528  1.00  0.00     0.002 C 
BRANCH   2   3
ATOM      3  C   UNL A   1      33.147  25.058  22.310  1.00  0.00     0.021 C 
BRANCH   3   4
ATOM      4  C   UNL A   1      32.555  26.393  21.887  1.00  0.00     0.116 C 
BRANCH   4   5
ATOM      5  N   UNL A   1      33.221  27.479  22.620  1.00  0.00    -0.352 N 
ATOM      6  O   UNL A   1      33.001  29.504  23.843  1.00  0.00    -0.270 OA
ATOM      7  C   UNL A   1      32.425  28.565  23.210  1.00  0.00     0.251 C 
ATOM      8  H   UNL A   1      34.201  27.479  22.715  1.00  0.00     0.163 HD
BRANCH   7   9
ATOM      9  C   UNL A   1      30.912  28.564  23.061  1.00  0.00     0.067 C 
ATOM     10  C   UNL A   1      30.157  27.701  23.792  1.00  0.00     0.025 C 
ATOM     11  C   UNL A   1      30.243  29.530  22.097  1.00  0.00     0.314 C 
ATOM     12  C   UNL A   1      30.826  26.735  24.756  1.00  0.00     0.019 A 
ATOM     13  O   UNL A   1      32.271  28.505  25.407  1.00  0.00    -0.475 OA
ATOM     14  C   UNL A   1      30.436  25.406  24.770  1.00  0.00     0.036 A 
ATOM     15  C   UNL A   1      31.786  27.179  25.559  1.00  0.00     0.128 A 
ATOM     16  C   UNL A   1      30.925  24.676  25.880  1.00  0.00     0.107 A 
ATOM     17  C   UNL A   1      32.315  26.368  26.533  1.00  0.00     0.048 A 
ATOM     18  C   UNL A   1      31.933  25.059  26.642  1.00  0.00     0.028 A 
BRANCH  11  19
ATOM     19  C   UNL A   1      29.291  30.433  22.864  1.00  0.00     0.429 C 
ATOM     20  F   UNL A   1      28.108  29.835  22.979  1.00  0.00    -0.167 F 
ATOM     21  F   UNL A   1      29.785  30.675  24.075  1.00  0.00    -0.167 F 
ATOM     22  F   UNL A   1      29.144  31.582  22.208  1.00  0.00    -0.167 F 
ENDBRANCH  11  19
BRANCH  16  23
ATOM     23  S   UNL A   1      30.115  23.108  26.280  1.00  0.00     0.310 S 
ATOM     24  F   UNL A   1      31.081  22.851  27.512  1.00  0.00    -0.094 F 
ATOM     25  F   UNL A   1      31.172  22.362  25.382  1.00  0.00    -0.094 F 
ATOM     26  F   UNL A   1      29.417  21.763  26.626  1.00  0.00    -0.094 F 
ATOM     27  F   UNL A   1      29.153  23.856  27.286  1.00  0.00    -0.094 F 
ATOM     28  F   UNL A   1      30.883  24.467  26.028  1.00  0.00    -0.094 F 
ENDBRANCH  16  23
ENDBRANCH   7   9
ENDBRANCH   4   5
ENDBRANCH   3   4
ENDBRANCH   2   3
ENDBRANCH   1   2
BRANCH   1  29
ATOM     29  C   UNL A   1      35.034  23.819  25.284  1.00  0.00     0.021 C 
BRANCH  29  30
ATOM     30  C   UNL A   1      36.496  24.049  25.631  1.00  0.00     0.116 C 
BRANCH  30  31
ATOM     31  N   UNL A   1      37.201  22.760  25.662  1.00  0.00    -0.352 N 
ATOM     32  C   UNL A   1      38.571  22.684  26.192  1.00  0.00     0.251 C 
ATOM     33  H   UNL A   1      36.757  21.948  25.328  1.00  0.00     0.163 HD
ATOM     34  O   UNL A   1      39.182  21.569  26.217  1.00  0.00    -0.269 OA
BRANCH  32  35
ATOM     35  C   UNL A   1      39.258  23.938  26.707  1.00  0.00     0.039 A 
ATOM     36  C   UNL A   1      39.208  24.235  28.058  1.00  0.00     0.014 A 
ATOM     37  C   UNL A   1      39.895  24.729  25.851  1.00  0.00     0.014 A 
ATOM     38  C   UNL A   1      39.619  25.553  28.372  1.00  0.00     0.010 A 
ATOM     39  C   UNL A   1      40.391  25.944  26.258  1.00  0.00     0.010 A 
ATOM     40  C   UNL A   1      40.323  26.328  27.568  1.00  0.00    -0.014 A 
BRANCH  40  41
ATOM     41  C   UNL A   1      41.020  27.581  28.073  1.00  0.00     0.031 A 
ATOM     42  C   UNL A   1      40.229  28.604  28.599  1.00  0.00     0.074 A 
ATOM     43  C   UNL A   1      42.401  27.638  27.984  1.00  0.00     0.049 A 
ATOM     44  N   UNL A   1      40.638  29.762  29.121  1.00  0.00    -0.248 NA
ATOM     45  C   UNL A   1      38.761  28.560  28.663  1.00  0.00     0.031 C 
ATOM     46  C   UNL A   1      43.206  26.606  27.463  1.00  0.00     0.029 A 
ATOM     47  N   UNL A   1      43.231  28.667  28.367  1.00  0.00    -0.354 N 
ATOM     48  C   UNL A   1      39.590  30.475  29.537  1.00  0.00     0.074 A 
ATOM     49  C   UNL A   1      38.367  29.715  29.243  1.00  0.00     0.031 C 
ATOM     50  C   UNL A   1      44.502  27.013  27.521  1.00  0.00     0.029 A 
ATOM     51  C   UNL A   1      44.528  28.305  28.079  1.00  0.00     0.049 A 
ATOM     52  H   UNL A   1      42.947  29.517  28.776  1.00  0.00     0.167 HD
ATOM     53  C   UNL A   1      39.605  31.728  30.152  1.00  0.00     0.031 A 
ATOM     54  C   UNL A   1      45.681  29.046  28.283  1.00  0.00     0.031 A 
ATOM     55  C   UNL A   1      40.763  32.450  30.395  1.00  0.00     0.049 A 
ATOM     56  C   UNL A   1      45.693  30.325  28.846  1.00  0.00     0.074 A 
ATOM     57  C   UNL A   1      40.797  33.711  31.021  1.00  0.00     0.029 A 
ATOM     58  N   UNL A   1      42.058  32.097  30.085  1.00  0.00    -0.354 N 
ATOM     59  N   UNL A   1      44.648  31.020  29.297  1.00  0.00    -0.248 NA
ATOM     60  C   UNL A   1      46.905  31.131  29.036  1.00  0.00     0.031 C 
ATOM     61  C   UNL A   1      42.094  34.118  31.078  1.00  0.00     0.029 A 
ATOM     62  C   UNL A   1      42.890  33.119  30.489  1.00  0.00     0.049 A 
ATOM     63  H   UNL A   1      42.340  31.261  29.649  1.00  0.00     0.167 HD
ATOM     64  C   UNL A   1      45.054  32.195  29.782  1.00  0.00     0.074 A 
ATOM     65  C   UNL A   1      46.510  32.287  29.614  1.00  0.00     0.031 C 
ATOM     66  C   UNL A   1      44.268  33.194  30.361  1.00  0.00     0.031 A 
BRANCH  53  67
ATOM     67  C   UNL A   1      38.279  32.335  30.578  1.00  0.00    -0.014 A 
ATOM     68  C   UNL A   1      37.574  33.049  29.623  1.00  0.00     0.010 A 
ATOM     69  C   UNL A   1      37.804  32.174  31.807  1.00  0.00     0.010 A 
ATOM     70  C   UNL A   1      36.501  33.807  30.149  1.00  0.00     0.020 A 
ATOM     71  C   UNL A   1      36.673  32.841  32.213  1.00  0.00     0.020 A 
ATOM     72  C   UNL A   1      35.959  33.611  31.338  1.00  0.00     0.054 A 
BRANCH  72  73
ATOM     73  S   UNL A   1      34.357  34.326  31.784  1.00  0.00     0.124 S 
ATOM     74  O   UNL A   1      33.515  34.521  30.520  1.00  0.00    -0.237 OA
ATOM     75  O   UNL A   1      33.626  33.382  32.742  1.00  0.00    -0.237 OA
ATOM     76  O   UNL A   1      34.599  35.837  32.545  1.00  0.00    -0.744 OA
ENDBRANCH  72  73
ENDBRANCH  53  67
BRANCH  54  77
ATOM     77  C   UNL A   1      47.010  28.432  27.871  1.00  0.00    -0.014 A 
ATOM     78  C   UNL A   1      47.512  28.602  26.591  1.00  0.00     0.010 A 
ATOM     79  C   UNL A   1      47.655  27.701  28.773  1.00  0.00     0.010 A 
ATOM     80  C   UNL A   1      48.566  27.716  26.267  1.00  0.00     0.020 A 
ATOM     81  C   UNL A   1      48.760  26.966  28.416  1.00  0.00     0.020 A 
ATOM     82  C   UNL A   1      49.276  27.040  27.152  1.00  0.00     0.054 A 
BRANCH  82  83
ATOM     83  S   UNL A   1      50.846  26.254  26.715  1.00  0.00     0.124 S 
ATOM     84  O   UNL A   1      51.998  27.009  27.382  1.00  0.00    -0.237 OA
ATOM     85  O   UNL A   1      50.842  24.801  27.196  1.00  0.00    -0.237 OA
ATOM     86  O   UNL A   1      51.048  26.290  25.017  1.00  0.00    -0.744 OA
ENDBRANCH  82  83
ENDBRANCH  54  77
BRANCH  66  87
ATOM     87  C   UNL A   1      44.967  34.440  30.881  1.00  0.00    -0.014 A 
ATOM     88  C   UNL A   1      45.425  34.466  32.188  1.00  0.00     0.010 A 
ATOM     89  C   UNL A   1      45.126  35.481  30.073  1.00  0.00     0.010 A 
ATOM     90  C   UNL A   1      45.786  35.756  32.642  1.00  0.00     0.020 A 
ATOM     91  C   UNL A   1      45.612  36.672  30.557  1.00  0.00     0.020 A 
ATOM     92  C   UNL A   1      46.028  36.788  31.854  1.00  0.00     0.054 A 
BRANCH  92  93
ATOM     93  S   UNL A   1      46.867  38.274  32.458  1.00  0.00     0.124 S 
ATOM     94  O   UNL A   1      48.157  38.488  31.663  1.00  0.00    -0.237 OA
ATOM     95  O   UNL A   1      45.951  39.486  32.277  1.00  0.00    -0.237 OA
ATOM     96  O   UNL A   1      47.242  38.084  34.115  1.00  0.00    -0.744 OA
ENDBRANCH  92  93
ENDBRANCH  66  87
ENDBRANCH  40  41
ENDBRANCH  32  35
ENDBRANCH  30  31
ENDBRANCH  29  30
ENDBRANCH   1  29
TORSDOF 18
ENDMDL
