MODEL 1
REMARK VINA RESULT:     -11.1      0.000      0.000
REMARK SMILES COc1cc(OC)cc(-c2ccc([C@@H](C)C(=O)NCCCCCCNC(=O)c3ccc(-c4c5nc(c(-c6ccc(S(=O)(=O)[O-])cc6)c6ccc([nH]6)c(-c6ccc(S(=O)(=O)[O-])cc6)c6nc(c(-c7ccc(S(=O)(=O)[O-])cc7)c7ccc4[nH]7)C=C6)C=C5)cc3)cc2F)c1
REMARK SMILES IDX 21 1 20 2 19 3 18 4 16 5 17 6 14 8 15 9 13 10 10 11 11 12
REMARK SMILES IDX 89 13 12 14 88 15 90 16 9 17 3 18 4 19 91 20 5 21 8 22 2 23
REMARK SMILES IDX 1 24 6 25 7 26 22 27 23 28 24 29 25 30 26 31 27 33 28 34
REMARK SMILES IDX 29 35 87 36 30 37 86 38 31 39 32 40 33 41 80 42 34 43 85 44
REMARK SMILES IDX 79 45 81 46 35 47 84 48 78 49 77 50 36 52 66 53 47 54 65 55
REMARK SMILES IDX 48 56 51 57 64 58 82 59 49 60 50 61 63 63 83 64 52 65 37 66
REMARK SMILES IDX 38 67 46 68 39 69 45 70 40 71 41 72 42 73 43 74 44 75 67 76
REMARK SMILES IDX 68 77 76 78 69 79 75 80 70 81 71 82 72 83 73 84 74 85 53 86
REMARK SMILES IDX 54 87 62 88 55 89 61 90 56 91 57 92 58 93 59 94 60 95
REMARK H PARENT 18 7 25 32 81 51 51 62
REMARK Flexibility Score: inf
ROOT
ATOM      1  C   UNL A   1      40.041  22.687  26.878  1.00  0.00     0.002 C 
ENDROOT
BRANCH   1   2
ATOM      2  C   UNL A   1      39.235  23.988  26.960  1.00  0.00     0.021 C 
BRANCH   2   3
ATOM      3  C   UNL A   1      37.838  23.890  26.344  1.00  0.00     0.116 C 
BRANCH   3   4
ATOM      4  N   UNL A   1      37.823  23.027  25.181  1.00  0.00    -0.356 N 
ATOM      5  C   UNL A   1      36.853  22.229  24.657  1.00  0.00     0.227 C 
ATOM      6  O   UNL A   1      37.174  21.541  23.680  1.00  0.00    -0.274 OA
ATOM      7  H   UNL A   1      38.670  23.016  24.677  1.00  0.00     0.163 HD
BRANCH   5   8
ATOM      8  C   UNL A   1      35.419  22.159  25.204  1.00  0.00     0.105 C 
ATOM      9  C   UNL A   1      34.672  20.877  24.830  1.00  0.00     0.023 C 
BRANCH   8  10
ATOM     10  C   UNL A   1      34.645  23.456  25.033  1.00  0.00    -0.033 A 
ATOM     11  C   UNL A   1      33.106  25.831  24.598  1.00  0.00     0.018 A 
ATOM     12  C   UNL A   1      33.129  25.179  25.843  1.00  0.00     0.012 A 
ATOM     13  C   UNL A   1      33.886  25.264  23.582  1.00  0.00     0.131 A 
ATOM     14  C   UNL A   1      33.913  24.043  26.067  1.00  0.00     0.005 A 
ATOM     15  C   UNL A   1      34.626  24.094  23.783  1.00  0.00     0.044 A 
ATOM     16  F   UNL A   1      33.956  25.844  22.373  1.00  0.00    -0.206 F 
BRANCH  11  17
ATOM     17  C   UNL A   1      32.311  27.067  24.421  1.00  0.00    -0.008 A 
ATOM     18  C   UNL A   1      31.676  29.329  25.081  1.00  0.00     0.123 A 
ATOM     19  C   UNL A   1      30.776  29.388  24.017  1.00  0.00     0.092 A 
ATOM     20  C   UNL A   1      32.436  28.173  25.283  1.00  0.00     0.055 A 
ATOM     21  C   UNL A   1      30.634  28.314  23.142  1.00  0.00     0.123 A 
ATOM     22  C   UNL A   1      31.393  27.165  23.355  1.00  0.00     0.055 A 
BRANCH  18  23
ATOM     23  O   UNL A   1      31.691  30.438  25.884  1.00  0.00    -0.497 OA
ATOM     24  C   UNL A   1      32.435  30.326  27.091  1.00  0.00     0.278 C 
ENDBRANCH  18  23
BRANCH  21  25
ATOM     25  O   UNL A   1      29.729  28.495  22.134  1.00  0.00    -0.497 OA
ATOM     26  C   UNL A   1      28.611  29.332  22.415  1.00  0.00     0.278 C 
ENDBRANCH  21  25
ENDBRANCH  11  17
ENDBRANCH   8  10
ENDBRANCH   5   8
ENDBRANCH   3   4
ENDBRANCH   2   3
ENDBRANCH   1   2
BRANCH   1  27
ATOM     27  C   UNL A   1      41.090  22.503  27.983  1.00  0.00     0.002 C 
BRANCH  27  28
ATOM     28  C   UNL A   1      42.540  22.396  27.503  1.00  0.00     0.021 C 
BRANCH  28  29
ATOM     29  C   UNL A   1      43.297  23.721  27.462  1.00  0.00     0.116 C 
BRANCH  29  30
ATOM     30  N   UNL A   1      43.026  24.456  26.238  1.00  0.00    -0.352 N 
ATOM     31  C   UNL A   1      42.379  25.655  26.063  1.00  0.00     0.251 C 
ATOM     32  H   UNL A   1      43.354  24.033  25.413  1.00  0.00     0.163 HD
ATOM     33  O   UNL A   1      42.024  25.997  24.940  1.00  0.00    -0.269 OA
BRANCH  31  34
ATOM     34  C   UNL A   1      42.108  26.528  27.226  1.00  0.00     0.039 A 
ATOM     35  C   UNL A   1      41.076  26.188  28.104  1.00  0.00     0.014 A 
ATOM     36  C   UNL A   1      42.841  27.701  27.425  1.00  0.00     0.014 A 
ATOM     37  C   UNL A   1      40.806  27.005  29.205  1.00  0.00     0.010 A 
ATOM     38  C   UNL A   1      42.617  28.478  28.560  1.00  0.00     0.010 A 
ATOM     39  C   UNL A   1      41.587  28.146  29.453  1.00  0.00    -0.014 A 
BRANCH  39  40
ATOM     40  C   UNL A   1      41.321  29.026  30.619  1.00  0.00     0.031 A 
ATOM     41  C   UNL A   1      42.172  28.913  31.856  1.00  0.00     0.074 A 
ATOM     42  C   UNL A   1      40.286  29.888  30.586  1.00  0.00     0.049 A 
ATOM     43  N   UNL A   1      42.059  29.544  32.996  1.00  0.00    -0.248 NA
ATOM     44  C   UNL A   1      43.279  27.943  31.815  1.00  0.00     0.031 C 
ATOM     45  C   UNL A   1      39.369  30.071  29.458  1.00  0.00     0.029 A 
ATOM     46  N   UNL A   1      39.828  30.772  31.531  1.00  0.00    -0.354 N 
ATOM     47  C   UNL A   1      43.067  29.040  33.810  1.00  0.00     0.074 A 
ATOM     48  C   UNL A   1      43.747  28.011  33.052  1.00  0.00     0.031 C 
ATOM     49  C   UNL A   1      38.477  31.026  29.767  1.00  0.00     0.029 A 
ATOM     50  C   UNL A   1      38.731  31.496  31.126  1.00  0.00     0.049 A 
ATOM     51  H   UNL A   1      40.245  30.877  32.417  1.00  0.00     0.167 HD
ATOM     52  C   UNL A   1      43.413  29.411  35.066  1.00  0.00     0.031 A 
ATOM     53  C   UNL A   1      38.010  32.430  31.776  1.00  0.00     0.031 A 
ATOM     54  C   UNL A   1      42.744  30.445  35.812  1.00  0.00     0.049 A 
ATOM     55  C   UNL A   1      38.406  32.820  33.174  1.00  0.00     0.074 A 
ATOM     56  C   UNL A   1      43.042  30.924  37.075  1.00  0.00     0.029 A 
ATOM     57  N   UNL A   1      41.647  31.161  35.359  1.00  0.00    -0.354 N 
ATOM     58  N   UNL A   1      39.392  32.362  33.909  1.00  0.00    -0.248 NA
ATOM     59  C   UNL A   1      37.602  33.864  33.823  1.00  0.00     0.031 C 
ATOM     60  C   UNL A   1      42.097  31.902  37.404  1.00  0.00     0.029 A 
ATOM     61  C   UNL A   1      41.246  32.069  36.324  1.00  0.00     0.049 A 
ATOM     62  H   UNL A   1      41.216  31.041  34.482  1.00  0.00     0.167 HD
ATOM     63  C   UNL A   1      39.347  33.088  35.094  1.00  0.00     0.074 A 
ATOM     64  C   UNL A   1      38.244  34.019  34.973  1.00  0.00     0.031 C 
ATOM     65  C   UNL A   1      40.149  32.994  36.184  1.00  0.00     0.031 A 
BRANCH  52  66
ATOM     66  C   UNL A   1      44.569  28.692  35.710  1.00  0.00    -0.014 A 
ATOM     67  C   UNL A   1      44.369  27.510  36.447  1.00  0.00     0.010 A 
ATOM     68  C   UNL A   1      45.878  29.184  35.552  1.00  0.00     0.010 A 
ATOM     69  C   UNL A   1      45.447  26.861  37.051  1.00  0.00     0.020 A 
ATOM     70  C   UNL A   1      46.964  28.520  36.130  1.00  0.00     0.020 A 
ATOM     71  C   UNL A   1      46.738  27.372  36.892  1.00  0.00     0.054 A 
BRANCH  71  72
ATOM     72  S   UNL A   1      48.122  26.497  37.673  1.00  0.00     0.124 S 
ATOM     73  O   UNL A   1      48.102  25.216  36.971  1.00  0.00    -0.237 OA
ATOM     74  O   UNL A   1      49.260  27.361  37.370  1.00  0.00    -0.237 OA
ATOM     75  O   UNL A   1      47.745  26.440  39.083  1.00  0.00    -0.744 OA
ENDBRANCH  71  72
ENDBRANCH  52  66
BRANCH  53  76
ATOM     76  C   UNL A   1      36.852  33.078  31.102  1.00  0.00    -0.014 A 
ATOM     77  C   UNL A   1      35.605  33.156  31.747  1.00  0.00     0.010 A 
ATOM     78  C   UNL A   1      36.990  33.626  29.814  1.00  0.00     0.010 A 
ATOM     79  C   UNL A   1      34.511  33.749  31.108  1.00  0.00     0.020 A 
ATOM     80  C   UNL A   1      35.907  34.245  29.183  1.00  0.00     0.020 A 
ATOM     81  C   UNL A   1      34.671  34.290  29.830  1.00  0.00     0.054 A 
BRANCH  81  82
ATOM     82  S   UNL A   1      33.250  35.093  29.036  1.00  0.00     0.124 S 
ATOM     83  O   UNL A   1      32.343  35.288  30.161  1.00  0.00    -0.237 OA
ATOM     84  O   UNL A   1      33.844  36.308  28.481  1.00  0.00    -0.237 OA
ATOM     85  O   UNL A   1      32.816  34.113  28.043  1.00  0.00    -0.744 OA
ENDBRANCH  81  82
ENDBRANCH  53  76
BRANCH  65  86
ATOM     86  C   UNL A   1      39.897  33.955  37.316  1.00  0.00    -0.014 A 
ATOM     87  C   UNL A   1      40.366  35.278  37.272  1.00  0.00     0.010 A 
ATOM     88  C   UNL A   1      39.129  33.533  38.417  1.00  0.00     0.010 A 
ATOM     89  C   UNL A   1      40.100  36.156  38.326  1.00  0.00     0.020 A 
ATOM     90  C   UNL A   1      38.838  34.416  39.460  1.00  0.00     0.020 A 
ATOM     91  C   UNL A   1      39.338  35.719  39.415  1.00  0.00     0.054 A 
BRANCH  91  92
ATOM     92  S   UNL A   1      38.970  36.889  40.751  1.00  0.00     0.124 S 
ATOM     93  O   UNL A   1      40.303  37.188  41.268  1.00  0.00    -0.237 OA
ATOM     94  O   UNL A   1      38.309  37.984  40.045  1.00  0.00    -0.237 OA
ATOM     95  O   UNL A   1      38.109  36.127  41.652  1.00  0.00    -0.744 OA
ENDBRANCH  91  92
ENDBRANCH  65  86
ENDBRANCH  39  40
ENDBRANCH  31  34
ENDBRANCH  29  30
ENDBRANCH  28  29
ENDBRANCH  27  28
ENDBRANCH   1  27
TORSDOF 20
ENDMDL
MODEL 2
REMARK VINA RESULT:     -11.1      5.912      8.139
REMARK SMILES COc1cc(OC)cc(-c2ccc([C@@H](C)C(=O)NCCCCCCNC(=O)c3ccc(-c4c5nc(c(-c6ccc(S(=O)(=O)[O-])cc6)c6ccc([nH]6)c(-c6ccc(S(=O)(=O)[O-])cc6)c6nc(c(-c7ccc(S(=O)(=O)[O-])cc7)c7ccc4[nH]7)C=C6)C=C5)cc3)cc2F)c1
REMARK SMILES IDX 21 1 20 2 19 3 18 4 16 5 17 6 14 8 15 9 13 10 10 11 11 12
REMARK SMILES IDX 89 13 12 14 88 15 90 16 9 17 3 18 4 19 91 20 5 21 8 22 2 23
REMARK SMILES IDX 1 24 6 25 7 26 22 27 23 28 24 29 25 30 26 31 27 33 28 34
REMARK SMILES IDX 29 35 87 36 30 37 86 38 31 39 32 40 33 41 80 42 34 43 85 44
REMARK SMILES IDX 79 45 81 46 35 47 84 48 78 49 77 50 36 52 66 53 47 54 65 55
REMARK SMILES IDX 48 56 51 57 64 58 82 59 49 60 50 61 63 63 83 64 52 65 37 66
REMARK SMILES IDX 38 67 46 68 39 69 45 70 40 71 41 72 42 73 43 74 44 75 67 76
REMARK SMILES IDX 68 77 76 78 69 79 75 80 70 81 71 82 72 83 73 84 74 85 53 86
REMARK SMILES IDX 54 87 62 88 55 89 61 90 56 91 57 92 58 93 59 94 60 95
REMARK H PARENT 18 7 25 32 81 51 51 62
REMARK Flexibility Score: inf
ROOT
ATOM      1  C   UNL A   1      37.629  22.747  25.738  1.00  0.00     0.002 C 
ENDROOT
BRANCH   1   2
ATOM      2  C   UNL A   1      36.977  21.944  24.608  1.00  0.00     0.021 C 
BRANCH   2   3
ATOM      3  C   UNL A   1      36.355  20.623  25.067  1.00  0.00     0.116 C 
BRANCH   3   4
ATOM      4  N   UNL A   1      34.940  20.561  24.762  1.00  0.00    -0.356 N 
ATOM      5  C   UNL A   1      33.874  21.232  25.274  1.00  0.00     0.227 C 
ATOM      6  O   UNL A   1      32.759  20.897  24.855  1.00  0.00    -0.274 OA
ATOM      7  H   UNL A   1      34.709  19.914  24.056  1.00  0.00     0.163 HD
BRANCH   5   8
ATOM      8  C   UNL A   1      33.992  22.362  26.308  1.00  0.00     0.105 C 
ATOM      9  C   UNL A   1      33.659  21.936  27.739  1.00  0.00     0.023 C 
BRANCH   8  10
ATOM     10  C   UNL A   1      33.377  23.672  25.842  1.00  0.00    -0.033 A 
ATOM     11  C   UNL A   1      32.196  26.177  25.115  1.00  0.00     0.018 A 
ATOM     12  C   UNL A   1      33.508  25.839  24.740  1.00  0.00     0.012 A 
ATOM     13  C   UNL A   1      31.490  25.219  25.853  1.00  0.00     0.131 A 
ATOM     14  C   UNL A   1      34.070  24.599  25.060  1.00  0.00     0.005 A 
ATOM     15  C   UNL A   1      32.068  24.000  26.227  1.00  0.00     0.044 A 
ATOM     16  F   UNL A   1      30.217  25.440  26.216  1.00  0.00    -0.206 F 
BRANCH  11  17
ATOM     17  C   UNL A   1      31.617  27.475  24.701  1.00  0.00    -0.008 A 
ATOM     18  C   UNL A   1      31.249  29.866  25.021  1.00  0.00     0.123 A 
ATOM     19  C   UNL A   1      30.496  29.908  23.846  1.00  0.00     0.092 A 
ATOM     20  C   UNL A   1      31.803  28.654  25.446  1.00  0.00     0.055 A 
ATOM     21  C   UNL A   1      30.300  28.760  23.083  1.00  0.00     0.123 A 
ATOM     22  C   UNL A   1      30.853  27.557  23.518  1.00  0.00     0.055 A 
BRANCH  18  23
ATOM     23  O   UNL A   1      31.333  31.056  25.692  1.00  0.00    -0.497 OA
ATOM     24  C   UNL A   1      32.271  31.106  26.760  1.00  0.00     0.278 C 
ENDBRANCH  18  23
BRANCH  21  25
ATOM     25  O   UNL A   1      29.554  28.930  21.950  1.00  0.00    -0.497 OA
ATOM     26  C   UNL A   1      28.437  29.809  22.041  1.00  0.00     0.278 C 
ENDBRANCH  21  25
ENDBRANCH  11  17
ENDBRANCH   8  10
ENDBRANCH   5   8
ENDBRANCH   3   4
ENDBRANCH   2   3
ENDBRANCH   1   2
BRANCH   1  27
ATOM     27  C   UNL A   1      39.134  22.506  25.920  1.00  0.00     0.002 C 
BRANCH  27  28
ATOM     28  C   UNL A   1      39.513  21.179  26.583  1.00  0.00     0.021 C 
BRANCH  28  29
ATOM     29  C   UNL A   1      39.859  20.056  25.609  1.00  0.00     0.116 C 
BRANCH  29  30
ATOM     30  N   UNL A   1      40.867  19.163  26.155  1.00  0.00    -0.352 N 
ATOM     31  C   UNL A   1      42.159  19.432  26.535  1.00  0.00     0.251 C 
ATOM     32  H   UNL A   1      40.583  18.228  26.269  1.00  0.00     0.163 HD
ATOM     33  O   UNL A   1      42.939  18.508  26.738  1.00  0.00    -0.269 OA
BRANCH  31  34
ATOM     34  C   UNL A   1      42.608  20.832  26.697  1.00  0.00     0.039 A 
ATOM     35  C   UNL A   1      42.664  21.384  27.979  1.00  0.00     0.014 A 
ATOM     36  C   UNL A   1      42.931  21.612  25.583  1.00  0.00     0.014 A 
ATOM     37  C   UNL A   1      43.083  22.706  28.148  1.00  0.00     0.010 A 
ATOM     38  C   UNL A   1      43.415  22.907  25.757  1.00  0.00     0.010 A 
ATOM     39  C   UNL A   1      43.480  23.472  27.040  1.00  0.00    -0.014 A 
BRANCH  39  40
ATOM     40  C   UNL A   1      43.934  24.878  27.195  1.00  0.00     0.031 A 
ATOM     41  C   UNL A   1      45.382  25.229  26.974  1.00  0.00     0.074 A 
ATOM     42  C   UNL A   1      43.059  25.825  27.583  1.00  0.00     0.049 A 
ATOM     43  N   UNL A   1      45.982  26.382  27.122  1.00  0.00    -0.248 NA
ATOM     44  C   UNL A   1      46.276  24.136  26.557  1.00  0.00     0.031 C 
ATOM     45  C   UNL A   1      41.637  25.606  27.858  1.00  0.00     0.029 A 
ATOM     46  N   UNL A   1      43.238  27.166  27.819  1.00  0.00    -0.354 N 
ATOM     47  C   UNL A   1      47.322  26.150  26.833  1.00  0.00     0.074 A 
ATOM     48  C   UNL A   1      47.456  24.737  26.553  1.00  0.00     0.031 C 
ATOM     49  C   UNL A   1      41.069  26.775  28.198  1.00  0.00     0.029 A 
ATOM     50  C   UNL A   1      42.090  27.818  28.204  1.00  0.00     0.049 A 
ATOM     51  H   UNL A   1      44.108  27.618  27.722  1.00  0.00     0.167 HD
ATOM     52  C   UNL A   1      48.347  27.035  26.781  1.00  0.00     0.031 A 
ATOM     53  C   UNL A   1      41.884  29.109  28.529  1.00  0.00     0.031 A 
ATOM     54  C   UNL A   1      48.209  28.443  27.045  1.00  0.00     0.049 A 
ATOM     55  C   UNL A   1      43.039  30.072  28.474  1.00  0.00     0.074 A 
ATOM     56  C   UNL A   1      49.175  29.430  26.981  1.00  0.00     0.029 A 
ATOM     57  N   UNL A   1      47.027  29.063  27.419  1.00  0.00    -0.354 N 
ATOM     58  N   UNL A   1      44.290  29.841  28.153  1.00  0.00    -0.248 NA
ATOM     59  C   UNL A   1      42.751  31.473  28.810  1.00  0.00     0.031 C 
ATOM     60  C   UNL A   1      48.588  30.642  27.358  1.00  0.00     0.029 A 
ATOM     61  C   UNL A   1      47.243  30.418  27.603  1.00  0.00     0.049 A 
ATOM     62  H   UNL A   1      46.162  28.608  27.538  1.00  0.00     0.167 HD
ATOM     63  C   UNL A   1      44.930  31.074  28.214  1.00  0.00     0.074 A 
ATOM     64  C   UNL A   1      43.926  32.047  28.594  1.00  0.00     0.031 C 
ATOM     65  C   UNL A   1      46.230  31.374  27.975  1.00  0.00     0.031 A 
BRANCH  52  66
ATOM     66  C   UNL A   1      49.709  26.500  26.424  1.00  0.00    -0.014 A 
ATOM     67  C   UNL A   1      50.151  26.475  25.088  1.00  0.00     0.010 A 
ATOM     68  C   UNL A   1      50.574  26.048  27.436  1.00  0.00     0.010 A 
ATOM     69  C   UNL A   1      51.410  25.965  24.767  1.00  0.00     0.020 A 
ATOM     70  C   UNL A   1      51.848  25.564  27.122  1.00  0.00     0.020 A 
ATOM     71  C   UNL A   1      52.250  25.508  25.786  1.00  0.00     0.054 A 
BRANCH  71  72
ATOM     72  S   UNL A   1      53.888  24.868  25.341  1.00  0.00     0.124 S 
ATOM     73  O   UNL A   1      53.588  23.477  25.015  1.00  0.00    -0.237 OA
ATOM     74  O   UNL A   1      54.266  25.711  24.210  1.00  0.00    -0.237 OA
ATOM     75  O   UNL A   1      54.679  25.067  26.554  1.00  0.00    -0.744 OA
ENDBRANCH  71  72
ENDBRANCH  52  66
BRANCH  53  76
ATOM     76  C   UNL A   1      40.523  29.572  28.913  1.00  0.00    -0.014 A 
ATOM     77  C   UNL A   1      40.260  29.999  30.227  1.00  0.00     0.010 A 
ATOM     78  C   UNL A   1      39.482  29.593  27.967  1.00  0.00     0.010 A 
ATOM     79  C   UNL A   1      38.977  30.416  30.594  1.00  0.00     0.020 A 
ATOM     80  C   UNL A   1      38.205  30.037  28.322  1.00  0.00     0.020 A 
ATOM     81  C   UNL A   1      37.958  30.433  29.638  1.00  0.00     0.054 A 
BRANCH  81  82
ATOM     82  S   UNL A   1      36.311  31.020  30.124  1.00  0.00     0.124 S 
ATOM     83  O   UNL A   1      35.925  30.041  31.134  1.00  0.00    -0.237 OA
ATOM     84  O   UNL A   1      36.589  32.367  30.619  1.00  0.00    -0.237 OA
ATOM     85  O   UNL A   1      35.550  30.970  28.877  1.00  0.00    -0.744 OA
ENDBRANCH  81  82
ENDBRANCH  53  76
BRANCH  65  86
ATOM     86  C   UNL A   1      46.636  32.821  28.068  1.00  0.00    -0.014 A 
ATOM     87  C   UNL A   1      46.676  33.646  26.931  1.00  0.00     0.010 A 
ATOM     88  C   UNL A   1      46.931  33.373  29.329  1.00  0.00     0.010 A 
ATOM     89  C   UNL A   1      47.036  34.991  27.048  1.00  0.00     0.020 A 
ATOM     90  C   UNL A   1      47.265  34.724  29.453  1.00  0.00     0.020 A 
ATOM     91  C   UNL A   1      47.330  35.522  28.309  1.00  0.00     0.054 A 
BRANCH  91  92
ATOM     92  S   UNL A   1      47.753  37.280  28.440  1.00  0.00     0.124 S 
ATOM     93  O   UNL A   1      46.453  37.885  28.720  1.00  0.00    -0.237 OA
ATOM     94  O   UNL A   1      48.707  37.299  29.546  1.00  0.00    -0.237 OA
ATOM     95  O   UNL A   1      48.320  37.598  27.132  1.00  0.00    -0.744 OA
ENDBRANCH  91  92
ENDBRANCH  65  86
ENDBRANCH  39  40
ENDBRANCH  31  34
ENDBRANCH  29  30
ENDBRANCH  28  29
ENDBRANCH  27  28
ENDBRANCH   1  27
TORSDOF 20
ENDMDL
MODEL 3
REMARK VINA RESULT:     -10.9      6.126     11.814
REMARK SMILES COc1cc(OC)cc(-c2ccc([C@@H](C)C(=O)NCCCCCCNC(=O)c3ccc(-c4c5nc(c(-c6ccc(S(=O)(=O)[O-])cc6)c6ccc([nH]6)c(-c6ccc(S(=O)(=O)[O-])cc6)c6nc(c(-c7ccc(S(=O)(=O)[O-])cc7)c7ccc4[nH]7)C=C6)C=C5)cc3)cc2F)c1
REMARK SMILES IDX 21 1 20 2 19 3 18 4 16 5 17 6 14 8 15 9 13 10 10 11 11 12
REMARK SMILES IDX 89 13 12 14 88 15 90 16 9 17 3 18 4 19 91 20 5 21 8 22 2 23
REMARK SMILES IDX 1 24 6 25 7 26 22 27 23 28 24 29 25 30 26 31 27 33 28 34
REMARK SMILES IDX 29 35 87 36 30 37 86 38 31 39 32 40 33 41 80 42 34 43 85 44
REMARK SMILES IDX 79 45 81 46 35 47 84 48 78 49 77 50 36 52 66 53 47 54 65 55
REMARK SMILES IDX 48 56 51 57 64 58 82 59 49 60 50 61 63 63 83 64 52 65 37 66
REMARK SMILES IDX 38 67 46 68 39 69 45 70 40 71 41 72 42 73 43 74 44 75 67 76
REMARK SMILES IDX 68 77 76 78 69 79 75 80 70 81 71 82 72 83 73 84 74 85 53 86
REMARK SMILES IDX 54 87 62 88 55 89 61 90 56 91 57 92 58 93 59 94 60 95
REMARK H PARENT 18 7 25 32 81 51 51 62
REMARK Flexibility Score: inf
ROOT
ATOM      1  C   UNL A   1      34.025  27.983  25.953  1.00  0.00     0.002 C 
ENDROOT
BRANCH   1   2
ATOM      2  C   UNL A   1      32.790  27.101  26.165  1.00  0.00     0.021 C 
BRANCH   2   3
ATOM      3  C   UNL A   1      31.469  27.797  25.830  1.00  0.00     0.116 C 
BRANCH   3   4
ATOM      4  N   UNL A   1      31.483  28.364  24.497  1.00  0.00    -0.356 N 
ATOM      5  C   UNL A   1      30.943  27.934  23.325  1.00  0.00     0.227 C 
ATOM      6  O   UNL A   1      31.198  28.609  22.320  1.00  0.00    -0.274 OA
ATOM      7  H   UNL A   1      31.973  29.216  24.426  1.00  0.00     0.163 HD
BRANCH   5   8
ATOM      8  C   UNL A   1      30.050  26.690  23.202  1.00  0.00     0.105 C 
ATOM      9  C   UNL A   1      28.684  26.833  23.876  1.00  0.00     0.023 C 
BRANCH   8  10
ATOM     10  C   UNL A   1      30.790  25.388  23.465  1.00  0.00    -0.033 A 
ATOM     11  C   UNL A   1      32.320  23.018  23.958  1.00  0.00     0.018 A 
ATOM     12  C   UNL A   1      31.337  23.468  24.857  1.00  0.00     0.012 A 
ATOM     13  C   UNL A   1      32.504  23.784  22.800  1.00  0.00     0.131 A 
ATOM     14  C   UNL A   1      30.562  24.602  24.596  1.00  0.00     0.005 A 
ATOM     15  C   UNL A   1      31.772  24.953  22.562  1.00  0.00     0.044 A 
ATOM     16  F   UNL A   1      33.391  23.406  21.866  1.00  0.00    -0.206 F 
BRANCH  11  17
ATOM     17  C   UNL A   1      33.075  21.777  24.242  1.00  0.00    -0.008 A 
ATOM     18  C   UNL A   1      33.268  19.346  24.312  1.00  0.00     0.123 A 
ATOM     19  C   UNL A   1      34.573  19.462  24.792  1.00  0.00     0.092 A 
ATOM     20  C   UNL A   1      32.523  20.498  24.042  1.00  0.00     0.055 A 
ATOM     21  C   UNL A   1      35.150  20.714  24.994  1.00  0.00     0.123 A 
ATOM     22  C   UNL A   1      34.397  21.855  24.726  1.00  0.00     0.055 A 
BRANCH  18  23
ATOM     23  O   UNL A   1      32.812  18.060  24.193  1.00  0.00    -0.497 OA
ATOM     24  C   UNL A   1      33.192  17.369  23.010  1.00  0.00     0.278 C 
ENDBRANCH  18  23
BRANCH  21  25
ATOM     25  O   UNL A   1      36.435  20.698  25.458  1.00  0.00    -0.497 OA
ATOM     26  C   UNL A   1      37.428  21.291  24.627  1.00  0.00     0.278 C 
ENDBRANCH  21  25
ENDBRANCH  11  17
ENDBRANCH   8  10
ENDBRANCH   5   8
ENDBRANCH   3   4
ENDBRANCH   2   3
ENDBRANCH   1   2
BRANCH   1  27
ATOM     27  C   UNL A   1      34.047  29.278  26.775  1.00  0.00     0.002 C 
BRANCH  27  28
ATOM     28  C   UNL A   1      35.013  29.288  27.963  1.00  0.00     0.021 C 
BRANCH  28  29
ATOM     29  C   UNL A   1      35.567  30.664  28.323  1.00  0.00     0.116 C 
BRANCH  29  30
ATOM     30  N   UNL A   1      35.625  30.860  29.762  1.00  0.00    -0.352 N 
ATOM     31  C   UNL A   1      36.635  30.565  30.644  1.00  0.00     0.251 C 
ATOM     32  H   UNL A   1      34.822  31.263  30.164  1.00  0.00     0.163 HD
ATOM     33  O   UNL A   1      36.410  30.567  31.850  1.00  0.00    -0.269 OA
BRANCH  31  34
ATOM     34  C   UNL A   1      37.988  30.241  30.142  1.00  0.00     0.039 A 
ATOM     35  C   UNL A   1      38.982  29.879  31.054  1.00  0.00     0.014 A 
ATOM     36  C   UNL A   1      38.287  30.337  28.780  1.00  0.00     0.014 A 
ATOM     37  C   UNL A   1      40.266  29.574  30.595  1.00  0.00     0.010 A 
ATOM     38  C   UNL A   1      39.547  29.966  28.317  1.00  0.00     0.010 A 
ATOM     39  C   UNL A   1      40.554  29.596  29.221  1.00  0.00    -0.014 A 
BRANCH  39  40
ATOM     40  C   UNL A   1      41.910  29.270  28.710  1.00  0.00     0.031 A 
ATOM     41  C   UNL A   1      42.222  27.873  28.242  1.00  0.00     0.074 A 
ATOM     42  C   UNL A   1      42.871  30.214  28.714  1.00  0.00     0.049 A 
ATOM     43  N   UNL A   1      43.358  27.378  27.824  1.00  0.00    -0.248 NA
ATOM     44  C   UNL A   1      41.118  26.899  28.275  1.00  0.00     0.031 C 
ATOM     45  C   UNL A   1      42.704  31.595  29.170  1.00  0.00     0.029 A 
ATOM     46  N   UNL A   1      44.187  30.152  28.325  1.00  0.00    -0.354 N 
ATOM     47  C   UNL A   1      43.110  26.036  27.558  1.00  0.00     0.074 A 
ATOM     48  C   UNL A   1      41.731  25.782  27.914  1.00  0.00     0.031 C 
ATOM     49  C   UNL A   1      43.862  32.256  29.009  1.00  0.00     0.029 A 
ATOM     50  C   UNL A   1      44.865  31.338  28.477  1.00  0.00     0.049 A 
ATOM     51  H   UNL A   1      44.606  29.333  27.972  1.00  0.00     0.167 HD
ATOM     52  C   UNL A   1      43.946  25.102  27.044  1.00  0.00     0.031 A 
ATOM     53  C   UNL A   1      46.150  31.651  28.221  1.00  0.00     0.031 A 
ATOM     54  C   UNL A   1      45.314  25.361  26.676  1.00  0.00     0.049 A 
ATOM     55  C   UNL A   1      47.063  30.595  27.659  1.00  0.00     0.074 A 
ATOM     56  C   UNL A   1      46.232  24.496  26.110  1.00  0.00     0.029 A 
ATOM     57  N   UNL A   1      45.956  26.579  26.835  1.00  0.00    -0.354 N 
ATOM     58  N   UNL A   1      46.796  29.343  27.371  1.00  0.00    -0.248 NA
ATOM     59  C   UNL A   1      48.446  31.000  27.371  1.00  0.00     0.031 C 
ATOM     60  C   UNL A   1      47.444  25.178  25.965  1.00  0.00     0.029 A 
ATOM     61  C   UNL A   1      47.264  26.484  26.390  1.00  0.00     0.049 A 
ATOM     62  H   UNL A   1      45.545  27.392  27.209  1.00  0.00     0.167 HD
ATOM     63  C   UNL A   1      47.969  28.821  26.837  1.00  0.00     0.074 A 
ATOM     64  C   UNL A   1      48.942  29.894  26.833  1.00  0.00     0.031 C 
ATOM     65  C   UNL A   1      48.217  27.566  26.387  1.00  0.00     0.031 A 
BRANCH  52  66
ATOM     66  C   UNL A   1      43.400  23.712  26.847  1.00  0.00    -0.014 A 
ATOM     67  C   UNL A   1      43.268  22.825  27.931  1.00  0.00     0.010 A 
ATOM     68  C   UNL A   1      42.981  23.296  25.570  1.00  0.00     0.010 A 
ATOM     69  C   UNL A   1      42.773  21.534  27.735  1.00  0.00     0.020 A 
ATOM     70  C   UNL A   1      42.457  22.015  25.375  1.00  0.00     0.020 A 
ATOM     71  C   UNL A   1      42.374  21.135  26.456  1.00  0.00     0.054 A 
BRANCH  71  72
ATOM     72  S   UNL A   1      41.717  19.459  26.234  1.00  0.00     0.124 S 
ATOM     73  O   UNL A   1      42.420  19.018  25.032  1.00  0.00    -0.237 OA
ATOM     74  O   UNL A   1      42.112  18.793  27.472  1.00  0.00    -0.237 OA
ATOM     75  O   UNL A   1      40.281  19.668  26.074  1.00  0.00    -0.744 OA
ENDBRANCH  71  72
ENDBRANCH  52  66
BRANCH  53  76
ATOM     76  C   UNL A   1      46.645  33.032  28.472  1.00  0.00    -0.014 A 
ATOM     77  C   UNL A   1      46.557  34.013  27.469  1.00  0.00     0.010 A 
ATOM     78  C   UNL A   1      47.201  33.376  29.717  1.00  0.00     0.010 A 
ATOM     79  C   UNL A   1      47.039  35.306  27.697  1.00  0.00     0.020 A 
ATOM     80  C   UNL A   1      47.657  34.675  29.959  1.00  0.00     0.020 A 
ATOM     81  C   UNL A   1      47.585  35.628  28.942  1.00  0.00     0.054 A 
BRANCH  81  82
ATOM     82  S   UNL A   1      48.163  37.324  29.232  1.00  0.00     0.124 S 
ATOM     83  O   UNL A   1      49.595  37.127  29.429  1.00  0.00    -0.237 OA
ATOM     84  O   UNL A   1      47.780  38.004  27.997  1.00  0.00    -0.237 OA
ATOM     85  O   UNL A   1      47.418  37.739  30.419  1.00  0.00    -0.744 OA
ENDBRANCH  81  82
ENDBRANCH  53  76
BRANCH  65  86
ATOM     86  C   UNL A   1      49.580  27.294  25.806  1.00  0.00    -0.014 A 
ATOM     87  C   UNL A   1      49.832  27.435  24.431  1.00  0.00     0.010 A 
ATOM     88  C   UNL A   1      50.637  26.942  26.666  1.00  0.00     0.010 A 
ATOM     89  C   UNL A   1      51.110  27.197  23.920  1.00  0.00     0.020 A 
ATOM     90  C   UNL A   1      51.922  26.730  26.162  1.00  0.00     0.020 A 
ATOM     91  C   UNL A   1      52.148  26.845  24.790  1.00  0.00     0.054 A 
BRANCH  91  92
ATOM     92  S   UNL A   1      53.808  26.583  24.108  1.00  0.00     0.124 S 
ATOM     93  O   UNL A   1      54.388  25.651  25.071  1.00  0.00    -0.237 OA
ATOM     94  O   UNL A   1      53.528  26.028  22.786  1.00  0.00    -0.237 OA
ATOM     95  O   UNL A   1      54.395  27.921  24.103  1.00  0.00    -0.744 OA
ENDBRANCH  91  92
ENDBRANCH  65  86
ENDBRANCH  39  40
ENDBRANCH  31  34
ENDBRANCH  29  30
ENDBRANCH  28  29
ENDBRANCH  27  28
ENDBRANCH   1  27
TORSDOF 20
ENDMDL
