MODEL 1
REMARK VINA RESULT:     -10.2      0.000      0.000
REMARK SMILES CC(C)(C)OC(=O)N[C@H](Cc1ccc(O)c(Cl)c1)C(=O)NCCCCCCNC(=O)c1ccc(-c2c3nc(c(-c4ccc(S(=O)(=O)[O-])cc4)c4ccc([nH]4)c(-c4ccc(S(=O)(=O)[O-])cc4)c4nc(c(-c5ccc(S(=O)(=O)[O-])cc5)c5ccc2[nH]5)C=C4)C=C3)cc1
REMARK SMILES IDX 24 1 23 2 22 3 21 4 19 5 20 6 9 8 8 9 6 10 7 11 5 13 2 14
REMARK SMILES IDX 1 15 3 16 4 17 10 18 11 19 12 20 18 21 13 22 16 23 14 24
REMARK SMILES IDX 17 25 15 26 25 28 26 29 27 30 28 31 29 32 30 34 31 35 32 36
REMARK SMILES IDX 90 37 33 38 89 39 34 40 35 41 36 42 83 43 37 44 88 45 82 46
REMARK SMILES IDX 84 47 38 48 87 49 81 50 80 51 39 53 69 54 50 55 68 56 51 57
REMARK SMILES IDX 54 58 67 59 85 60 52 61 53 62 66 64 86 65 55 66 40 67 41 68
REMARK SMILES IDX 49 69 42 70 48 71 43 72 44 73 45 74 46 75 47 76 70 77 71 78
REMARK SMILES IDX 79 79 72 80 78 81 73 82 74 83 75 84 76 85 77 86 56 87 57 88
REMARK SMILES IDX 65 89 58 90 64 91 59 92 60 93 61 94 62 95 63 96
REMARK H PARENT 21 7 8 12 15 27 28 33 84 52 54 63
REMARK Flexibility Score: inf
ROOT
ATOM      1  C   UNL A   1      30.972  26.882  26.465  1.00  0.00     0.002 C 
ENDROOT
BRANCH   1   2
ATOM      2  C   UNL A   1      31.541  25.487  26.188  1.00  0.00     0.021 C 
BRANCH   2   3
ATOM      3  C   UNL A   1      30.732  24.704  25.164  1.00  0.00     0.116 C 
BRANCH   3   4
ATOM      4  N   UNL A   1      31.054  25.145  23.819  1.00  0.00    -0.354 N 
ATOM      5  C   UNL A   1      31.952  24.630  22.932  1.00  0.00     0.243 C 
ATOM      6  O   UNL A   1      32.113  25.222  21.861  1.00  0.00    -0.273 OA
ATOM      7  H   UNL A   1      30.551  25.929  23.503  1.00  0.00     0.163 HD
BRANCH   5   8
ATOM      8  C   UNL A   1      32.857  23.444  23.325  1.00  0.00     0.179 C 
BRANCH   8   9
ATOM      9  N   UNL A   1      34.165  23.399  22.652  1.00  0.00    -0.309 N 
ATOM     10  C   UNL A   1      35.404  23.339  23.222  1.00  0.00     0.408 C 
ATOM     11  O   UNL A   1      36.371  22.970  22.559  1.00  0.00    -0.225 OA
ATOM     12  H   UNL A   1      34.143  23.413  21.668  1.00  0.00     0.167 HD
BRANCH  10  13
ATOM     13  O   UNL A   1      35.448  23.802  24.484  1.00  0.00    -0.444 OA
BRANCH  13  14
ATOM     14  C   UNL A   1      35.983  23.011  25.578  1.00  0.00     0.106 C 
ATOM     15  C   UNL A   1      34.993  23.224  26.736  1.00  0.00     0.056 C 
ATOM     16  C   UNL A   1      37.362  23.510  26.034  1.00  0.00     0.056 C 
ATOM     17  C   UNL A   1      36.017  21.525  25.219  1.00  0.00     0.056 C 
ENDBRANCH  13  14
ENDBRANCH  10  13
ENDBRANCH   8   9
BRANCH   8  18
ATOM     18  C   UNL A   1      31.984  22.176  23.090  1.00  0.00     0.070 C 
BRANCH  18  19
ATOM     19  C   UNL A   1      32.269  20.937  23.905  1.00  0.00    -0.044 A 
ATOM     20  C   UNL A   1      32.412  20.999  25.300  1.00  0.00     0.008 A 
ATOM     21  C   UNL A   1      32.522  19.720  23.257  1.00  0.00     0.028 A 
ATOM     22  C   UNL A   1      32.733  19.858  26.039  1.00  0.00     0.048 A 
ATOM     23  C   UNL A   1      32.875  18.583  23.991  1.00  0.00     0.083 A 
ATOM     24  C   UNL A   1      32.964  18.651  25.383  1.00  0.00     0.134 A 
ATOM     25  Cl  UNL A   1      33.218  17.125  23.135  1.00  0.00    -0.080 Cl
BRANCH  24  26
ATOM     26  O   UNL A   1      33.291  17.537  26.105  1.00  0.00    -0.506 OA
ATOM     27  H   UNL A   1      34.166  17.424  26.422  1.00  0.00     0.293 HD
ENDBRANCH  24  26
ENDBRANCH  18  19
ENDBRANCH   8  18
ENDBRANCH   5   8
ENDBRANCH   3   4
ENDBRANCH   2   3
ENDBRANCH   1   2
BRANCH   1  28
ATOM     28  C   UNL A   1      32.027  27.948  26.781  1.00  0.00     0.002 C 
BRANCH  28  29
ATOM     29  C   UNL A   1      33.461  27.556  26.418  1.00  0.00     0.021 C 
BRANCH  29  30
ATOM     30  C   UNL A   1      34.311  28.711  25.900  1.00  0.00     0.116 C 
BRANCH  30  31
ATOM     31  N   UNL A   1      33.888  29.985  26.456  1.00  0.00    -0.352 N 
ATOM     32  C   UNL A   1      34.402  30.670  27.527  1.00  0.00     0.251 C 
ATOM     33  H   UNL A   1      33.126  30.415  26.003  1.00  0.00     0.163 HD
ATOM     34  O   UNL A   1      33.796  31.628  27.996  1.00  0.00    -0.269 OA
BRANCH  32  35
ATOM     35  C   UNL A   1      35.682  30.231  28.117  1.00  0.00     0.039 A 
ATOM     36  C   UNL A   1      36.875  30.569  27.476  1.00  0.00     0.014 A 
ATOM     37  C   UNL A   1      35.701  29.495  29.307  1.00  0.00     0.014 A 
ATOM     38  C   UNL A   1      38.092  30.212  28.056  1.00  0.00     0.010 A 
ATOM     39  C   UNL A   1      36.914  29.207  29.921  1.00  0.00     0.010 A 
ATOM     40  C   UNL A   1      38.123  29.554  29.297  1.00  0.00    -0.014 A 
BRANCH  40  41
ATOM     41  C   UNL A   1      39.409  29.219  29.957  1.00  0.00     0.031 A 
ATOM     42  C   UNL A   1      39.887  30.028  31.133  1.00  0.00     0.074 A 
ATOM     43  C   UNL A   1      40.171  28.224  29.463  1.00  0.00     0.049 A 
ATOM     44  N   UNL A   1      41.001  29.919  31.809  1.00  0.00    -0.248 NA
ATOM     45  C   UNL A   1      39.010  31.118  31.593  1.00  0.00     0.031 C 
ATOM     46  C   UNL A   1      39.833  27.394  28.304  1.00  0.00     0.029 A 
ATOM     47  N   UNL A   1      41.390  27.744  29.870  1.00  0.00    -0.354 N 
ATOM     48  C   UNL A   1      40.967  30.931  32.761  1.00  0.00     0.074 A 
ATOM     49  C   UNL A   1      39.748  31.676  32.541  1.00  0.00     0.031 C 
ATOM     50  C   UNL A   1      40.807  26.489  28.112  1.00  0.00     0.029 A 
ATOM     51  C   UNL A   1      41.856  26.702  29.104  1.00  0.00     0.049 A 
ATOM     52  H   UNL A   1      41.885  28.112  30.638  1.00  0.00     0.167 HD
ATOM     53  C   UNL A   1      41.859  31.202  33.743  1.00  0.00     0.031 A 
ATOM     54  C   UNL A   1      43.003  25.999  29.186  1.00  0.00     0.031 A 
ATOM     55  C   UNL A   1      43.068  30.451  33.961  1.00  0.00     0.049 A 
ATOM     56  C   UNL A   1      43.986  26.328  30.276  1.00  0.00     0.074 A 
ATOM     57  C   UNL A   1      44.011  30.612  34.961  1.00  0.00     0.029 A 
ATOM     58  N   UNL A   1      43.501  29.400  33.167  1.00  0.00    -0.354 N 
ATOM     59  N   UNL A   1      43.904  27.247  31.208  1.00  0.00    -0.248 NA
ATOM     60  C   UNL A   1      45.211  25.518  30.331  1.00  0.00     0.031 C 
ATOM     61  C   UNL A   1      45.043  29.696  34.737  1.00  0.00     0.029 A 
ATOM     62  C   UNL A   1      44.711  28.920  33.637  1.00  0.00     0.049 A 
ATOM     63  H   UNL A   1      43.019  29.047  32.385  1.00  0.00     0.167 HD
ATOM     64  C   UNL A   1      45.053  27.106  31.979  1.00  0.00     0.074 A 
ATOM     65  C   UNL A   1      45.804  26.005  31.412  1.00  0.00     0.031 C 
ATOM     66  C   UNL A   1      45.449  27.823  33.061  1.00  0.00     0.031 A 
BRANCH  53  67
ATOM     67  C   UNL A   1      41.564  32.367  34.651  1.00  0.00    -0.014 A 
ATOM     68  C   UNL A   1      42.076  33.650  34.379  1.00  0.00     0.010 A 
ATOM     69  C   UNL A   1      40.732  32.188  35.771  1.00  0.00     0.010 A 
ATOM     70  C   UNL A   1      41.798  34.720  35.234  1.00  0.00     0.020 A 
ATOM     71  C   UNL A   1      40.426  33.264  36.611  1.00  0.00     0.020 A 
ATOM     72  C   UNL A   1      40.976  34.518  36.346  1.00  0.00     0.054 A 
BRANCH  72  73
ATOM     73  S   UNL A   1      40.616  35.930  37.427  1.00  0.00     0.124 S 
ATOM     74  O   UNL A   1      40.011  35.276  38.585  1.00  0.00    -0.237 OA
ATOM     75  O   UNL A   1      41.938  36.506  37.651  1.00  0.00    -0.237 OA
ATOM     76  O   UNL A   1      39.707  36.754  36.633  1.00  0.00    -0.744 OA
ENDBRANCH  72  73
ENDBRANCH  53  67
BRANCH  54  77
ATOM     77  C   UNL A   1      43.274  24.904  28.214  1.00  0.00    -0.014 A 
ATOM     78  C   UNL A   1      42.797  23.603  28.451  1.00  0.00     0.010 A 
ATOM     79  C   UNL A   1      44.001  25.161  27.037  1.00  0.00     0.010 A 
ATOM     80  C   UNL A   1      43.059  22.575  27.540  1.00  0.00     0.020 A 
ATOM     81  C   UNL A   1      44.238  24.144  26.109  1.00  0.00     0.020 A 
ATOM     82  C   UNL A   1      43.775  22.853  26.372  1.00  0.00     0.054 A 
BRANCH  82  83
ATOM     83  S   UNL A   1      44.059  21.516  25.180  1.00  0.00     0.124 S 
ATOM     84  O   UNL A   1      45.402  21.072  25.536  1.00  0.00    -0.237 OA
ATOM     85  O   UNL A   1      42.979  20.582  25.492  1.00  0.00    -0.237 OA
ATOM     86  O   UNL A   1      43.940  22.182  23.885  1.00  0.00    -0.744 OA
ENDBRANCH  82  83
ENDBRANCH  54  77
BRANCH  66  87
ATOM     87  C   UNL A   1      46.737  27.418  33.727  1.00  0.00    -0.014 A 
ATOM     88  C   UNL A   1      47.967  27.976  33.340  1.00  0.00     0.010 A 
ATOM     89  C   UNL A   1      46.704  26.505  34.798  1.00  0.00     0.010 A 
ATOM     90  C   UNL A   1      49.147  27.604  33.992  1.00  0.00     0.020 A 
ATOM     91  C   UNL A   1      47.876  26.154  35.470  1.00  0.00     0.020 A 
ATOM     92  C   UNL A   1      49.093  26.696  35.053  1.00  0.00     0.054 A 
BRANCH  92  93
ATOM     93  S   UNL A   1      50.632  26.263  35.910  1.00  0.00     0.124 S 
ATOM     94  O   UNL A   1      50.786  24.853  35.565  1.00  0.00    -0.237 OA
ATOM     95  O   UNL A   1      51.603  27.170  35.301  1.00  0.00    -0.237 OA
ATOM     96  O   UNL A   1      50.334  26.532  37.315  1.00  0.00    -0.744 OA
ENDBRANCH  92  93
ENDBRANCH  66  87
ENDBRANCH  40  41
ENDBRANCH  32  35
ENDBRANCH  30  31
ENDBRANCH  29  30
ENDBRANCH  28  29
ENDBRANCH   1  28
TORSDOF 22
ENDMDL
MODEL 2
REMARK VINA RESULT:     -10.2      1.979      2.578
REMARK SMILES CC(C)(C)OC(=O)N[C@H](Cc1ccc(O)c(Cl)c1)C(=O)NCCCCCCNC(=O)c1ccc(-c2c3nc(c(-c4ccc(S(=O)(=O)[O-])cc4)c4ccc([nH]4)c(-c4ccc(S(=O)(=O)[O-])cc4)c4nc(c(-c5ccc(S(=O)(=O)[O-])cc5)c5ccc2[nH]5)C=C4)C=C3)cc1
REMARK SMILES IDX 24 1 23 2 22 3 21 4 19 5 20 6 9 8 8 9 6 10 7 11 5 13 2 14
REMARK SMILES IDX 1 15 3 16 4 17 10 18 11 19 12 20 18 21 13 22 16 23 14 24
REMARK SMILES IDX 17 25 15 26 25 28 26 29 27 30 28 31 29 32 30 34 31 35 32 36
REMARK SMILES IDX 90 37 33 38 89 39 34 40 35 41 36 42 83 43 37 44 88 45 82 46
REMARK SMILES IDX 84 47 38 48 87 49 81 50 80 51 39 53 69 54 50 55 68 56 51 57
REMARK SMILES IDX 54 58 67 59 85 60 52 61 53 62 66 64 86 65 55 66 40 67 41 68
REMARK SMILES IDX 49 69 42 70 48 71 43 72 44 73 45 74 46 75 47 76 70 77 71 78
REMARK SMILES IDX 79 79 72 80 78 81 73 82 74 83 75 84 76 85 77 86 56 87 57 88
REMARK SMILES IDX 65 89 58 90 64 91 59 92 60 93 61 94 62 95 63 96
REMARK H PARENT 21 7 8 12 15 27 28 33 84 52 54 63
REMARK Flexibility Score: inf
ROOT
ATOM      1  C   UNL A   1      31.053  26.909  26.402  1.00  0.00     0.002 C 
ENDROOT
BRANCH   1   2
ATOM      2  C   UNL A   1      31.630  25.493  26.318  1.00  0.00     0.021 C 
BRANCH   2   3
ATOM      3  C   UNL A   1      30.829  24.575  25.405  1.00  0.00     0.116 C 
BRANCH   3   4
ATOM      4  N   UNL A   1      30.983  24.980  24.019  1.00  0.00    -0.354 N 
ATOM      5  C   UNL A   1      31.813  24.480  23.060  1.00  0.00     0.243 C 
ATOM      6  O   UNL A   1      31.827  25.038  21.959  1.00  0.00    -0.273 OA
ATOM      7  H   UNL A   1      30.405  25.722  23.731  1.00  0.00     0.163 HD
BRANCH   5   8
ATOM      8  C   UNL A   1      32.823  23.364  23.393  1.00  0.00     0.179 C 
BRANCH   8   9
ATOM      9  N   UNL A   1      34.150  23.506  22.774  1.00  0.00    -0.309 N 
ATOM     10  C   UNL A   1      35.374  23.385  23.367  1.00  0.00     0.408 C 
ATOM     11  O   UNL A   1      36.376  23.196  22.681  1.00  0.00    -0.225 OA
ATOM     12  H   UNL A   1      34.155  23.715  21.812  1.00  0.00     0.167 HD
BRANCH  10  13
ATOM     13  O   UNL A   1      35.359  23.590  24.696  1.00  0.00    -0.444 OA
BRANCH  13  14
ATOM     14  C   UNL A   1      35.949  22.644  25.629  1.00  0.00     0.106 C 
ATOM     15  C   UNL A   1      37.386  23.149  25.842  1.00  0.00     0.056 C 
ATOM     16  C   UNL A   1      36.025  21.226  25.044  1.00  0.00     0.056 C 
ATOM     17  C   UNL A   1      35.212  22.658  26.968  1.00  0.00     0.056 C 
ENDBRANCH  13  14
ENDBRANCH  10  13
ENDBRANCH   8   9
BRANCH   8  18
ATOM     18  C   UNL A   1      32.094  22.038  23.022  1.00  0.00     0.070 C 
BRANCH  18  19
ATOM     19  C   UNL A   1      32.332  20.815  23.874  1.00  0.00    -0.044 A 
ATOM     20  C   UNL A   1      32.466  20.913  25.269  1.00  0.00     0.008 A 
ATOM     21  C   UNL A   1      32.550  19.571  23.265  1.00  0.00     0.028 A 
ATOM     22  C   UNL A   1      32.744  19.785  26.043  1.00  0.00     0.048 A 
ATOM     23  C   UNL A   1      32.859  18.446  24.035  1.00  0.00     0.083 A 
ATOM     24  C   UNL A   1      32.940  18.552  25.425  1.00  0.00     0.134 A 
ATOM     25  Cl  UNL A   1      33.160  16.953  23.224  1.00  0.00    -0.080 Cl
BRANCH  24  26
ATOM     26  O   UNL A   1      33.224  17.449  26.182  1.00  0.00    -0.506 OA
ATOM     27  H   UNL A   1      32.842  17.354  27.032  1.00  0.00     0.293 HD
ENDBRANCH  24  26
ENDBRANCH  18  19
ENDBRANCH   8  18
ENDBRANCH   5   8
ENDBRANCH   3   4
ENDBRANCH   2   3
ENDBRANCH   1   2
BRANCH   1  28
ATOM     28  C   UNL A   1      32.048  27.975  26.874  1.00  0.00     0.002 C 
BRANCH  28  29
ATOM     29  C   UNL A   1      33.506  27.699  26.499  1.00  0.00     0.021 C 
BRANCH  29  30
ATOM     30  C   UNL A   1      34.261  28.921  25.990  1.00  0.00     0.116 C 
BRANCH  30  31
ATOM     31  N   UNL A   1      33.954  30.108  26.768  1.00  0.00    -0.352 N 
ATOM     32  C   UNL A   1      34.627  30.632  27.842  1.00  0.00     0.251 C 
ATOM     33  H   UNL A   1      33.151  30.606  26.488  1.00  0.00     0.163 HD
ATOM     34  O   UNL A   1      34.119  31.521  28.517  1.00  0.00    -0.269 OA
BRANCH  32  35
ATOM     35  C   UNL A   1      35.963  30.103  28.184  1.00  0.00     0.039 A 
ATOM     36  C   UNL A   1      36.978  30.157  27.228  1.00  0.00     0.014 A 
ATOM     37  C   UNL A   1      36.210  29.564  29.451  1.00  0.00     0.014 A 
ATOM     38  C   UNL A   1      38.259  29.715  27.561  1.00  0.00     0.010 A 
ATOM     39  C   UNL A   1      37.503  29.195  29.804  1.00  0.00     0.010 A 
ATOM     40  C   UNL A   1      38.539  29.258  28.860  1.00  0.00    -0.014 A 
BRANCH  40  41
ATOM     41  C   UNL A   1      39.909  28.840  29.248  1.00  0.00     0.031 A 
ATOM     42  C   UNL A   1      40.811  29.798  29.978  1.00  0.00     0.074 A 
ATOM     43  C   UNL A   1      40.358  27.621  28.893  1.00  0.00     0.049 A 
ATOM     44  N   UNL A   1      42.052  29.633  30.358  1.00  0.00    -0.248 NA
ATOM     45  C   UNL A   1      40.256  31.123  30.301  1.00  0.00     0.031 C 
ATOM     46  C   UNL A   1      39.590  26.618  28.150  1.00  0.00     0.029 A 
ATOM     47  N   UNL A   1      41.571  27.017  29.108  1.00  0.00    -0.354 N 
ATOM     48  C   UNL A   1      42.429  30.833  30.949  1.00  0.00     0.074 A 
ATOM     49  C   UNL A   1      41.306  31.734  30.831  1.00  0.00     0.031 C 
ATOM     50  C   UNL A   1      40.340  25.515  27.996  1.00  0.00     0.029 A 
ATOM     51  C   UNL A   1      41.653  25.746  28.589  1.00  0.00     0.049 A 
ATOM     52  H   UNL A   1      42.313  27.453  29.586  1.00  0.00     0.167 HD
ATOM     53  C   UNL A   1      43.598  31.149  31.555  1.00  0.00     0.031 A 
ATOM     54  C   UNL A   1      42.674  24.866  28.586  1.00  0.00     0.031 A 
ATOM     55  C   UNL A   1      44.712  30.244  31.677  1.00  0.00     0.049 A 
ATOM     56  C   UNL A   1      43.968  25.245  29.253  1.00  0.00     0.074 A 
ATOM     57  C   UNL A   1      45.920  30.449  32.319  1.00  0.00     0.029 A 
ATOM     58  N   UNL A   1      44.753  28.964  31.143  1.00  0.00    -0.354 N 
ATOM     59  N   UNL A   1      44.283  26.361  29.864  1.00  0.00    -0.248 NA
ATOM     60  C   UNL A   1      45.041  24.241  29.237  1.00  0.00     0.031 C 
ATOM     61  C   UNL A   1      46.715  29.316  32.124  1.00  0.00     0.029 A 
ATOM     62  C   UNL A   1      45.977  28.378  31.418  1.00  0.00     0.049 A 
ATOM     63  H   UNL A   1      44.022  28.537  30.644  1.00  0.00     0.167 HD
ATOM     64  C   UNL A   1      45.581  26.183  30.332  1.00  0.00     0.074 A 
ATOM     65  C   UNL A   1      45.984  24.846  29.945  1.00  0.00     0.031 C 
ATOM     66  C   UNL A   1      46.366  27.047  31.023  1.00  0.00     0.031 A 
BRANCH  53  67
ATOM     67  C   UNL A   1      43.736  32.537  32.126  1.00  0.00    -0.014 A 
ATOM     68  C   UNL A   1      43.951  32.740  33.501  1.00  0.00     0.010 A 
ATOM     69  C   UNL A   1      43.688  33.652  31.271  1.00  0.00     0.010 A 
ATOM     70  C   UNL A   1      44.071  34.033  34.017  1.00  0.00     0.020 A 
ATOM     71  C   UNL A   1      43.839  34.947  31.778  1.00  0.00     0.020 A 
ATOM     72  C   UNL A   1      44.012  35.128  33.151  1.00  0.00     0.054 A 
BRANCH  72  73
ATOM     73  S   UNL A   1      44.192  36.795  33.845  1.00  0.00     0.124 S 
ATOM     74  O   UNL A   1      43.060  37.495  33.242  1.00  0.00    -0.237 OA
ATOM     75  O   UNL A   1      44.087  36.555  35.282  1.00  0.00    -0.237 OA
ATOM     76  O   UNL A   1      45.509  37.225  33.383  1.00  0.00    -0.744 OA
ENDBRANCH  72  73
ENDBRANCH  53  67
BRANCH  54  77
ATOM     77  C   UNL A   1      42.504  23.534  27.942  1.00  0.00    -0.014 A 
ATOM     78  C   UNL A   1      42.705  23.377  26.560  1.00  0.00     0.010 A 
ATOM     79  C   UNL A   1      42.154  22.410  28.714  1.00  0.00     0.010 A 
ATOM     80  C   UNL A   1      42.540  22.127  25.957  1.00  0.00     0.020 A 
ATOM     81  C   UNL A   1      42.017  21.153  28.120  1.00  0.00     0.020 A 
ATOM     82  C   UNL A   1      42.200  21.021  26.742  1.00  0.00     0.054 A 
BRANCH  82  83
ATOM     83  S   UNL A   1      42.040  19.399  25.946  1.00  0.00     0.124 S 
ATOM     84  O   UNL A   1      42.517  18.500  26.992  1.00  0.00    -0.237 OA
ATOM     85  O   UNL A   1      40.609  19.331  25.656  1.00  0.00    -0.237 OA
ATOM     86  O   UNL A   1      42.901  19.508  24.771  1.00  0.00    -0.744 OA
ENDBRANCH  82  83
ENDBRANCH  54  77
BRANCH  66  87
ATOM     87  C   UNL A   1      47.730  26.564  31.438  1.00  0.00    -0.014 A 
ATOM     88  C   UNL A   1      47.929  25.894  32.658  1.00  0.00     0.010 A 
ATOM     89  C   UNL A   1      48.819  26.734  30.563  1.00  0.00     0.010 A 
ATOM     90  C   UNL A   1      49.200  25.432  33.011  1.00  0.00     0.020 A 
ATOM     91  C   UNL A   1      50.084  26.246  30.899  1.00  0.00     0.020 A 
ATOM     92  C   UNL A   1      50.270  25.610  32.128  1.00  0.00     0.054 A 
BRANCH  92  93
ATOM     93  S   UNL A   1      51.899  24.962  32.589  1.00  0.00     0.124 S 
ATOM     94  O   UNL A   1      52.793  25.780  31.777  1.00  0.00    -0.237 OA
ATOM     95  O   UNL A   1      51.948  25.214  34.028  1.00  0.00    -0.237 OA
ATOM     96  O   UNL A   1      51.830  23.551  32.213  1.00  0.00    -0.744 OA
ENDBRANCH  92  93
ENDBRANCH  66  87
ENDBRANCH  40  41
ENDBRANCH  32  35
ENDBRANCH  30  31
ENDBRANCH  29  30
ENDBRANCH  28  29
ENDBRANCH   1  28
TORSDOF 22
ENDMDL
MODEL 3
REMARK VINA RESULT:      -9.9      5.426     10.398
REMARK SMILES CC(C)(C)OC(=O)N[C@H](Cc1ccc(O)c(Cl)c1)C(=O)NCCCCCCNC(=O)c1ccc(-c2c3nc(c(-c4ccc(S(=O)(=O)[O-])cc4)c4ccc([nH]4)c(-c4ccc(S(=O)(=O)[O-])cc4)c4nc(c(-c5ccc(S(=O)(=O)[O-])cc5)c5ccc2[nH]5)C=C4)C=C3)cc1
REMARK SMILES IDX 24 1 23 2 22 3 21 4 19 5 20 6 9 8 8 9 6 10 7 11 5 13 2 14
REMARK SMILES IDX 1 15 3 16 4 17 10 18 11 19 12 20 18 21 13 22 16 23 14 24
REMARK SMILES IDX 17 25 15 26 25 28 26 29 27 30 28 31 29 32 30 34 31 35 32 36
REMARK SMILES IDX 90 37 33 38 89 39 34 40 35 41 36 42 83 43 37 44 88 45 82 46
REMARK SMILES IDX 84 47 38 48 87 49 81 50 80 51 39 53 69 54 50 55 68 56 51 57
REMARK SMILES IDX 54 58 67 59 85 60 52 61 53 62 66 64 86 65 55 66 40 67 41 68
REMARK SMILES IDX 49 69 42 70 48 71 43 72 44 73 45 74 46 75 47 76 70 77 71 78
REMARK SMILES IDX 79 79 72 80 78 81 73 82 74 83 75 84 76 85 77 86 56 87 57 88
REMARK SMILES IDX 65 89 58 90 64 91 59 92 60 93 61 94 62 95 63 96
REMARK H PARENT 21 7 8 12 15 27 28 33 84 52 54 63
REMARK Flexibility Score: inf
ROOT
ATOM      1  C   UNL A   1      39.948  23.315  26.363  1.00  0.00     0.002 C 
ENDROOT
BRANCH   1   2
ATOM      2  C   UNL A   1      38.679  24.140  26.600  1.00  0.00     0.021 C 
BRANCH   2   3
ATOM      3  C   UNL A   1      37.411  23.427  26.155  1.00  0.00     0.116 C 
BRANCH   3   4
ATOM      4  N   UNL A   1      37.447  23.177  24.725  1.00  0.00    -0.354 N 
ATOM      5  C   UNL A   1      36.422  23.154  23.826  1.00  0.00     0.243 C 
ATOM      6  O   UNL A   1      36.682  22.841  22.660  1.00  0.00    -0.273 OA
ATOM      7  H   UNL A   1      38.339  22.999  24.352  1.00  0.00     0.163 HD
BRANCH   5   8
ATOM      8  C   UNL A   1      34.963  23.346  24.287  1.00  0.00     0.179 C 
BRANCH   8   9
ATOM      9  N   UNL A   1      34.248  22.113  24.652  1.00  0.00    -0.309 N 
ATOM     10  C   UNL A   1      33.026  21.993  25.249  1.00  0.00     0.408 C 
ATOM     11  O   UNL A   1      32.412  20.930  25.188  1.00  0.00    -0.225 OA
ATOM     12  H   UNL A   1      34.709  21.270  24.439  1.00  0.00     0.167 HD
BRANCH  10  13
ATOM     13  O   UNL A   1      32.653  23.077  25.952  1.00  0.00    -0.444 OA
BRANCH  13  14
ATOM     14  C   UNL A   1      31.320  23.644  25.844  1.00  0.00     0.106 C 
ATOM     15  C   UNL A   1      31.447  25.057  26.440  1.00  0.00     0.056 C 
ATOM     16  C   UNL A   1      30.290  22.868  26.677  1.00  0.00     0.056 C 
ATOM     17  C   UNL A   1      30.886  23.758  24.383  1.00  0.00     0.056 C 
ENDBRANCH  13  14
ENDBRANCH  10  13
ENDBRANCH   8   9
BRANCH   8  18
ATOM     18  C   UNL A   1      34.282  24.152  23.141  1.00  0.00     0.070 C 
BRANCH  18  19
ATOM     19  C   UNL A   1      33.906  25.592  23.392  1.00  0.00    -0.044 A 
ATOM     20  C   UNL A   1      33.477  26.426  22.346  1.00  0.00     0.008 A 
ATOM     21  C   UNL A   1      34.101  26.154  24.662  1.00  0.00     0.028 A 
ATOM     22  C   UNL A   1      33.187  27.773  22.577  1.00  0.00     0.048 A 
ATOM     23  C   UNL A   1      33.840  27.509  24.889  1.00  0.00     0.083 A 
ATOM     24  C   UNL A   1      33.369  28.313  23.849  1.00  0.00     0.134 A 
ATOM     25  Cl  UNL A   1      34.142  28.152  26.460  1.00  0.00    -0.080 Cl
BRANCH  24  26
ATOM     26  O   UNL A   1      33.095  29.634  24.071  1.00  0.00    -0.506 OA
ATOM     27  H   UNL A   1      33.797  30.243  24.194  1.00  0.00     0.293 HD
ENDBRANCH  24  26
ENDBRANCH  18  19
ENDBRANCH   8  18
ENDBRANCH   5   8
ENDBRANCH   3   4
ENDBRANCH   2   3
ENDBRANCH   1   2
BRANCH   1  28
ATOM     28  C   UNL A   1      40.020  22.012  27.167  1.00  0.00     0.002 C 
BRANCH  28  29
ATOM     29  C   UNL A   1      40.417  20.780  26.353  1.00  0.00     0.021 C 
BRANCH  29  30
ATOM     30  C   UNL A   1      41.564  19.976  26.956  1.00  0.00     0.116 C 
BRANCH  30  31
ATOM     31  N   UNL A   1      42.410  19.391  25.930  1.00  0.00    -0.352 N 
ATOM     32  C   UNL A   1      43.380  19.991  25.169  1.00  0.00     0.251 C 
ATOM     33  H   UNL A   1      42.268  18.431  25.757  1.00  0.00     0.163 HD
ATOM     34  O   UNL A   1      43.856  19.406  24.202  1.00  0.00    -0.269 OA
BRANCH  32  35
ATOM     35  C   UNL A   1      43.830  21.354  25.516  1.00  0.00     0.039 A 
ATOM     36  C   UNL A   1      43.205  22.447  24.914  1.00  0.00     0.014 A 
ATOM     37  C   UNL A   1      44.860  21.547  26.443  1.00  0.00     0.014 A 
ATOM     38  C   UNL A   1      43.582  23.740  25.280  1.00  0.00     0.010 A 
ATOM     39  C   UNL A   1      45.180  22.833  26.860  1.00  0.00     0.010 A 
ATOM     40  C   UNL A   1      44.551  23.944  26.277  1.00  0.00    -0.014 A 
BRANCH  40  41
ATOM     41  C   UNL A   1      44.920  25.310  26.720  1.00  0.00     0.031 A 
ATOM     42  C   UNL A   1      46.279  25.869  26.392  1.00  0.00     0.074 A 
ATOM     43  C   UNL A   1      44.055  26.025  27.465  1.00  0.00     0.049 A 
ATOM     44  N   UNL A   1      46.801  27.019  26.732  1.00  0.00    -0.248 NA
ATOM     45  C   UNL A   1      47.178  25.013  25.601  1.00  0.00     0.031 C 
ATOM     46  C   UNL A   1      42.724  25.576  27.881  1.00  0.00     0.029 A 
ATOM     47  N   UNL A   1      44.166  27.280  28.009  1.00  0.00    -0.354 N 
ATOM     48  C   UNL A   1      48.089  27.019  26.210  1.00  0.00     0.074 A 
ATOM     49  C   UNL A   1      48.289  25.735  25.578  1.00  0.00     0.031 C 
ATOM     50  C   UNL A   1      42.132  26.552  28.589  1.00  0.00     0.029 A 
ATOM     51  C   UNL A   1      43.055  27.675  28.715  1.00  0.00     0.049 A 
ATOM     52  H   UNL A   1      44.967  27.843  27.905  1.00  0.00     0.167 HD
ATOM     53  C   UNL A   1      49.015  28.007  26.237  1.00  0.00     0.031 A 
ATOM     54  C   UNL A   1      42.807  28.813  29.393  1.00  0.00     0.031 A 
ATOM     55  C   UNL A   1      48.806  29.288  26.862  1.00  0.00     0.049 A 
ATOM     56  C   UNL A   1      43.857  29.891  29.422  1.00  0.00     0.074 A 
ATOM     57  C   UNL A   1      49.661  30.375  26.897  1.00  0.00     0.029 A 
ATOM     58  N   UNL A   1      47.665  29.650  27.561  1.00  0.00    -0.354 N 
ATOM     59  N   UNL A   1      45.044  29.897  28.866  1.00  0.00    -0.248 NA
ATOM     60  C   UNL A   1      43.527  31.118  30.160  1.00  0.00     0.031 C 
ATOM     61  C   UNL A   1      49.060  31.375  27.669  1.00  0.00     0.029 A 
ATOM     62  C   UNL A   1      47.804  30.936  28.057  1.00  0.00     0.049 A 
ATOM     63  H   UNL A   1      46.874  29.079  27.687  1.00  0.00     0.167 HD
ATOM     64  C   UNL A   1      45.593  31.141  29.163  1.00  0.00     0.074 A 
ATOM     65  C   UNL A   1      44.601  31.862  29.933  1.00  0.00     0.031 C 
ATOM     66  C   UNL A   1      46.808  31.641  28.825  1.00  0.00     0.031 A 
BRANCH  53  67
ATOM     67  C   UNL A   1      50.342  27.738  25.577  1.00  0.00    -0.014 A 
ATOM     68  C   UNL A   1      50.532  27.971  24.203  1.00  0.00     0.010 A 
ATOM     69  C   UNL A   1      51.426  27.282  26.348  1.00  0.00     0.010 A 
ATOM     70  C   UNL A   1      51.768  27.711  23.604  1.00  0.00     0.020 A 
ATOM     71  C   UNL A   1      52.673  27.050  25.759  1.00  0.00     0.020 A 
ATOM     72  C   UNL A   1      52.830  27.250  24.387  1.00  0.00     0.054 A 
BRANCH  72  73
ATOM     73  S   UNL A   1      54.429  26.941  23.587  1.00  0.00     0.124 S 
ATOM     74  O   UNL A   1      55.052  28.261  23.640  1.00  0.00    -0.237 OA
ATOM     75  O   UNL A   1      55.028  25.929  24.452  1.00  0.00    -0.237 OA
ATOM     76  O   UNL A   1      54.065  26.478  22.250  1.00  0.00    -0.744 OA
ENDBRANCH  72  73
ENDBRANCH  53  67
BRANCH  54  77
ATOM     77  C   UNL A   1      41.503  28.995  30.088  1.00  0.00    -0.014 A 
ATOM     78  C   UNL A   1      40.490  29.782  29.514  1.00  0.00     0.010 A 
ATOM     79  C   UNL A   1      41.263  28.368  31.326  1.00  0.00     0.010 A 
ATOM     80  C   UNL A   1      39.268  29.955  30.172  1.00  0.00     0.020 A 
ATOM     81  C   UNL A   1      40.032  28.515  31.972  1.00  0.00     0.020 A 
ATOM     82  C   UNL A   1      39.046  29.318  31.396  1.00  0.00     0.054 A 
BRANCH  82  83
ATOM     83  S   UNL A   1      37.436  29.516  32.207  1.00  0.00     0.124 S 
ATOM     84  O   UNL A   1      37.540  30.860  32.765  1.00  0.00    -0.237 OA
ATOM     85  O   UNL A   1      36.502  29.362  31.093  1.00  0.00    -0.237 OA
ATOM     86  O   UNL A   1      37.410  28.431  33.185  1.00  0.00    -0.744 OA
ENDBRANCH  82  83
ENDBRANCH  54  77
BRANCH  66  87
ATOM     87  C   UNL A   1      47.122  33.049  29.255  1.00  0.00    -0.014 A 
ATOM     88  C   UNL A   1      46.775  34.152  28.455  1.00  0.00     0.010 A 
ATOM     89  C   UNL A   1      47.723  33.272  30.507  1.00  0.00     0.010 A 
ATOM     90  C   UNL A   1      47.054  35.452  28.886  1.00  0.00     0.020 A 
ATOM     91  C   UNL A   1      47.976  34.571  30.954  1.00  0.00     0.020 A 
ATOM     92  C   UNL A   1      47.651  35.653  30.135  1.00  0.00     0.054 A 
BRANCH  92  93
ATOM     93  S   UNL A   1      47.962  37.351  30.690  1.00  0.00     0.124 S 
ATOM     94  O   UNL A   1      49.366  37.291  31.082  1.00  0.00    -0.237 OA
ATOM     95  O   UNL A   1      47.676  38.136  29.492  1.00  0.00    -0.237 OA
ATOM     96  O   UNL A   1      47.015  37.535  31.788  1.00  0.00    -0.744 OA
ENDBRANCH  92  93
ENDBRANCH  66  87
ENDBRANCH  40  41
ENDBRANCH  32  35
ENDBRANCH  30  31
ENDBRANCH  29  30
ENDBRANCH  28  29
ENDBRANCH   1  28
TORSDOF 22
ENDMDL
