MODEL 1
REMARK VINA RESULT:      -8.6      0.000      0.000
REMARK SMILES C[C@@H](Oc1ccc(C(C)(C)C)cc1)C(=O)Oc1cccc(C(=O)NCCCCCCNC(=O)c2ccc(-c3c4nc(c(-c5ccc(S(=O)(=O)[O-])cc5)c5ccc([nH]5)c(-c5ccc(S(=O)(=O)[O-])cc5)c5nc(c(-c6ccc(S(=O)(=O)[O-])cc6)c6ccc3[nH]6)C=C5)C=C4)cc2)c1
REMARK SMILES IDX 26 1 25 2 24 3 22 4 23 5 21 7 17 8 18 9 94 10 19 11 20 12
REMARK SMILES IDX 16 13 14 14 15 15 2 16 1 17 3 18 4 19 5 20 13 21 6 22 12 23
REMARK SMILES IDX 7 24 8 25 9 26 10 27 11 28 27 29 28 30 29 31 30 32 31 33
REMARK SMILES IDX 32 34 33 36 34 37 35 38 93 39 36 40 92 41 37 42 38 43 39 44
REMARK SMILES IDX 86 45 40 46 91 47 85 48 87 49 41 50 90 51 84 52 83 53 42 55
REMARK SMILES IDX 72 56 53 57 71 58 54 59 57 60 70 61 88 62 55 63 56 64 69 66
REMARK SMILES IDX 89 67 58 68 43 69 44 70 52 71 45 72 51 73 46 74 47 75 48 76
REMARK SMILES IDX 49 77 50 78 73 79 74 80 82 81 75 82 81 83 76 84 77 85 78 86
REMARK SMILES IDX 79 87 80 88 59 89 60 90 68 91 61 92 67 93 62 94 63 95 64 96
REMARK SMILES IDX 65 97 66 98
REMARK H PARENT 24 6 31 35 87 54 57 65
REMARK Flexibility Score: inf
ROOT
ATOM      1  C   UNL A   1      44.054  23.984  25.886  1.00  0.00     0.021 C 
ENDROOT
BRANCH   1   2
ATOM      2  C   UNL A   1      45.308  23.248  26.338  1.00  0.00     0.116 C 
BRANCH   2   3
ATOM      3  N   UNL A   1      45.870  23.731  27.595  1.00  0.00    -0.352 N 
ATOM      4  C   UNL A   1      46.686  24.815  27.855  1.00  0.00     0.251 C 
ATOM      5  O   UNL A   1      47.079  25.005  29.005  1.00  0.00    -0.269 OA
ATOM      6  H   UNL A   1      45.630  23.198  28.386  1.00  0.00     0.163 HD
BRANCH   4   7
ATOM      7  C   UNL A   1      47.153  25.720  26.768  1.00  0.00     0.043 A 
ATOM      8  C   UNL A   1      47.019  27.835  25.617  1.00  0.00     0.131 A 
ATOM      9  C   UNL A   1      47.707  27.298  24.527  1.00  0.00     0.047 A 
ATOM     10  C   UNL A   1      46.849  27.080  26.769  1.00  0.00     0.061 A 
ATOM     11  C   UNL A   1      48.177  25.983  24.587  1.00  0.00     0.005 A 
ATOM     12  C   UNL A   1      47.872  25.184  25.693  1.00  0.00     0.014 A 
BRANCH   8  13
ATOM     13  O   UNL A   1      46.411  29.106  25.426  1.00  0.00    -0.424 OA
BRANCH  13  14
ATOM     14  C   UNL A   1      45.341  29.623  26.185  1.00  0.00     0.352 C 
ATOM     15  O   UNL A   1      44.272  29.061  26.399  1.00  0.00    -0.247 OA
BRANCH  14  16
ATOM     16  C   UNL A   1      45.671  31.019  26.713  1.00  0.00     0.279 C 
ATOM     17  C   UNL A   1      47.154  31.070  27.071  1.00  0.00     0.066 C 
BRANCH  16  18
ATOM     18  O   UNL A   1      45.284  31.974  25.707  1.00  0.00    -0.479 OA
BRANCH  18  19
ATOM     19  C   UNL A   1      44.820  33.155  26.227  1.00  0.00     0.120 A 
ATOM     20  C   UNL A   1      44.125  33.155  27.433  1.00  0.00     0.047 A 
ATOM     21  C   UNL A   1      44.921  34.337  25.507  1.00  0.00     0.047 A 
ATOM     22  C   UNL A   1      43.595  34.356  27.941  1.00  0.00     0.008 A 
ATOM     23  C   UNL A   1      44.417  35.533  26.024  1.00  0.00     0.008 A 
ATOM     24  C   UNL A   1      43.749  35.578  27.257  1.00  0.00    -0.042 A 
BRANCH  24  25
ATOM     25  C   UNL A   1      43.164  36.894  27.811  1.00  0.00    -0.013 C 
ATOM     26  C   UNL A   1      42.516  37.684  26.656  1.00  0.00     0.016 C 
ATOM     27  C   UNL A   1      42.099  36.616  28.894  1.00  0.00     0.016 C 
ATOM     28  C   UNL A   1      44.228  37.812  28.461  1.00  0.00     0.016 C 
ENDBRANCH  24  25
ENDBRANCH  18  19
ENDBRANCH  16  18
ENDBRANCH  14  16
ENDBRANCH  13  14
ENDBRANCH   8  13
ENDBRANCH   4   7
ENDBRANCH   2   3
ENDBRANCH   1   2
BRANCH   1  29
ATOM     29  C   UNL A   1      43.079  23.188  25.022  1.00  0.00     0.002 C 
BRANCH  29  30
ATOM     30  C   UNL A   1      42.411  21.983  25.691  1.00  0.00     0.002 C 
BRANCH  30  31
ATOM     31  C   UNL A   1      41.700  22.251  27.020  1.00  0.00     0.021 C 
BRANCH  31  32
ATOM     32  C   UNL A   1      40.395  21.494  27.238  1.00  0.00     0.116 C 
BRANCH  32  33
ATOM     33  N   UNL A   1      39.351  21.899  26.311  1.00  0.00    -0.352 N 
ATOM     34  C   UNL A   1      38.775  23.133  26.124  1.00  0.00     0.251 C 
ATOM     35  H   UNL A   1      39.004  21.183  25.731  1.00  0.00     0.163 HD
ATOM     36  O   UNL A   1      37.784  23.240  25.409  1.00  0.00    -0.269 OA
BRANCH  34  37
ATOM     37  C   UNL A   1      39.337  24.325  26.796  1.00  0.00     0.039 A 
ATOM     38  C   UNL A   1      40.133  25.203  26.056  1.00  0.00     0.014 A 
ATOM     39  C   UNL A   1      39.097  24.572  28.151  1.00  0.00     0.014 A 
ATOM     40  C   UNL A   1      40.641  26.356  26.658  1.00  0.00     0.010 A 
ATOM     41  C   UNL A   1      39.540  25.758  28.729  1.00  0.00     0.010 A 
ATOM     42  C   UNL A   1      40.322  26.661  27.992  1.00  0.00    -0.014 A 
BRANCH  42  43
ATOM     43  C   UNL A   1      40.794  27.919  28.626  1.00  0.00     0.031 A 
ATOM     44  C   UNL A   1      42.197  28.023  29.157  1.00  0.00     0.074 A 
ATOM     45  C   UNL A   1      39.938  28.948  28.783  1.00  0.00     0.049 A 
ATOM     46  N   UNL A   1      42.771  29.019  29.784  1.00  0.00    -0.248 NA
ATOM     47  C   UNL A   1      43.061  26.844  28.986  1.00  0.00     0.031 C 
ATOM     48  C   UNL A   1      38.536  28.953  28.358  1.00  0.00     0.029 A 
ATOM     49  N   UNL A   1      40.116  30.184  29.352  1.00  0.00    -0.354 N 
ATOM     50  C   UNL A   1      44.055  28.583  30.093  1.00  0.00     0.074 A 
ATOM     51  C   UNL A   1      44.154  27.213  29.638  1.00  0.00     0.031 C 
ATOM     52  C   UNL A   1      37.989  30.138  28.665  1.00  0.00     0.029 A 
ATOM     53  C   UNL A   1      38.984  30.962  29.346  1.00  0.00     0.049 A 
ATOM     54  H   UNL A   1      40.975  30.484  29.730  1.00  0.00     0.167 HD
ATOM     55  C   UNL A   1      45.066  29.266  30.682  1.00  0.00     0.031 A 
ATOM     56  C   UNL A   1      38.761  32.195  29.842  1.00  0.00     0.031 A 
ATOM     57  C   UNL A   1      44.959  30.627  31.139  1.00  0.00     0.049 A 
ATOM     58  C   UNL A   1      39.891  32.934  30.502  1.00  0.00     0.074 A 
ATOM     59  C   UNL A   1      45.939  31.426  31.701  1.00  0.00     0.029 A 
ATOM     60  N   UNL A   1      43.799  31.388  31.095  1.00  0.00    -0.354 N 
ATOM     61  N   UNL A   1      41.121  32.533  30.718  1.00  0.00    -0.248 NA
ATOM     62  C   UNL A   1      39.609  34.298  30.971  1.00  0.00     0.031 C 
ATOM     63  C   UNL A   1      45.356  32.648  32.057  1.00  0.00     0.029 A 
ATOM     64  C   UNL A   1      44.031  32.637  31.651  1.00  0.00     0.049 A 
ATOM     65  H   UNL A   1      42.939  31.086  30.725  1.00  0.00     0.167 HD
ATOM     66  C   UNL A   1      41.768  33.602  31.328  1.00  0.00     0.074 A 
ATOM     67  C   UNL A   1      40.795  34.672  31.431  1.00  0.00     0.031 C 
ATOM     68  C   UNL A   1      43.050  33.689  31.761  1.00  0.00     0.031 A 
BRANCH  55  69
ATOM     69  C   UNL A   1      46.370  28.533  30.883  1.00  0.00    -0.014 A 
ATOM     70  C   UNL A   1      47.440  28.683  29.981  1.00  0.00     0.010 A 
ATOM     71  C   UNL A   1      46.528  27.680  31.992  1.00  0.00     0.010 A 
ATOM     72  C   UNL A   1      48.615  27.943  30.145  1.00  0.00     0.020 A 
ATOM     73  C   UNL A   1      47.717  26.967  32.178  1.00  0.00     0.020 A 
ATOM     74  C   UNL A   1      48.741  27.083  31.238  1.00  0.00     0.054 A 
BRANCH  74  75
ATOM     75  S   UNL A   1      50.269  26.121  31.415  1.00  0.00     0.124 S 
ATOM     76  O   UNL A   1      51.289  27.123  31.116  1.00  0.00    -0.237 OA
ATOM     77  O   UNL A   1      50.211  25.680  32.807  1.00  0.00    -0.237 OA
ATOM     78  O   UNL A   1      50.128  25.059  30.422  1.00  0.00    -0.744 OA
ENDBRANCH  74  75
ENDBRANCH  55  69
BRANCH  56  79
ATOM     79  C   UNL A   1      37.403  32.795  29.725  1.00  0.00    -0.014 A 
ATOM     80  C   UNL A   1      36.557  32.889  30.844  1.00  0.00     0.010 A 
ATOM     81  C   UNL A   1      36.973  33.328  28.496  1.00  0.00     0.010 A 
ATOM     82  C   UNL A   1      35.305  33.502  30.735  1.00  0.00     0.020 A 
ATOM     83  C   UNL A   1      35.735  33.969  28.391  1.00  0.00     0.020 A 
ATOM     84  C   UNL A   1      34.906  34.046  29.510  1.00  0.00     0.054 A 
BRANCH  84  85
ATOM     85  S   UNL A   1      33.314  34.911  29.414  1.00  0.00     0.124 S 
ATOM     86  O   UNL A   1      32.610  34.141  28.394  1.00  0.00    -0.237 OA
ATOM     87  O   UNL A   1      32.801  34.778  30.775  1.00  0.00    -0.237 OA
ATOM     88  O   UNL A   1      33.686  36.271  29.027  1.00  0.00    -0.744 OA
ENDBRANCH  84  85
ENDBRANCH  56  79
BRANCH  68  89
ATOM     89  C   UNL A   1      43.490  34.997  32.368  1.00  0.00    -0.014 A 
ATOM     90  C   UNL A   1      43.287  35.276  33.731  1.00  0.00     0.010 A 
ATOM     91  C   UNL A   1      44.171  35.937  31.572  1.00  0.00     0.010 A 
ATOM     92  C   UNL A   1      43.728  36.484  34.279  1.00  0.00     0.020 A 
ATOM     93  C   UNL A   1      44.641  37.132  32.122  1.00  0.00     0.020 A 
ATOM     94  C   UNL A   1      44.404  37.404  33.470  1.00  0.00     0.054 A 
BRANCH  94  95
ATOM     95  S   UNL A   1      45.005  38.944  34.216  1.00  0.00     0.124 S 
ATOM     96  O   UNL A   1      45.369  38.509  35.562  1.00  0.00    -0.237 OA
ATOM     97  O   UNL A   1      46.124  39.304  33.349  1.00  0.00    -0.237 OA
ATOM     98  O   UNL A   1      43.852  39.838  34.141  1.00  0.00    -0.744 OA
ENDBRANCH  94  95
ENDBRANCH  68  89
ENDBRANCH  42  43
ENDBRANCH  34  37
ENDBRANCH  32  33
ENDBRANCH  31  32
ENDBRANCH  30  31
ENDBRANCH  29  30
ENDBRANCH   1  29
TORSDOF 22
ENDMDL
MODEL 2
REMARK VINA RESULT:      -8.3      3.857      9.073
REMARK SMILES C[C@@H](Oc1ccc(C(C)(C)C)cc1)C(=O)Oc1cccc(C(=O)NCCCCCCNC(=O)c2ccc(-c3c4nc(c(-c5ccc(S(=O)(=O)[O-])cc5)c5ccc([nH]5)c(-c5ccc(S(=O)(=O)[O-])cc5)c5nc(c(-c6ccc(S(=O)(=O)[O-])cc6)c6ccc3[nH]6)C=C5)C=C4)cc2)c1
REMARK SMILES IDX 26 1 25 2 24 3 22 4 23 5 21 7 17 8 18 9 94 10 19 11 20 12
REMARK SMILES IDX 16 13 14 14 15 15 2 16 1 17 3 18 4 19 5 20 13 21 6 22 12 23
REMARK SMILES IDX 7 24 8 25 9 26 10 27 11 28 27 29 28 30 29 31 30 32 31 33
REMARK SMILES IDX 32 34 33 36 34 37 35 38 93 39 36 40 92 41 37 42 38 43 39 44
REMARK SMILES IDX 86 45 40 46 91 47 85 48 87 49 41 50 90 51 84 52 83 53 42 55
REMARK SMILES IDX 72 56 53 57 71 58 54 59 57 60 70 61 88 62 55 63 56 64 69 66
REMARK SMILES IDX 89 67 58 68 43 69 44 70 52 71 45 72 51 73 46 74 47 75 48 76
REMARK SMILES IDX 49 77 50 78 73 79 74 80 82 81 75 82 81 83 76 84 77 85 78 86
REMARK SMILES IDX 79 87 80 88 59 89 60 90 68 91 61 92 67 93 62 94 63 95 64 96
REMARK SMILES IDX 65 97 66 98
REMARK H PARENT 24 6 31 35 87 54 57 65
REMARK Flexibility Score: inf
ROOT
ATOM      1  C   UNL A   1      40.144  28.911  28.298  1.00  0.00     0.021 C 
ENDROOT
BRANCH   1   2
ATOM      2  C   UNL A   1      40.096  27.813  27.244  1.00  0.00     0.116 C 
BRANCH   2   3
ATOM      3  N   UNL A   1      40.860  28.103  26.036  1.00  0.00    -0.352 N 
ATOM      4  C   UNL A   1      42.090  27.634  25.619  1.00  0.00     0.251 C 
ATOM      5  O   UNL A   1      42.568  28.059  24.568  1.00  0.00    -0.269 OA
ATOM      6  H   UNL A   1      40.431  28.738  25.419  1.00  0.00     0.163 HD
BRANCH   4   7
ATOM      7  C   UNL A   1      42.880  26.674  26.441  1.00  0.00     0.043 A 
ATOM      8  C   UNL A   1      43.500  24.405  26.973  1.00  0.00     0.131 A 
ATOM      9  C   UNL A   1      44.030  24.825  28.195  1.00  0.00     0.047 A 
ATOM     10  C   UNL A   1      43.036  25.343  26.060  1.00  0.00     0.061 A 
ATOM     11  C   UNL A   1      44.043  26.187  28.510  1.00  0.00     0.005 A 
ATOM     12  C   UNL A   1      43.440  27.108  27.649  1.00  0.00     0.014 A 
BRANCH   8  13
ATOM     13  O   UNL A   1      43.349  23.004  26.790  1.00  0.00    -0.424 OA
BRANCH  13  14
ATOM     14  C   UNL A   1      42.774  22.384  25.662  1.00  0.00     0.352 C 
ATOM     15  O   UNL A   1      43.139  22.523  24.499  1.00  0.00    -0.247 OA
BRANCH  14  16
ATOM     16  C   UNL A   1      41.593  21.501  26.066  1.00  0.00     0.279 C 
ATOM     17  C   UNL A   1      42.132  20.225  26.706  1.00  0.00     0.066 C 
BRANCH  16  18
ATOM     18  O   UNL A   1      40.743  22.272  26.935  1.00  0.00    -0.479 OA
BRANCH  18  19
ATOM     19  C   UNL A   1      39.500  22.512  26.409  1.00  0.00     0.120 A 
ATOM     20  C   UNL A   1      38.862  23.723  26.662  1.00  0.00     0.047 A 
ATOM     21  C   UNL A   1      38.811  21.516  25.731  1.00  0.00     0.047 A 
ATOM     22  C   UNL A   1      37.562  23.951  26.173  1.00  0.00     0.008 A 
ATOM     23  C   UNL A   1      37.531  21.752  25.224  1.00  0.00     0.008 A 
ATOM     24  C   UNL A   1      36.874  22.976  25.423  1.00  0.00    -0.042 A 
BRANCH  24  25
ATOM     25  C   UNL A   1      35.448  23.224  24.892  1.00  0.00    -0.013 C 
ATOM     26  C   UNL A   1      35.037  24.676  25.208  1.00  0.00     0.016 C 
ATOM     27  C   UNL A   1      35.374  22.997  23.367  1.00  0.00     0.016 C 
ATOM     28  C   UNL A   1      34.386  22.294  25.530  1.00  0.00     0.016 C 
ENDBRANCH  24  25
ENDBRANCH  18  19
ENDBRANCH  16  18
ENDBRANCH  14  16
ENDBRANCH  13  14
ENDBRANCH   8  13
ENDBRANCH   4   7
ENDBRANCH   2   3
ENDBRANCH   1   2
BRANCH   1  29
ATOM     29  C   UNL A   1      40.303  28.451  29.745  1.00  0.00     0.002 C 
BRANCH  29  30
ATOM     30  C   UNL A   1      39.286  27.421  30.244  1.00  0.00     0.002 C 
BRANCH  30  31
ATOM     31  C   UNL A   1      38.068  27.975  30.989  1.00  0.00     0.021 C 
BRANCH  31  32
ATOM     32  C   UNL A   1      38.219  28.100  32.502  1.00  0.00     0.116 C 
BRANCH  32  33
ATOM     33  N   UNL A   1      37.479  29.228  33.046  1.00  0.00    -0.352 N 
ATOM     34  C   UNL A   1      37.847  30.547  33.155  1.00  0.00     0.251 C 
ATOM     35  H   UNL A   1      36.581  29.014  33.388  1.00  0.00     0.163 HD
ATOM     36  O   UNL A   1      37.151  31.322  33.802  1.00  0.00    -0.269 OA
BRANCH  34  37
ATOM     37  C   UNL A   1      39.088  31.029  32.508  1.00  0.00     0.039 A 
ATOM     38  C   UNL A   1      39.008  31.587  31.230  1.00  0.00     0.014 A 
ATOM     39  C   UNL A   1      40.326  30.918  33.148  1.00  0.00     0.014 A 
ATOM     40  C   UNL A   1      40.160  32.085  30.617  1.00  0.00     0.010 A 
ATOM     41  C   UNL A   1      41.459  31.483  32.568  1.00  0.00     0.010 A 
ATOM     42  C   UNL A   1      41.391  32.067  31.294  1.00  0.00    -0.014 A 
BRANCH  42  43
ATOM     43  C   UNL A   1      42.611  32.658  30.686  1.00  0.00     0.031 A 
ATOM     44  C   UNL A   1      43.553  31.801  29.884  1.00  0.00     0.074 A 
ATOM     45  C   UNL A   1      42.906  33.954  30.909  1.00  0.00     0.049 A 
ATOM     46  N   UNL A   1      44.689  32.128  29.320  1.00  0.00    -0.248 NA
ATOM     47  C   UNL A   1      43.185  30.386  29.718  1.00  0.00     0.031 C 
ATOM     48  C   UNL A   1      42.101  34.877  31.711  1.00  0.00     0.029 A 
ATOM     49  N   UNL A   1      43.968  34.716  30.492  1.00  0.00    -0.354 N 
ATOM     50  C   UNL A   1      45.176  30.959  28.745  1.00  0.00     0.074 A 
ATOM     51  C   UNL A   1      44.243  29.906  29.081  1.00  0.00     0.031 C 
ATOM     52  C   UNL A   1      42.688  36.083  31.714  1.00  0.00     0.029 A 
ATOM     53  C   UNL A   1      43.930  36.011  30.950  1.00  0.00     0.049 A 
ATOM     54  H   UNL A   1      44.689  34.368  29.919  1.00  0.00     0.167 HD
ATOM     55  C   UNL A   1      46.286  30.782  27.990  1.00  0.00     0.031 A 
ATOM     56  C   UNL A   1      44.801  37.027  30.789  1.00  0.00     0.031 A 
ATOM     57  C   UNL A   1      47.215  31.833  27.665  1.00  0.00     0.049 A 
ATOM     58  C   UNL A   1      46.034  36.810  29.957  1.00  0.00     0.074 A 
ATOM     59  C   UNL A   1      48.342  31.770  26.864  1.00  0.00     0.029 A 
ATOM     60  N   UNL A   1      47.130  33.138  28.133  1.00  0.00    -0.354 N 
ATOM     61  N   UNL A   1      46.439  35.716  29.357  1.00  0.00    -0.248 NA
ATOM     62  C   UNL A   1      46.918  37.968  29.764  1.00  0.00     0.031 C 
ATOM     63  C   UNL A   1      48.974  33.018  26.899  1.00  0.00     0.029 A 
ATOM     64  C   UNL A   1      48.202  33.880  27.664  1.00  0.00     0.049 A 
ATOM     65  H   UNL A   1      46.414  33.484  28.713  1.00  0.00     0.167 HD
ATOM     66  C   UNL A   1      47.615  36.058  28.698  1.00  0.00     0.074 A 
ATOM     67  C   UNL A   1      47.844  37.465  28.960  1.00  0.00     0.031 C 
ATOM     68  C   UNL A   1      48.428  35.277  27.943  1.00  0.00     0.031 A 
BRANCH  55  69
ATOM     69  C   UNL A   1      46.563  29.387  27.484  1.00  0.00    -0.014 A 
ATOM     70  C   UNL A   1      47.228  28.438  28.283  1.00  0.00     0.010 A 
ATOM     71  C   UNL A   1      46.151  29.019  26.190  1.00  0.00     0.010 A 
ATOM     72  C   UNL A   1      47.537  27.173  27.773  1.00  0.00     0.020 A 
ATOM     73  C   UNL A   1      46.426  27.742  25.690  1.00  0.00     0.020 A 
ATOM     74  C   UNL A   1      47.142  26.838  26.476  1.00  0.00     0.054 A 
BRANCH  74  75
ATOM     75  S   UNL A   1      47.572  25.197  25.833  1.00  0.00     0.124 S 
ATOM     76  O   UNL A   1      48.733  25.497  24.999  1.00  0.00    -0.237 OA
ATOM     77  O   UNL A   1      47.853  24.440  27.051  1.00  0.00    -0.237 OA
ATOM     78  O   UNL A   1      46.374  24.782  25.108  1.00  0.00    -0.744 OA
ENDBRANCH  74  75
ENDBRANCH  55  69
BRANCH  56  79
ATOM     79  C   UNL A   1      44.523  38.338  31.439  1.00  0.00    -0.014 A 
ATOM     80  C   UNL A   1      43.789  39.332  30.771  1.00  0.00     0.010 A 
ATOM     81  C   UNL A   1      44.950  38.573  32.759  1.00  0.00     0.010 A 
ATOM     82  C   UNL A   1      43.488  40.539  31.410  1.00  0.00     0.020 A 
ATOM     83  C   UNL A   1      44.624  39.766  33.412  1.00  0.00     0.020 A 
ATOM     84  C   UNL A   1      43.901  40.744  32.730  1.00  0.00     0.054 A 
BRANCH  84  85
ATOM     85  S   UNL A   1      43.426  42.283  33.566  1.00  0.00     0.124 S 
ATOM     86  O   UNL A   1      42.204  41.889  34.259  1.00  0.00    -0.237 OA
ATOM     87  O   UNL A   1      44.582  42.547  34.419  1.00  0.00    -0.237 OA
ATOM     88  O   UNL A   1      43.245  43.229  32.466  1.00  0.00    -0.744 OA
ENDBRANCH  84  85
ENDBRANCH  56  79
BRANCH  68  89
ATOM     89  C   UNL A   1      49.635  35.930  27.322  1.00  0.00    -0.014 A 
ATOM     90  C   UNL A   1      50.857  36.021  28.014  1.00  0.00     0.010 A 
ATOM     91  C   UNL A   1      49.562  36.408  26.000  1.00  0.00     0.010 A 
ATOM     92  C   UNL A   1      51.971  36.607  27.408  1.00  0.00     0.020 A 
ATOM     93  C   UNL A   1      50.682  36.966  25.379  1.00  0.00     0.020 A 
ATOM     94  C   UNL A   1      51.877  37.074  26.092  1.00  0.00     0.054 A 
BRANCH  94  95
ATOM     95  S   UNL A   1      53.351  37.789  25.313  1.00  0.00     0.124 S 
ATOM     96  O   UNL A   1      53.296  39.175  25.772  1.00  0.00    -0.237 OA
ATOM     97  O   UNL A   1      54.432  36.983  25.876  1.00  0.00    -0.237 OA
ATOM     98  O   UNL A   1      53.116  37.596  23.884  1.00  0.00    -0.744 OA
ENDBRANCH  94  95
ENDBRANCH  68  89
ENDBRANCH  42  43
ENDBRANCH  34  37
ENDBRANCH  32  33
ENDBRANCH  31  32
ENDBRANCH  30  31
ENDBRANCH  29  30
ENDBRANCH   1  29
TORSDOF 22
ENDMDL
MODEL 3
REMARK VINA RESULT:      -8.2      3.894     10.854
REMARK SMILES C[C@@H](Oc1ccc(C(C)(C)C)cc1)C(=O)Oc1cccc(C(=O)NCCCCCCNC(=O)c2ccc(-c3c4nc(c(-c5ccc(S(=O)(=O)[O-])cc5)c5ccc([nH]5)c(-c5ccc(S(=O)(=O)[O-])cc5)c5nc(c(-c6ccc(S(=O)(=O)[O-])cc6)c6ccc3[nH]6)C=C5)C=C4)cc2)c1
REMARK SMILES IDX 26 1 25 2 24 3 22 4 23 5 21 7 17 8 18 9 94 10 19 11 20 12
REMARK SMILES IDX 16 13 14 14 15 15 2 16 1 17 3 18 4 19 5 20 13 21 6 22 12 23
REMARK SMILES IDX 7 24 8 25 9 26 10 27 11 28 27 29 28 30 29 31 30 32 31 33
REMARK SMILES IDX 32 34 33 36 34 37 35 38 93 39 36 40 92 41 37 42 38 43 39 44
REMARK SMILES IDX 86 45 40 46 91 47 85 48 87 49 41 50 90 51 84 52 83 53 42 55
REMARK SMILES IDX 72 56 53 57 71 58 54 59 57 60 70 61 88 62 55 63 56 64 69 66
REMARK SMILES IDX 89 67 58 68 43 69 44 70 52 71 45 72 51 73 46 74 47 75 48 76
REMARK SMILES IDX 49 77 50 78 73 79 74 80 82 81 75 82 81 83 76 84 77 85 78 86
REMARK SMILES IDX 79 87 80 88 59 89 60 90 68 91 61 92 67 93 62 94 63 95 64 96
REMARK SMILES IDX 65 97 66 98
REMARK H PARENT 24 6 31 35 87 54 57 65
REMARK Flexibility Score: inf
ROOT
ATOM      1  C   UNL A   1      40.513  29.079  28.317  1.00  0.00     0.021 C 
ENDROOT
BRANCH   1   2
ATOM      2  C   UNL A   1      40.254  28.023  27.250  1.00  0.00     0.116 C 
BRANCH   2   3
ATOM      3  N   UNL A   1      41.002  28.220  26.013  1.00  0.00    -0.352 N 
ATOM      4  C   UNL A   1      42.190  27.661  25.585  1.00  0.00     0.251 C 
ATOM      5  O   UNL A   1      42.664  28.016  24.507  1.00  0.00    -0.269 OA
ATOM      6  H   UNL A   1      40.596  28.856  25.382  1.00  0.00     0.163 HD
BRANCH   4   7
ATOM      7  C   UNL A   1      42.943  26.687  26.425  1.00  0.00     0.043 A 
ATOM      8  C   UNL A   1      43.455  24.406  27.018  1.00  0.00     0.131 A 
ATOM      9  C   UNL A   1      44.024  24.834  28.219  1.00  0.00     0.047 A 
ATOM     10  C   UNL A   1      43.026  25.339  26.083  1.00  0.00     0.061 A 
ATOM     11  C   UNL A   1      44.111  26.203  28.493  1.00  0.00     0.005 A 
ATOM     12  C   UNL A   1      43.542  27.128  27.612  1.00  0.00     0.014 A 
BRANCH   8  13
ATOM     13  O   UNL A   1      43.231  23.010  26.879  1.00  0.00    -0.424 OA
BRANCH  13  14
ATOM     14  C   UNL A   1      42.779  22.366  25.709  1.00  0.00     0.352 C 
ATOM     15  O   UNL A   1      43.263  22.487  24.588  1.00  0.00    -0.247 OA
BRANCH  14  16
ATOM     16  C   UNL A   1      41.566  21.484  26.005  1.00  0.00     0.279 C 
ATOM     17  C   UNL A   1      42.055  20.154  26.572  1.00  0.00     0.066 C 
BRANCH  16  18
ATOM     18  O   UNL A   1      40.699  22.210  26.894  1.00  0.00    -0.479 OA
BRANCH  18  19
ATOM     19  C   UNL A   1      39.456  22.451  26.367  1.00  0.00     0.120 A 
ATOM     20  C   UNL A   1      38.863  23.699  26.532  1.00  0.00     0.047 A 
ATOM     21  C   UNL A   1      38.724  21.429  25.778  1.00  0.00     0.047 A 
ATOM     22  C   UNL A   1      37.564  23.932  26.044  1.00  0.00     0.008 A 
ATOM     23  C   UNL A   1      37.444  21.668  25.271  1.00  0.00     0.008 A 
ATOM     24  C   UNL A   1      36.832  22.926  25.382  1.00  0.00    -0.042 A 
BRANCH  24  25
ATOM     25  C   UNL A   1      35.406  23.180  24.851  1.00  0.00    -0.013 C 
ATOM     26  C   UNL A   1      34.523  21.958  25.172  1.00  0.00     0.016 C 
ATOM     27  C   UNL A   1      34.786  24.437  25.500  1.00  0.00     0.016 C 
ATOM     28  C   UNL A   1      35.353  23.401  23.320  1.00  0.00     0.016 C 
ENDBRANCH  24  25
ENDBRANCH  18  19
ENDBRANCH  16  18
ENDBRANCH  14  16
ENDBRANCH  13  14
ENDBRANCH   8  13
ENDBRANCH   4   7
ENDBRANCH   2   3
ENDBRANCH   1   2
BRANCH   1  29
ATOM     29  C   UNL A   1      40.077  28.725  29.737  1.00  0.00     0.002 C 
BRANCH  29  30
ATOM     30  C   UNL A   1      38.796  27.897  29.864  1.00  0.00     0.002 C 
BRANCH  30  31
ATOM     31  C   UNL A   1      37.857  28.270  31.015  1.00  0.00     0.021 C 
BRANCH  31  32
ATOM     32  C   UNL A   1      38.442  28.134  32.417  1.00  0.00     0.116 C 
BRANCH  32  33
ATOM     33  N   UNL A   1      37.843  29.059  33.365  1.00  0.00    -0.352 N 
ATOM     34  C   UNL A   1      38.292  30.283  33.799  1.00  0.00     0.251 C 
ATOM     35  H   UNL A   1      36.988  28.764  33.755  1.00  0.00     0.163 HD
ATOM     36  O   UNL A   1      37.731  30.840  34.737  1.00  0.00    -0.269 OA
BRANCH  34  37
ATOM     37  C   UNL A   1      39.460  30.919  33.150  1.00  0.00     0.039 A 
ATOM     38  C   UNL A   1      40.704  30.845  33.781  1.00  0.00     0.014 A 
ATOM     39  C   UNL A   1      39.330  31.599  31.936  1.00  0.00     0.014 A 
ATOM     40  C   UNL A   1      41.829  31.402  33.167  1.00  0.00     0.010 A 
ATOM     41  C   UNL A   1      40.463  32.087  31.289  1.00  0.00     0.010 A 
ATOM     42  C   UNL A   1      41.724  32.000  31.899  1.00  0.00    -0.014 A 
BRANCH  42  43
ATOM     43  C   UNL A   1      42.922  32.533  31.201  1.00  0.00     0.031 A 
ATOM     44  C   UNL A   1      43.265  33.996  31.288  1.00  0.00     0.074 A 
ATOM     45  C   UNL A   1      43.665  31.712  30.434  1.00  0.00     0.049 A 
ATOM     46  N   UNL A   1      44.240  34.651  30.708  1.00  0.00    -0.248 NA
ATOM     47  C   UNL A   1      42.383  34.837  32.111  1.00  0.00     0.031 C 
ATOM     48  C   UNL A   1      43.407  30.286  30.226  1.00  0.00     0.029 A 
ATOM     49  N   UNL A   1      44.783  31.961  29.677  1.00  0.00    -0.354 N 
ATOM     50  C   UNL A   1      44.080  35.979  31.086  1.00  0.00     0.074 A 
ATOM     51  C   UNL A   1      42.881  36.045  31.893  1.00  0.00     0.031 C 
ATOM     52  C   UNL A   1      44.348  29.784  29.412  1.00  0.00     0.029 A 
ATOM     53  C   UNL A   1      45.250  30.857  29.006  1.00  0.00     0.049 A 
ATOM     54  H   UNL A   1      45.208  32.848  29.619  1.00  0.00     0.167 HD
ATOM     55  C   UNL A   1      44.868  37.044  30.804  1.00  0.00     0.031 A 
ATOM     56  C   UNL A   1      46.281  30.720  28.148  1.00  0.00     0.031 A 
ATOM     57  C   UNL A   1      46.056  36.974  29.993  1.00  0.00     0.049 A 
ATOM     58  C   UNL A   1      47.139  31.914  27.837  1.00  0.00     0.074 A 
ATOM     59  C   UNL A   1      46.953  37.983  29.690  1.00  0.00     0.029 A 
ATOM     60  N   UNL A   1      46.508  35.830  29.347  1.00  0.00    -0.354 N 
ATOM     61  N   UNL A   1      47.016  33.149  28.265  1.00  0.00    -0.248 NA
ATOM     62  C   UNL A   1      48.285  31.695  26.944  1.00  0.00     0.031 C 
ATOM     63  C   UNL A   1      47.911  37.466  28.810  1.00  0.00     0.029 A 
ATOM     64  C   UNL A   1      47.653  36.118  28.621  1.00  0.00     0.049 A 
ATOM     65  H   UNL A   1      46.077  34.946  29.398  1.00  0.00     0.167 HD
ATOM     66  C   UNL A   1      48.082  33.850  27.709  1.00  0.00     0.074 A 
ATOM     67  C   UNL A   1      48.846  32.897  26.930  1.00  0.00     0.031 C 
ATOM     68  C   UNL A   1      48.397  35.163  27.837  1.00  0.00     0.031 A 
BRANCH  55  69
ATOM     69  C   UNL A   1      44.450  38.381  31.364  1.00  0.00    -0.014 A 
ATOM     70  C   UNL A   1      44.781  38.760  32.679  1.00  0.00     0.010 A 
ATOM     71  C   UNL A   1      43.714  39.275  30.563  1.00  0.00     0.010 A 
ATOM     72  C   UNL A   1      44.326  39.973  33.204  1.00  0.00     0.020 A 
ATOM     73  C   UNL A   1      43.289  40.506  31.074  1.00  0.00     0.020 A 
ATOM     74  C   UNL A   1      43.575  40.834  32.399  1.00  0.00     0.054 A 
BRANCH  74  75
ATOM     75  S   UNL A   1      42.981  42.393  33.113  1.00  0.00     0.124 S 
ATOM     76  O   UNL A   1      42.564  43.127  31.922  1.00  0.00    -0.237 OA
ATOM     77  O   UNL A   1      41.899  41.952  33.990  1.00  0.00    -0.237 OA
ATOM     78  O   UNL A   1      44.155  42.930  33.797  1.00  0.00    -0.744 OA
ENDBRANCH  74  75
ENDBRANCH  55  69
BRANCH  56  79
ATOM     79  C   UNL A   1      46.544  29.392  27.528  1.00  0.00    -0.014 A 
ATOM     80  C   UNL A   1      46.120  29.110  26.218  1.00  0.00     0.010 A 
ATOM     81  C   UNL A   1      47.273  28.418  28.235  1.00  0.00     0.010 A 
ATOM     82  C   UNL A   1      46.419  27.879  25.627  1.00  0.00     0.020 A 
ATOM     83  C   UNL A   1      47.600  27.198  27.636  1.00  0.00     0.020 A 
ATOM     84  C   UNL A   1      47.165  26.934  26.338  1.00  0.00     0.054 A 
BRANCH  84  85
ATOM     85  S   UNL A   1      47.613  25.377  25.519  1.00  0.00     0.124 S 
ATOM     86  O   UNL A   1      47.763  24.470  26.652  1.00  0.00    -0.237 OA
ATOM     87  O   UNL A   1      46.458  25.131  24.659  1.00  0.00    -0.237 OA
ATOM     88  O   UNL A   1      48.849  25.706  24.811  1.00  0.00    -0.744 OA
ENDBRANCH  84  85
ENDBRANCH  56  79
BRANCH  68  89
ATOM     89  C   UNL A   1      49.639  35.649  27.135  1.00  0.00    -0.014 A 
ATOM     90  C   UNL A   1      50.887  35.668  27.783  1.00  0.00     0.010 A 
ATOM     91  C   UNL A   1      49.565  36.036  25.784  1.00  0.00     0.010 A 
ATOM     92  C   UNL A   1      52.031  36.097  27.104  1.00  0.00     0.020 A 
ATOM     93  C   UNL A   1      50.711  36.436  25.092  1.00  0.00     0.020 A 
ATOM     94  C   UNL A   1      51.935  36.476  25.760  1.00  0.00     0.054 A 
BRANCH  94  95
ATOM     95  S   UNL A   1      53.442  36.985  24.890  1.00  0.00     0.124 S 
ATOM     96  O   UNL A   1      54.321  35.838  25.104  1.00  0.00    -0.237 OA
ATOM     97  O   UNL A   1      52.973  37.169  23.519  1.00  0.00    -0.237 OA
ATOM     98  O   UNL A   1      53.841  38.212  25.576  1.00  0.00    -0.744 OA
ENDBRANCH  94  95
ENDBRANCH  68  89
ENDBRANCH  42  43
ENDBRANCH  34  37
ENDBRANCH  32  33
ENDBRANCH  31  32
ENDBRANCH  30  31
ENDBRANCH  29  30
ENDBRANCH   1  29
TORSDOF 22
ENDMDL
