MODEL 1
REMARK VINA RESULT:      -8.0      0.000      0.000
REMARK SMILES COc1cc(NS(=O)(=O)c2cc(C(=O)NCCCCCCNC(=O)c3ccc(-c4c5nc(c(-c6ccc(S(=O)(=O)[O-])cc6)c6ccc([nH]6)c(-c6ccc(S(=O)(=O)[O-])cc6)c6nc(c(-c7ccc(S(=O)(=O)[O-])cc7)c7ccc4[nH]7)C=C6)C=C5)cc3)cc(C)c2C)ccc1N1CCCC1=O
REMARK SMILES IDX 18 1 17 2 16 3 15 4 13 5 14 6 12 8 10 9 11 10 88 11 86 12
REMARK SMILES IDX 89 13 85 14 87 15 7 16 8 17 9 18 6 19 5 21 3 22 4 23 92 24
REMARK SMILES IDX 91 25 90 26 2 27 1 28 93 29 94 30 97 31 95 32 96 33 98 34
REMARK SMILES IDX 19 35 20 36 21 37 22 38 23 39 24 41 25 42 26 43 84 44 27 45
REMARK SMILES IDX 83 46 28 47 29 48 30 49 77 50 31 51 82 52 76 53 78 54 32 55
REMARK SMILES IDX 81 56 75 57 74 58 33 60 63 61 44 62 62 63 45 64 48 65 61 66
REMARK SMILES IDX 79 67 46 68 47 69 60 71 80 72 49 73 34 74 35 75 43 76 36 77
REMARK SMILES IDX 42 78 37 79 38 80 39 81 40 82 41 83 64 84 65 85 73 86 66 87
REMARK SMILES IDX 72 88 67 89 68 90 69 91 70 92 71 93 50 94 51 95 59 96 52 97
REMARK SMILES IDX 58 98 53 99 54 100 55 101 56 102 57 103
REMARK H PARENT 15 7 6 20 22 40 78 59 48 70
REMARK Flexibility Score: inf
ROOT
ATOM      1  C   UNL A   1      48.154  43.064  29.183  1.00  0.00     0.002 C 
ENDROOT
BRANCH   1   2
ATOM      2  C   UNL A   1      48.449  41.988  28.141  1.00  0.00     0.021 C 
BRANCH   2   3
ATOM      3  C   UNL A   1      47.283  41.126  27.660  1.00  0.00     0.116 C 
BRANCH   3   4
ATOM      4  N   UNL A   1      47.497  40.485  26.374  1.00  0.00    -0.352 N 
ATOM      5  C   UNL A   1      46.768  39.521  25.709  1.00  0.00     0.251 C 
ATOM      6  O   UNL A   1      47.169  39.138  24.611  1.00  0.00    -0.269 OA
ATOM      7  H   UNL A   1      48.302  40.791  25.895  1.00  0.00     0.163 HD
BRANCH   5   8
ATOM      8  C   UNL A   1      45.573  38.862  26.311  1.00  0.00     0.041 A 
ATOM      9  C   UNL A   1      43.181  39.035  26.809  1.00  0.00     0.091 A 
ATOM     10  C   UNL A   1      44.424  39.637  26.495  1.00  0.00     0.036 A 
ATOM     11  C   UNL A   1      43.093  37.636  27.022  1.00  0.00    -0.028 A 
ATOM     12  C   UNL A   1      44.287  36.874  26.898  1.00  0.00    -0.046 A 
ATOM     13  C   UNL A   1      41.799  36.890  27.231  1.00  0.00     0.046 C 
ATOM     14  C   UNL A   1      45.512  37.505  26.601  1.00  0.00     0.017 A 
ATOM     15  C   UNL A   1      44.310  35.361  26.884  1.00  0.00     0.044 C 
BRANCH   9  16
ATOM     16  S   UNL A   1      41.771  40.136  26.731  1.00  0.00     0.262 S 
ATOM     17  O   UNL A   1      41.300  40.351  28.084  1.00  0.00    -0.201 OA
ATOM     18  O   UNL A   1      40.825  39.644  25.749  1.00  0.00    -0.201 OA
BRANCH  16  19
ATOM     19  N   UNL A   1      42.273  41.674  26.178  1.00  0.00    -0.279 N 
ATOM     20  H   UNL A   1      42.366  42.390  26.847  1.00  0.00     0.180 HD
BRANCH  19  21
ATOM     21  C   UNL A   1      42.571  41.996  24.807  1.00  0.00     0.053 A 
ATOM     22  C   UNL A   1      44.110  42.478  22.989  1.00  0.00     0.144 A 
ATOM     23  C   UNL A   1      43.861  42.180  24.328  1.00  0.00     0.075 A 
ATOM     24  C   UNL A   1      43.056  42.827  22.145  1.00  0.00     0.086 A 
ATOM     25  C   UNL A   1      41.759  42.837  22.664  1.00  0.00     0.032 A 
ATOM     26  C   UNL A   1      41.517  42.391  23.975  1.00  0.00     0.029 A 
BRANCH  22  27
ATOM     27  O   UNL A   1      45.400  42.302  22.571  1.00  0.00    -0.494 OA
ATOM     28  C   UNL A   1      46.363  42.565  23.577  1.00  0.00     0.278 C 
ENDBRANCH  22  27
BRANCH  24  29
ATOM     29  N   UNL A   1      43.272  43.231  20.815  1.00  0.00    -0.309 N 
ATOM     30  C   UNL A   1      42.383  42.789  19.770  1.00  0.00     0.126 C 
ATOM     31  C   UNL A   1      43.965  44.392  20.468  1.00  0.00     0.227 C 
ATOM     32  C   UNL A   1      42.881  43.511  18.535  1.00  0.00     0.032 C 
ATOM     33  C   UNL A   1      43.546  44.771  19.071  1.00  0.00     0.102 C 
ATOM     34  O   UNL A   1      44.743  45.035  21.155  1.00  0.00    -0.275 OA
ENDBRANCH  24  29
ENDBRANCH  19  21
ENDBRANCH  16  19
ENDBRANCH   9  16
ENDBRANCH   5   8
ENDBRANCH   3   4
ENDBRANCH   2   3
ENDBRANCH   1   2
BRANCH   1  35
ATOM     35  C   UNL A   1      46.705  43.538  29.285  1.00  0.00     0.002 C 
BRANCH  35  36
ATOM     36  C   UNL A   1      45.986  43.287  30.614  1.00  0.00     0.021 C 
BRANCH  36  37
ATOM     37  C   UNL A   1      44.498  43.625  30.664  1.00  0.00     0.116 C 
BRANCH  37  38
ATOM     38  N   UNL A   1      43.925  43.487  31.990  1.00  0.00    -0.352 N 
ATOM     39  C   UNL A   1      43.615  42.361  32.713  1.00  0.00     0.251 C 
ATOM     40  H   UNL A   1      43.726  44.338  32.445  1.00  0.00     0.163 HD
ATOM     41  O   UNL A   1      43.014  42.482  33.778  1.00  0.00    -0.269 OA
BRANCH  39  42
ATOM     42  C   UNL A   1      43.970  41.009  32.220  1.00  0.00     0.039 A 
ATOM     43  C   UNL A   1      43.431  40.583  31.002  1.00  0.00     0.014 A 
ATOM     44  C   UNL A   1      44.782  40.140  32.955  1.00  0.00     0.014 A 
ATOM     45  C   UNL A   1      43.747  39.318  30.498  1.00  0.00     0.010 A 
ATOM     46  C   UNL A   1      45.151  38.903  32.421  1.00  0.00     0.010 A 
ATOM     47  C   UNL A   1      44.634  38.476  31.188  1.00  0.00    -0.014 A 
BRANCH  47  48
ATOM     48  C   UNL A   1      45.028  37.157  30.621  1.00  0.00     0.031 A 
ATOM     49  C   UNL A   1      44.157  35.944  30.815  1.00  0.00     0.074 A 
ATOM     50  C   UNL A   1      46.196  37.043  29.957  1.00  0.00     0.049 A 
ATOM     51  N   UNL A   1      44.345  34.718  30.394  1.00  0.00    -0.248 NA
ATOM     52  C   UNL A   1      42.927  36.124  31.602  1.00  0.00     0.031 C 
ATOM     53  C   UNL A   1      47.155  38.129  29.738  1.00  0.00     0.029 A 
ATOM     54  N   UNL A   1      46.777  35.961  29.344  1.00  0.00    -0.354 N 
ATOM     55  C   UNL A   1      43.268  33.981  30.872  1.00  0.00     0.074 A 
ATOM     56  C   UNL A   1      42.454  34.885  31.655  1.00  0.00     0.031 C 
ATOM     57  C   UNL A   1      48.188  37.665  29.015  1.00  0.00     0.029 A 
ATOM     58  C   UNL A   1      47.985  36.245  28.750  1.00  0.00     0.049 A 
ATOM     59  H   UNL A   1      46.369  35.065  29.330  1.00  0.00     0.167 HD
ATOM     60  C   UNL A   1      42.972  32.674  30.665  1.00  0.00     0.031 A 
ATOM     61  C   UNL A   1      48.836  35.455  28.067  1.00  0.00     0.031 A 
ATOM     62  C   UNL A   1      43.775  31.776  29.877  1.00  0.00     0.049 A 
ATOM     63  C   UNL A   1      48.483  34.010  27.845  1.00  0.00     0.074 A 
ATOM     64  C   UNL A   1      43.526  30.451  29.561  1.00  0.00     0.029 A 
ATOM     65  N   UNL A   1      44.985  32.107  29.284  1.00  0.00    -0.354 N 
ATOM     66  N   UNL A   1      47.421  33.351  28.245  1.00  0.00    -0.248 NA
ATOM     67  C   UNL A   1      49.433  33.207  27.064  1.00  0.00     0.031 C 
ATOM     68  C   UNL A   1      44.608  29.966  28.819  1.00  0.00     0.029 A 
ATOM     69  C   UNL A   1      45.504  31.006  28.624  1.00  0.00     0.049 A 
ATOM     70  H   UNL A   1      45.411  32.993  29.326  1.00  0.00     0.167 HD
ATOM     71  C   UNL A   1      47.565  32.062  27.743  1.00  0.00     0.074 A 
ATOM     72  C   UNL A   1      48.806  32.040  26.995  1.00  0.00     0.031 C 
ATOM     73  C   UNL A   1      46.744  30.994  27.889  1.00  0.00     0.031 A 
BRANCH  60  74
ATOM     74  C   UNL A   1      41.721  32.132  31.308  1.00  0.00    -0.014 A 
ATOM     75  C   UNL A   1      40.509  32.063  30.598  1.00  0.00     0.010 A 
ATOM     76  C   UNL A   1      41.769  31.637  32.625  1.00  0.00     0.010 A 
ATOM     77  C   UNL A   1      39.359  31.549  31.204  1.00  0.00     0.020 A 
ATOM     78  C   UNL A   1      40.629  31.097  33.226  1.00  0.00     0.020 A 
ATOM     79  C   UNL A   1      39.426  31.072  32.518  1.00  0.00     0.054 A 
BRANCH  79  80
ATOM     80  S   UNL A   1      37.923  30.393  33.273  1.00  0.00     0.124 S 
ATOM     81  O   UNL A   1      37.199  31.606  33.645  1.00  0.00    -0.237 OA
ATOM     82  O   UNL A   1      37.335  29.621  32.182  1.00  0.00    -0.237 OA
ATOM     83  O   UNL A   1      38.426  29.600  34.393  1.00  0.00    -0.744 OA
ENDBRANCH  79  80
ENDBRANCH  60  74
BRANCH  61  84
ATOM     84  C   UNL A   1      50.104  36.021  27.526  1.00  0.00    -0.014 A 
ATOM     85  C   UNL A   1      50.129  36.647  26.268  1.00  0.00     0.010 A 
ATOM     86  C   UNL A   1      51.292  35.943  28.276  1.00  0.00     0.010 A 
ATOM     87  C   UNL A   1      51.322  37.168  25.760  1.00  0.00     0.020 A 
ATOM     88  C   UNL A   1      52.481  36.487  27.784  1.00  0.00     0.020 A 
ATOM     89  C   UNL A   1      52.491  37.086  26.522  1.00  0.00     0.054 A 
BRANCH  89  90
ATOM     90  S   UNL A   1      54.019  37.813  25.866  1.00  0.00     0.124 S 
ATOM     91  O   UNL A   1      53.546  39.093  25.348  1.00  0.00    -0.237 OA
ATOM     92  O   UNL A   1      54.870  37.884  27.051  1.00  0.00    -0.237 OA
ATOM     93  O   UNL A   1      54.449  36.849  24.856  1.00  0.00    -0.744 OA
ENDBRANCH  89  90
ENDBRANCH  61  84
BRANCH  73  94
ATOM     94  C   UNL A   1      47.145  29.716  27.200  1.00  0.00    -0.014 A 
ATOM     95  C   UNL A   1      48.017  28.798  27.814  1.00  0.00     0.010 A 
ATOM     96  C   UNL A   1      46.615  29.413  25.933  1.00  0.00     0.010 A 
ATOM     97  C   UNL A   1      48.384  27.621  27.154  1.00  0.00     0.020 A 
ATOM     98  C   UNL A   1      46.956  28.225  25.282  1.00  0.00     0.020 A 
ATOM     99  C   UNL A   1      47.853  27.344  25.890  1.00  0.00     0.054 A 
BRANCH  99 100
ATOM    100  S   UNL A   1      48.323  25.799  25.064  1.00  0.00     0.124 S 
ATOM    101  O   UNL A   1      47.589  24.805  25.841  1.00  0.00    -0.237 OA
ATOM    102  O   UNL A   1      47.848  26.007  23.699  1.00  0.00    -0.237 OA
ATOM    103  O   UNL A   1      49.776  25.756  25.211  1.00  0.00    -0.744 OA
ENDBRANCH  99 100
ENDBRANCH  73  94
ENDBRANCH  47  48
ENDBRANCH  39  42
ENDBRANCH  37  38
ENDBRANCH  36  37
ENDBRANCH  35  36
ENDBRANCH   1  35
TORSDOF 21
ENDMDL
MODEL 2
REMARK VINA RESULT:      -7.9      6.604     14.189
REMARK SMILES COc1cc(NS(=O)(=O)c2cc(C(=O)NCCCCCCNC(=O)c3ccc(-c4c5nc(c(-c6ccc(S(=O)(=O)[O-])cc6)c6ccc([nH]6)c(-c6ccc(S(=O)(=O)[O-])cc6)c6nc(c(-c7ccc(S(=O)(=O)[O-])cc7)c7ccc4[nH]7)C=C6)C=C5)cc3)cc(C)c2C)ccc1N1CCCC1=O
REMARK SMILES IDX 18 1 17 2 16 3 15 4 13 5 14 6 12 8 10 9 11 10 88 11 86 12
REMARK SMILES IDX 89 13 85 14 87 15 7 16 8 17 9 18 6 19 5 21 3 22 4 23 92 24
REMARK SMILES IDX 91 25 90 26 2 27 1 28 93 29 94 30 97 31 95 32 96 33 98 34
REMARK SMILES IDX 19 35 20 36 21 37 22 38 23 39 24 41 25 42 26 43 84 44 27 45
REMARK SMILES IDX 83 46 28 47 29 48 30 49 77 50 31 51 82 52 76 53 78 54 32 55
REMARK SMILES IDX 81 56 75 57 74 58 33 60 63 61 44 62 62 63 45 64 48 65 61 66
REMARK SMILES IDX 79 67 46 68 47 69 60 71 80 72 49 73 34 74 35 75 43 76 36 77
REMARK SMILES IDX 42 78 37 79 38 80 39 81 40 82 41 83 64 84 65 85 73 86 66 87
REMARK SMILES IDX 72 88 67 89 68 90 69 91 70 92 71 93 50 94 51 95 59 96 52 97
REMARK SMILES IDX 58 98 53 99 54 100 55 101 56 102 57 103
REMARK H PARENT 15 7 6 20 22 40 78 59 48 70
REMARK Flexibility Score: inf
ROOT
ATOM      1  C   UNL A   1      37.888  33.897  30.857  1.00  0.00     0.002 C 
ENDROOT
BRANCH   1   2
ATOM      2  C   UNL A   1      36.604  33.695  31.657  1.00  0.00     0.021 C 
BRANCH   2   3
ATOM      3  C   UNL A   1      36.707  32.956  32.991  1.00  0.00     0.116 C 
BRANCH   3   4
ATOM      4  N   UNL A   1      37.933  32.197  33.166  1.00  0.00    -0.352 N 
ATOM      5  C   UNL A   1      38.750  32.039  34.266  1.00  0.00     0.251 C 
ATOM      6  O   UNL A   1      39.750  31.331  34.154  1.00  0.00    -0.269 OA
ATOM      7  H   UNL A   1      38.232  31.714  32.362  1.00  0.00     0.163 HD
BRANCH   5   8
ATOM      8  C   UNL A   1      38.521  32.766  35.547  1.00  0.00     0.041 A 
ATOM      9  C   UNL A   1      37.750  32.620  37.867  1.00  0.00     0.091 A 
ATOM     10  C   UNL A   1      37.788  32.117  36.545  1.00  0.00     0.036 A 
ATOM     11  C   UNL A   1      38.392  33.843  38.190  1.00  0.00    -0.028 A 
ATOM     12  C   UNL A   1      39.075  34.524  37.147  1.00  0.00    -0.046 A 
ATOM     13  C   UNL A   1      38.517  34.390  39.589  1.00  0.00     0.046 C 
ATOM     14  C   UNL A   1      39.081  34.005  35.835  1.00  0.00     0.017 A 
ATOM     15  C   UNL A   1      39.979  35.715  37.382  1.00  0.00     0.044 C 
BRANCH   9  16
ATOM     16  S   UNL A   1      37.005  31.522  39.069  1.00  0.00     0.262 S 
ATOM     17  O   UNL A   1      36.961  30.194  38.491  1.00  0.00    -0.201 OA
ATOM     18  O   UNL A   1      35.765  32.097  39.551  1.00  0.00    -0.201 OA
BRANCH  16  19
ATOM     19  N   UNL A   1      38.027  31.386  40.433  1.00  0.00    -0.279 N 
ATOM     20  H   UNL A   1      38.993  31.518  40.294  1.00  0.00     0.180 HD
BRANCH  19  21
ATOM     21  C   UNL A   1      37.578  31.095  41.770  1.00  0.00     0.053 A 
ATOM     22  C   UNL A   1      36.362  31.635  43.803  1.00  0.00     0.144 A 
ATOM     23  C   UNL A   1      36.789  31.959  42.516  1.00  0.00     0.075 A 
ATOM     24  C   UNL A   1      36.909  30.535  44.463  1.00  0.00     0.086 A 
ATOM     25  C   UNL A   1      37.859  29.759  43.794  1.00  0.00     0.032 A 
ATOM     26  C   UNL A   1      38.163  30.018  42.446  1.00  0.00     0.029 A 
BRANCH  22  27
ATOM     27  O   UNL A   1      35.334  32.391  44.296  1.00  0.00    -0.494 OA
ATOM     28  C   UNL A   1      35.759  33.596  44.908  1.00  0.00     0.278 C 
ENDBRANCH  22  27
BRANCH  24  29
ATOM     29  N   UNL A   1      36.582  30.231  45.796  1.00  0.00    -0.309 N 
ATOM     30  C   UNL A   1      35.821  29.046  46.103  1.00  0.00     0.126 C 
ATOM     31  C   UNL A   1      37.316  30.689  46.891  1.00  0.00     0.227 C 
ATOM     32  C   UNL A   1      35.773  29.022  47.617  1.00  0.00     0.032 C 
ATOM     33  C   UNL A   1      37.025  29.770  48.050  1.00  0.00     0.102 C 
ATOM     34  O   UNL A   1      38.093  31.630  46.932  1.00  0.00    -0.275 OA
ENDBRANCH  24  29
ENDBRANCH  19  21
ENDBRANCH  16  19
ENDBRANCH   9  16
ENDBRANCH   5   8
ENDBRANCH   3   4
ENDBRANCH   2   3
ENDBRANCH   1   2
BRANCH   1  35
ATOM     35  C   UNL A   1      37.821  33.578  29.364  1.00  0.00     0.002 C 
BRANCH  35  36
ATOM     36  C   UNL A   1      36.457  33.160  28.805  1.00  0.00     0.021 C 
BRANCH  36  37
ATOM     37  C   UNL A   1      36.229  31.664  28.602  1.00  0.00     0.116 C 
BRANCH  37  38
ATOM     38  N   UNL A   1      35.948  30.956  29.837  1.00  0.00    -0.352 N 
ATOM     39  C   UNL A   1      36.682  30.008  30.507  1.00  0.00     0.251 C 
ATOM     40  H   UNL A   1      35.093  31.193  30.264  1.00  0.00     0.163 HD
ATOM     41  O   UNL A   1      36.186  29.447  31.481  1.00  0.00    -0.269 OA
BRANCH  39  42
ATOM     42  C   UNL A   1      38.047  29.636  30.062  1.00  0.00     0.039 A 
ATOM     43  C   UNL A   1      38.298  29.552  28.688  1.00  0.00     0.014 A 
ATOM     44  C   UNL A   1      39.065  29.326  30.968  1.00  0.00     0.014 A 
ATOM     45  C   UNL A   1      39.573  29.213  28.227  1.00  0.00     0.010 A 
ATOM     46  C   UNL A   1      40.355  29.051  30.507  1.00  0.00     0.010 A 
ATOM     47  C   UNL A   1      40.623  28.987  29.131  1.00  0.00    -0.014 A 
BRANCH  47  48
ATOM     48  C   UNL A   1      41.998  28.694  28.644  1.00  0.00     0.031 A 
ATOM     49  C   UNL A   1      42.375  27.309  28.188  1.00  0.00     0.074 A 
ATOM     50  C   UNL A   1      42.925  29.674  28.645  1.00  0.00     0.049 A 
ATOM     51  N   UNL A   1      43.525  26.875  27.736  1.00  0.00    -0.248 NA
ATOM     52  C   UNL A   1      41.335  26.272  28.271  1.00  0.00     0.031 C 
ATOM     53  C   UNL A   1      42.704  31.048  29.102  1.00  0.00     0.029 A 
ATOM     54  N   UNL A   1      44.239  29.667  28.246  1.00  0.00    -0.354 N 
ATOM     55  C   UNL A   1      43.351  25.518  27.492  1.00  0.00     0.074 A 
ATOM     56  C   UNL A   1      41.999  25.189  27.891  1.00  0.00     0.031 C 
ATOM     57  C   UNL A   1      43.833  31.756  28.932  1.00  0.00     0.029 A 
ATOM     58  C   UNL A   1      44.866  30.883  28.387  1.00  0.00     0.049 A 
ATOM     59  H   UNL A   1      44.690  28.866  27.894  1.00  0.00     0.167 HD
ATOM     60  C   UNL A   1      44.228  24.627  26.968  1.00  0.00     0.031 A 
ATOM     61  C   UNL A   1      46.131  31.257  28.109  1.00  0.00     0.031 A 
ATOM     62  C   UNL A   1      45.570  24.955  26.560  1.00  0.00     0.049 A 
ATOM     63  C   UNL A   1      47.084  30.253  27.522  1.00  0.00     0.074 A 
ATOM     64  C   UNL A   1      46.513  24.136  25.963  1.00  0.00     0.029 A 
ATOM     65  N   UNL A   1      46.162  26.201  26.709  1.00  0.00    -0.354 N 
ATOM     66  N   UNL A   1      46.874  28.990  27.232  1.00  0.00    -0.248 NA
ATOM     67  C   UNL A   1      48.438  30.728  27.209  1.00  0.00     0.031 C 
ATOM     68  C   UNL A   1      47.691  24.871  25.798  1.00  0.00     0.029 A 
ATOM     69  C   UNL A   1      47.464  26.165  26.238  1.00  0.00     0.049 A 
ATOM     70  H   UNL A   1      45.722  26.993  27.094  1.00  0.00     0.167 HD
ATOM     71  C   UNL A   1      48.064  28.528  26.679  1.00  0.00     0.074 A 
ATOM     72  C   UNL A   1      48.980  29.650  26.658  1.00  0.00     0.031 C 
ATOM     73  C   UNL A   1      48.369  27.286  26.229  1.00  0.00     0.031 A 
BRANCH  60  74
ATOM     74  C   UNL A   1      43.765  23.202  26.807  1.00  0.00    -0.014 A 
ATOM     75  C   UNL A   1      42.895  22.610  27.741  1.00  0.00     0.010 A 
ATOM     76  C   UNL A   1      44.165  22.459  25.681  1.00  0.00     0.010 A 
ATOM     77  C   UNL A   1      42.467  21.290  27.575  1.00  0.00     0.020 A 
ATOM     78  C   UNL A   1      43.717  21.148  25.495  1.00  0.00     0.020 A 
ATOM     79  C   UNL A   1      42.885  20.565  26.453  1.00  0.00     0.054 A 
BRANCH  79  80
ATOM     80  S   UNL A   1      42.299  18.860  26.253  1.00  0.00     0.124 S 
ATOM     81  O   UNL A   1      42.555  18.297  27.576  1.00  0.00    -0.237 OA
ATOM     82  O   UNL A   1      40.891  19.042  25.910  1.00  0.00    -0.237 OA
ATOM     83  O   UNL A   1      43.135  18.330  25.178  1.00  0.00    -0.744 OA
ENDBRANCH  79  80
ENDBRANCH  60  74
BRANCH  61  84
ATOM     84  C   UNL A   1      46.564  32.658  28.369  1.00  0.00    -0.014 A 
ATOM     85  C   UNL A   1      47.132  33.016  29.604  1.00  0.00     0.010 A 
ATOM     86  C   UNL A   1      46.419  33.641  27.372  1.00  0.00     0.010 A 
ATOM     87  C   UNL A   1      47.528  34.333  29.847  1.00  0.00     0.020 A 
ATOM     88  C   UNL A   1      46.840  34.953  27.602  1.00  0.00     0.020 A 
ATOM     89  C   UNL A   1      47.381  35.295  28.843  1.00  0.00     0.054 A 
BRANCH  89  90
ATOM     90  S   UNL A   1      47.948  36.989  29.161  1.00  0.00     0.124 S 
ATOM     91  O   UNL A   1      49.292  36.970  28.592  1.00  0.00    -0.237 OA
ATOM     92  O   UNL A   1      46.966  37.792  28.439  1.00  0.00    -0.237 OA
ATOM     93  O   UNL A   1      47.885  37.101  30.616  1.00  0.00    -0.744 OA
ENDBRANCH  89  90
ENDBRANCH  61  84
BRANCH  73  94
ATOM     94  C   UNL A   1      49.743  27.081  25.648  1.00  0.00    -0.014 A 
ATOM     95  C   UNL A   1      50.768  26.469  26.392  1.00  0.00     0.010 A 
ATOM     96  C   UNL A   1      50.003  27.478  24.323  1.00  0.00     0.010 A 
ATOM     97  C   UNL A   1      52.038  26.295  25.836  1.00  0.00     0.020 A 
ATOM     98  C   UNL A   1      51.263  27.281  23.754  1.00  0.00     0.020 A 
ATOM     99  C   UNL A   1      52.279  26.706  24.521  1.00  0.00     0.054 A 
BRANCH  99 100
ATOM    100  S   UNL A   1      53.929  26.448  23.813  1.00  0.00     0.124 S 
ATOM    101  O   UNL A   1      53.620  26.203  22.407  1.00  0.00    -0.237 OA
ATOM    102  O   UNL A   1      54.602  27.713  24.097  1.00  0.00    -0.237 OA
ATOM    103  O   UNL A   1      54.445  25.296  24.548  1.00  0.00    -0.744 OA
ENDBRANCH  99 100
ENDBRANCH  73  94
ENDBRANCH  47  48
ENDBRANCH  39  42
ENDBRANCH  37  38
ENDBRANCH  36  37
ENDBRANCH  35  36
ENDBRANCH   1  35
TORSDOF 21
ENDMDL
MODEL 3
REMARK VINA RESULT:      -7.7      3.635     10.246
REMARK SMILES COc1cc(NS(=O)(=O)c2cc(C(=O)NCCCCCCNC(=O)c3ccc(-c4c5nc(c(-c6ccc(S(=O)(=O)[O-])cc6)c6ccc([nH]6)c(-c6ccc(S(=O)(=O)[O-])cc6)c6nc(c(-c7ccc(S(=O)(=O)[O-])cc7)c7ccc4[nH]7)C=C6)C=C5)cc3)cc(C)c2C)ccc1N1CCCC1=O
REMARK SMILES IDX 18 1 17 2 16 3 15 4 13 5 14 6 12 8 10 9 11 10 88 11 86 12
REMARK SMILES IDX 89 13 85 14 87 15 7 16 8 17 9 18 6 19 5 21 3 22 4 23 92 24
REMARK SMILES IDX 91 25 90 26 2 27 1 28 93 29 94 30 97 31 95 32 96 33 98 34
REMARK SMILES IDX 19 35 20 36 21 37 22 38 23 39 24 41 25 42 26 43 84 44 27 45
REMARK SMILES IDX 83 46 28 47 29 48 30 49 77 50 31 51 82 52 76 53 78 54 32 55
REMARK SMILES IDX 81 56 75 57 74 58 33 60 63 61 44 62 62 63 45 64 48 65 61 66
REMARK SMILES IDX 79 67 46 68 47 69 60 71 80 72 49 73 34 74 35 75 43 76 36 77
REMARK SMILES IDX 42 78 37 79 38 80 39 81 40 82 41 83 64 84 65 85 73 86 66 87
REMARK SMILES IDX 72 88 67 89 68 90 69 91 70 92 71 93 50 94 51 95 59 96 52 97
REMARK SMILES IDX 58 98 53 99 54 100 55 101 56 102 57 103
REMARK H PARENT 15 7 6 20 22 40 78 59 48 70
REMARK Flexibility Score: inf
ROOT
ATOM      1  C   UNL A   1      42.772  41.467  25.446  1.00  0.00     0.002 C 
ENDROOT
BRANCH   1   2
ATOM      2  C   UNL A   1      42.002  41.766  24.162  1.00  0.00     0.021 C 
BRANCH   2   3
ATOM      3  C   UNL A   1      42.679  42.653  23.118  1.00  0.00     0.116 C 
BRANCH   3   4
ATOM      4  N   UNL A   1      42.013  42.680  21.827  1.00  0.00    -0.352 N 
ATOM      5  C   UNL A   1      42.469  43.055  20.580  1.00  0.00     0.251 C 
ATOM      6  O   UNL A   1      41.692  42.986  19.629  1.00  0.00    -0.269 OA
ATOM      7  H   UNL A   1      41.075  42.382  21.846  1.00  0.00     0.163 HD
BRANCH   5   8
ATOM      8  C   UNL A   1      43.829  43.627  20.362  1.00  0.00     0.041 A 
ATOM      9  C   UNL A   1      46.237  43.362  20.722  1.00  0.00     0.091 A 
ATOM     10  C   UNL A   1      44.896  43.059  21.063  1.00  0.00     0.036 A 
ATOM     11  C   UNL A   1      46.524  44.312  19.709  1.00  0.00    -0.028 A 
ATOM     12  C   UNL A   1      45.424  44.930  19.053  1.00  0.00    -0.046 A 
ATOM     13  C   UNL A   1      47.909  44.602  19.187  1.00  0.00     0.046 C 
ATOM     14  C   UNL A   1      44.101  44.620  19.428  1.00  0.00     0.017 A 
ATOM     15  C   UNL A   1      45.569  45.793  17.819  1.00  0.00     0.044 C 
BRANCH   9  16
ATOM     16  S   UNL A   1      47.467  42.340  21.526  1.00  0.00     0.262 S 
ATOM     17  O   UNL A   1      48.280  43.200  22.363  1.00  0.00    -0.201 OA
ATOM     18  O   UNL A   1      48.137  41.518  20.539  1.00  0.00    -0.201 OA
BRANCH  16  19
ATOM     19  N   UNL A   1      46.699  41.258  22.604  1.00  0.00    -0.279 N 
ATOM     20  H   UNL A   1      46.190  40.511  22.215  1.00  0.00     0.180 HD
BRANCH  19  21
ATOM     21  C   UNL A   1      46.745  41.359  24.040  1.00  0.00     0.053 A 
ATOM     22  C   UNL A   1      46.824  40.395  26.269  1.00  0.00     0.144 A 
ATOM     23  C   UNL A   1      46.766  40.257  24.884  1.00  0.00     0.075 A 
ATOM     24  C   UNL A   1      46.629  41.647  26.854  1.00  0.00     0.086 A 
ATOM     25  C   UNL A   1      46.410  42.747  26.020  1.00  0.00     0.032 A 
ATOM     26  C   UNL A   1      46.502  42.607  24.625  1.00  0.00     0.029 A 
BRANCH  22  27
ATOM     27  O   UNL A   1      47.177  39.272  26.965  1.00  0.00    -0.494 OA
ATOM     28  C   UNL A   1      48.408  38.709  26.545  1.00  0.00     0.278 C 
ENDBRANCH  22  27
BRANCH  24  29
ATOM     29  N   UNL A   1      46.580  41.815  28.249  1.00  0.00    -0.309 N 
ATOM     30  C   UNL A   1      47.779  42.139  28.982  1.00  0.00     0.126 C 
ATOM     31  C   UNL A   1      45.422  42.173  28.939  1.00  0.00     0.227 C 
ATOM     32  C   UNL A   1      47.297  42.337  30.404  1.00  0.00     0.032 C 
ATOM     33  C   UNL A   1      45.845  42.767  30.259  1.00  0.00     0.102 C 
ATOM     34  O   UNL A   1      44.264  42.078  28.563  1.00  0.00    -0.275 OA
ENDBRANCH  24  29
ENDBRANCH  19  21
ENDBRANCH  16  19
ENDBRANCH   9  16
ENDBRANCH   5   8
ENDBRANCH   3   4
ENDBRANCH   2   3
ENDBRANCH   1   2
BRANCH   1  35
ATOM     35  C   UNL A   1      42.304  40.259  26.257  1.00  0.00     0.002 C 
BRANCH  35  36
ATOM     36  C   UNL A   1      43.343  39.169  26.538  1.00  0.00     0.021 C 
BRANCH  36  37
ATOM     37  C   UNL A   1      43.145  38.344  27.807  1.00  0.00     0.116 C 
BRANCH  37  38
ATOM     38  N   UNL A   1      41.971  37.491  27.756  1.00  0.00    -0.352 N 
ATOM     39  C   UNL A   1      41.854  36.155  27.459  1.00  0.00     0.251 C 
ATOM     40  H   UNL A   1      41.123  37.942  27.969  1.00  0.00     0.163 HD
ATOM     41  O   UNL A   1      40.733  35.663  27.353  1.00  0.00    -0.269 OA
BRANCH  39  42
ATOM     42  C   UNL A   1      43.051  35.307  27.240  1.00  0.00     0.039 A 
ATOM     43  C   UNL A   1      43.780  34.887  28.358  1.00  0.00     0.014 A 
ATOM     44  C   UNL A   1      43.492  34.959  25.960  1.00  0.00     0.014 A 
ATOM     45  C   UNL A   1      44.910  34.081  28.197  1.00  0.00     0.010 A 
ATOM     46  C   UNL A   1      44.581  34.100  25.803  1.00  0.00     0.010 A 
ATOM     47  C   UNL A   1      45.306  33.654  26.919  1.00  0.00    -0.014 A 
BRANCH  47  48
ATOM     48  C   UNL A   1      46.467  32.738  26.748  1.00  0.00     0.031 A 
ATOM     49  C   UNL A   1      47.859  33.284  26.569  1.00  0.00     0.074 A 
ATOM     50  C   UNL A   1      46.261  31.405  26.717  1.00  0.00     0.049 A 
ATOM     51  N   UNL A   1      48.984  32.634  26.406  1.00  0.00    -0.248 NA
ATOM     52  C   UNL A   1      48.005  34.748  26.550  1.00  0.00     0.031 C 
ATOM     53  C   UNL A   1      44.958  30.747  26.832  1.00  0.00     0.029 A 
ATOM     54  N   UNL A   1      47.146  30.364  26.580  1.00  0.00    -0.354 N 
ATOM     55  C   UNL A   1      49.967  33.605  26.253  1.00  0.00     0.074 A 
ATOM     56  C   UNL A   1      49.300  34.888  26.296  1.00  0.00     0.031 C 
ATOM     57  C   UNL A   1      45.132  29.416  26.791  1.00  0.00     0.029 A 
ATOM     58  C   UNL A   1      46.550  29.125  26.612  1.00  0.00     0.049 A 
ATOM     59  H   UNL A   1      48.116  30.492  26.469  1.00  0.00     0.167 HD
ATOM     60  C   UNL A   1      51.305  33.448  26.108  1.00  0.00     0.031 A 
ATOM     61  C   UNL A   1      47.082  27.891  26.508  1.00  0.00     0.031 A 
ATOM     62  C   UNL A   1      51.972  32.171  26.075  1.00  0.00     0.049 A 
ATOM     63  C   UNL A   1      48.570  27.741  26.354  1.00  0.00     0.074 A 
ATOM     64  C   UNL A   1      53.329  31.911  25.992  1.00  0.00     0.029 A 
ATOM     65  N   UNL A   1      51.333  30.941  26.121  1.00  0.00    -0.354 N 
ATOM     66  N   UNL A   1      49.489  28.675  26.286  1.00  0.00    -0.248 NA
ATOM     67  C   UNL A   1      49.094  26.371  26.281  1.00  0.00     0.031 C 
ATOM     68  C   UNL A   1      53.508  30.525  25.936  1.00  0.00     0.029 A 
ATOM     69  C   UNL A   1      52.265  29.920  26.044  1.00  0.00     0.049 A 
ATOM     70  H   UNL A   1      50.360  30.813  26.198  1.00  0.00     0.167 HD
ATOM     71  C   UNL A   1      50.703  28.003  26.186  1.00  0.00     0.074 A 
ATOM     72  C   UNL A   1      50.402  26.586  26.223  1.00  0.00     0.031 C 
ATOM     73  C   UNL A   1      51.953  28.514  26.075  1.00  0.00     0.031 A 
BRANCH  60  74
ATOM     74  C   UNL A   1      52.145  34.692  25.967  1.00  0.00    -0.014 A 
ATOM     75  C   UNL A   1      52.719  35.312  27.090  1.00  0.00     0.010 A 
ATOM     76  C   UNL A   1      52.403  35.220  24.688  1.00  0.00     0.010 A 
ATOM     77  C   UNL A   1      53.502  36.461  26.944  1.00  0.00     0.020 A 
ATOM     78  C   UNL A   1      53.209  36.352  24.534  1.00  0.00     0.020 A 
ATOM     79  C   UNL A   1      53.739  36.976  25.665  1.00  0.00     0.054 A 
BRANCH  79  80
ATOM     80  S   UNL A   1      54.774  38.456  25.502  1.00  0.00     0.124 S 
ATOM     81  O   UNL A   1      53.900  39.495  26.040  1.00  0.00    -0.237 OA
ATOM     82  O   UNL A   1      55.937  38.127  26.323  1.00  0.00    -0.237 OA
ATOM     83  O   UNL A   1      55.033  38.542  24.067  1.00  0.00    -0.744 OA
ENDBRANCH  79  80
ENDBRANCH  60  74
BRANCH  61  84
ATOM     84  C   UNL A   1      46.197  26.694  26.566  1.00  0.00    -0.014 A 
ATOM     85  C   UNL A   1      45.668  26.136  25.388  1.00  0.00     0.010 A 
ATOM     86  C   UNL A   1      45.887  26.100  27.803  1.00  0.00     0.010 A 
ATOM     87  C   UNL A   1      44.831  25.020  25.448  1.00  0.00     0.020 A 
ATOM     88  C   UNL A   1      45.073  24.966  27.864  1.00  0.00     0.020 A 
ATOM     89  C   UNL A   1      44.539  24.440  26.686  1.00  0.00     0.054 A 
BRANCH  89  90
ATOM     90  S   UNL A   1      43.490  22.960  26.736  1.00  0.00     0.124 S 
ATOM     91  O   UNL A   1      44.279  22.004  25.966  1.00  0.00    -0.237 OA
ATOM     92  O   UNL A   1      43.390  22.692  28.168  1.00  0.00    -0.237 OA
ATOM     93  O   UNL A   1      42.248  23.401  26.104  1.00  0.00    -0.744 OA
ENDBRANCH  89  90
ENDBRANCH  61  84
BRANCH  73  94
ATOM     94  C   UNL A   1      53.096  27.534  26.014  1.00  0.00    -0.014 A 
ATOM     95  C   UNL A   1      53.677  27.015  27.185  1.00  0.00     0.010 A 
ATOM     96  C   UNL A   1      53.574  27.102  24.763  1.00  0.00     0.010 A 
ATOM     97  C   UNL A   1      54.742  26.113  27.105  1.00  0.00     0.020 A 
ATOM     98  C   UNL A   1      54.619  26.179  24.679  1.00  0.00     0.020 A 
ATOM     99  C   UNL A   1      55.208  25.703  25.852  1.00  0.00     0.054 A 
BRANCH  99 100
ATOM    100  S   UNL A   1      56.575  24.513  25.775  1.00  0.00     0.124 S 
ATOM    101  O   UNL A   1      57.417  24.946  26.886  1.00  0.00    -0.237 OA
ATOM    102  O   UNL A   1      55.896  23.232  25.961  1.00  0.00    -0.237 OA
ATOM    103  O   UNL A   1      57.141  24.722  24.445  1.00  0.00    -0.744 OA
ENDBRANCH  99 100
ENDBRANCH  73  94
ENDBRANCH  47  48
ENDBRANCH  39  42
ENDBRANCH  37  38
ENDBRANCH  36  37
ENDBRANCH  35  36
ENDBRANCH   1  35
TORSDOF 21
ENDMDL
