MODEL 1
REMARK VINA RESULT:     -10.9      0.000      0.000
REMARK SMILES O=C(CNC(=O)N1CC(NCCCCCCNC(=O)c2ccc(-c3c4nc(c(-c5ccc(S(=O)(=O)[O-])cc5)c5ccc([nH]5)c(-c5ccc(S(=O)(=O)[O-])cc5)c5nc(c(-c6ccc(S(=O)(=O)[O-])cc6)c6ccc3[nH]6)C=C5)C=C4)cc2)=[NH+]c2ccccc21)N[C@H](C(=O)[O-])c1ccccc1
REMARK SMILES IDX 13 1 12 2 11 3 10 4 7 5 8 6 86 7 9 8 81 9 85 10 80 11 82 12
REMARK SMILES IDX 84 13 83 16 5 17 4 18 6 20 3 21 2 22 1 23 87 24 88 26 92 27
REMARK SMILES IDX 93 28 97 29 94 30 96 31 95 32 89 33 90 34 91 35 14 36 15 37
REMARK SMILES IDX 16 38 17 39 18 40 19 42 20 43 21 44 79 45 22 46 78 47 23 48
REMARK SMILES IDX 24 49 25 50 72 51 26 52 77 53 71 54 73 55 27 56 76 57 70 58
REMARK SMILES IDX 69 59 28 61 58 62 39 63 57 64 40 65 43 66 56 67 74 68 41 69
REMARK SMILES IDX 42 70 55 72 75 73 44 74 29 75 30 76 38 77 31 78 37 79 32 80
REMARK SMILES IDX 33 81 34 82 35 83 36 84 59 85 60 86 68 87 61 88 67 89 62 90
REMARK SMILES IDX 63 91 64 92 65 93 66 94 45 95 46 96 54 97 47 98 53 99 48 100
REMARK SMILES IDX 49 101 50 102 51 103 52 104
REMARK H PARENT 10 14 80 15 4 19 87 25 17 41 73 60 43 71
REMARK Flexibility Score: inf
ROOT
ATOM      1  C   UNL A   1      35.758  31.106  28.421  1.00  0.00     0.004 C 
ENDROOT
BRANCH   1   2
ATOM      2  C   UNL A   1      34.511  30.300  28.030  1.00  0.00     0.046 C 
BRANCH   2   3
ATOM      3  C   UNL A   1      34.726  29.322  26.873  1.00  0.00     0.233 C 
BRANCH   3   4
ATOM      4  N   UNL A   1      33.830  29.628  25.786  1.00  0.00    -0.277 N 
ATOM      5  N   UNL A   1      31.274  27.022  25.576  1.00  0.00    -0.278 N 
ATOM      6  C   UNL A   1      31.973  28.010  26.388  1.00  0.00     0.255 C 
ATOM      7  C   UNL A   1      30.419  27.594  24.602  1.00  0.00     0.093 A 
ATOM      8  C   UNL A   1      32.633  29.042  25.466  1.00  0.00     0.268 C 
ATOM      9  C   UNL A   1      30.842  28.799  24.005  1.00  0.00     0.148 A 
ATOM     10  C   UNL A   1      29.218  26.991  24.212  1.00  0.00     0.031 A 
ATOM     11  N   UNL A   1      32.055  29.428  24.358  1.00  0.00    -0.241 N 
ATOM     12  C   UNL A   1      30.094  29.327  22.953  1.00  0.00     0.054 A 
ATOM     13  C   UNL A   1      28.475  27.539  23.167  1.00  0.00     0.002 A 
ATOM     14  H   UNL A   1      34.116  30.359  25.192  1.00  0.00     0.304 HD
ATOM     15  H   UNL A   1      32.451  30.130  23.792  1.00  0.00     0.312 HD
ATOM     16  C   UNL A   1      28.922  28.696  22.527  1.00  0.00     0.005 A 
BRANCH   5  17
ATOM     17  C   UNL A   1      31.476  25.699  25.847  1.00  0.00     0.323 C 
ATOM     18  N   UNL A   1      32.319  24.955  25.092  1.00  0.00    -0.329 N 
ATOM     19  H   UNL A   1      32.258  23.986  25.255  1.00  0.00     0.165 HD
ATOM     20  O   UNL A   1      31.004  25.144  26.842  1.00  0.00    -0.248 OA
BRANCH  18  21
ATOM     21  C   UNL A   1      33.304  25.328  24.079  1.00  0.00     0.218 C 
BRANCH  21  22
ATOM     22  C   UNL A   1      34.293  24.225  23.724  1.00  0.00     0.240 C 
ATOM     23  O   UNL A   1      34.794  24.166  22.605  1.00  0.00    -0.273 OA
ATOM     24  N   UNL A   1      34.684  23.434  24.779  1.00  0.00    -0.342 N 
ATOM     25  H   UNL A   1      34.308  23.613  25.670  1.00  0.00     0.164 HD
BRANCH  24  26
ATOM     26  C   UNL A   1      35.640  22.333  24.628  1.00  0.00     0.158 C 
BRANCH  26  27
ATOM     27  C   UNL A   1      36.973  22.590  25.328  1.00  0.00    -0.020 A 
ATOM     28  C   UNL A   1      37.222  23.819  25.972  1.00  0.00     0.006 A 
ATOM     29  C   UNL A   1      38.008  21.641  25.313  1.00  0.00     0.006 A 
ATOM     30  C   UNL A   1      38.417  24.052  26.653  1.00  0.00     0.000 A 
ATOM     31  C   UNL A   1      39.211  21.881  25.984  1.00  0.00     0.000 A 
ATOM     32  C   UNL A   1      39.408  23.077  26.667  1.00  0.00     0.000 A 
ENDBRANCH  26  27
BRANCH  26  33
ATOM     33  C   UNL A   1      34.946  21.002  24.989  1.00  0.00     0.068 C 
ATOM     34  O   UNL A   1      35.379  19.861  24.924  1.00  0.00    -0.548 OA
ATOM     35  O   UNL A   1      33.711  21.195  25.516  1.00  0.00    -0.548 OA
ENDBRANCH  26  33
ENDBRANCH  24  26
ENDBRANCH  21  22
ENDBRANCH  18  21
ENDBRANCH   5  17
ENDBRANCH   3   4
ENDBRANCH   2   3
ENDBRANCH   1   2
BRANCH   1  36
ATOM     36  C   UNL A   1      35.692  32.605  28.109  1.00  0.00     0.002 C 
BRANCH  36  37
ATOM     37  C   UNL A   1      34.287  33.213  28.127  1.00  0.00     0.021 C 
BRANCH  37  38
ATOM     38  C   UNL A   1      34.247  34.725  28.324  1.00  0.00     0.116 C 
BRANCH  38  39
ATOM     39  N   UNL A   1      33.308  35.118  29.362  1.00  0.00    -0.352 N 
ATOM     40  C   UNL A   1      33.349  34.870  30.712  1.00  0.00     0.251 C 
ATOM     41  H   UNL A   1      32.530  35.637  29.052  1.00  0.00     0.163 HD
ATOM     42  O   UNL A   1      32.368  35.115  31.408  1.00  0.00    -0.269 OA
BRANCH  40  43
ATOM     43  C   UNL A   1      34.566  34.290  31.320  1.00  0.00     0.039 A 
ATOM     44  C   UNL A   1      34.536  32.965  31.763  1.00  0.00     0.014 A 
ATOM     45  C   UNL A   1      35.730  35.050  31.462  1.00  0.00     0.014 A 
ATOM     46  C   UNL A   1      35.691  32.385  32.292  1.00  0.00     0.010 A 
ATOM     47  C   UNL A   1      36.900  34.449  31.919  1.00  0.00     0.010 A 
ATOM     48  C   UNL A   1      36.892  33.112  32.345  1.00  0.00    -0.014 A 
BRANCH  48  49
ATOM     49  C   UNL A   1      38.149  32.491  32.839  1.00  0.00     0.031 A 
ATOM     50  C   UNL A   1      38.637  32.776  34.235  1.00  0.00     0.074 A 
ATOM     51  C   UNL A   1      38.882  31.718  32.013  1.00  0.00     0.049 A 
ATOM     52  N   UNL A   1      39.733  32.371  34.824  1.00  0.00    -0.248 NA
ATOM     53  C   UNL A   1      37.796  33.650  35.069  1.00  0.00     0.031 C 
ATOM     54  C   UNL A   1      38.537  31.395  30.627  1.00  0.00     0.029 A 
ATOM     55  N   UNL A   1      40.073  31.068  32.218  1.00  0.00    -0.354 N 
ATOM     56  C   UNL A   1      39.720  32.950  36.087  1.00  0.00     0.074 A 
ATOM     57  C   UNL A   1      38.536  33.777  36.160  1.00  0.00     0.031 C 
ATOM     58  C   UNL A   1      39.479  30.585  30.117  1.00  0.00     0.029 A 
ATOM     59  C   UNL A   1      40.517  30.367  31.121  1.00  0.00     0.049 A 
ATOM     60  H   UNL A   1      40.565  31.101  33.070  1.00  0.00     0.167 HD
ATOM     61  C   UNL A   1      40.604  32.793  37.103  1.00  0.00     0.031 A 
ATOM     62  C   UNL A   1      41.633  29.636  30.938  1.00  0.00     0.031 A 
ATOM     63  C   UNL A   1      41.778  31.966  37.029  1.00  0.00     0.049 A 
ATOM     64  C   UNL A   1      42.610  29.493  32.073  1.00  0.00     0.074 A 
ATOM     65  C   UNL A   1      42.708  31.701  38.020  1.00  0.00     0.029 A 
ATOM     66  N   UNL A   1      42.190  31.272  35.900  1.00  0.00    -0.354 N 
ATOM     67  N   UNL A   1      42.548  29.998  33.282  1.00  0.00    -0.248 NA
ATOM     68  C   UNL A   1      43.803  28.672  31.822  1.00  0.00     0.031 C 
ATOM     69  C   UNL A   1      43.713  30.894  37.473  1.00  0.00     0.029 A 
ATOM     70  C   UNL A   1      43.374  30.603  36.161  1.00  0.00     0.049 A 
ATOM     71  H   UNL A   1      41.711  31.259  35.040  1.00  0.00     0.167 HD
ATOM     72  C   UNL A   1      43.678  29.533  33.945  1.00  0.00     0.074 A 
ATOM     73  C   UNL A   1      44.398  28.695  33.007  1.00  0.00     0.031 C 
ATOM     74  C   UNL A   1      44.082  29.774  35.217  1.00  0.00     0.031 A 
BRANCH  61  75
ATOM     75  C   UNL A   1      40.333  33.545  38.382  1.00  0.00    -0.014 A 
ATOM     76  C   UNL A   1      39.465  33.027  39.361  1.00  0.00     0.010 A 
ATOM     77  C   UNL A   1      40.978  34.772  38.622  1.00  0.00     0.010 A 
ATOM     78  C   UNL A   1      39.208  33.745  40.532  1.00  0.00     0.020 A 
ATOM     79  C   UNL A   1      40.748  35.478  39.806  1.00  0.00     0.020 A 
ATOM     80  C   UNL A   1      39.848  34.970  40.745  1.00  0.00     0.054 A 
BRANCH  80  81
ATOM     81  S   UNL A   1      39.503  35.875  42.277  1.00  0.00     0.124 S 
ATOM     82  O   UNL A   1      39.492  37.260  41.812  1.00  0.00    -0.237 OA
ATOM     83  O   UNL A   1      38.206  35.339  42.682  1.00  0.00    -0.237 OA
ATOM     84  O   UNL A   1      40.620  35.521  43.150  1.00  0.00    -0.744 OA
ENDBRANCH  80  81
ENDBRANCH  61  75
BRANCH  62  85
ATOM     85  C   UNL A   1      41.876  28.968  29.629  1.00  0.00    -0.014 A 
ATOM     86  C   UNL A   1      41.461  27.641  29.418  1.00  0.00     0.010 A 
ATOM     87  C   UNL A   1      42.508  29.661  28.581  1.00  0.00     0.010 A 
ATOM     88  C   UNL A   1      41.686  27.016  28.188  1.00  0.00     0.020 A 
ATOM     89  C   UNL A   1      42.708  29.050  27.341  1.00  0.00     0.020 A 
ATOM     90  C   UNL A   1      42.304  27.726  27.155  1.00  0.00     0.054 A 
BRANCH  90  91
ATOM     91  S   UNL A   1      42.532  26.913  25.549  1.00  0.00     0.124 S 
ATOM     92  O   UNL A   1      43.784  26.192  25.748  1.00  0.00    -0.237 OA
ATOM     93  O   UNL A   1      41.333  26.085  25.443  1.00  0.00    -0.237 OA
ATOM     94  O   UNL A   1      42.593  28.029  24.608  1.00  0.00    -0.744 OA
ENDBRANCH  90  91
ENDBRANCH  62  85
BRANCH  74  95
ATOM     95  C   UNL A   1      45.344  29.098  35.686  1.00  0.00    -0.014 A 
ATOM     96  C   UNL A   1      45.318  27.812  36.252  1.00  0.00     0.010 A 
ATOM     97  C   UNL A   1      46.583  29.742  35.503  1.00  0.00     0.010 A 
ATOM     98  C   UNL A   1      46.505  27.194  36.656  1.00  0.00     0.020 A 
ATOM     99  C   UNL A   1      47.773  29.116  35.878  1.00  0.00     0.020 A 
ATOM    100  C   UNL A   1      47.726  27.850  36.465  1.00  0.00     0.054 A 
BRANCH 100 101
ATOM    101  S   UNL A   1      49.256  27.008  36.956  1.00  0.00     0.124 S 
ATOM    102  O   UNL A   1      50.168  27.385  35.880  1.00  0.00    -0.237 OA
ATOM    103  O   UNL A   1      49.542  27.601  38.260  1.00  0.00    -0.237 OA
ATOM    104  O   UNL A   1      48.880  25.597  36.988  1.00  0.00    -0.744 OA
ENDBRANCH 100 101
ENDBRANCH  74  95
ENDBRANCH  48  49
ENDBRANCH  40  43
ENDBRANCH  38  39
ENDBRANCH  37  38
ENDBRANCH  36  37
ENDBRANCH   1  36
TORSDOF 21
ENDMDL
MODEL 2
REMARK VINA RESULT:     -10.7      2.357      9.090
REMARK SMILES O=C(CNC(=O)N1CC(NCCCCCCNC(=O)c2ccc(-c3c4nc(c(-c5ccc(S(=O)(=O)[O-])cc5)c5ccc([nH]5)c(-c5ccc(S(=O)(=O)[O-])cc5)c5nc(c(-c6ccc(S(=O)(=O)[O-])cc6)c6ccc3[nH]6)C=C5)C=C4)cc2)=[NH+]c2ccccc21)N[C@H](C(=O)[O-])c1ccccc1
REMARK SMILES IDX 13 1 12 2 11 3 10 4 7 5 8 6 86 7 9 8 81 9 85 10 80 11 82 12
REMARK SMILES IDX 84 13 83 16 5 17 4 18 6 20 3 21 2 22 1 23 87 24 88 26 92 27
REMARK SMILES IDX 93 28 97 29 94 30 96 31 95 32 89 33 90 34 91 35 14 36 15 37
REMARK SMILES IDX 16 38 17 39 18 40 19 42 20 43 21 44 79 45 22 46 78 47 23 48
REMARK SMILES IDX 24 49 25 50 72 51 26 52 77 53 71 54 73 55 27 56 76 57 70 58
REMARK SMILES IDX 69 59 28 61 58 62 39 63 57 64 40 65 43 66 56 67 74 68 41 69
REMARK SMILES IDX 42 70 55 72 75 73 44 74 29 75 30 76 38 77 31 78 37 79 32 80
REMARK SMILES IDX 33 81 34 82 35 83 36 84 59 85 60 86 68 87 61 88 67 89 62 90
REMARK SMILES IDX 63 91 64 92 65 93 66 94 45 95 46 96 54 97 47 98 53 99 48 100
REMARK SMILES IDX 49 101 50 102 51 103 52 104
REMARK H PARENT 10 14 80 15 4 19 87 25 17 41 73 60 43 71
REMARK Flexibility Score: inf
ROOT
ATOM      1  C   UNL A   1      37.874  23.273  25.397  1.00  0.00     0.004 C 
ENDROOT
BRANCH   1   2
ATOM      2  C   UNL A   1      37.185  23.952  26.588  1.00  0.00     0.046 C 
BRANCH   2   3
ATOM      3  C   UNL A   1      35.657  23.928  26.534  1.00  0.00     0.233 C 
BRANCH   3   4
ATOM      4  N   UNL A   1      35.173  22.575  26.656  1.00  0.00    -0.277 N 
ATOM      5  N   UNL A   1      33.200  21.742  23.692  1.00  0.00    -0.278 N 
ATOM      6  C   UNL A   1      34.454  22.235  24.248  1.00  0.00     0.255 C 
ATOM      7  C   UNL A   1      32.987  20.359  23.919  1.00  0.00     0.093 A 
ATOM      8  C   UNL A   1      34.564  21.790  25.711  1.00  0.00     0.268 C 
ATOM      9  C   UNL A   1      33.453  19.830  25.140  1.00  0.00     0.148 A 
ATOM     10  C   UNL A   1      32.318  19.543  23.000  1.00  0.00     0.031 A 
ATOM     11  N   UNL A   1      34.115  20.625  26.100  1.00  0.00    -0.241 N 
ATOM     12  C   UNL A   1      33.151  18.506  25.458  1.00  0.00     0.054 A 
ATOM     13  C   UNL A   1      32.036  18.217  23.328  1.00  0.00     0.002 A 
ATOM     14  H   UNL A   1      35.297  22.156  27.538  1.00  0.00     0.304 HD
ATOM     15  H   UNL A   1      34.233  20.314  27.027  1.00  0.00     0.312 HD
ATOM     16  C   UNL A   1      32.437  17.705  24.562  1.00  0.00     0.005 A 
BRANCH   5  17
ATOM     17  C   UNL A   1      32.406  22.615  23.005  1.00  0.00     0.323 C 
ATOM     18  N   UNL A   1      31.418  23.297  23.632  1.00  0.00    -0.329 N 
ATOM     19  H   UNL A   1      30.797  23.757  23.022  1.00  0.00     0.165 HD
ATOM     20  O   UNL A   1      32.611  22.915  21.827  1.00  0.00    -0.248 OA
BRANCH  18  21
ATOM     21  C   UNL A   1      31.105  23.475  25.048  1.00  0.00     0.218 C 
BRANCH  21  22
ATOM     22  C   UNL A   1      30.716  24.896  25.434  1.00  0.00     0.240 C 
ATOM     23  O   UNL A   1      30.141  25.125  26.494  1.00  0.00    -0.273 OA
ATOM     24  N   UNL A   1      31.197  25.878  24.600  1.00  0.00    -0.342 N 
ATOM     25  H   UNL A   1      31.738  25.614  23.822  1.00  0.00     0.164 HD
BRANCH  24  26
ATOM     26  C   UNL A   1      30.936  27.302  24.823  1.00  0.00     0.158 C 
BRANCH  26  27
ATOM     27  C   UNL A   1      32.016  27.992  25.654  1.00  0.00    -0.020 A 
ATOM     28  C   UNL A   1      31.708  29.125  26.435  1.00  0.00     0.006 A 
ATOM     29  C   UNL A   1      33.351  27.558  25.634  1.00  0.00     0.006 A 
ATOM     30  C   UNL A   1      32.674  29.738  27.234  1.00  0.00     0.000 A 
ATOM     31  C   UNL A   1      34.321  28.182  26.424  1.00  0.00     0.000 A 
ATOM     32  C   UNL A   1      33.979  29.259  27.235  1.00  0.00     0.000 A 
ENDBRANCH  26  27
BRANCH  26  33
ATOM     33  C   UNL A   1      30.602  27.977  23.475  1.00  0.00     0.068 C 
ATOM     34  O   UNL A   1      31.226  28.830  22.861  1.00  0.00    -0.548 OA
ATOM     35  O   UNL A   1      29.487  27.455  22.904  1.00  0.00    -0.548 OA
ENDBRANCH  26  33
ENDBRANCH  24  26
ENDBRANCH  21  22
ENDBRANCH  18  21
ENDBRANCH   5  17
ENDBRANCH   3   4
ENDBRANCH   2   3
ENDBRANCH   1   2
BRANCH   1  36
ATOM     36  C   UNL A   1      38.409  21.862  25.668  1.00  0.00     0.002 C 
BRANCH  36  37
ATOM     37  C   UNL A   1      39.747  21.805  26.410  1.00  0.00     0.021 C 
BRANCH  37  38
ATOM     38  C   UNL A   1      40.288  23.159  26.858  1.00  0.00     0.116 C 
BRANCH  38  39
ATOM     39  N   UNL A   1      41.349  23.640  25.989  1.00  0.00    -0.352 N 
ATOM     40  C   UNL A   1      42.054  24.817  26.046  1.00  0.00     0.251 C 
ATOM     41  H   UNL A   1      41.599  23.035  25.253  1.00  0.00     0.163 HD
ATOM     42  O   UNL A   1      42.783  25.139  25.111  1.00  0.00    -0.269 OA
BRANCH  40  43
ATOM     43  C   UNL A   1      41.918  25.704  27.222  1.00  0.00     0.039 A 
ATOM     44  C   UNL A   1      42.725  26.842  27.309  1.00  0.00     0.014 A 
ATOM     45  C   UNL A   1      41.004  25.413  28.238  1.00  0.00     0.014 A 
ATOM     46  C   UNL A   1      42.572  27.717  28.387  1.00  0.00     0.010 A 
ATOM     47  C   UNL A   1      40.800  26.325  29.270  1.00  0.00     0.010 A 
ATOM     48  C   UNL A   1      41.586  27.484  29.360  1.00  0.00    -0.014 A 
BRANCH  48  49
ATOM     49  C   UNL A   1      41.361  28.441  30.475  1.00  0.00     0.031 A 
ATOM     50  C   UNL A   1      42.212  28.371  31.716  1.00  0.00     0.074 A 
ATOM     51  C   UNL A   1      40.353  29.331  30.398  1.00  0.00     0.049 A 
ATOM     52  N   UNL A   1      42.132  29.083  32.811  1.00  0.00    -0.248 NA
ATOM     53  C   UNL A   1      43.277  27.355  31.737  1.00  0.00     0.031 C 
ATOM     54  C   UNL A   1      39.435  29.475  29.266  1.00  0.00     0.029 A 
ATOM     55  N   UNL A   1      39.928  30.282  31.292  1.00  0.00    -0.354 N 
ATOM     56  C   UNL A   1      43.122  28.592  33.654  1.00  0.00     0.074 A 
ATOM     57  C   UNL A   1      43.753  27.488  32.966  1.00  0.00     0.031 C 
ATOM     58  C   UNL A   1      38.575  30.475  29.523  1.00  0.00     0.029 A 
ATOM     59  C   UNL A   1      38.850  31.013  30.851  1.00  0.00     0.049 A 
ATOM     60  H   UNL A   1      40.355  30.428  32.167  1.00  0.00     0.167 HD
ATOM     61  C   UNL A   1      43.486  29.032  34.884  1.00  0.00     0.031 A 
ATOM     62  C   UNL A   1      38.156  32.001  31.448  1.00  0.00     0.031 A 
ATOM     63  C   UNL A   1      42.859  30.133  35.564  1.00  0.00     0.049 A 
ATOM     64  C   UNL A   1      38.565  32.459  32.822  1.00  0.00     0.074 A 
ATOM     65  C   UNL A   1      43.188  30.688  36.789  1.00  0.00     0.029 A 
ATOM     66  N   UNL A   1      41.771  30.847  35.082  1.00  0.00    -0.354 N 
ATOM     67  N   UNL A   1      39.544  32.023  33.577  1.00  0.00    -0.248 NA
ATOM     68  C   UNL A   1      37.781  33.550  33.418  1.00  0.00     0.031 C 
ATOM     69  C   UNL A   1      42.263  31.699  37.074  1.00  0.00     0.029 A 
ATOM     70  C   UNL A   1      41.399  31.818  35.997  1.00  0.00     0.049 A 
ATOM     71  H   UNL A   1      41.328  30.686  34.217  1.00  0.00     0.167 HD
ATOM     72  C   UNL A   1      39.513  32.806  34.727  1.00  0.00     0.074 A 
ATOM     73  C   UNL A   1      38.426  33.750  34.559  1.00  0.00     0.031 C 
ATOM     74  C   UNL A   1      40.313  32.750  35.820  1.00  0.00     0.031 A 
BRANCH  61  75
ATOM     75  C   UNL A   1      44.614  28.308  35.575  1.00  0.00    -0.014 A 
ATOM     76  C   UNL A   1      45.950  28.719  35.415  1.00  0.00     0.010 A 
ATOM     77  C   UNL A   1      44.331  27.219  36.421  1.00  0.00     0.010 A 
ATOM     78  C   UNL A   1      46.986  28.024  36.045  1.00  0.00     0.020 A 
ATOM     79  C   UNL A   1      45.361  26.542  37.079  1.00  0.00     0.020 A 
ATOM     80  C   UNL A   1      46.685  26.936  36.870  1.00  0.00     0.054 A 
BRANCH  80  81
ATOM     81  S   UNL A   1      48.048  26.060  37.684  1.00  0.00     0.124 S 
ATOM     82  O   UNL A   1      47.491  25.804  39.010  1.00  0.00    -0.237 OA
ATOM     83  O   UNL A   1      48.222  24.882  36.839  1.00  0.00    -0.237 OA
ATOM     84  O   UNL A   1      49.150  27.019  37.646  1.00  0.00    -0.744 OA
ENDBRANCH  80  81
ENDBRANCH  61  75
BRANCH  62  85
ATOM     85  C   UNL A   1      37.010  32.636  30.739  1.00  0.00    -0.014 A 
ATOM     86  C   UNL A   1      35.699  32.171  30.942  1.00  0.00     0.010 A 
ATOM     87  C   UNL A   1      37.224  33.722  29.871  1.00  0.00     0.010 A 
ATOM     88  C   UNL A   1      34.624  32.770  30.279  1.00  0.00     0.020 A 
ATOM     89  C   UNL A   1      36.149  34.343  29.229  1.00  0.00     0.020 A 
ATOM     90  C   UNL A   1      34.855  33.857  29.429  1.00  0.00     0.054 A 
BRANCH  90  91
ATOM     91  S   UNL A   1      33.439  34.656  28.626  1.00  0.00     0.124 S 
ATOM     92  O   UNL A   1      32.966  33.606  27.730  1.00  0.00    -0.237 OA
ATOM     93  O   UNL A   1      32.568  34.964  29.757  1.00  0.00    -0.237 OA
ATOM     94  O   UNL A   1      34.030  35.820  27.971  1.00  0.00    -0.744 OA
ENDBRANCH  90  91
ENDBRANCH  62  85
BRANCH  74  95
ATOM     95  C   UNL A   1      40.070  33.759  36.911  1.00  0.00    -0.014 A 
ATOM     96  C   UNL A   1      40.662  35.033  36.875  1.00  0.00     0.010 A 
ATOM     97  C   UNL A   1      39.188  33.443  37.962  1.00  0.00     0.010 A 
ATOM     98  C   UNL A   1      40.400  35.963  37.886  1.00  0.00     0.020 A 
ATOM     99  C   UNL A   1      38.901  34.379  38.958  1.00  0.00     0.020 A 
ATOM    100  C   UNL A   1      39.520  35.629  38.921  1.00  0.00     0.054 A 
BRANCH 100 101
ATOM    101  S   UNL A   1      39.162  36.869  40.196  1.00  0.00     0.124 S 
ATOM    102  O   UNL A   1      38.566  37.947  39.413  1.00  0.00    -0.237 OA
ATOM    103  O   UNL A   1      38.246  36.157  41.085  1.00  0.00    -0.237 OA
ATOM    104  O   UNL A   1      40.473  37.166  40.769  1.00  0.00    -0.744 OA
ENDBRANCH 100 101
ENDBRANCH  74  95
ENDBRANCH  48  49
ENDBRANCH  40  43
ENDBRANCH  38  39
ENDBRANCH  37  38
ENDBRANCH  36  37
ENDBRANCH   1  36
TORSDOF 21
ENDMDL
MODEL 3
REMARK VINA RESULT:     -10.5      5.235     10.598
REMARK SMILES O=C(CNC(=O)N1CC(NCCCCCCNC(=O)c2ccc(-c3c4nc(c(-c5ccc(S(=O)(=O)[O-])cc5)c5ccc([nH]5)c(-c5ccc(S(=O)(=O)[O-])cc5)c5nc(c(-c6ccc(S(=O)(=O)[O-])cc6)c6ccc3[nH]6)C=C5)C=C4)cc2)=[NH+]c2ccccc21)N[C@H](C(=O)[O-])c1ccccc1
REMARK SMILES IDX 13 1 12 2 11 3 10 4 7 5 8 6 86 7 9 8 81 9 85 10 80 11 82 12
REMARK SMILES IDX 84 13 83 16 5 17 4 18 6 20 3 21 2 22 1 23 87 24 88 26 92 27
REMARK SMILES IDX 93 28 97 29 94 30 96 31 95 32 89 33 90 34 91 35 14 36 15 37
REMARK SMILES IDX 16 38 17 39 18 40 19 42 20 43 21 44 79 45 22 46 78 47 23 48
REMARK SMILES IDX 24 49 25 50 72 51 26 52 77 53 71 54 73 55 27 56 76 57 70 58
REMARK SMILES IDX 69 59 28 61 58 62 39 63 57 64 40 65 43 66 56 67 74 68 41 69
REMARK SMILES IDX 42 70 55 72 75 73 44 74 29 75 30 76 38 77 31 78 37 79 32 80
REMARK SMILES IDX 33 81 34 82 35 83 36 84 59 85 60 86 68 87 61 88 67 89 62 90
REMARK SMILES IDX 63 91 64 92 65 93 66 94 45 95 46 96 54 97 47 98 53 99 48 100
REMARK SMILES IDX 49 101 50 102 51 103 52 104
REMARK H PARENT 10 14 80 15 4 19 87 25 17 41 73 60 43 71
REMARK Flexibility Score: inf
ROOT
ATOM      1  C   UNL A   1      34.480  24.667  25.720  1.00  0.00     0.004 C 
ENDROOT
BRANCH   1   2
ATOM      2  C   UNL A   1      33.938  23.728  26.806  1.00  0.00     0.046 C 
BRANCH   2   3
ATOM      3  C   UNL A   1      32.592  23.083  26.472  1.00  0.00     0.233 C 
BRANCH   3   4
ATOM      4  N   UNL A   1      32.645  21.662  26.713  1.00  0.00    -0.277 N 
ATOM      5  N   UNL A   1      32.815  19.914  23.505  1.00  0.00    -0.278 N 
ATOM      6  C   UNL A   1      33.361  20.934  24.392  1.00  0.00     0.255 C 
ATOM      7  C   UNL A   1      33.043  18.591  23.958  1.00  0.00     0.093 A 
ATOM      8  C   UNL A   1      32.905  20.649  25.828  1.00  0.00     0.268 C 
ATOM      9  C   UNL A   1      33.018  18.376  25.351  1.00  0.00     0.148 A 
ATOM     10  C   UNL A   1      33.255  17.524  23.078  1.00  0.00     0.031 A 
ATOM     11  N   UNL A   1      32.788  19.423  26.270  1.00  0.00    -0.241 N 
ATOM     12  C   UNL A   1      33.110  17.070  25.832  1.00  0.00     0.054 A 
ATOM     13  C   UNL A   1      33.359  16.225  23.577  1.00  0.00     0.002 A 
ATOM     14  H   UNL A   1      32.471  21.381  27.640  1.00  0.00     0.304 HD
ATOM     15  H   UNL A   1      32.548  19.238  27.207  1.00  0.00     0.312 HD
ATOM     16  C   UNL A   1      33.269  15.997  24.950  1.00  0.00     0.005 A 
BRANCH   5  17
ATOM     17  C   UNL A   1      32.195  20.316  22.357  1.00  0.00     0.323 C 
ATOM     18  N   UNL A   1      32.036  21.631  22.075  1.00  0.00    -0.329 N 
ATOM     19  H   UNL A   1      31.427  21.812  21.324  1.00  0.00     0.165 HD
ATOM     20  O   UNL A   1      31.854  19.526  21.473  1.00  0.00    -0.248 OA
BRANCH  18  21
ATOM     21  C   UNL A   1      32.605  22.832  22.683  1.00  0.00     0.218 C 
BRANCH  21  22
ATOM     22  C   UNL A   1      31.578  23.879  23.094  1.00  0.00     0.240 C 
ATOM     23  O   UNL A   1      30.432  23.554  23.387  1.00  0.00    -0.273 OA
ATOM     24  N   UNL A   1      32.078  25.149  23.262  1.00  0.00    -0.342 N 
ATOM     25  H   UNL A   1      33.037  25.305  23.102  1.00  0.00     0.164 HD
BRANCH  24  26
ATOM     26  C   UNL A   1      31.241  26.281  23.668  1.00  0.00     0.158 C 
BRANCH  26  27
ATOM     27  C   UNL A   1      31.843  27.098  24.810  1.00  0.00    -0.020 A 
ATOM     28  C   UNL A   1      31.195  27.172  26.060  1.00  0.00     0.006 A 
ATOM     29  C   UNL A   1      33.024  27.838  24.644  1.00  0.00     0.006 A 
ATOM     30  C   UNL A   1      31.754  27.878  27.126  1.00  0.00     0.000 A 
ATOM     31  C   UNL A   1      33.577  28.557  25.708  1.00  0.00     0.000 A 
ATOM     32  C   UNL A   1      32.952  28.562  26.952  1.00  0.00     0.000 A 
ENDBRANCH  26  27
BRANCH  26  33
ATOM     33  C   UNL A   1      30.831  27.087  22.418  1.00  0.00     0.068 C 
ATOM     34  O   UNL A   1      30.057  28.029  22.324  1.00  0.00    -0.548 OA
ATOM     35  O   UNL A   1      31.515  26.700  21.312  1.00  0.00    -0.548 OA
ENDBRANCH  26  33
ENDBRANCH  24  26
ENDBRANCH  21  22
ENDBRANCH  18  21
ENDBRANCH   5  17
ENDBRANCH   3   4
ENDBRANCH   2   3
ENDBRANCH   1   2
BRANCH   1  36
ATOM     36  C   UNL A   1      35.375  24.002  24.668  1.00  0.00     0.002 C 
BRANCH  36  37
ATOM     37  C   UNL A   1      36.319  22.924  25.204  1.00  0.00     0.021 C 
BRANCH  37  38
ATOM     38  C   UNL A   1      37.454  23.446  26.080  1.00  0.00     0.116 C 
BRANCH  38  39
ATOM     39  N   UNL A   1      38.571  22.518  26.142  1.00  0.00    -0.352 N 
ATOM     40  C   UNL A   1      39.896  22.767  26.403  1.00  0.00     0.251 C 
ATOM     41  H   UNL A   1      38.346  21.574  25.972  1.00  0.00     0.163 HD
ATOM     42  O   UNL A   1      40.730  21.884  26.223  1.00  0.00    -0.269 OA
BRANCH  40  43
ATOM     43  C   UNL A   1      40.317  24.103  26.879  1.00  0.00     0.039 A 
ATOM     44  C   UNL A   1      40.720  24.252  28.209  1.00  0.00     0.014 A 
ATOM     45  C   UNL A   1      40.308  25.206  26.021  1.00  0.00     0.014 A 
ATOM     46  C   UNL A   1      41.170  25.495  28.660  1.00  0.00     0.010 A 
ATOM     47  C   UNL A   1      40.828  26.424  26.451  1.00  0.00     0.010 A 
ATOM     48  C   UNL A   1      41.259  26.584  27.777  1.00  0.00    -0.014 A 
BRANCH  48  49
ATOM     49  C   UNL A   1      41.801  27.895  28.221  1.00  0.00     0.031 A 
ATOM     50  C   UNL A   1      43.284  28.153  28.183  1.00  0.00     0.074 A 
ATOM     51  C   UNL A   1      40.965  28.830  28.714  1.00  0.00     0.049 A 
ATOM     52  N   UNL A   1      43.946  29.211  28.577  1.00  0.00    -0.248 NA
ATOM     53  C   UNL A   1      44.135  27.074  27.656  1.00  0.00     0.031 C 
ATOM     54  C   UNL A   1      39.513  28.688  28.837  1.00  0.00     0.029 A 
ATOM     55  N   UNL A   1      41.219  30.085  29.209  1.00  0.00    -0.354 N 
ATOM     56  C   UNL A   1      45.288  28.920  28.360  1.00  0.00     0.074 A 
ATOM     57  C   UNL A   1      45.349  27.567  27.851  1.00  0.00     0.031 C 
ATOM     58  C   UNL A   1      39.003  29.823  29.345  1.00  0.00     0.029 A 
ATOM     59  C   UNL A   1      40.091  30.754  29.625  1.00  0.00     0.049 A 
ATOM     60  H   UNL A   1      42.123  30.471  29.261  1.00  0.00     0.167 HD
ATOM     61  C   UNL A   1      46.371  29.713  28.549  1.00  0.00     0.031 A 
ATOM     62  C   UNL A   1      39.947  31.975  30.175  1.00  0.00     0.031 A 
ATOM     63  C   UNL A   1      46.307  31.059  29.051  1.00  0.00     0.049 A 
ATOM     64  C   UNL A   1      41.165  32.829  30.395  1.00  0.00     0.074 A 
ATOM     65  C   UNL A   1      47.341  31.961  29.231  1.00  0.00     0.029 A 
ATOM     66  N   UNL A   1      45.145  31.698  29.460  1.00  0.00    -0.354 N 
ATOM     67  N   UNL A   1      42.420  32.559  30.124  1.00  0.00    -0.248 NA
ATOM     68  C   UNL A   1      40.947  34.157  30.985  1.00  0.00     0.031 C 
ATOM     69  C   UNL A   1      46.814  33.125  29.802  1.00  0.00     0.029 A 
ATOM     70  C   UNL A   1      45.441  32.971  29.917  1.00  0.00     0.049 A 
ATOM     71  H   UNL A   1      44.243  31.304  29.431  1.00  0.00     0.167 HD
ATOM     72  C   UNL A   1      43.138  33.694  30.484  1.00  0.00     0.074 A 
ATOM     73  C   UNL A   1      42.175  34.658  30.978  1.00  0.00     0.031 C 
ATOM     74  C   UNL A   1      44.473  33.920  30.409  1.00  0.00     0.031 A 
BRANCH  61  75
ATOM     75  C   UNL A   1      47.723  29.133  28.217  1.00  0.00    -0.014 A 
ATOM     76  C   UNL A   1      48.482  28.453  29.188  1.00  0.00     0.010 A 
ATOM     77  C   UNL A   1      48.229  29.243  26.909  1.00  0.00     0.010 A 
ATOM     78  C   UNL A   1      49.742  27.939  28.870  1.00  0.00     0.020 A 
ATOM     79  C   UNL A   1      49.475  28.703  26.579  1.00  0.00     0.020 A 
ATOM     80  C   UNL A   1      50.233  28.072  27.568  1.00  0.00     0.054 A 
BRANCH  80  81
ATOM     81  S   UNL A   1      51.867  27.387  27.182  1.00  0.00     0.124 S 
ATOM     82  O   UNL A   1      52.352  28.321  26.168  1.00  0.00    -0.237 OA
ATOM     83  O   UNL A   1      52.553  27.447  28.470  1.00  0.00    -0.237 OA
ATOM     84  O   UNL A   1      51.574  26.040  26.697  1.00  0.00    -0.744 OA
ENDBRANCH  80  81
ENDBRANCH  61  75
BRANCH  62  85
ATOM     85  C   UNL A   1      38.590  32.468  30.540  1.00  0.00    -0.014 A 
ATOM     86  C   UNL A   1      38.063  32.226  31.822  1.00  0.00     0.010 A 
ATOM     87  C   UNL A   1      37.824  33.199  29.613  1.00  0.00     0.010 A 
ATOM     88  C   UNL A   1      36.791  32.694  32.164  1.00  0.00     0.020 A 
ATOM     89  C   UNL A   1      36.565  33.693  29.962  1.00  0.00     0.020 A 
ATOM     90  C   UNL A   1      36.051  33.429  31.233  1.00  0.00     0.054 A 
BRANCH  90  91
ATOM     91  S   UNL A   1      34.428  34.075  31.721  1.00  0.00     0.124 S 
ATOM     92  O   UNL A   1      33.920  33.008  32.577  1.00  0.00    -0.237 OA
ATOM     93  O   UNL A   1      34.776  35.321  32.399  1.00  0.00    -0.237 OA
ATOM     94  O   UNL A   1      33.731  34.243  30.447  1.00  0.00    -0.744 OA
ENDBRANCH  90  91
ENDBRANCH  62  85
BRANCH  74  95
ATOM     95  C   UNL A   1      44.974  35.275  30.839  1.00  0.00    -0.014 A 
ATOM     96  C   UNL A   1      45.421  35.507  32.150  1.00  0.00     0.010 A 
ATOM     97  C   UNL A   1      45.048  36.316  29.894  1.00  0.00     0.010 A 
ATOM     98  C   UNL A   1      45.907  36.766  32.519  1.00  0.00     0.020 A 
ATOM     99  C   UNL A   1      45.560  37.566  30.250  1.00  0.00     0.020 A 
ATOM    100  C   UNL A   1      45.974  37.787  31.565  1.00  0.00     0.054 A 
BRANCH 100 101
ATOM    101  S   UNL A   1      46.649  39.397  32.057  1.00  0.00     0.124 S 
ATOM    102  O   UNL A   1      45.641  40.319  31.543  1.00  0.00    -0.237 OA
ATOM    103  O   UNL A   1      46.714  39.285  33.513  1.00  0.00    -0.237 OA
ATOM    104  O   UNL A   1      47.944  39.450  31.383  1.00  0.00    -0.744 OA
ENDBRANCH 100 101
ENDBRANCH  74  95
ENDBRANCH  48  49
ENDBRANCH  40  43
ENDBRANCH  38  39
ENDBRANCH  37  38
ENDBRANCH  36  37
ENDBRANCH   1  36
TORSDOF 21
ENDMDL
