MODEL 1
REMARK VINA RESULT:     -10.0      0.000      0.000
REMARK SMILES C[C@@H]1C[C@H]([NH3+])C[N@@H+](CCC(=O)NCCCCCCNC(=O)c2ccc(-c3c4nc(c(-c5ccc(S(=O)(=O)[O-])cc5)c5ccc([nH]5)c(-c5ccc(S(=O)(=O)[O-])cc5)c5nc(c(-c6ccc(S(=O)(=O)[O-])cc6)c6ccc3[nH]6)C=C5)C=C4)cc2)C1
REMARK SMILES IDX 15 1 14 2 13 3 12 4 10 5 11 6 9 8 8 9 7 10 1 11 2 12 3 13
REMARK SMILES IDX 82 14 4 15 6 16 5 18 16 22 17 23 18 24 19 25 20 26 21 28
REMARK SMILES IDX 22 29 23 30 81 31 24 32 80 33 25 34 26 35 27 36 74 37 28 38
REMARK SMILES IDX 79 39 73 40 75 41 29 42 78 43 72 44 71 45 30 47 60 48 41 49
REMARK SMILES IDX 59 50 42 51 45 52 58 53 76 54 43 55 44 56 57 58 77 59 46 60
REMARK SMILES IDX 31 61 32 62 40 63 33 64 39 65 34 66 35 67 36 68 37 69 38 70
REMARK SMILES IDX 61 71 62 72 70 73 63 74 69 75 64 76 65 77 66 78 67 79 68 80
REMARK SMILES IDX 47 81 48 82 56 83 49 84 55 85 50 86 51 87 52 88 53 89 54 90
REMARK H PARENT 12 7 7 17 5 19 5 20 5 21 19 27 75 46 45 57
REMARK Flexibility Score: inf
ROOT
ATOM      1  C   UNL A   1      34.897  29.498  27.992  1.00  0.00     0.002 C 
ENDROOT
BRANCH   1   2
ATOM      2  C   UNL A   1      34.165  28.726  26.897  1.00  0.00     0.021 C 
BRANCH   2   3
ATOM      3  C   UNL A   1      33.286  29.540  25.939  1.00  0.00     0.116 C 
BRANCH   3   4
ATOM      4  N   UNL A   1      33.739  29.356  24.563  1.00  0.00    -0.356 N 
ATOM      5  C   UNL A   1      33.145  28.771  23.483  1.00  0.00     0.225 C 
ATOM      6  O   UNL A   1      33.844  28.547  22.491  1.00  0.00    -0.275 OA
ATOM      7  H   UNL A   1      34.636  29.719  24.382  1.00  0.00     0.163 HD
BRANCH   5   8
ATOM      8  C   UNL A   1      31.660  28.483  23.462  1.00  0.00     0.161 C 
BRANCH   8   9
ATOM      9  C   UNL A   1      30.920  29.007  22.211  1.00  0.00     0.272 C 
BRANCH   9  10
ATOM     10  N   UNL A   1      30.088  30.232  22.326  1.00  0.00    -0.329 N 
ATOM     11  C   UNL A   1      27.964  32.453  20.696  1.00  0.00     0.014 C 
ATOM     12  C   UNL A   1      27.817  31.219  21.587  1.00  0.00     0.047 C 
ATOM     13  C   UNL A   1      27.577  31.589  23.059  1.00  0.00     0.080 C 
ATOM     14  C   UNL A   1      28.960  30.196  21.390  1.00  0.00     0.265 C 
ATOM     15  C   UNL A   1      28.859  31.801  23.861  1.00  0.00     0.237 C 
ATOM     16  C   UNL A   1      29.730  30.538  23.718  1.00  0.00     0.327 C 
ATOM     17  H   UNL A   1      30.653  31.031  22.037  1.00  0.00     0.348 HD
BRANCH  15  18
ATOM     18  N   UNL A   1      29.567  33.008  23.429  1.00  0.00    -0.350 N 
ATOM     19  H   UNL A   1      29.225  33.293  22.511  1.00  0.00     0.344 HD
ATOM     20  H   UNL A   1      30.568  32.814  23.374  1.00  0.00     0.344 HD
ATOM     21  H   UNL A   1      29.403  33.757  24.101  1.00  0.00     0.344 HD
ENDBRANCH  15  18
ENDBRANCH   9  10
ENDBRANCH   8   9
ENDBRANCH   5   8
ENDBRANCH   3   4
ENDBRANCH   2   3
ENDBRANCH   1   2
BRANCH   1  22
ATOM     22  C   UNL A   1      35.191  30.973  27.700  1.00  0.00     0.002 C 
BRANCH  22  23
ATOM     23  C   UNL A   1      35.016  31.970  28.855  1.00  0.00     0.021 C 
BRANCH  23  24
ATOM     24  C   UNL A   1      36.193  32.130  29.823  1.00  0.00     0.116 C 
BRANCH  24  25
ATOM     25  N   UNL A   1      36.121  31.228  30.959  1.00  0.00    -0.352 N 
ATOM     26  C   UNL A   1      36.952  30.210  31.356  1.00  0.00     0.251 C 
ATOM     27  H   UNL A   1      35.343  31.372  31.545  1.00  0.00     0.163 HD
ATOM     28  O   UNL A   1      36.595  29.478  32.280  1.00  0.00    -0.269 OA
BRANCH  26  29
ATOM     29  C   UNL A   1      38.251  29.951  30.689  1.00  0.00     0.039 A 
ATOM     30  C   UNL A   1      39.381  29.755  31.492  1.00  0.00     0.014 A 
ATOM     31  C   UNL A   1      38.392  29.977  29.299  1.00  0.00     0.014 A 
ATOM     32  C   UNL A   1      40.632  29.525  30.908  1.00  0.00     0.010 A 
ATOM     33  C   UNL A   1      39.636  29.706  28.715  1.00  0.00     0.010 A 
ATOM     34  C   UNL A   1      40.768  29.470  29.513  1.00  0.00    -0.014 A 
BRANCH  34  35
ATOM     35  C   UNL A   1      42.076  29.144  28.877  1.00  0.00     0.031 A 
ATOM     36  C   UNL A   1      42.364  27.753  28.377  1.00  0.00     0.074 A 
ATOM     37  C   UNL A   1      43.035  30.089  28.801  1.00  0.00     0.049 A 
ATOM     38  N   UNL A   1      43.477  27.269  27.884  1.00  0.00    -0.248 NA
ATOM     39  C   UNL A   1      41.265  26.780  28.451  1.00  0.00     0.031 C 
ATOM     40  C   UNL A   1      42.897  31.474  29.252  1.00  0.00     0.029 A 
ATOM     41  N   UNL A   1      44.324  30.021  28.327  1.00  0.00    -0.354 N 
ATOM     42  C   UNL A   1      43.220  25.930  27.607  1.00  0.00     0.074 A 
ATOM     43  C   UNL A   1      41.852  25.675  28.010  1.00  0.00     0.031 C 
ATOM     44  C   UNL A   1      44.050  32.126  29.031  1.00  0.00     0.029 A 
ATOM     45  C   UNL A   1      45.024  31.197  28.462  1.00  0.00     0.049 A 
ATOM     46  H   UNL A   1      44.710  29.207  27.930  1.00  0.00     0.167 HD
ATOM     47  C   UNL A   1      44.042  25.000  27.062  1.00  0.00     0.031 A 
ATOM     48  C   UNL A   1      46.307  31.497  28.181  1.00  0.00     0.031 A 
ATOM     49  C   UNL A   1      45.401  25.250  26.654  1.00  0.00     0.049 A 
ATOM     50  C   UNL A   1      47.210  30.441  27.606  1.00  0.00     0.074 A 
ATOM     51  C   UNL A   1      46.292  24.375  26.054  1.00  0.00     0.029 A 
ATOM     52  N   UNL A   1      46.067  26.455  26.806  1.00  0.00    -0.354 N 
ATOM     53  N   UNL A   1      46.934  29.194  27.314  1.00  0.00    -0.248 NA
ATOM     54  C   UNL A   1      48.597  30.836  27.316  1.00  0.00     0.031 C 
ATOM     55  C   UNL A   1      47.512  25.041  25.883  1.00  0.00     0.029 A 
ATOM     56  C   UNL A   1      47.364  26.344  26.330  1.00  0.00     0.049 A 
ATOM     57  H   UNL A   1      45.677  27.272  27.194  1.00  0.00     0.167 HD
ATOM     58  C   UNL A   1      48.105  28.662  26.784  1.00  0.00     0.074 A 
ATOM     59  C   UNL A   1      49.089  29.723  26.786  1.00  0.00     0.031 C 
ATOM     60  C   UNL A   1      48.337  27.406  26.331  1.00  0.00     0.031 A 
BRANCH  47  61
ATOM     61  C   UNL A   1      43.497  23.607  26.887  1.00  0.00    -0.014 A 
ATOM     62  C   UNL A   1      43.242  22.783  27.997  1.00  0.00     0.010 A 
ATOM     63  C   UNL A   1      43.191  23.136  25.598  1.00  0.00     0.010 A 
ATOM     64  C   UNL A   1      42.731  21.494  27.818  1.00  0.00     0.020 A 
ATOM     65  C   UNL A   1      42.658  21.855  25.415  1.00  0.00     0.020 A 
ATOM     66  C   UNL A   1      42.450  21.035  26.528  1.00  0.00     0.054 A 
BRANCH  66  67
ATOM     67  S   UNL A   1      41.779  19.363  26.321  1.00  0.00     0.124 S 
ATOM     68  O   UNL A   1      42.495  18.898  25.135  1.00  0.00    -0.237 OA
ATOM     69  O   UNL A   1      42.153  18.708  27.574  1.00  0.00    -0.237 OA
ATOM     70  O   UNL A   1      40.349  19.581  26.140  1.00  0.00    -0.744 OA
ENDBRANCH  66  67
ENDBRANCH  47  61
BRANCH  48  71
ATOM     71  C   UNL A   1      46.820  32.868  28.447  1.00  0.00    -0.014 A 
ATOM     72  C   UNL A   1      46.876  33.820  27.415  1.00  0.00     0.010 A 
ATOM     73  C   UNL A   1      47.239  33.231  29.739  1.00  0.00     0.010 A 
ATOM     74  C   UNL A   1      47.354  35.110  27.669  1.00  0.00     0.020 A 
ATOM     75  C   UNL A   1      47.694  34.527  30.002  1.00  0.00     0.020 A 
ATOM     76  C   UNL A   1      47.758  35.456  28.962  1.00  0.00     0.054 A 
BRANCH  76  77
ATOM     77  S   UNL A   1      48.315  37.152  29.283  1.00  0.00     0.124 S 
ATOM     78  O   UNL A   1      47.144  37.739  29.928  1.00  0.00    -0.237 OA
ATOM     79  O   UNL A   1      49.477  36.948  30.144  1.00  0.00    -0.237 OA
ATOM     80  O   UNL A   1      48.621  37.667  27.950  1.00  0.00    -0.744 OA
ENDBRANCH  76  77
ENDBRANCH  48  71
BRANCH  60  81
ATOM     81  C   UNL A   1      49.699  27.109  25.762  1.00  0.00    -0.014 A 
ATOM     82  C   UNL A   1      49.976  27.299  24.397  1.00  0.00     0.010 A 
ATOM     83  C   UNL A   1      50.736  26.703  26.623  1.00  0.00     0.010 A 
ATOM     84  C   UNL A   1      51.263  27.072  23.899  1.00  0.00     0.020 A 
ATOM     85  C   UNL A   1      52.028  26.495  26.132  1.00  0.00     0.020 A 
ATOM     86  C   UNL A   1      52.281  26.672  24.771  1.00  0.00     0.054 A 
BRANCH  86  87
ATOM     87  S   UNL A   1      53.958  26.445  24.114  1.00  0.00     0.124 S 
ATOM     88  O   UNL A   1      54.612  27.688  24.513  1.00  0.00    -0.237 OA
ATOM     89  O   UNL A   1      54.416  25.243  24.807  1.00  0.00    -0.237 OA
ATOM     90  O   UNL A   1      53.747  26.284  22.677  1.00  0.00    -0.744 OA
ENDBRANCH  86  87
ENDBRANCH  60  81
ENDBRANCH  34  35
ENDBRANCH  26  29
ENDBRANCH  24  25
ENDBRANCH  23  24
ENDBRANCH  22  23
ENDBRANCH   1  22
TORSDOF 19
ENDMDL
MODEL 2
REMARK VINA RESULT:     -10.0      5.458      7.136
REMARK SMILES C[C@@H]1C[C@H]([NH3+])C[N@@H+](CCC(=O)NCCCCCCNC(=O)c2ccc(-c3c4nc(c(-c5ccc(S(=O)(=O)[O-])cc5)c5ccc([nH]5)c(-c5ccc(S(=O)(=O)[O-])cc5)c5nc(c(-c6ccc(S(=O)(=O)[O-])cc6)c6ccc3[nH]6)C=C5)C=C4)cc2)C1
REMARK SMILES IDX 15 1 14 2 13 3 12 4 10 5 11 6 9 8 8 9 7 10 1 11 2 12 3 13
REMARK SMILES IDX 82 14 4 15 6 16 5 18 16 22 17 23 18 24 19 25 20 26 21 28
REMARK SMILES IDX 22 29 23 30 81 31 24 32 80 33 25 34 26 35 27 36 74 37 28 38
REMARK SMILES IDX 79 39 73 40 75 41 29 42 78 43 72 44 71 45 30 47 60 48 41 49
REMARK SMILES IDX 59 50 42 51 45 52 58 53 76 54 43 55 44 56 57 58 77 59 46 60
REMARK SMILES IDX 31 61 32 62 40 63 33 64 39 65 34 66 35 67 36 68 37 69 38 70
REMARK SMILES IDX 61 71 62 72 70 73 63 74 69 75 64 76 65 77 66 78 67 79 68 80
REMARK SMILES IDX 47 81 48 82 56 83 49 84 55 85 50 86 51 87 52 88 53 89 54 90
REMARK H PARENT 12 7 7 17 5 19 5 20 5 21 19 27 75 46 45 57
REMARK Flexibility Score: inf
ROOT
ATOM      1  C   UNL A   1      34.344  26.045  25.153  1.00  0.00     0.002 C 
ENDROOT
BRANCH   1   2
ATOM      2  C   UNL A   1      34.900  24.629  25.282  1.00  0.00     0.021 C 
BRANCH   2   3
ATOM      3  C   UNL A   1      33.971  23.476  24.881  1.00  0.00     0.116 C 
BRANCH   3   4
ATOM      4  N   UNL A   1      34.033  23.260  23.438  1.00  0.00    -0.356 N 
ATOM      5  C   UNL A   1      33.187  23.618  22.430  1.00  0.00     0.225 C 
ATOM      6  O   UNL A   1      33.364  23.109  21.319  1.00  0.00    -0.275 OA
ATOM      7  H   UNL A   1      34.831  22.766  23.138  1.00  0.00     0.163 HD
BRANCH   5   8
ATOM      8  C   UNL A   1      32.117  24.668  22.635  1.00  0.00     0.161 C 
BRANCH   8   9
ATOM      9  C   UNL A   1      32.207  25.876  21.677  1.00  0.00     0.272 C 
BRANCH   9  10
ATOM     10  N   UNL A   1      31.466  27.119  22.010  1.00  0.00    -0.329 N 
ATOM     11  C   UNL A   1      28.393  28.525  22.837  1.00  0.00     0.014 C 
ATOM     12  C   UNL A   1      29.629  28.025  23.586  1.00  0.00     0.047 C 
ATOM     13  C   UNL A   1      30.594  29.166  23.942  1.00  0.00     0.080 C 
ATOM     14  C   UNL A   1      30.320  26.835  22.880  1.00  0.00     0.265 C 
ATOM     15  C   UNL A   1      31.604  29.489  22.844  1.00  0.00     0.237 C 
ATOM     16  C   UNL A   1      32.353  28.191  22.483  1.00  0.00     0.327 C 
ATOM     17  H   UNL A   1      31.065  27.493  21.150  1.00  0.00     0.348 HD
BRANCH  15  18
ATOM     18  N   UNL A   1      30.954  30.089  21.677  1.00  0.00    -0.350 N 
ATOM     19  H   UNL A   1      31.628  30.169  20.916  1.00  0.00     0.344 HD
ATOM     20  H   UNL A   1      30.605  31.016  21.921  1.00  0.00     0.344 HD
ATOM     21  H   UNL A   1      30.175  29.500  21.382  1.00  0.00     0.344 HD
ENDBRANCH  15  18
ENDBRANCH   9  10
ENDBRANCH   8   9
ENDBRANCH   5   8
ENDBRANCH   3   4
ENDBRANCH   2   3
ENDBRANCH   1   2
BRANCH   1  22
ATOM     22  C   UNL A   1      33.053  26.338  25.924  1.00  0.00     0.002 C 
BRANCH  22  23
ATOM     23  C   UNL A   1      32.747  27.807  26.256  1.00  0.00     0.021 C 
BRANCH  23  24
ATOM     24  C   UNL A   1      33.897  28.808  26.112  1.00  0.00     0.116 C 
BRANCH  24  25
ATOM     25  N   UNL A   1      33.544  30.146  26.553  1.00  0.00    -0.352 N 
ATOM     26  C   UNL A   1      34.116  30.966  27.492  1.00  0.00     0.251 C 
ATOM     27  H   UNL A   1      32.759  30.531  26.099  1.00  0.00     0.163 HD
ATOM     28  O   UNL A   1      33.538  32.009  27.803  1.00  0.00    -0.269 OA
BRANCH  26  29
ATOM     29  C   UNL A   1      35.394  30.622  28.162  1.00  0.00     0.039 A 
ATOM     30  C   UNL A   1      36.549  31.320  27.787  1.00  0.00     0.014 A 
ATOM     31  C   UNL A   1      35.492  29.579  29.087  1.00  0.00     0.014 A 
ATOM     32  C   UNL A   1      37.781  31.017  28.377  1.00  0.00     0.010 A 
ATOM     33  C   UNL A   1      36.718  29.305  29.707  1.00  0.00     0.010 A 
ATOM     34  C   UNL A   1      37.874  30.026  29.365  1.00  0.00    -0.014 A 
BRANCH  34  35
ATOM     35  C   UNL A   1      39.161  29.749  30.063  1.00  0.00     0.031 A 
ATOM     36  C   UNL A   1      40.077  28.653  29.585  1.00  0.00     0.074 A 
ATOM     37  C   UNL A   1      39.484  30.448  31.170  1.00  0.00     0.049 A 
ATOM     38  N   UNL A   1      41.187  28.214  30.124  1.00  0.00    -0.248 NA
ATOM     39  C   UNL A   1      39.690  27.956  28.350  1.00  0.00     0.031 C 
ATOM     40  C   UNL A   1      38.688  31.531  31.749  1.00  0.00     0.029 A 
ATOM     41  N   UNL A   1      40.563  30.340  32.015  1.00  0.00    -0.354 N 
ATOM     42  C   UNL A   1      41.622  27.175  29.307  1.00  0.00     0.074 A 
ATOM     43  C   UNL A   1      40.641  27.037  28.250  1.00  0.00     0.031 C 
ATOM     44  C   UNL A   1      39.305  31.990  32.850  1.00  0.00     0.029 A 
ATOM     45  C   UNL A   1      40.519  31.209  33.080  1.00  0.00     0.049 A 
ATOM     46  H   UNL A   1      41.298  29.701  31.872  1.00  0.00     0.167 HD
ATOM     47  C   UNL A   1      42.736  26.411  29.421  1.00  0.00     0.031 A 
ATOM     48  C   UNL A   1      41.344  31.353  34.135  1.00  0.00     0.031 A 
ATOM     49  C   UNL A   1      43.717  26.549  30.467  1.00  0.00     0.049 A 
ATOM     50  C   UNL A   1      42.557  30.474  34.258  1.00  0.00     0.074 A 
ATOM     51  C   UNL A   1      44.898  25.843  30.635  1.00  0.00     0.029 A 
ATOM     52  N   UNL A   1      43.633  27.442  31.522  1.00  0.00    -0.354 N 
ATOM     53  N   UNL A   1      42.971  29.526  33.452  1.00  0.00    -0.248 NA
ATOM     54  C   UNL A   1      43.420  30.687  35.430  1.00  0.00     0.031 C 
ATOM     55  C   UNL A   1      45.506  26.282  31.817  1.00  0.00     0.029 A 
ATOM     56  C   UNL A   1      44.730  27.295  32.356  1.00  0.00     0.049 A 
ATOM     57  H   UNL A   1      42.903  28.088  31.659  1.00  0.00     0.167 HD
ATOM     58  C   UNL A   1      44.154  29.048  34.006  1.00  0.00     0.074 A 
ATOM     59  C   UNL A   1      44.395  29.815  35.210  1.00  0.00     0.031 C 
ATOM     60  C   UNL A   1      44.967  28.065  33.550  1.00  0.00     0.031 A 
BRANCH  47  61
ATOM     61  C   UNL A   1      42.950  25.337  28.387  1.00  0.00    -0.014 A 
ATOM     62  C   UNL A   1      43.579  25.623  27.162  1.00  0.00     0.010 A 
ATOM     63  C   UNL A   1      42.559  24.014  28.665  1.00  0.00     0.010 A 
ATOM     64  C   UNL A   1      43.774  24.613  26.215  1.00  0.00     0.020 A 
ATOM     65  C   UNL A   1      42.774  22.997  27.730  1.00  0.00     0.020 A 
ATOM     66  C   UNL A   1      43.363  23.308  26.502  1.00  0.00     0.054 A 
BRANCH  66  67
ATOM     67  S   UNL A   1      43.636  22.013  25.261  1.00  0.00     0.124 S 
ATOM     68  O   UNL A   1      42.572  21.063  25.582  1.00  0.00    -0.237 OA
ATOM     69  O   UNL A   1      43.470  22.735  24.000  1.00  0.00    -0.237 OA
ATOM     70  O   UNL A   1      44.990  21.548  25.535  1.00  0.00    -0.744 OA
ENDBRANCH  66  67
ENDBRANCH  47  61
BRANCH  48  71
ATOM     71  C   UNL A   1      41.044  32.377  35.172  1.00  0.00    -0.014 A 
ATOM     72  C   UNL A   1      41.500  33.698  35.021  1.00  0.00     0.010 A 
ATOM     73  C   UNL A   1      40.286  32.038  36.307  1.00  0.00     0.010 A 
ATOM     74  C   UNL A   1      41.213  34.660  35.994  1.00  0.00     0.020 A 
ATOM     75  C   UNL A   1      39.977  33.004  37.270  1.00  0.00     0.020 A 
ATOM     76  C   UNL A   1      40.451  34.307  37.112  1.00  0.00     0.054 A 
BRANCH  76  77
ATOM     77  S   UNL A   1      40.036  35.585  38.331  1.00  0.00     0.124 S 
ATOM     78  O   UNL A   1      39.823  36.755  37.483  1.00  0.00    -0.237 OA
ATOM     79  O   UNL A   1      38.841  35.040  38.970  1.00  0.00    -0.237 OA
ATOM     80  O   UNL A   1      41.221  35.637  39.185  1.00  0.00    -0.744 OA
ENDBRANCH  76  77
ENDBRANCH  48  71
BRANCH  60  81
ATOM     81  C   UNL A   1      46.221  27.778  34.332  1.00  0.00    -0.014 A 
ATOM     82  C   UNL A   1      46.254  26.774  35.314  1.00  0.00     0.010 A 
ATOM     83  C   UNL A   1      47.404  28.477  34.025  1.00  0.00     0.010 A 
ATOM     84  C   UNL A   1      47.444  26.484  35.990  1.00  0.00     0.020 A 
ATOM     85  C   UNL A   1      48.599  28.176  34.683  1.00  0.00     0.020 A 
ATOM     86  C   UNL A   1      48.610  27.188  35.669  1.00  0.00     0.054 A 
BRANCH  86  87
ATOM     87  S   UNL A   1      50.157  26.751  36.512  1.00  0.00     0.124 S 
ATOM     88  O   UNL A   1      50.788  28.057  36.685  1.00  0.00    -0.237 OA
ATOM     89  O   UNL A   1      49.686  26.114  37.740  1.00  0.00    -0.237 OA
ATOM     90  O   UNL A   1      50.824  25.856  35.570  1.00  0.00    -0.744 OA
ENDBRANCH  86  87
ENDBRANCH  60  81
ENDBRANCH  34  35
ENDBRANCH  26  29
ENDBRANCH  24  25
ENDBRANCH  23  24
ENDBRANCH  22  23
ENDBRANCH   1  22
TORSDOF 19
ENDMDL
MODEL 3
REMARK VINA RESULT:      -9.8      6.755     13.484
REMARK SMILES C[C@@H]1C[C@H]([NH3+])C[N@@H+](CCC(=O)NCCCCCCNC(=O)c2ccc(-c3c4nc(c(-c5ccc(S(=O)(=O)[O-])cc5)c5ccc([nH]5)c(-c5ccc(S(=O)(=O)[O-])cc5)c5nc(c(-c6ccc(S(=O)(=O)[O-])cc6)c6ccc3[nH]6)C=C5)C=C4)cc2)C1
REMARK SMILES IDX 15 1 14 2 13 3 12 4 10 5 11 6 9 8 8 9 7 10 1 11 2 12 3 13
REMARK SMILES IDX 82 14 4 15 6 16 5 18 16 22 17 23 18 24 19 25 20 26 21 28
REMARK SMILES IDX 22 29 23 30 81 31 24 32 80 33 25 34 26 35 27 36 74 37 28 38
REMARK SMILES IDX 79 39 73 40 75 41 29 42 78 43 72 44 71 45 30 47 60 48 41 49
REMARK SMILES IDX 59 50 42 51 45 52 58 53 76 54 43 55 44 56 57 58 77 59 46 60
REMARK SMILES IDX 31 61 32 62 40 63 33 64 39 65 34 66 35 67 36 68 37 69 38 70
REMARK SMILES IDX 61 71 62 72 70 73 63 74 69 75 64 76 65 77 66 78 67 79 68 80
REMARK SMILES IDX 47 81 48 82 56 83 49 84 55 85 50 86 51 87 52 88 53 89 54 90
REMARK H PARENT 12 7 7 17 5 19 5 20 5 21 19 27 75 46 45 57
REMARK Flexibility Score: inf
ROOT
ATOM      1  C   UNL A   1      40.447  26.777  27.511  1.00  0.00     0.002 C 
ENDROOT
BRANCH   1   2
ATOM      2  C   UNL A   1      39.486  25.616  27.269  1.00  0.00     0.021 C 
BRANCH   2   3
ATOM      3  C   UNL A   1      39.803  24.291  27.975  1.00  0.00     0.116 C 
BRANCH   3   4
ATOM      4  N   UNL A   1      39.282  23.170  27.197  1.00  0.00    -0.356 N 
ATOM      5  C   UNL A   1      39.907  22.128  26.578  1.00  0.00     0.225 C 
ATOM      6  O   UNL A   1      39.245  21.443  25.793  1.00  0.00    -0.275 OA
ATOM      7  H   UNL A   1      38.302  23.167  27.102  1.00  0.00     0.163 HD
BRANCH   5   8
ATOM      8  C   UNL A   1      41.339  21.763  26.902  1.00  0.00     0.161 C 
BRANCH   8   9
ATOM      9  C   UNL A   1      41.857  20.494  26.190  1.00  0.00     0.272 C 
BRANCH   9  10
ATOM     10  N   UNL A   1      43.078  20.585  25.351  1.00  0.00    -0.329 N 
ATOM     11  C   UNL A   1      45.556  22.657  24.058  1.00  0.00     0.014 C 
ATOM     12  C   UNL A   1      45.397  21.723  25.258  1.00  0.00     0.047 C 
ATOM     13  C   UNL A   1      45.992  20.331  24.996  1.00  0.00     0.080 C 
ATOM     14  C   UNL A   1      43.948  21.678  25.797  1.00  0.00     0.265 C 
ATOM     15  C   UNL A   1      45.023  19.358  24.330  1.00  0.00     0.237 C 
ATOM     16  C   UNL A   1      43.747  19.286  25.192  1.00  0.00     0.327 C 
ATOM     17  H   UNL A   1      42.797  20.834  24.402  1.00  0.00     0.348 HD
BRANCH  15  18
ATOM     18  N   UNL A   1      44.732  19.751  22.950  1.00  0.00    -0.350 N 
ATOM     19  H   UNL A   1      45.264  20.589  22.717  1.00  0.00     0.344 HD
ATOM     20  H   UNL A   1      43.734  19.943  22.854  1.00  0.00     0.344 HD
ATOM     21  H   UNL A   1      44.995  18.995  22.319  1.00  0.00     0.344 HD
ENDBRANCH  15  18
ENDBRANCH   9  10
ENDBRANCH   8   9
ENDBRANCH   5   8
ENDBRANCH   3   4
ENDBRANCH   2   3
ENDBRANCH   1   2
BRANCH   1  22
ATOM     22  C   UNL A   1      40.849  27.592  26.278  1.00  0.00     0.002 C 
BRANCH  22  23
ATOM     23  C   UNL A   1      42.026  27.069  25.440  1.00  0.00     0.021 C 
BRANCH  23  24
ATOM     24  C   UNL A   1      42.310  25.565  25.498  1.00  0.00     0.116 C 
BRANCH  24  25
ATOM     25  N   UNL A   1      43.716  25.260  25.697  1.00  0.00    -0.352 N 
ATOM     26  C   UNL A   1      44.591  25.644  26.682  1.00  0.00     0.251 C 
ATOM     27  H   UNL A   1      44.108  24.677  25.007  1.00  0.00     0.163 HD
ATOM     28  O   UNL A   1      45.787  25.380  26.551  1.00  0.00    -0.269 OA
BRANCH  26  29
ATOM     29  C   UNL A   1      44.144  26.389  27.884  1.00  0.00     0.039 A 
ATOM     30  C   UNL A   1      44.441  27.754  27.968  1.00  0.00     0.014 A 
ATOM     31  C   UNL A   1      43.513  25.756  28.959  1.00  0.00     0.014 A 
ATOM     32  C   UNL A   1      44.057  28.495  29.091  1.00  0.00     0.010 A 
ATOM     33  C   UNL A   1      43.091  26.507  30.065  1.00  0.00     0.010 A 
ATOM     34  C   UNL A   1      43.352  27.885  30.140  1.00  0.00    -0.014 A 
BRANCH  34  35
ATOM     35  C   UNL A   1      42.863  28.676  31.304  1.00  0.00     0.031 A 
ATOM     36  C   UNL A   1      41.603  29.495  31.204  1.00  0.00     0.074 A 
ATOM     37  C   UNL A   1      43.585  28.708  32.442  1.00  0.00     0.049 A 
ATOM     38  N   UNL A   1      41.080  30.314  32.082  1.00  0.00    -0.248 NA
ATOM     39  C   UNL A   1      40.838  29.387  29.953  1.00  0.00     0.031 C 
ATOM     40  C   UNL A   1      44.828  27.970  32.675  1.00  0.00     0.029 A 
ATOM     41  N   UNL A   1      43.385  29.399  33.612  1.00  0.00    -0.354 N 
ATOM     42  C   UNL A   1      39.938  30.836  31.485  1.00  0.00     0.074 A 
ATOM     43  C   UNL A   1      39.858  30.256  30.159  1.00  0.00     0.031 C 
ATOM     44  C   UNL A   1      45.277  28.245  33.911  1.00  0.00     0.029 A 
ATOM     45  C   UNL A   1      44.379  29.209  34.543  1.00  0.00     0.049 A 
ATOM     46  H   UNL A   1      42.604  29.978  33.769  1.00  0.00     0.167 HD
ATOM     47  C   UNL A   1      39.035  31.710  31.992  1.00  0.00     0.031 A 
ATOM     48  C   UNL A   1      44.565  29.759  35.759  1.00  0.00     0.031 A 
ATOM     49  C   UNL A   1      39.106  32.285  33.311  1.00  0.00     0.049 A 
ATOM     50  C   UNL A   1      43.567  30.750  36.289  1.00  0.00     0.074 A 
ATOM     51  C   UNL A   1      38.211  33.148  33.922  1.00  0.00     0.029 A 
ATOM     52  N   UNL A   1      40.128  32.062  34.220  1.00  0.00    -0.354 N 
ATOM     53  N   UNL A   1      42.473  31.198  35.724  1.00  0.00    -0.248 NA
ATOM     54  C   UNL A   1      43.826  31.307  37.626  1.00  0.00     0.031 C 
ATOM     55  C   UNL A   1      38.714  33.481  35.185  1.00  0.00     0.029 A 
ATOM     56  C   UNL A   1      39.897  32.786  35.379  1.00  0.00     0.049 A 
ATOM     57  H   UNL A   1      40.904  31.476  34.066  1.00  0.00     0.167 HD
ATOM     58  C   UNL A   1      41.900  32.068  36.645  1.00  0.00     0.074 A 
ATOM     59  C   UNL A   1      42.763  32.079  37.807  1.00  0.00     0.031 C 
ATOM     60  C   UNL A   1      40.757  32.788  36.535  1.00  0.00     0.031 A 
BRANCH  47  61
ATOM     61  C   UNL A   1      37.887  32.117  31.105  1.00  0.00    -0.014 A 
ATOM     62  C   UNL A   1      38.045  33.110  30.123  1.00  0.00     0.010 A 
ATOM     63  C   UNL A   1      36.647  31.463  31.226  1.00  0.00     0.010 A 
ATOM     64  C   UNL A   1      36.971  33.473  29.305  1.00  0.00     0.020 A 
ATOM     65  C   UNL A   1      35.577  31.807  30.394  1.00  0.00     0.020 A 
ATOM     66  C   UNL A   1      35.742  32.825  29.451  1.00  0.00     0.054 A 
BRANCH  66  67
ATOM     67  S   UNL A   1      34.366  33.306  28.372  1.00  0.00     0.124 S 
ATOM     68  O   UNL A   1      33.440  33.919  29.323  1.00  0.00    -0.237 OA
ATOM     69  O   UNL A   1      35.000  34.231  27.433  1.00  0.00    -0.237 OA
ATOM     70  O   UNL A   1      33.919  32.044  27.793  1.00  0.00    -0.744 OA
ENDBRANCH  66  67
ENDBRANCH  47  61
BRANCH  48  71
ATOM     71  C   UNL A   1      45.759  29.383  36.564  1.00  0.00    -0.014 A 
ATOM     72  C   UNL A   1      45.697  28.315  37.475  1.00  0.00     0.010 A 
ATOM     73  C   UNL A   1      46.969  30.083  36.409  1.00  0.00     0.010 A 
ATOM     74  C   UNL A   1      46.822  27.961  38.226  1.00  0.00     0.020 A 
ATOM     75  C   UNL A   1      48.102  29.716  37.141  1.00  0.00     0.020 A 
ATOM     76  C   UNL A   1      48.019  28.663  38.052  1.00  0.00     0.054 A 
BRANCH  76  77
ATOM     77  S   UNL A   1      49.483  28.146  38.990  1.00  0.00     0.124 S 
ATOM     78  O   UNL A   1      50.181  27.304  38.024  1.00  0.00    -0.237 OA
ATOM     79  O   UNL A   1      50.127  29.420  39.303  1.00  0.00    -0.237 OA
ATOM     80  O   UNL A   1      48.918  27.445  40.142  1.00  0.00    -0.744 OA
ENDBRANCH  76  77
ENDBRANCH  48  71
BRANCH  60  81
ATOM     81  C   UNL A   1      40.343  33.626  37.715  1.00  0.00    -0.014 A 
ATOM     82  C   UNL A   1      40.764  34.960  37.845  1.00  0.00     0.010 A 
ATOM     83  C   UNL A   1      39.460  33.089  38.670  1.00  0.00     0.010 A 
ATOM     84  C   UNL A   1      40.322  35.739  38.919  1.00  0.00     0.020 A 
ATOM     85  C   UNL A   1      39.000  33.871  39.733  1.00  0.00     0.020 A 
ATOM     86  C   UNL A   1      39.442  35.189  39.857  1.00  0.00     0.054 A 
BRANCH  86  87
ATOM     87  S   UNL A   1      38.832  36.238  41.207  1.00  0.00     0.124 S 
ATOM     88  O   UNL A   1      39.996  36.308  42.087  1.00  0.00    -0.237 OA
ATOM     89  O   UNL A   1      38.488  37.480  40.520  1.00  0.00    -0.237 OA
ATOM     90  O   UNL A   1      37.693  35.491  41.736  1.00  0.00    -0.744 OA
ENDBRANCH  86  87
ENDBRANCH  60  81
ENDBRANCH  34  35
ENDBRANCH  26  29
ENDBRANCH  24  25
ENDBRANCH  23  24
ENDBRANCH  22  23
ENDBRANCH   1  22
TORSDOF 19
ENDMDL
