MODEL 1
REMARK VINA RESULT:     -11.4      0.000      0.000
REMARK SMILES COc1ccc(Nc2c(C(=O)NCCCCCCNC(=O)c3ccc(-c4c5nc(c(-c6ccc(S(=O)(=O)[O-])cc6)c6ccc([nH]6)c(-c6ccc(S(=O)(=O)[O-])cc6)c6nc(c(-c7ccc(S(=O)(=O)[O-])cc7)c7ccc4[nH]7)C=C6)C=C5)cc3)[nH]c(=O)[nH]c2=O)cc1
REMARK SMILES IDX 15 1 14 2 13 3 12 4 10 5 11 6 9 8 8 9 86 10 82 11 85 12
REMARK SMILES IDX 87 13 83 14 84 17 7 18 6 20 3 21 4 22 89 23 5 24 88 25 2 26
REMARK SMILES IDX 1 27 16 28 17 29 18 30 19 31 20 32 21 34 22 35 23 36 81 37
REMARK SMILES IDX 24 38 80 39 25 40 26 41 27 42 74 43 28 44 79 45 73 46 75 47
REMARK SMILES IDX 29 48 78 49 72 50 71 51 30 53 60 54 41 55 59 56 42 57 45 58
REMARK SMILES IDX 58 59 76 60 43 61 44 62 57 64 77 65 46 66 31 67 32 68 40 69
REMARK SMILES IDX 33 70 39 71 34 72 35 73 36 74 37 75 38 76 61 77 62 78 70 79
REMARK SMILES IDX 63 80 69 81 64 82 65 83 66 84 67 85 68 86 47 87 48 88 56 89
REMARK SMILES IDX 49 90 55 91 50 92 51 93 52 94 53 95 54 96
REMARK H PARENT 12 7 82 15 85 16 7 19 19 33 75 52 45 63
REMARK Flexibility Score: inf
ROOT
ATOM      1  C   UNL A   1      34.015  25.621  24.712  1.00  0.00     0.002 C 
ENDROOT
BRANCH   1   2
ATOM      2  C   UNL A   1      33.891  25.039  23.304  1.00  0.00     0.021 C 
BRANCH   2   3
ATOM      3  C   UNL A   1      32.492  24.765  22.769  1.00  0.00     0.116 C 
BRANCH   3   4
ATOM      4  N   UNL A   1      32.228  23.415  22.358  1.00  0.00    -0.351 N 
ATOM      5  C   UNL A   1      32.108  22.293  23.110  1.00  0.00     0.270 C 
ATOM      6  O   UNL A   1      31.918  21.234  22.494  1.00  0.00    -0.268 OA
ATOM      7  H   UNL A   1      32.117  23.286  21.388  1.00  0.00     0.163 HD
BRANCH   5   8
ATOM      8  C   UNL A   1      32.303  22.186  24.614  1.00  0.00     0.137 A 
ATOM      9  C   UNL A   1      33.218  21.486  25.325  1.00  0.00     0.134 A 
ATOM     10  C   UNL A   1      33.283  21.802  26.810  1.00  0.00     0.278 A 
ATOM     11  N   UNL A   1      31.447  23.059  25.269  1.00  0.00    -0.301 N 
ATOM     12  N   UNL A   1      32.302  22.582  27.340  1.00  0.00    -0.272 N 
ATOM     13  O   UNL A   1      34.208  21.395  27.509  1.00  0.00    -0.267 OA
ATOM     14  C   UNL A   1      31.396  23.270  26.606  1.00  0.00     0.326 A 
ATOM     15  H   UNL A   1      30.819  23.573  24.712  1.00  0.00     0.172 HD
ATOM     16  H   UNL A   1      32.250  22.652  28.321  1.00  0.00     0.175 HD
ATOM     17  O   UNL A   1      30.602  24.054  27.119  1.00  0.00    -0.248 OA
BRANCH   9  18
ATOM     18  N   UNL A   1      34.190  20.588  24.904  1.00  0.00    -0.349 N 
ATOM     19  H   UNL A   1      35.087  20.940  24.704  1.00  0.00     0.167 HD
BRANCH  18  20
ATOM     20  C   UNL A   1      33.972  19.189  24.740  1.00  0.00     0.039 A 
ATOM     21  C   UNL A   1      33.492  16.403  24.799  1.00  0.00     0.119 A 
ATOM     22  C   UNL A   1      34.766  16.901  24.526  1.00  0.00     0.048 A 
ATOM     23  C   UNL A   1      32.449  17.299  25.022  1.00  0.00     0.048 A 
ATOM     24  C   UNL A   1      35.008  18.277  24.503  1.00  0.00     0.030 A 
ATOM     25  C   UNL A   1      32.689  18.680  24.987  1.00  0.00     0.030 A 
BRANCH  21  26
ATOM     26  O   UNL A   1      33.412  15.040  24.833  1.00  0.00    -0.497 OA
ATOM     27  C   UNL A   1      32.394  14.471  25.647  1.00  0.00     0.278 C 
ENDBRANCH  21  26
ENDBRANCH  18  20
ENDBRANCH   9  18
ENDBRANCH   5   8
ENDBRANCH   3   4
ENDBRANCH   2   3
ENDBRANCH   1   2
BRANCH   1  28
ATOM     28  C   UNL A   1      32.930  26.578  25.210  1.00  0.00     0.002 C 
BRANCH  28  29
ATOM     29  C   UNL A   1      33.338  27.980  25.674  1.00  0.00     0.021 C 
BRANCH  29  30
ATOM     30  C   UNL A   1      33.311  28.275  27.169  1.00  0.00     0.116 C 
BRANCH  30  31
ATOM     31  N   UNL A   1      33.254  29.690  27.475  1.00  0.00    -0.352 N 
ATOM     32  C   UNL A   1      34.214  30.545  27.956  1.00  0.00     0.251 C 
ATOM     33  H   UNL A   1      32.378  30.110  27.309  1.00  0.00     0.163 HD
ATOM     34  O   UNL A   1      33.887  31.703  28.216  1.00  0.00    -0.269 OA
BRANCH  32  35
ATOM     35  C   UNL A   1      35.618  30.115  28.195  1.00  0.00     0.039 A 
ATOM     36  C   UNL A   1      35.960  29.688  29.485  1.00  0.00     0.014 A 
ATOM     37  C   UNL A   1      36.618  30.200  27.222  1.00  0.00     0.014 A 
ATOM     38  C   UNL A   1      37.278  29.324  29.789  1.00  0.00     0.010 A 
ATOM     39  C   UNL A   1      37.923  29.780  27.509  1.00  0.00     0.010 A 
ATOM     40  C   UNL A   1      38.272  29.357  28.802  1.00  0.00    -0.014 A 
BRANCH  40  41
ATOM     41  C   UNL A   1      39.681  29.002  29.128  1.00  0.00     0.031 A 
ATOM     42  C   UNL A   1      40.575  30.002  29.821  1.00  0.00     0.074 A 
ATOM     43  C   UNL A   1      40.174  27.793  28.792  1.00  0.00     0.049 A 
ATOM     44  N   UNL A   1      41.832  29.884  30.165  1.00  0.00    -0.248 NA
ATOM     45  C   UNL A   1      39.984  31.309  30.150  1.00  0.00     0.031 C 
ATOM     46  C   UNL A   1      39.436  26.741  28.089  1.00  0.00     0.029 A 
ATOM     47  N   UNL A   1      41.417  27.246  28.994  1.00  0.00    -0.354 N 
ATOM     48  C   UNL A   1      42.190  31.105  30.727  1.00  0.00     0.074 A 
ATOM     49  C   UNL A   1      41.025  31.961  30.648  1.00  0.00     0.031 C 
ATOM     50  C   UNL A   1      40.236  25.672  27.935  1.00  0.00     0.029 A 
ATOM     51  C   UNL A   1      41.546  25.966  28.508  1.00  0.00     0.049 A 
ATOM     52  H   UNL A   1      42.149  27.726  29.446  1.00  0.00     0.167 HD
ATOM     53  C   UNL A   1      43.372  31.480  31.275  1.00  0.00     0.031 A 
ATOM     54  C   UNL A   1      42.595  25.121  28.525  1.00  0.00     0.031 A 
ATOM     55  C   UNL A   1      44.522  30.625  31.395  1.00  0.00     0.049 A 
ATOM     56  C   UNL A   1      43.880  25.542  29.186  1.00  0.00     0.074 A 
ATOM     57  C   UNL A   1      45.745  30.905  31.980  1.00  0.00     0.029 A 
ATOM     58  N   UNL A   1      44.589  29.319  30.938  1.00  0.00    -0.354 N 
ATOM     59  N   UNL A   1      44.177  26.686  29.753  1.00  0.00    -0.248 NA
ATOM     60  C   UNL A   1      44.961  24.547  29.232  1.00  0.00     0.031 C 
ATOM     61  C   UNL A   1      46.561  29.775  31.857  1.00  0.00     0.029 A 
ATOM     62  C   UNL A   1      45.831  28.781  31.227  1.00  0.00     0.049 A 
ATOM     63  H   UNL A   1      43.860  28.844  30.476  1.00  0.00     0.167 HD
ATOM     64  C   UNL A   1      45.468  26.536  30.249  1.00  0.00     0.074 A 
ATOM     65  C   UNL A   1      45.890  25.191  29.925  1.00  0.00     0.031 C 
ATOM     66  C   UNL A   1      46.233  27.434  30.916  1.00  0.00     0.031 A 
BRANCH  53  67
ATOM     67  C   UNL A   1      43.482  32.887  31.795  1.00  0.00    -0.014 A 
ATOM     68  C   UNL A   1      43.332  33.165  33.166  1.00  0.00     0.010 A 
ATOM     69  C   UNL A   1      43.793  33.936  30.912  1.00  0.00     0.010 A 
ATOM     70  C   UNL A   1      43.459  34.474  33.638  1.00  0.00     0.020 A 
ATOM     71  C   UNL A   1      43.943  35.243  31.384  1.00  0.00     0.020 A 
ATOM     72  C   UNL A   1      43.760  35.506  32.743  1.00  0.00     0.054 A 
BRANCH  72  73
ATOM     73  S   UNL A   1      43.951  37.191  33.386  1.00  0.00     0.124 S 
ATOM     74  O   UNL A   1      44.066  37.969  32.154  1.00  0.00    -0.237 OA
ATOM     75  O   UNL A   1      42.718  37.392  34.143  1.00  0.00    -0.237 OA
ATOM     76  O   UNL A   1      45.167  37.116  34.191  1.00  0.00    -0.744 OA
ENDBRANCH  72  73
ENDBRANCH  53  67
BRANCH  54  77
ATOM     77  C   UNL A   1      42.478  23.771  27.912  1.00  0.00    -0.014 A 
ATOM     78  C   UNL A   1      41.999  22.685  28.666  1.00  0.00     0.010 A 
ATOM     79  C   UNL A   1      42.863  23.563  26.577  1.00  0.00     0.010 A 
ATOM     80  C   UNL A   1      41.936  21.407  28.105  1.00  0.00     0.020 A 
ATOM     81  C   UNL A   1      42.781  22.290  26.005  1.00  0.00     0.020 A 
ATOM     82  C   UNL A   1      42.333  21.216  26.779  1.00  0.00     0.054 A 
BRANCH  82  83
ATOM     83  S   UNL A   1      42.216  19.557  26.052  1.00  0.00     0.124 S 
ATOM     84  O   UNL A   1      43.124  19.664  24.914  1.00  0.00    -0.237 OA
ATOM     85  O   UNL A   1      42.665  18.696  27.142  1.00  0.00    -0.237 OA
ATOM     86  O   UNL A   1      40.800  19.436  25.716  1.00  0.00    -0.744 OA
ENDBRANCH  82  83
ENDBRANCH  54  77
BRANCH  66  87
ATOM     87  C   UNL A   1      47.586  26.976  31.386  1.00  0.00    -0.014 A 
ATOM     88  C   UNL A   1      47.745  26.307  32.612  1.00  0.00     0.010 A 
ATOM     89  C   UNL A   1      48.711  27.193  30.570  1.00  0.00     0.010 A 
ATOM     90  C   UNL A   1      49.013  25.897  33.032  1.00  0.00     0.020 A 
ATOM     91  C   UNL A   1      49.977  26.766  30.978  1.00  0.00     0.020 A 
ATOM     92  C   UNL A   1      50.123  26.137  32.215  1.00  0.00     0.054 A 
BRANCH  92  93
ATOM     93  S   UNL A   1      51.759  25.576  32.765  1.00  0.00     0.124 S 
ATOM     94  O   UNL A   1      52.336  25.066  31.525  1.00  0.00    -0.237 OA
ATOM     95  O   UNL A   1      52.366  26.800  33.284  1.00  0.00    -0.237 OA
ATOM     96  O   UNL A   1      51.454  24.565  33.774  1.00  0.00    -0.744 OA
ENDBRANCH  92  93
ENDBRANCH  66  87
ENDBRANCH  40  41
ENDBRANCH  32  35
ENDBRANCH  30  31
ENDBRANCH  29  30
ENDBRANCH  28  29
ENDBRANCH   1  28
TORSDOF 19
ENDMDL
MODEL 2
REMARK VINA RESULT:     -10.9      4.392      9.912
REMARK SMILES COc1ccc(Nc2c(C(=O)NCCCCCCNC(=O)c3ccc(-c4c5nc(c(-c6ccc(S(=O)(=O)[O-])cc6)c6ccc([nH]6)c(-c6ccc(S(=O)(=O)[O-])cc6)c6nc(c(-c7ccc(S(=O)(=O)[O-])cc7)c7ccc4[nH]7)C=C6)C=C5)cc3)[nH]c(=O)[nH]c2=O)cc1
REMARK SMILES IDX 15 1 14 2 13 3 12 4 10 5 11 6 9 8 8 9 86 10 82 11 85 12
REMARK SMILES IDX 87 13 83 14 84 17 7 18 6 20 3 21 4 22 89 23 5 24 88 25 2 26
REMARK SMILES IDX 1 27 16 28 17 29 18 30 19 31 20 32 21 34 22 35 23 36 81 37
REMARK SMILES IDX 24 38 80 39 25 40 26 41 27 42 74 43 28 44 79 45 73 46 75 47
REMARK SMILES IDX 29 48 78 49 72 50 71 51 30 53 60 54 41 55 59 56 42 57 45 58
REMARK SMILES IDX 58 59 76 60 43 61 44 62 57 64 77 65 46 66 31 67 32 68 40 69
REMARK SMILES IDX 33 70 39 71 34 72 35 73 36 74 37 75 38 76 61 77 62 78 70 79
REMARK SMILES IDX 63 80 69 81 64 82 65 83 66 84 67 85 68 86 47 87 48 88 56 89
REMARK SMILES IDX 49 90 55 91 50 92 51 93 52 94 53 95 54 96
REMARK H PARENT 12 7 82 15 85 16 7 19 19 33 75 52 45 63
REMARK Flexibility Score: inf
ROOT
ATOM      1  C   UNL A   1      35.363  23.219  24.698  1.00  0.00     0.002 C 
ENDROOT
BRANCH   1   2
ATOM      2  C   UNL A   1      34.569  23.206  23.391  1.00  0.00     0.021 C 
BRANCH   2   3
ATOM      3  C   UNL A   1      33.871  24.492  22.971  1.00  0.00     0.116 C 
BRANCH   3   4
ATOM      4  N   UNL A   1      34.138  25.647  23.781  1.00  0.00    -0.351 N 
ATOM      5  C   UNL A   1      33.316  26.317  24.625  1.00  0.00     0.270 C 
ATOM      6  O   UNL A   1      33.790  27.321  25.177  1.00  0.00    -0.268 OA
ATOM      7  H   UNL A   1      35.053  26.004  23.714  1.00  0.00     0.163 HD
BRANCH   5   8
ATOM      8  C   UNL A   1      31.841  26.035  24.866  1.00  0.00     0.137 A 
ATOM      9  C   UNL A   1      31.245  25.271  25.810  1.00  0.00     0.134 A 
ATOM     10  C   UNL A   1      29.735  25.408  25.914  1.00  0.00     0.278 A 
ATOM     11  N   UNL A   1      31.063  26.810  24.018  1.00  0.00    -0.301 N 
ATOM     12  N   UNL A   1      29.088  26.104  24.940  1.00  0.00    -0.272 N 
ATOM     13  O   UNL A   1      29.115  24.935  26.865  1.00  0.00    -0.267 OA
ATOM     14  C   UNL A   1      29.709  26.859  24.004  1.00  0.00     0.326 A 
ATOM     15  H   UNL A   1      31.537  27.377  23.368  1.00  0.00     0.172 HD
ATOM     16  H   UNL A   1      28.105  26.055  24.916  1.00  0.00     0.175 HD
ATOM     17  O   UNL A   1      29.085  27.564  23.216  1.00  0.00    -0.248 OA
BRANCH   9  18
ATOM     18  N   UNL A   1      31.797  24.445  26.781  1.00  0.00    -0.349 N 
ATOM     19  H   UNL A   1      31.969  24.830  27.670  1.00  0.00     0.167 HD
BRANCH  18  20
ATOM     20  C   UNL A   1      32.131  23.075  26.572  1.00  0.00     0.039 A 
ATOM     21  C   UNL A   1      33.132  20.487  26.031  1.00  0.00     0.119 A 
ATOM     22  C   UNL A   1      32.127  21.041  25.239  1.00  0.00     0.048 A 
ATOM     23  C   UNL A   1      33.626  21.218  27.109  1.00  0.00     0.048 A 
ATOM     24  C   UNL A   1      31.634  22.322  25.500  1.00  0.00     0.030 A 
ATOM     25  C   UNL A   1      33.123  22.499  27.378  1.00  0.00     0.030 A 
BRANCH  21  26
ATOM     26  O   UNL A   1      33.548  19.248  25.633  1.00  0.00    -0.497 OA
ATOM     27  C   UNL A   1      32.713  18.546  24.720  1.00  0.00     0.278 C 
ENDBRANCH  21  26
ENDBRANCH  18  20
ENDBRANCH   9  18
ENDBRANCH   5   8
ENDBRANCH   3   4
ENDBRANCH   2   3
ENDBRANCH   1   2
BRANCH   1  28
ATOM     28  C   UNL A   1      36.829  23.655  24.663  1.00  0.00     0.002 C 
BRANCH  28  29
ATOM     29  C   UNL A   1      37.752  23.235  25.809  1.00  0.00     0.021 C 
BRANCH  29  30
ATOM     30  C   UNL A   1      38.599  24.311  26.479  1.00  0.00     0.116 C 
BRANCH  30  31
ATOM     31  N   UNL A   1      39.942  24.402  25.945  1.00  0.00    -0.352 N 
ATOM     32  C   UNL A   1      40.998  25.203  26.301  1.00  0.00     0.251 C 
ATOM     33  H   UNL A   1      40.130  23.784  25.202  1.00  0.00     0.163 HD
ATOM     34  O   UNL A   1      42.027  25.147  25.626  1.00  0.00    -0.269 OA
BRANCH  32  35
ATOM     35  C   UNL A   1      40.934  26.146  27.450  1.00  0.00     0.039 A 
ATOM     36  C   UNL A   1      40.032  25.857  28.482  1.00  0.00     0.014 A 
ATOM     37  C   UNL A   1      41.664  27.337  27.501  1.00  0.00     0.014 A 
ATOM     38  C   UNL A   1      39.883  26.733  29.564  1.00  0.00     0.010 A 
ATOM     39  C   UNL A   1      41.559  28.184  28.612  1.00  0.00     0.010 A 
ATOM     40  C   UNL A   1      40.652  27.902  29.646  1.00  0.00    -0.014 A 
BRANCH  40  41
ATOM     41  C   UNL A   1      40.474  28.853  30.778  1.00  0.00     0.031 A 
ATOM     42  C   UNL A   1      41.338  28.737  32.010  1.00  0.00     0.074 A 
ATOM     43  C   UNL A   1      39.527  29.811  30.720  1.00  0.00     0.049 A 
ATOM     44  N   UNL A   1      41.315  29.455  33.104  1.00  0.00    -0.248 NA
ATOM     45  C   UNL A   1      42.344  27.662  32.021  1.00  0.00     0.031 C 
ATOM     46  C   UNL A   1      38.597  30.019  29.608  1.00  0.00     0.029 A 
ATOM     47  N   UNL A   1      39.189  30.791  31.621  1.00  0.00    -0.354 N 
ATOM     48  C   UNL A   1      42.282  28.907  33.941  1.00  0.00     0.074 A 
ATOM     49  C   UNL A   1      42.850  27.775  33.241  1.00  0.00     0.031 C 
ATOM     50  C   UNL A   1      37.807  31.070  29.887  1.00  0.00     0.029 A 
ATOM     51  C   UNL A   1      38.158  31.598  31.201  1.00  0.00     0.049 A 
ATOM     52  H   UNL A   1      39.643  30.904  32.488  1.00  0.00     0.167 HD
ATOM     53  C   UNL A   1      42.675  29.314  35.173  1.00  0.00     0.031 A 
ATOM     54  C   UNL A   1      37.565  32.648  31.802  1.00  0.00     0.031 A 
ATOM     55  C   UNL A   1      42.145  30.460  35.860  1.00  0.00     0.049 A 
ATOM     56  C   UNL A   1      38.056  33.113  33.146  1.00  0.00     0.074 A 
ATOM     57  C   UNL A   1      42.519  30.975  37.091  1.00  0.00     0.029 A 
ATOM     58  N   UNL A   1      41.140  31.281  35.374  1.00  0.00    -0.354 N 
ATOM     59  N   UNL A   1      39.004  32.606  33.896  1.00  0.00    -0.248 NA
ATOM     60  C   UNL A   1      37.412  34.307  33.713  1.00  0.00     0.031 C 
ATOM     61  C   UNL A   1      41.724  32.094  37.359  1.00  0.00     0.029 A 
ATOM     62  C   UNL A   1      40.882  32.296  36.278  1.00  0.00     0.049 A 
ATOM     63  H   UNL A   1      40.679  31.159  34.512  1.00  0.00     0.167 HD
ATOM     64  C   UNL A   1      39.090  33.438  35.008  1.00  0.00     0.074 A 
ATOM     65  C   UNL A   1      38.107  34.485  34.828  1.00  0.00     0.031 C 
ATOM     66  C   UNL A   1      39.913  33.343  36.080  1.00  0.00     0.031 A 
BRANCH  53  67
ATOM     67  C   UNL A   1      43.742  28.509  35.863  1.00  0.00    -0.014 A 
ATOM     68  C   UNL A   1      45.104  28.823  35.699  1.00  0.00     0.010 A 
ATOM     69  C   UNL A   1      43.378  27.461  36.728  1.00  0.00     0.010 A 
ATOM     70  C   UNL A   1      46.084  28.081  36.363  1.00  0.00     0.020 A 
ATOM     71  C   UNL A   1      44.355  26.732  37.411  1.00  0.00     0.020 A 
ATOM     72  C   UNL A   1      45.703  27.037  37.212  1.00  0.00     0.054 A 
BRANCH  72  73
ATOM     73  S   UNL A   1      46.992  26.109  38.088  1.00  0.00     0.124 S 
ATOM     74  O   UNL A   1      47.968  27.157  38.381  1.00  0.00    -0.237 OA
ATOM     75  O   UNL A   1      46.278  25.576  39.246  1.00  0.00    -0.237 OA
ATOM     76  O   UNL A   1      47.423  25.112  37.112  1.00  0.00    -0.744 OA
ENDBRANCH  72  73
ENDBRANCH  53  67
BRANCH  54  77
ATOM     77  C   UNL A   1      36.445  33.359  31.129  1.00  0.00    -0.014 A 
ATOM     78  C   UNL A   1      36.598  33.856  29.822  1.00  0.00     0.010 A 
ATOM     79  C   UNL A   1      35.227  33.560  31.801  1.00  0.00     0.010 A 
ATOM     80  C   UNL A   1      35.562  34.567  29.210  1.00  0.00     0.020 A 
ATOM     81  C   UNL A   1      34.181  34.252  31.183  1.00  0.00     0.020 A 
ATOM     82  C   UNL A   1      34.362  34.766  29.897  1.00  0.00     0.054 A 
BRANCH  82  83
ATOM     83  S   UNL A   1      33.014  35.663  29.078  1.00  0.00     0.124 S 
ATOM     84  O   UNL A   1      32.433  34.626  28.232  1.00  0.00    -0.237 OA
ATOM     85  O   UNL A   1      32.190  36.099  30.202  1.00  0.00    -0.237 OA
ATOM     86  O   UNL A   1      33.705  36.737  28.370  1.00  0.00    -0.744 OA
ENDBRANCH  82  83
ENDBRANCH  54  77
BRANCH  66  87
ATOM     87  C   UNL A   1      39.824  34.427  37.119  1.00  0.00    -0.014 A 
ATOM     88  C   UNL A   1      39.091  34.244  38.304  1.00  0.00     0.010 A 
ATOM     89  C   UNL A   1      40.511  35.637  36.914  1.00  0.00     0.010 A 
ATOM     90  C   UNL A   1      39.016  35.268  39.252  1.00  0.00     0.020 A 
ATOM     91  C   UNL A   1      40.454  36.656  37.869  1.00  0.00     0.020 A 
ATOM     92  C   UNL A   1      39.692  36.472  39.024  1.00  0.00     0.054 A 
BRANCH  92  93
ATOM     93  S   UNL A   1      39.604  37.782  40.276  1.00  0.00     0.124 S 
ATOM     94  O   UNL A   1      38.926  37.104  41.376  1.00  0.00    -0.237 OA
ATOM     95  O   UNL A   1      41.010  38.105  40.508  1.00  0.00    -0.237 OA
ATOM     96  O   UNL A   1      38.832  38.833  39.618  1.00  0.00    -0.744 OA
ENDBRANCH  92  93
ENDBRANCH  66  87
ENDBRANCH  40  41
ENDBRANCH  32  35
ENDBRANCH  30  31
ENDBRANCH  29  30
ENDBRANCH  28  29
ENDBRANCH   1  28
TORSDOF 19
ENDMDL
MODEL 3
REMARK VINA RESULT:     -10.8      4.187      5.793
REMARK SMILES COc1ccc(Nc2c(C(=O)NCCCCCCNC(=O)c3ccc(-c4c5nc(c(-c6ccc(S(=O)(=O)[O-])cc6)c6ccc([nH]6)c(-c6ccc(S(=O)(=O)[O-])cc6)c6nc(c(-c7ccc(S(=O)(=O)[O-])cc7)c7ccc4[nH]7)C=C6)C=C5)cc3)[nH]c(=O)[nH]c2=O)cc1
REMARK SMILES IDX 15 1 14 2 13 3 12 4 10 5 11 6 9 8 8 9 86 10 82 11 85 12
REMARK SMILES IDX 87 13 83 14 84 17 7 18 6 20 3 21 4 22 89 23 5 24 88 25 2 26
REMARK SMILES IDX 1 27 16 28 17 29 18 30 19 31 20 32 21 34 22 35 23 36 81 37
REMARK SMILES IDX 24 38 80 39 25 40 26 41 27 42 74 43 28 44 79 45 73 46 75 47
REMARK SMILES IDX 29 48 78 49 72 50 71 51 30 53 60 54 41 55 59 56 42 57 45 58
REMARK SMILES IDX 58 59 76 60 43 61 44 62 57 64 77 65 46 66 31 67 32 68 40 69
REMARK SMILES IDX 33 70 39 71 34 72 35 73 36 74 37 75 38 76 61 77 62 78 70 79
REMARK SMILES IDX 63 80 69 81 64 82 65 83 66 84 67 85 68 86 47 87 48 88 56 89
REMARK SMILES IDX 49 90 55 91 50 92 51 93 52 94 53 95 54 96
REMARK H PARENT 12 7 82 15 85 16 7 19 19 33 75 52 45 63
REMARK Flexibility Score: inf
ROOT
ATOM      1  C   UNL A   1      34.591  29.607  26.985  1.00  0.00     0.002 C 
ENDROOT
BRANCH   1   2
ATOM      2  C   UNL A   1      33.708  28.368  27.146  1.00  0.00     0.021 C 
BRANCH   2   3
ATOM      3  C   UNL A   1      32.201  28.573  27.202  1.00  0.00     0.116 C 
BRANCH   3   4
ATOM      4  N   UNL A   1      31.398  27.388  27.083  1.00  0.00    -0.351 N 
ATOM      5  C   UNL A   1      31.163  26.612  25.997  1.00  0.00     0.270 C 
ATOM      6  O   UNL A   1      30.389  25.657  26.158  1.00  0.00    -0.268 OA
ATOM      7  H   UNL A   1      30.956  27.096  27.913  1.00  0.00     0.163 HD
BRANCH   5   8
ATOM      8  C   UNL A   1      31.654  26.865  24.579  1.00  0.00     0.137 A 
ATOM      9  C   UNL A   1      32.757  26.406  23.946  1.00  0.00     0.134 A 
ATOM     10  C   UNL A   1      32.812  26.658  22.448  1.00  0.00     0.278 A 
ATOM     11  N   UNL A   1      30.706  27.590  23.870  1.00  0.00    -0.301 N 
ATOM     12  N   UNL A   1      31.881  27.489  21.906  1.00  0.00    -0.272 N 
ATOM     13  O   UNL A   1      33.650  26.106  21.738  1.00  0.00    -0.267 OA
ATOM     14  C   UNL A   1      30.786  27.938  22.563  1.00  0.00     0.326 A 
ATOM     15  H   UNL A   1      29.902  27.877  24.361  1.00  0.00     0.172 HD
ATOM     16  H   UNL A   1      32.012  27.782  20.975  1.00  0.00     0.175 HD
ATOM     17  O   UNL A   1      29.911  28.590  22.002  1.00  0.00    -0.248 OA
BRANCH   9  18
ATOM     18  N   UNL A   1      33.817  25.645  24.421  1.00  0.00    -0.349 N 
ATOM     19  H   UNL A   1      34.665  26.106  24.616  1.00  0.00     0.167 HD
BRANCH  18  20
ATOM     20  C   UNL A   1      33.756  24.238  24.646  1.00  0.00     0.039 A 
ATOM     21  C   UNL A   1      34.014  21.448  25.021  1.00  0.00     0.119 A 
ATOM     22  C   UNL A   1      33.359  21.958  23.900  1.00  0.00     0.048 A 
ATOM     23  C   UNL A   1      34.524  22.333  25.968  1.00  0.00     0.048 A 
ATOM     24  C   UNL A   1      33.236  23.337  23.709  1.00  0.00     0.030 A 
ATOM     25  C   UNL A   1      34.389  23.716  25.783  1.00  0.00     0.030 A 
BRANCH  21  26
ATOM     26  O   UNL A   1      34.099  20.085  25.055  1.00  0.00    -0.497 OA
ATOM     27  C   UNL A   1      32.913  19.369  25.376  1.00  0.00     0.278 C 
ENDBRANCH  21  26
ENDBRANCH  18  20
ENDBRANCH   9  18
ENDBRANCH   5   8
ENDBRANCH   3   4
ENDBRANCH   2   3
ENDBRANCH   1   2
BRANCH   1  28
ATOM     28  C   UNL A   1      34.387  30.784  27.941  1.00  0.00     0.002 C 
BRANCH  28  29
ATOM     29  C   UNL A   1      34.065  32.162  27.357  1.00  0.00     0.021 C 
BRANCH  29  30
ATOM     30  C   UNL A   1      32.698  32.766  27.658  1.00  0.00     0.116 C 
BRANCH  30  31
ATOM     31  N   UNL A   1      32.744  34.190  27.919  1.00  0.00    -0.352 N 
ATOM     32  C   UNL A   1      33.544  34.925  28.759  1.00  0.00     0.251 C 
ATOM     33  H   UNL A   1      32.091  34.722  27.407  1.00  0.00     0.163 HD
ATOM     34  O   UNL A   1      33.326  36.132  28.865  1.00  0.00    -0.269 OA
BRANCH  32  35
ATOM     35  C   UNL A   1      34.640  34.312  29.557  1.00  0.00     0.039 A 
ATOM     36  C   UNL A   1      35.954  34.494  29.108  1.00  0.00     0.014 A 
ATOM     37  C   UNL A   1      34.409  33.502  30.673  1.00  0.00     0.014 A 
ATOM     38  C   UNL A   1      37.026  33.896  29.782  1.00  0.00     0.010 A 
ATOM     39  C   UNL A   1      35.485  32.952  31.382  1.00  0.00     0.010 A 
ATOM     40  C   UNL A   1      36.804  33.126  30.933  1.00  0.00    -0.014 A 
BRANCH  40  41
ATOM     41  C   UNL A   1      37.938  32.462  31.634  1.00  0.00     0.031 A 
ATOM     42  C   UNL A   1      38.384  32.953  32.990  1.00  0.00     0.074 A 
ATOM     43  C   UNL A   1      38.585  31.431  31.056  1.00  0.00     0.049 A 
ATOM     44  N   UNL A   1      39.363  32.519  33.743  1.00  0.00    -0.248 NA
ATOM     45  C   UNL A   1      37.647  34.092  33.563  1.00  0.00     0.031 C 
ATOM     46  C   UNL A   1      38.286  30.873  29.736  1.00  0.00     0.029 A 
ATOM     47  N   UNL A   1      39.635  30.668  31.507  1.00  0.00    -0.354 N 
ATOM     48  C   UNL A   1      39.376  33.343  34.864  1.00  0.00     0.074 A 
ATOM     49  C   UNL A   1      38.328  34.324  34.676  1.00  0.00     0.031 C 
ATOM     50  C   UNL A   1      39.120  29.848  29.492  1.00  0.00     0.029 A 
ATOM     51  C   UNL A   1      40.025  29.687  30.626  1.00  0.00     0.049 A 
ATOM     52  H   UNL A   1      40.067  30.810  32.380  1.00  0.00     0.167 HD
ATOM     53  C   UNL A   1      40.174  33.284  35.958  1.00  0.00     0.031 A 
ATOM     54  C   UNL A   1      40.998  28.759  30.719  1.00  0.00     0.031 A 
ATOM     55  C   UNL A   1      41.191  32.290  36.172  1.00  0.00     0.049 A 
ATOM     56  C   UNL A   1      41.835  28.681  31.967  1.00  0.00     0.074 A 
ATOM     57  C   UNL A   1      42.014  32.124  37.273  1.00  0.00     0.029 A 
ATOM     58  N   UNL A   1      41.515  31.283  35.277  1.00  0.00    -0.354 N 
ATOM     59  N   UNL A   1      41.796  29.442  33.034  1.00  0.00    -0.248 NA
ATOM     60  C   UNL A   1      42.831  27.600  32.033  1.00  0.00     0.031 C 
ATOM     61  C   UNL A   1      42.852  31.030  37.035  1.00  0.00     0.029 A 
ATOM     62  C   UNL A   1      42.525  30.494  35.801  1.00  0.00     0.049 A 
ATOM     63  H   UNL A   1      41.090  31.150  34.399  1.00  0.00     0.167 HD
ATOM     64  C   UNL A   1      42.739  28.913  33.909  1.00  0.00     0.074 A 
ATOM     65  C   UNL A   1      43.325  27.763  33.253  1.00  0.00     0.031 C 
ATOM     66  C   UNL A   1      43.087  29.341  35.146  1.00  0.00     0.031 A 
BRANCH  53  67
ATOM     67  C   UNL A   1      39.976  34.330  37.021  1.00  0.00    -0.014 A 
ATOM     68  C   UNL A   1      40.633  35.572  36.945  1.00  0.00     0.010 A 
ATOM     69  C   UNL A   1      39.081  34.091  38.078  1.00  0.00     0.010 A 
ATOM     70  C   UNL A   1      40.423  36.542  37.927  1.00  0.00     0.020 A 
ATOM     71  C   UNL A   1      38.851  35.068  39.050  1.00  0.00     0.020 A 
ATOM     72  C   UNL A   1      39.536  36.282  38.977  1.00  0.00     0.054 A 
BRANCH  72  73
ATOM     73  S   UNL A   1      39.255  37.571  40.222  1.00  0.00     0.124 S 
ATOM     74  O   UNL A   1      38.158  38.330  39.626  1.00  0.00    -0.237 OA
ATOM     75  O   UNL A   1      38.909  36.800  41.414  1.00  0.00    -0.237 OA
ATOM     76  O   UNL A   1      40.535  38.272  40.288  1.00  0.00    -0.744 OA
ENDBRANCH  72  73
ENDBRANCH  53  67
BRANCH  54  77
ATOM     77  C   UNL A   1      41.228  27.803  29.604  1.00  0.00    -0.014 A 
ATOM     78  C   UNL A   1      40.344  26.729  29.391  1.00  0.00     0.010 A 
ATOM     79  C   UNL A   1      42.344  27.950  28.762  1.00  0.00     0.010 A 
ATOM     80  C   UNL A   1      40.589  25.803  28.374  1.00  0.00     0.020 A 
ATOM     81  C   UNL A   1      42.579  27.037  27.730  1.00  0.00     0.020 A 
ATOM     82  C   UNL A   1      41.709  25.959  27.553  1.00  0.00     0.054 A 
BRANCH  82  83
ATOM     83  S   UNL A   1      41.998  24.767  26.215  1.00  0.00     0.124 S 
ATOM     84  O   UNL A   1      40.939  23.791  26.449  1.00  0.00    -0.237 OA
ATOM     85  O   UNL A   1      41.849  25.588  25.017  1.00  0.00    -0.237 OA
ATOM     86  O   UNL A   1      43.356  24.295  26.472  1.00  0.00    -0.744 OA
ENDBRANCH  82  83
ENDBRANCH  54  77
BRANCH  66  87
ATOM     87  C   UNL A   1      44.111  28.535  35.895  1.00  0.00    -0.014 A 
ATOM     88  C   UNL A   1      43.735  27.463  36.723  1.00  0.00     0.010 A 
ATOM     89  C   UNL A   1      45.476  28.838  35.741  1.00  0.00     0.010 A 
ATOM     90  C   UNL A   1      44.704  26.733  37.415  1.00  0.00     0.020 A 
ATOM     91  C   UNL A   1      46.449  28.097  36.417  1.00  0.00     0.020 A 
ATOM     92  C   UNL A   1      46.056  27.059  37.264  1.00  0.00     0.054 A 
BRANCH  92  93
ATOM     93  S   UNL A   1      47.303  26.084  38.151  1.00  0.00     0.124 S 
ATOM     94  O   UNL A   1      46.599  24.827  38.376  1.00  0.00    -0.237 OA
ATOM     95  O   UNL A   1      48.407  26.024  37.196  1.00  0.00    -0.237 OA
ATOM     96  O   UNL A   1      47.568  26.876  39.349  1.00  0.00    -0.744 OA
ENDBRANCH  92  93
ENDBRANCH  66  87
ENDBRANCH  40  41
ENDBRANCH  32  35
ENDBRANCH  30  31
ENDBRANCH  29  30
ENDBRANCH  28  29
ENDBRANCH   1  28
TORSDOF 19
ENDMDL
