MODEL 1
REMARK VINA RESULT:     -11.9      0.000      0.000
REMARK SMILES O=C(NCCCCCCNC(=O)c1cccnc1C(=O)Nc1ccc([N+](=O)[O-])cc1)c1ccc(-c2c3nc(c(-c4ccc(S(=O)(=O)[O-])cc4)c4ccc([nH]4)c(-c4ccc(S(=O)(=O)[O-])cc4)c4nc(c(-c5ccc(S(=O)(=O)[O-])cc5)c5ccc2[nH]5)C=C4)C=C3)cc1
REMARK SMILES IDX 6 1 5 2 4 3 3 4 1 5 2 6 31 8 32 9 90 10 33 11 89 12 34 13
REMARK SMILES IDX 35 14 36 15 83 16 37 17 88 18 82 19 84 20 38 21 87 22 81 23
REMARK SMILES IDX 80 24 39 26 69 27 50 28 68 29 51 30 54 31 67 32 85 33 52 34
REMARK SMILES IDX 53 35 66 37 86 38 55 39 40 40 41 41 49 42 42 43 48 44 43 45
REMARK SMILES IDX 44 46 45 47 46 48 47 49 70 50 71 51 79 52 72 53 78 54 73 55
REMARK SMILES IDX 74 56 75 57 76 58 77 59 56 60 57 61 65 62 58 63 64 64 59 65
REMARK SMILES IDX 60 66 61 67 62 68 63 69 7 70 8 71 9 72 10 73 11 74 12 76
REMARK SMILES IDX 13 77 14 78 18 79 15 80 17 81 16 82 19 83 20 84 21 85 22 87
REMARK SMILES IDX 23 88 30 89 24 90 29 91 25 92 26 93 27 94 28 95
REMARK H PARENT 3 7 84 25 54 36 10 75 21 86
REMARK Flexibility Score: inf
ROOT
ATOM      1  C   UNL A   1      40.746  21.379  27.185  1.00  0.00     0.002 C 
ENDROOT
BRANCH   1   2
ATOM      2  C   UNL A   1      42.201  21.720  26.886  1.00  0.00     0.021 C 
BRANCH   2   3
ATOM      3  C   UNL A   1      42.549  23.192  27.038  1.00  0.00     0.116 C 
BRANCH   3   4
ATOM      4  N   UNL A   1      42.091  24.025  25.934  1.00  0.00    -0.352 N 
ATOM      5  O   UNL A   1      41.189  25.893  25.012  1.00  0.00    -0.269 OA
ATOM      6  C   UNL A   1      41.626  25.324  26.001  1.00  0.00     0.251 C 
ATOM      7  H   UNL A   1      42.115  23.616  25.040  1.00  0.00     0.163 HD
BRANCH   6   8
ATOM      8  C   UNL A   1      41.627  25.989  27.322  1.00  0.00     0.039 A 
ATOM      9  C   UNL A   1      40.587  25.736  28.218  1.00  0.00     0.014 A 
ATOM     10  C   UNL A   1      42.587  26.963  27.601  1.00  0.00     0.014 A 
ATOM     11  C   UNL A   1      40.396  26.592  29.293  1.00  0.00     0.010 A 
ATOM     12  C   UNL A   1      42.451  27.750  28.749  1.00  0.00     0.010 A 
ATOM     13  C   UNL A   1      41.325  27.608  29.576  1.00  0.00    -0.014 A 
BRANCH  13  14
ATOM     14  C   UNL A   1      41.099  28.481  30.759  1.00  0.00     0.031 A 
ATOM     15  C   UNL A   1      42.002  28.425  31.964  1.00  0.00     0.074 A 
ATOM     16  C   UNL A   1      40.092  29.375  30.710  1.00  0.00     0.049 A 
ATOM     17  N   UNL A   1      41.962  29.152  33.053  1.00  0.00    -0.248 NA
ATOM     18  C   UNL A   1      43.082  27.426  31.955  1.00  0.00     0.031 C 
ATOM     19  C   UNL A   1      39.150  29.524  29.596  1.00  0.00     0.029 A 
ATOM     20  N   UNL A   1      39.709  30.349  31.596  1.00  0.00    -0.354 N 
ATOM     21  C   UNL A   1      42.980  28.675  33.872  1.00  0.00     0.074 A 
ATOM     22  C   UNL A   1      43.615  27.587  33.160  1.00  0.00     0.031 C 
ATOM     23  C   UNL A   1      38.352  30.574  29.829  1.00  0.00     0.029 A 
ATOM     24  C   UNL A   1      38.666  31.121  31.143  1.00  0.00     0.049 A 
ATOM     25  H   UNL A   1      40.140  30.483  32.470  1.00  0.00     0.167 HD
ATOM     26  C   UNL A   1      43.349  29.104  35.105  1.00  0.00     0.031 A 
ATOM     27  C   UNL A   1      38.017  32.148  31.721  1.00  0.00     0.031 A 
ATOM     28  C   UNL A   1      42.720  30.198  35.802  1.00  0.00     0.049 A 
ATOM     29  C   UNL A   1      38.443  32.597  33.087  1.00  0.00     0.074 A 
ATOM     30  C   UNL A   1      43.044  30.731  37.039  1.00  0.00     0.029 A 
ATOM     31  N   UNL A   1      41.640  30.927  35.326  1.00  0.00    -0.354 N 
ATOM     32  N   UNL A   1      39.419  32.143  33.835  1.00  0.00    -0.248 NA
ATOM     33  C   UNL A   1      37.678  33.697  33.687  1.00  0.00     0.031 C 
ATOM     34  C   UNL A   1      42.128  31.747  37.333  1.00  0.00     0.029 A 
ATOM     35  C   UNL A   1      41.272  31.890  36.252  1.00  0.00     0.049 A 
ATOM     36  H   UNL A   1      41.199  30.782  34.458  1.00  0.00     0.167 HD
ATOM     37  C   UNL A   1      39.401  32.917  34.989  1.00  0.00     0.074 A 
ATOM     38  C   UNL A   1      38.329  33.880  34.828  1.00  0.00     0.031 C 
ATOM     39  C   UNL A   1      40.200  32.838  36.081  1.00  0.00     0.031 A 
BRANCH  26  40
ATOM     40  C   UNL A   1      44.464  28.366  35.803  1.00  0.00    -0.014 A 
ATOM     41  C   UNL A   1      44.215  27.228  36.590  1.00  0.00     0.010 A 
ATOM     42  C   UNL A   1      45.795  28.791  35.623  1.00  0.00     0.010 A 
ATOM     43  C   UNL A   1      45.269  26.555  37.219  1.00  0.00     0.020 A 
ATOM     44  C   UNL A   1      46.853  28.106  36.227  1.00  0.00     0.020 A 
ATOM     45  C   UNL A   1      46.581  27.003  37.037  1.00  0.00     0.054 A 
BRANCH  45  46
ATOM     46  S   UNL A   1      47.930  26.102  37.852  1.00  0.00     0.124 S 
ATOM     47  O   UNL A   1      48.969  27.125  37.930  1.00  0.00    -0.237 OA
ATOM     48  O   UNL A   1      47.333  25.715  39.128  1.00  0.00    -0.237 OA
ATOM     49  O   UNL A   1      48.211  24.997  36.938  1.00  0.00    -0.744 OA
ENDBRANCH  45  46
ENDBRANCH  26  40
BRANCH  27  50
ATOM     50  C   UNL A   1      36.895  32.809  31.003  1.00  0.00    -0.014 A 
ATOM     51  C   UNL A   1      37.150  33.748  29.989  1.00  0.00     0.010 A 
ATOM     52  C   UNL A   1      35.563  32.473  31.307  1.00  0.00     0.010 A 
ATOM     53  C   UNL A   1      36.092  34.350  29.302  1.00  0.00     0.020 A 
ATOM     54  C   UNL A   1      34.505  33.047  30.602  1.00  0.00     0.020 A 
ATOM     55  C   UNL A   1      34.776  33.993  29.611  1.00  0.00     0.054 A 
BRANCH  55  56
ATOM     56  S   UNL A   1      33.420  34.743  28.669  1.00  0.00     0.124 S 
ATOM     57  O   UNL A   1      34.080  35.889  28.050  1.00  0.00    -0.237 OA
ATOM     58  O   UNL A   1      33.033  33.667  27.761  1.00  0.00    -0.237 OA
ATOM     59  O   UNL A   1      32.431  35.068  29.694  1.00  0.00    -0.744 OA
ENDBRANCH  55  56
ENDBRANCH  27  50
BRANCH  39  60
ATOM     60  C   UNL A   1      39.970  33.851  37.168  1.00  0.00    -0.014 A 
ATOM     61  C   UNL A   1      39.235  33.532  38.324  1.00  0.00     0.010 A 
ATOM     62  C   UNL A   1      40.513  35.142  37.035  1.00  0.00     0.010 A 
ATOM     63  C   UNL A   1      39.010  34.500  39.306  1.00  0.00     0.020 A 
ATOM     64  C   UNL A   1      40.316  36.103  38.028  1.00  0.00     0.020 A 
ATOM     65  C   UNL A   1      39.548  35.782  39.149  1.00  0.00     0.054 A 
BRANCH  65  66
ATOM     66  S   UNL A   1      39.259  37.019  40.443  1.00  0.00     0.124 S 
ATOM     67  O   UNL A   1      40.620  37.371  40.836  1.00  0.00    -0.237 OA
ATOM     68  O   UNL A   1      38.521  38.060  39.733  1.00  0.00    -0.237 OA
ATOM     69  O   UNL A   1      38.486  36.293  41.448  1.00  0.00    -0.744 OA
ENDBRANCH  65  66
ENDBRANCH  39  60
ENDBRANCH  13  14
ENDBRANCH   6   8
ENDBRANCH   3   4
ENDBRANCH   2   3
ENDBRANCH   1   2
BRANCH   1  70
ATOM     70  C   UNL A   1      39.888  21.072  25.956  1.00  0.00     0.002 C 
BRANCH  70  71
ATOM     71  C   UNL A   1      38.572  21.843  25.787  1.00  0.00     0.021 C 
BRANCH  71  72
ATOM     72  C   UNL A   1      37.418  21.189  25.025  1.00  0.00     0.116 C 
BRANCH  72  73
ATOM     73  N   UNL A   1      36.802  21.993  23.974  1.00  0.00    -0.352 N 
ATOM     74  C   UNL A   1      35.599  22.668  23.954  1.00  0.00     0.253 C 
ATOM     75  H   UNL A   1      37.330  22.063  23.146  1.00  0.00     0.163 HD
ATOM     76  O   UNL A   1      35.343  23.485  23.077  1.00  0.00    -0.269 OA
BRANCH  74  77
ATOM     77  C   UNL A   1      34.675  22.519  25.072  1.00  0.00     0.071 A 
ATOM     78  C   UNL A   1      35.150  23.128  26.256  1.00  0.00     0.018 A 
ATOM     79  C   UNL A   1      33.418  21.922  25.070  1.00  0.00     0.141 A 
ATOM     80  C   UNL A   1      34.421  23.069  27.431  1.00  0.00     0.021 A 
ATOM     81  N   UNL A   1      32.725  21.848  26.260  1.00  0.00    -0.250 NA
ATOM     82  C   UNL A   1      33.221  22.404  27.386  1.00  0.00     0.112 A 
BRANCH  79  83
ATOM     83  C   UNL A   1      32.515  21.408  23.943  1.00  0.00     0.275 C 
ATOM     84  O   UNL A   1      31.793  22.229  23.356  1.00  0.00    -0.267 OA
ATOM     85  N   UNL A   1      32.572  20.183  23.319  1.00  0.00    -0.321 N 
ATOM     86  H   UNL A   1      32.504  20.245  22.339  1.00  0.00     0.170 HD
BRANCH  85  87
ATOM     87  C   UNL A   1      32.704  18.877  23.774  1.00  0.00     0.042 A 
ATOM     88  C   UNL A   1      33.163  17.922  22.856  1.00  0.00     0.033 A 
ATOM     89  C   UNL A   1      32.393  18.505  25.077  1.00  0.00     0.033 A 
ATOM     90  C   UNL A   1      33.554  16.658  23.299  1.00  0.00     0.088 A 
ATOM     91  C   UNL A   1      32.736  17.224  25.513  1.00  0.00     0.088 A 
ATOM     92  C   UNL A   1      33.400  16.352  24.649  1.00  0.00     0.269 A 
BRANCH  92  93
ATOM     93  N   UNL A   1      34.055  15.175  25.205  1.00  0.00     0.062 N 
ATOM     94  O   UNL A   1      35.286  15.208  25.333  1.00  0.00    -0.258 OA
ATOM     95  O   UNL A   1      33.325  14.226  25.530  1.00  0.00    -0.258 OA
ENDBRANCH  92  93
ENDBRANCH  85  87
ENDBRANCH  79  83
ENDBRANCH  74  77
ENDBRANCH  72  73
ENDBRANCH  71  72
ENDBRANCH  70  71
ENDBRANCH   1  70
TORSDOF 19
ENDMDL
MODEL 2
REMARK VINA RESULT:     -11.7      6.141     11.411
REMARK SMILES O=C(NCCCCCCNC(=O)c1cccnc1C(=O)Nc1ccc([N+](=O)[O-])cc1)c1ccc(-c2c3nc(c(-c4ccc(S(=O)(=O)[O-])cc4)c4ccc([nH]4)c(-c4ccc(S(=O)(=O)[O-])cc4)c4nc(c(-c5ccc(S(=O)(=O)[O-])cc5)c5ccc2[nH]5)C=C4)C=C3)cc1
REMARK SMILES IDX 6 1 5 2 4 3 3 4 1 5 2 6 31 8 32 9 90 10 33 11 89 12 34 13
REMARK SMILES IDX 35 14 36 15 83 16 37 17 88 18 82 19 84 20 38 21 87 22 81 23
REMARK SMILES IDX 80 24 39 26 69 27 50 28 68 29 51 30 54 31 67 32 85 33 52 34
REMARK SMILES IDX 53 35 66 37 86 38 55 39 40 40 41 41 49 42 42 43 48 44 43 45
REMARK SMILES IDX 44 46 45 47 46 48 47 49 70 50 71 51 79 52 72 53 78 54 73 55
REMARK SMILES IDX 74 56 75 57 76 58 77 59 56 60 57 61 65 62 58 63 64 64 59 65
REMARK SMILES IDX 60 66 61 67 62 68 63 69 7 70 8 71 9 72 10 73 11 74 12 76
REMARK SMILES IDX 13 77 14 78 18 79 15 80 17 81 16 82 19 83 20 84 21 85 22 87
REMARK SMILES IDX 23 88 30 89 24 90 29 91 25 92 26 93 27 94 28 95
REMARK H PARENT 3 7 84 25 54 36 10 75 21 86
REMARK Flexibility Score: inf
ROOT
ATOM      1  C   UNL A   1      34.669  28.906  27.170  1.00  0.00     0.002 C 
ENDROOT
BRANCH   1   2
ATOM      2  C   UNL A   1      34.570  30.425  27.245  1.00  0.00     0.021 C 
BRANCH   2   3
ATOM      3  C   UNL A   1      35.547  31.074  28.212  1.00  0.00     0.116 C 
BRANCH   3   4
ATOM      4  N   UNL A   1      35.400  30.626  29.590  1.00  0.00    -0.352 N 
ATOM      5  O   UNL A   1      36.125  29.712  31.537  1.00  0.00    -0.269 OA
ATOM      6  C   UNL A   1      36.388  30.136  30.423  1.00  0.00     0.251 C 
ATOM      7  H   UNL A   1      34.494  30.679  29.972  1.00  0.00     0.163 HD
BRANCH   6   8
ATOM      8  C   UNL A   1      37.770  30.095  29.900  1.00  0.00     0.039 A 
ATOM      9  C   UNL A   1      37.992  29.712  28.576  1.00  0.00     0.014 A 
ATOM     10  C   UNL A   1      38.842  30.303  30.770  1.00  0.00     0.014 A 
ATOM     11  C   UNL A   1      39.270  29.344  28.182  1.00  0.00     0.010 A 
ATOM     12  C   UNL A   1      40.143  30.039  30.331  1.00  0.00     0.010 A 
ATOM     13  C   UNL A   1      40.364  29.505  29.051  1.00  0.00    -0.014 A 
BRANCH  13  14
ATOM     14  C   UNL A   1      41.722  29.130  28.575  1.00  0.00     0.031 A 
ATOM     15  C   UNL A   1      42.860  30.118  28.581  1.00  0.00     0.074 A 
ATOM     16  C   UNL A   1      41.935  27.857  28.186  1.00  0.00     0.049 A 
ATOM     17  N   UNL A   1      44.111  29.930  28.241  1.00  0.00    -0.248 NA
ATOM     18  C   UNL A   1      42.562  31.492  29.016  1.00  0.00     0.031 C 
ATOM     19  C   UNL A   1      40.910  26.809  28.137  1.00  0.00     0.029 A 
ATOM     20  N   UNL A   1      43.080  27.216  27.791  1.00  0.00    -0.354 N 
ATOM     21  C   UNL A   1      44.738  31.164  28.381  1.00  0.00     0.074 A 
ATOM     22  C   UNL A   1      43.728  32.098  28.828  1.00  0.00     0.031 C 
ATOM     23  C   UNL A   1      41.485  25.644  27.811  1.00  0.00     0.029 A 
ATOM     24  C   UNL A   1      42.900  25.876  27.546  1.00  0.00     0.049 A 
ATOM     25  H   UNL A   1      43.947  27.672  27.694  1.00  0.00     0.167 HD
ATOM     26  C   UNL A   1      46.036  31.487  28.157  1.00  0.00     0.031 A 
ATOM     27  C   UNL A   1      43.768  24.932  27.138  1.00  0.00     0.031 A 
ATOM     28  C   UNL A   1      47.040  30.547  27.724  1.00  0.00     0.049 A 
ATOM     29  C   UNL A   1      45.196  25.320  26.891  1.00  0.00     0.074 A 
ATOM     30  C   UNL A   1      48.389  30.769  27.503  1.00  0.00     0.029 A 
ATOM     31  N   UNL A   1      46.807  29.208  27.449  1.00  0.00    -0.354 N 
ATOM     32  N   UNL A   1      45.770  26.488  27.048  1.00  0.00    -0.248 NA
ATOM     33  C   UNL A   1      46.092  24.261  26.412  1.00  0.00     0.031 C 
ATOM     34  C   UNL A   1      48.961  29.578  27.044  1.00  0.00     0.029 A 
ATOM     35  C   UNL A   1      47.982  28.597  27.039  1.00  0.00     0.049 A 
ATOM     36  H   UNL A   1      45.936  28.757  27.530  1.00  0.00     0.167 HD
ATOM     37  C   UNL A   1      47.103  26.301  26.707  1.00  0.00     0.074 A 
ATOM     38  C   UNL A   1      47.251  24.902  26.355  1.00  0.00     0.031 C 
ATOM     39  C   UNL A   1      48.113  27.205  26.687  1.00  0.00     0.031 A 
BRANCH  26  40
ATOM     40  C   UNL A   1      46.444  32.928  28.336  1.00  0.00    -0.014 A 
ATOM     41  C   UNL A   1      47.089  33.371  29.505  1.00  0.00     0.010 A 
ATOM     42  C   UNL A   1      46.223  33.846  27.291  1.00  0.00     0.010 A 
ATOM     43  C   UNL A   1      47.466  34.712  29.642  1.00  0.00     0.020 A 
ATOM     44  C   UNL A   1      46.623  35.180  27.413  1.00  0.00     0.020 A 
ATOM     45  C   UNL A   1      47.226  35.609  28.597  1.00  0.00     0.054 A 
BRANCH  45  46
ATOM     46  S   UNL A   1      47.740  37.338  28.796  1.00  0.00     0.124 S 
ATOM     47  O   UNL A   1      47.153  37.677  30.090  1.00  0.00    -0.237 OA
ATOM     48  O   UNL A   1      49.198  37.244  28.774  1.00  0.00    -0.237 OA
ATOM     49  O   UNL A   1      47.143  38.013  27.645  1.00  0.00    -0.744 OA
ENDBRANCH  45  46
ENDBRANCH  26  40
BRANCH  27  50
ATOM     50  C   UNL A   1      43.298  23.536  26.935  1.00  0.00    -0.014 A 
ATOM     51  C   UNL A   1      42.983  23.068  25.648  1.00  0.00     0.010 A 
ATOM     52  C   UNL A   1      43.200  22.656  28.029  1.00  0.00     0.010 A 
ATOM     53  C   UNL A   1      42.563  21.748  25.461  1.00  0.00     0.020 A 
ATOM     54  C   UNL A   1      42.812  21.328  27.841  1.00  0.00     0.020 A 
ATOM     55  C   UNL A   1      42.484  20.886  26.558  1.00  0.00     0.054 A 
BRANCH  55  56
ATOM     56  S   UNL A   1      41.991  19.162  26.285  1.00  0.00     0.124 S 
ATOM     57  O   UNL A   1      40.625  19.312  25.794  1.00  0.00    -0.237 OA
ATOM     58  O   UNL A   1      42.971  18.706  25.302  1.00  0.00    -0.237 OA
ATOM     59  O   UNL A   1      42.120  18.556  27.608  1.00  0.00    -0.744 OA
ENDBRANCH  55  56
ENDBRANCH  27  50
BRANCH  39  60
ATOM     60  C   UNL A   1      49.478  26.695  26.313  1.00  0.00    -0.014 A 
ATOM     61  C   UNL A   1      50.259  25.958  27.221  1.00  0.00     0.010 A 
ATOM     62  C   UNL A   1      49.978  26.946  25.023  1.00  0.00     0.010 A 
ATOM     63  C   UNL A   1      51.537  25.521  26.859  1.00  0.00     0.020 A 
ATOM     64  C   UNL A   1      51.241  26.485  24.647  1.00  0.00     0.020 A 
ATOM     65  C   UNL A   1      52.021  25.793  25.575  1.00  0.00     0.054 A 
BRANCH  65  66
ATOM     66  S   UNL A   1      53.674  25.202  25.120  1.00  0.00     0.124 S 
ATOM     67  O   UNL A   1      54.521  25.901  26.082  1.00  0.00    -0.237 OA
ATOM     68  O   UNL A   1      53.564  23.758  25.313  1.00  0.00    -0.237 OA
ATOM     69  O   UNL A   1      53.823  25.628  23.731  1.00  0.00    -0.744 OA
ENDBRANCH  65  66
ENDBRANCH  39  60
ENDBRANCH  13  14
ENDBRANCH   6   8
ENDBRANCH   3   4
ENDBRANCH   2   3
ENDBRANCH   1   2
BRANCH   1  70
ATOM     70  C   UNL A   1      33.755  28.249  26.134  1.00  0.00     0.002 C 
BRANCH  70  71
ATOM     71  C   UNL A   1      33.775  26.718  26.026  1.00  0.00     0.021 C 
BRANCH  71  72
ATOM     72  C   UNL A   1      32.557  25.996  25.447  1.00  0.00     0.116 C 
BRANCH  72  73
ATOM     73  N   UNL A   1      31.916  25.015  26.316  1.00  0.00    -0.352 N 
ATOM     74  C   UNL A   1      32.298  23.733  26.652  1.00  0.00     0.253 C 
ATOM     75  H   UNL A   1      31.074  25.317  26.727  1.00  0.00     0.163 HD
ATOM     76  O   UNL A   1      31.764  23.133  27.579  1.00  0.00    -0.269 OA
BRANCH  74  77
ATOM     77  C   UNL A   1      33.452  23.134  25.994  1.00  0.00     0.071 A 
ATOM     78  C   UNL A   1      34.650  23.317  26.722  1.00  0.00     0.018 A 
ATOM     79  C   UNL A   1      33.477  22.390  24.818  1.00  0.00     0.141 A 
ATOM     80  C   UNL A   1      35.857  22.840  26.243  1.00  0.00     0.021 A 
ATOM     81  N   UNL A   1      34.696  21.952  24.344  1.00  0.00    -0.250 NA
ATOM     82  C   UNL A   1      35.831  22.177  25.040  1.00  0.00     0.112 A 
BRANCH  79  83
ATOM     83  C   UNL A   1      32.368  21.801  23.940  1.00  0.00     0.275 C 
ATOM     84  O   UNL A   1      31.536  22.581  23.453  1.00  0.00    -0.267 OA
ATOM     85  N   UNL A   1      32.306  20.532  23.410  1.00  0.00    -0.321 N 
ATOM     86  H   UNL A   1      32.040  20.522  22.463  1.00  0.00     0.170 HD
BRANCH  85  87
ATOM     87  C   UNL A   1      32.538  19.263  23.925  1.00  0.00     0.042 A 
ATOM     88  C   UNL A   1      32.740  18.225  23.004  1.00  0.00     0.033 A 
ATOM     89  C   UNL A   1      32.565  19.003  25.290  1.00  0.00     0.033 A 
ATOM     90  C   UNL A   1      33.219  16.989  23.437  1.00  0.00     0.088 A 
ATOM     91  C   UNL A   1      32.997  17.751  25.731  1.00  0.00     0.088 A 
ATOM     92  C   UNL A   1      33.410  16.795  24.803  1.00  0.00     0.269 A 
BRANCH  92  93
ATOM     93  N   UNL A   1      34.175  15.645  25.272  1.00  0.00     0.062 N 
ATOM     94  O   UNL A   1      33.586  14.561  25.361  1.00  0.00    -0.258 OA
ATOM     95  O   UNL A   1      35.373  15.836  25.531  1.00  0.00    -0.258 OA
ENDBRANCH  92  93
ENDBRANCH  85  87
ENDBRANCH  79  83
ENDBRANCH  74  77
ENDBRANCH  72  73
ENDBRANCH  71  72
ENDBRANCH  70  71
ENDBRANCH   1  70
TORSDOF 19
ENDMDL
MODEL 3
REMARK VINA RESULT:     -11.4      6.421     12.038
REMARK SMILES O=C(NCCCCCCNC(=O)c1cccnc1C(=O)Nc1ccc([N+](=O)[O-])cc1)c1ccc(-c2c3nc(c(-c4ccc(S(=O)(=O)[O-])cc4)c4ccc([nH]4)c(-c4ccc(S(=O)(=O)[O-])cc4)c4nc(c(-c5ccc(S(=O)(=O)[O-])cc5)c5ccc2[nH]5)C=C4)C=C3)cc1
REMARK SMILES IDX 6 1 5 2 4 3 3 4 1 5 2 6 31 8 32 9 90 10 33 11 89 12 34 13
REMARK SMILES IDX 35 14 36 15 83 16 37 17 88 18 82 19 84 20 38 21 87 22 81 23
REMARK SMILES IDX 80 24 39 26 69 27 50 28 68 29 51 30 54 31 67 32 85 33 52 34
REMARK SMILES IDX 53 35 66 37 86 38 55 39 40 40 41 41 49 42 42 43 48 44 43 45
REMARK SMILES IDX 44 46 45 47 46 48 47 49 70 50 71 51 79 52 72 53 78 54 73 55
REMARK SMILES IDX 74 56 75 57 76 58 77 59 56 60 57 61 65 62 58 63 64 64 59 65
REMARK SMILES IDX 60 66 61 67 62 68 63 69 7 70 8 71 9 72 10 73 11 74 12 76
REMARK SMILES IDX 13 77 14 78 18 79 15 80 17 81 16 82 19 83 20 84 21 85 22 87
REMARK SMILES IDX 23 88 30 89 24 90 29 91 25 92 26 93 27 94 28 95
REMARK H PARENT 3 7 84 25 54 36 10 75 21 86
REMARK Flexibility Score: inf
ROOT
ATOM      1  C   UNL A   1      34.972  29.528  27.228  1.00  0.00     0.002 C 
ENDROOT
BRANCH   1   2
ATOM      2  C   UNL A   1      34.894  31.022  27.519  1.00  0.00     0.021 C 
BRANCH   2   3
ATOM      3  C   UNL A   1      35.838  31.503  28.610  1.00  0.00     0.116 C 
BRANCH   3   4
ATOM      4  N   UNL A   1      35.654  30.831  29.889  1.00  0.00    -0.352 N 
ATOM      5  O   UNL A   1      36.304  29.541  31.640  1.00  0.00    -0.269 OA
ATOM      6  C   UNL A   1      36.601  30.135  30.615  1.00  0.00     0.251 C 
ATOM      7  H   UNL A   1      34.752  30.878  30.281  1.00  0.00     0.163 HD
BRANCH   6   8
ATOM      8  C   UNL A   1      37.980  30.092  30.084  1.00  0.00     0.039 A 
ATOM      9  C   UNL A   1      38.194  29.691  28.764  1.00  0.00     0.014 A 
ATOM     10  C   UNL A   1      39.057  30.315  30.943  1.00  0.00     0.014 A 
ATOM     11  C   UNL A   1      39.471  29.321  28.366  1.00  0.00     0.010 A 
ATOM     12  C   UNL A   1      40.356  30.049  30.499  1.00  0.00     0.010 A 
ATOM     13  C   UNL A   1      40.570  29.498  29.225  1.00  0.00    -0.014 A 
BRANCH  13  14
ATOM     14  C   UNL A   1      41.926  29.121  28.745  1.00  0.00     0.031 A 
ATOM     15  C   UNL A   1      43.076  30.094  28.789  1.00  0.00     0.074 A 
ATOM     16  C   UNL A   1      42.124  27.859  28.316  1.00  0.00     0.049 A 
ATOM     17  N   UNL A   1      44.327  29.901  28.450  1.00  0.00    -0.248 NA
ATOM     18  C   UNL A   1      42.793  31.457  29.267  1.00  0.00     0.031 C 
ATOM     19  C   UNL A   1      41.087  26.826  28.228  1.00  0.00     0.029 A 
ATOM     20  N   UNL A   1      43.264  27.216  27.908  1.00  0.00    -0.354 N 
ATOM     21  C   UNL A   1      44.968  31.121  28.633  1.00  0.00     0.074 A 
ATOM     22  C   UNL A   1      43.968  32.054  29.104  1.00  0.00     0.031 C 
ATOM     23  C   UNL A   1      41.649  25.664  27.868  1.00  0.00     0.029 A 
ATOM     24  C   UNL A   1      43.068  25.887  27.619  1.00  0.00     0.049 A 
ATOM     25  H   UNL A   1      44.138  27.663  27.830  1.00  0.00     0.167 HD
ATOM     26  C   UNL A   1      46.272  31.435  28.427  1.00  0.00     0.031 A 
ATOM     27  C   UNL A   1      43.927  24.946  27.186  1.00  0.00     0.031 A 
ATOM     28  C   UNL A   1      47.266  30.496  27.970  1.00  0.00     0.049 A 
ATOM     29  C   UNL A   1      45.361  25.322  26.960  1.00  0.00     0.074 A 
ATOM     30  C   UNL A   1      48.620  30.708  27.763  1.00  0.00     0.029 A 
ATOM     31  N   UNL A   1      47.018  29.169  27.650  1.00  0.00    -0.354 N 
ATOM     32  N   UNL A   1      45.949  26.478  27.157  1.00  0.00    -0.248 NA
ATOM     33  C   UNL A   1      46.246  24.268  26.452  1.00  0.00     0.031 C 
ATOM     34  C   UNL A   1      49.179  29.524  27.269  1.00  0.00     0.029 A 
ATOM     35  C   UNL A   1      48.187  28.556  27.228  1.00  0.00     0.049 A 
ATOM     36  H   UNL A   1      46.141  28.728  27.713  1.00  0.00     0.167 HD
ATOM     37  C   UNL A   1      47.282  26.284  26.817  1.00  0.00     0.074 A 
ATOM     38  C   UNL A   1      47.414  24.895  26.422  1.00  0.00     0.031 C 
ATOM     39  C   UNL A   1      48.303  27.175  26.832  1.00  0.00     0.031 A 
BRANCH  26  40
ATOM     40  C   UNL A   1      46.697  32.863  28.655  1.00  0.00    -0.014 A 
ATOM     41  C   UNL A   1      47.189  33.297  29.899  1.00  0.00     0.010 A 
ATOM     42  C   UNL A   1      46.652  33.779  27.585  1.00  0.00     0.010 A 
ATOM     43  C   UNL A   1      47.587  34.626  30.081  1.00  0.00     0.020 A 
ATOM     44  C   UNL A   1      47.073  35.101  27.755  1.00  0.00     0.020 A 
ATOM     45  C   UNL A   1      47.521  35.521  29.009  1.00  0.00     0.054 A 
BRANCH  45  46
ATOM     46  S   UNL A   1      48.058  37.235  29.270  1.00  0.00     0.124 S 
ATOM     47  O   UNL A   1      47.159  37.969  28.383  1.00  0.00    -0.237 OA
ATOM     48  O   UNL A   1      47.826  37.430  30.699  1.00  0.00    -0.237 OA
ATOM     49  O   UNL A   1      49.462  37.224  28.864  1.00  0.00    -0.744 OA
ENDBRANCH  45  46
ENDBRANCH  26  40
BRANCH  27  50
ATOM     50  C   UNL A   1      43.441  23.563  26.936  1.00  0.00    -0.014 A 
ATOM     51  C   UNL A   1      43.339  23.067  25.625  1.00  0.00     0.010 A 
ATOM     52  C   UNL A   1      43.112  22.721  28.015  1.00  0.00     0.010 A 
ATOM     53  C   UNL A   1      42.902  21.759  25.397  1.00  0.00     0.020 A 
ATOM     54  C   UNL A   1      42.707  21.404  27.793  1.00  0.00     0.020 A 
ATOM     55  C   UNL A   1      42.592  20.935  26.483  1.00  0.00     0.054 A 
BRANCH  55  56
ATOM     56  S   UNL A   1      42.082  19.224  26.167  1.00  0.00     0.124 S 
ATOM     57  O   UNL A   1      42.480  18.557  27.402  1.00  0.00    -0.237 OA
ATOM     58  O   UNL A   1      40.643  19.357  25.954  1.00  0.00    -0.237 OA
ATOM     59  O   UNL A   1      42.847  18.853  24.979  1.00  0.00    -0.744 OA
ENDBRANCH  55  56
ENDBRANCH  27  50
BRANCH  39  60
ATOM     60  C   UNL A   1      49.664  26.659  26.450  1.00  0.00    -0.014 A 
ATOM     61  C   UNL A   1      50.125  26.722  25.123  1.00  0.00     0.010 A 
ATOM     62  C   UNL A   1      50.499  26.116  27.442  1.00  0.00     0.010 A 
ATOM     63  C   UNL A   1      51.381  26.209  24.788  1.00  0.00     0.020 A 
ATOM     64  C   UNL A   1      51.767  25.630  27.117  1.00  0.00     0.020 A 
ATOM     65  C   UNL A   1      52.192  25.661  25.788  1.00  0.00     0.054 A 
BRANCH  65  66
ATOM     66  S   UNL A   1      53.825  25.016  25.335  1.00  0.00     0.124 S 
ATOM     67  O   UNL A   1      53.511  23.647  24.938  1.00  0.00    -0.237 OA
ATOM     68  O   UNL A   1      54.233  25.906  24.251  1.00  0.00    -0.237 OA
ATOM     69  O   UNL A   1      54.602  25.147  26.565  1.00  0.00    -0.744 OA
ENDBRANCH  65  66
ENDBRANCH  39  60
ENDBRANCH  13  14
ENDBRANCH   6   8
ENDBRANCH   3   4
ENDBRANCH   2   3
ENDBRANCH   1   2
BRANCH   1  70
ATOM     70  C   UNL A   1      33.755  28.946  26.506  1.00  0.00     0.002 C 
BRANCH  70  71
ATOM     71  C   UNL A   1      33.553  27.426  26.549  1.00  0.00     0.021 C 
BRANCH  71  72
ATOM     72  C   UNL A   1      32.361  26.811  25.814  1.00  0.00     0.116 C 
BRANCH  72  73
ATOM     73  N   UNL A   1      31.678  25.716  26.494  1.00  0.00    -0.352 N 
ATOM     74  C   UNL A   1      31.989  24.373  26.560  1.00  0.00     0.253 C 
ATOM     75  H   UNL A   1      30.865  25.977  26.984  1.00  0.00     0.163 HD
ATOM     76  O   UNL A   1      31.438  23.633  27.369  1.00  0.00    -0.269 OA
BRANCH  74  77
ATOM     77  C   UNL A   1      33.091  23.852  25.761  1.00  0.00     0.071 A 
ATOM     78  C   UNL A   1      34.303  23.781  26.485  1.00  0.00     0.018 A 
ATOM     79  C   UNL A   1      33.053  23.389  24.449  1.00  0.00     0.141 A 
ATOM     80  C   UNL A   1      35.467  23.335  25.885  1.00  0.00     0.021 A 
ATOM     81  N   UNL A   1      34.232  22.979  23.863  1.00  0.00    -0.250 NA
ATOM     82  C   UNL A   1      35.384  22.960  24.567  1.00  0.00     0.112 A 
BRANCH  79  83
ATOM     83  C   UNL A   1      31.897  23.093  23.486  1.00  0.00     0.275 C 
ATOM     84  O   UNL A   1      31.828  21.956  22.994  1.00  0.00    -0.267 OA
ATOM     85  N   UNL A   1      30.768  23.852  23.276  1.00  0.00    -0.321 N 
ATOM     86  H   UNL A   1      29.942  23.317  23.255  1.00  0.00     0.170 HD
BRANCH  85  87
ATOM     87  C   UNL A   1      30.545  25.209  23.087  1.00  0.00     0.042 A 
ATOM     88  C   UNL A   1      29.406  25.761  23.692  1.00  0.00     0.033 A 
ATOM     89  C   UNL A   1      31.392  26.008  22.328  1.00  0.00     0.033 A 
ATOM     90  C   UNL A   1      29.250  27.146  23.755  1.00  0.00     0.088 A 
ATOM     91  C   UNL A   1      31.212  27.393  22.346  1.00  0.00     0.088 A 
ATOM     92  C   UNL A   1      30.205  27.949  23.136  1.00  0.00     0.269 A 
BRANCH  92  93
ATOM     93  N   UNL A   1      30.246  29.378  23.422  1.00  0.00     0.062 N 
ATOM     94  O   UNL A   1      29.703  30.142  22.613  1.00  0.00    -0.258 OA
ATOM     95  O   UNL A   1      30.809  29.725  24.471  1.00  0.00    -0.258 OA
ENDBRANCH  92  93
ENDBRANCH  85  87
ENDBRANCH  79  83
ENDBRANCH  74  77
ENDBRANCH  72  73
ENDBRANCH  71  72
ENDBRANCH  70  71
ENDBRANCH   1  70
TORSDOF 19
ENDMDL
