MODEL 1
REMARK VINA RESULT:     -10.7      0.000      0.000
REMARK SMILES C[C@@H](C(=O)NCCCCCCNC(=O)c1ccc(-c2c3nc(c(-c4ccc(S(=O)(=O)[O-])cc4)c4ccc([nH]4)c(-c4ccc(S(=O)(=O)[O-])cc4)c4nc(c(-c5ccc(S(=O)(=O)[O-])cc5)c5ccc2[nH]5)C=C4)C=C3)cc1)[C@H]1CCOC2(CCCCC2)C1
REMARK SMILES IDX 9 1 8 2 7 3 6 4 5 5 3 6 4 7 2 9 1 10 75 11 76 12 85 13 77 14
REMARK SMILES IDX 79 15 78 16 80 17 84 18 81 19 83 20 82 21 10 22 11 23 12 24
REMARK SMILES IDX 13 25 14 27 15 28 16 29 74 30 17 31 73 32 18 33 19 34 20 35
REMARK SMILES IDX 67 36 21 37 72 38 66 39 68 40 22 41 71 42 65 43 64 44 23 46
REMARK SMILES IDX 53 47 34 48 52 49 35 50 38 51 51 52 69 53 36 54 37 55 50 57
REMARK SMILES IDX 70 58 39 59 24 60 25 61 33 62 26 63 32 64 27 65 28 66 29 67
REMARK SMILES IDX 30 68 31 69 54 70 55 71 63 72 56 73 62 74 57 75 58 76 59 77
REMARK SMILES IDX 60 78 61 79 40 80 41 81 49 82 42 83 48 84 43 85 44 86 45 87
REMARK SMILES IDX 46 88 47 89
REMARK H PARENT 5 8 12 26 68 45 38 56
REMARK Flexibility Score: inf
ROOT
ATOM      1  C   UNL A   1      33.895  27.926  24.818  1.00  0.00     0.002 C 
ENDROOT
BRANCH   1   2
ATOM      2  C   UNL A   1      33.680  26.706  23.921  1.00  0.00     0.002 C 
BRANCH   2   3
ATOM      3  C   UNL A   1      33.336  27.030  22.461  1.00  0.00     0.021 C 
BRANCH   3   4
ATOM      4  C   UNL A   1      32.565  25.921  21.733  1.00  0.00     0.116 C 
BRANCH   4   5
ATOM      5  N   UNL A   1      31.608  25.316  22.631  1.00  0.00    -0.356 N 
ATOM      6  C   UNL A   1      31.478  24.028  23.043  1.00  0.00     0.223 C 
ATOM      7  O   UNL A   1      30.389  23.746  23.541  1.00  0.00    -0.275 OA
ATOM      8  H   UNL A   1      30.943  25.938  23.003  1.00  0.00     0.163 HD
BRANCH   6   9
ATOM      9  C   UNL A   1      32.647  23.039  22.879  1.00  0.00     0.078 C 
ATOM     10  C   UNL A   1      32.132  21.622  22.583  1.00  0.00     0.018 C 
BRANCH   9  11
ATOM     11  C   UNL A   1      33.652  22.932  24.072  1.00  0.00     0.006 C 
ATOM     12  C   UNL A   1      33.086  22.170  25.275  1.00  0.00     0.033 C 
ATOM     13  C   UNL A   1      35.027  22.338  23.747  1.00  0.00     0.040 C 
ATOM     14  C   UNL A   1      34.080  22.229  26.435  1.00  0.00     0.161 C 
ATOM     15  C   UNL A   1      35.990  22.377  24.944  1.00  0.00     0.069 C 
ATOM     16  O   UNL A   1      35.374  21.745  26.079  1.00  0.00    -0.375 OA
ATOM     17  C   UNL A   1      36.438  23.820  25.260  1.00  0.00     0.035 C 
ATOM     18  C   UNL A   1      37.230  21.526  24.582  1.00  0.00     0.035 C 
ATOM     19  C   UNL A   1      37.520  23.872  26.335  1.00  0.00     0.003 C 
ATOM     20  C   UNL A   1      38.324  21.588  25.646  1.00  0.00     0.003 C 
ATOM     21  C   UNL A   1      38.727  23.025  25.950  1.00  0.00     0.000 C 
ENDBRANCH   9  11
ENDBRANCH   6   9
ENDBRANCH   4   5
ENDBRANCH   3   4
ENDBRANCH   2   3
ENDBRANCH   1   2
BRANCH   1  22
ATOM     22  C   UNL A   1      32.816  28.129  25.884  1.00  0.00     0.021 C 
BRANCH  22  23
ATOM     23  C   UNL A   1      33.356  28.480  27.266  1.00  0.00     0.116 C 
BRANCH  23  24
ATOM     24  N   UNL A   1      33.356  29.916  27.499  1.00  0.00    -0.352 N 
ATOM     25  C   UNL A   1      34.327  30.697  28.073  1.00  0.00     0.251 C 
ATOM     26  H   UNL A   1      32.548  30.393  27.204  1.00  0.00     0.163 HD
ATOM     27  O   UNL A   1      34.074  31.857  28.392  1.00  0.00    -0.269 OA
BRANCH  25  28
ATOM     28  C   UNL A   1      35.668  30.132  28.326  1.00  0.00     0.039 A 
ATOM     29  C   UNL A   1      36.596  30.098  27.283  1.00  0.00     0.014 A 
ATOM     30  C   UNL A   1      36.014  29.651  29.593  1.00  0.00     0.014 A 
ATOM     31  C   UNL A   1      37.894  29.650  27.531  1.00  0.00     0.010 A 
ATOM     32  C   UNL A   1      37.328  29.271  29.855  1.00  0.00     0.010 A 
ATOM     33  C   UNL A   1      38.285  29.274  28.829  1.00  0.00    -0.014 A 
BRANCH  33  34
ATOM     34  C   UNL A   1      39.698  28.932  29.133  1.00  0.00     0.031 A 
ATOM     35  C   UNL A   1      40.624  29.958  29.728  1.00  0.00     0.074 A 
ATOM     36  C   UNL A   1      40.162  27.706  28.813  1.00  0.00     0.049 A 
ATOM     37  N   UNL A   1      41.895  29.846  30.017  1.00  0.00    -0.248 NA
ATOM     38  C   UNL A   1      40.058  31.286  30.020  1.00  0.00     0.031 C 
ATOM     39  C   UNL A   1      39.373  26.638  28.190  1.00  0.00     0.029 A 
ATOM     40  N   UNL A   1      41.409  27.150  28.959  1.00  0.00    -0.354 N 
ATOM     41  C   UNL A   1      42.284  31.087  30.509  1.00  0.00     0.074 A 
ATOM     42  C   UNL A   1      41.126  31.949  30.445  1.00  0.00     0.031 C 
ATOM     43  C   UNL A   1      40.148  25.553  28.030  1.00  0.00     0.029 A 
ATOM     44  C   UNL A   1      41.497  25.858  28.491  1.00  0.00     0.049 A 
ATOM     45  H   UNL A   1      42.169  27.631  29.360  1.00  0.00     0.167 HD
ATOM     46  C   UNL A   1      43.495  31.467  30.983  1.00  0.00     0.031 A 
ATOM     47  C   UNL A   1      42.549  25.017  28.426  1.00  0.00     0.031 A 
ATOM     48  C   UNL A   1      44.642  30.599  31.057  1.00  0.00     0.049 A 
ATOM     49  C   UNL A   1      43.885  25.478  28.943  1.00  0.00     0.074 A 
ATOM     50  C   UNL A   1      45.889  30.874  31.592  1.00  0.00     0.029 A 
ATOM     51  N   UNL A   1      44.690  29.299  30.581  1.00  0.00    -0.354 N 
ATOM     52  N   UNL A   1      44.205  26.625  29.491  1.00  0.00    -0.248 NA
ATOM     53  C   UNL A   1      45.001  24.526  28.841  1.00  0.00     0.031 C 
ATOM     54  C   UNL A   1      46.712  29.766  31.375  1.00  0.00     0.029 A 
ATOM     55  C   UNL A   1      45.956  28.773  30.771  1.00  0.00     0.049 A 
ATOM     56  H   UNL A   1      43.935  28.820  30.168  1.00  0.00     0.167 HD
ATOM     57  C   UNL A   1      45.553  26.522  29.820  1.00  0.00     0.074 A 
ATOM     58  C   UNL A   1      45.979  25.193  29.436  1.00  0.00     0.031 C 
ATOM     59  C   UNL A   1      46.368  27.448  30.384  1.00  0.00     0.031 A 
BRANCH  46  60
ATOM     60  C   UNL A   1      43.660  32.886  31.459  1.00  0.00    -0.014 A 
ATOM     61  C   UNL A   1      43.415  33.239  32.798  1.00  0.00     0.010 A 
ATOM     62  C   UNL A   1      44.175  33.857  30.579  1.00  0.00     0.010 A 
ATOM     63  C   UNL A   1      43.671  34.538  33.244  1.00  0.00     0.020 A 
ATOM     64  C   UNL A   1      44.457  35.150  31.028  1.00  0.00     0.020 A 
ATOM     65  C   UNL A   1      44.198  35.484  32.358  1.00  0.00     0.054 A 
BRANCH  65  66
ATOM     66  S   UNL A   1      44.591  37.138  32.988  1.00  0.00     0.124 S 
ATOM     67  O   UNL A   1      46.044  37.179  32.844  1.00  0.00    -0.237 OA
ATOM     68  O   UNL A   1      43.845  38.008  32.083  1.00  0.00    -0.237 OA
ATOM     69  O   UNL A   1      44.104  37.112  34.366  1.00  0.00    -0.744 OA
ENDBRANCH  65  66
ENDBRANCH  46  60
BRANCH  47  70
ATOM     70  C   UNL A   1      42.395  23.663  27.825  1.00  0.00    -0.014 A 
ATOM     71  C   UNL A   1      42.137  22.540  28.633  1.00  0.00     0.010 A 
ATOM     72  C   UNL A   1      42.543  23.482  26.437  1.00  0.00     0.010 A 
ATOM     73  C   UNL A   1      42.074  21.261  28.071  1.00  0.00     0.020 A 
ATOM     74  C   UNL A   1      42.445  22.211  25.867  1.00  0.00     0.020 A 
ATOM     75  C   UNL A   1      42.233  21.105  26.691  1.00  0.00     0.054 A 
BRANCH  75  76
ATOM     76  S   UNL A   1      42.143  19.438  25.981  1.00  0.00     0.124 S 
ATOM     77  O   UNL A   1      42.605  18.611  27.091  1.00  0.00    -0.237 OA
ATOM     78  O   UNL A   1      40.727  19.314  25.644  1.00  0.00    -0.237 OA
ATOM     79  O   UNL A   1      43.045  19.508  24.833  1.00  0.00    -0.744 OA
ENDBRANCH  75  76
ENDBRANCH  47  70
BRANCH  59  80
ATOM     80  C   UNL A   1      47.795  27.049  30.649  1.00  0.00    -0.014 A 
ATOM     81  C   UNL A   1      48.798  27.241  29.682  1.00  0.00     0.010 A 
ATOM     82  C   UNL A   1      48.148  26.518  31.904  1.00  0.00     0.010 A 
ATOM     83  C   UNL A   1      50.119  26.880  29.951  1.00  0.00     0.020 A 
ATOM     84  C   UNL A   1      49.474  26.186  32.189  1.00  0.00     0.020 A 
ATOM     85  C   UNL A   1      50.450  26.355  31.206  1.00  0.00     0.054 A 
BRANCH  85  86
ATOM     86  S   UNL A   1      52.181  25.935  31.544  1.00  0.00     0.124 S 
ATOM     87  O   UNL A   1      52.528  26.894  32.589  1.00  0.00    -0.237 OA
ATOM     88  O   UNL A   1      52.093  24.542  31.975  1.00  0.00    -0.237 OA
ATOM     89  O   UNL A   1      52.847  26.143  30.260  1.00  0.00    -0.744 OA
ENDBRANCH  85  86
ENDBRANCH  59  80
ENDBRANCH  33  34
ENDBRANCH  25  28
ENDBRANCH  23  24
ENDBRANCH  22  23
ENDBRANCH   1  22
TORSDOF 17
ENDMDL
MODEL 2
REMARK VINA RESULT:     -10.5      2.563      9.214
REMARK SMILES C[C@@H](C(=O)NCCCCCCNC(=O)c1ccc(-c2c3nc(c(-c4ccc(S(=O)(=O)[O-])cc4)c4ccc([nH]4)c(-c4ccc(S(=O)(=O)[O-])cc4)c4nc(c(-c5ccc(S(=O)(=O)[O-])cc5)c5ccc2[nH]5)C=C4)C=C3)cc1)[C@H]1CCOC2(CCCCC2)C1
REMARK SMILES IDX 9 1 8 2 7 3 6 4 5 5 3 6 4 7 2 9 1 10 75 11 76 12 85 13 77 14
REMARK SMILES IDX 79 15 78 16 80 17 84 18 81 19 83 20 82 21 10 22 11 23 12 24
REMARK SMILES IDX 13 25 14 27 15 28 16 29 74 30 17 31 73 32 18 33 19 34 20 35
REMARK SMILES IDX 67 36 21 37 72 38 66 39 68 40 22 41 71 42 65 43 64 44 23 46
REMARK SMILES IDX 53 47 34 48 52 49 35 50 38 51 51 52 69 53 36 54 37 55 50 57
REMARK SMILES IDX 70 58 39 59 24 60 25 61 33 62 26 63 32 64 27 65 28 66 29 67
REMARK SMILES IDX 30 68 31 69 54 70 55 71 63 72 56 73 62 74 57 75 58 76 59 77
REMARK SMILES IDX 60 78 61 79 40 80 41 81 49 82 42 83 48 84 43 85 44 86 45 87
REMARK SMILES IDX 46 88 47 89
REMARK H PARENT 5 8 12 26 68 45 38 56
REMARK Flexibility Score: inf
ROOT
ATOM      1  C   UNL A   1      34.692  23.562  25.737  1.00  0.00     0.002 C 
ENDROOT
BRANCH   1   2
ATOM      2  C   UNL A   1      34.493  22.716  24.479  1.00  0.00     0.002 C 
BRANCH   2   3
ATOM      3  C   UNL A   1      33.039  22.602  23.999  1.00  0.00     0.021 C 
BRANCH   3   4
ATOM      4  C   UNL A   1      32.800  23.129  22.579  1.00  0.00     0.116 C 
BRANCH   4   5
ATOM      5  N   UNL A   1      33.572  24.331  22.363  1.00  0.00    -0.356 N 
ATOM      6  C   UNL A   1      33.184  25.633  22.327  1.00  0.00     0.223 C 
ATOM      7  O   UNL A   1      33.988  26.403  21.804  1.00  0.00    -0.275 OA
ATOM      8  H   UNL A   1      34.534  24.183  22.220  1.00  0.00     0.163 HD
BRANCH   6   9
ATOM      9  C   UNL A   1      31.826  26.055  22.918  1.00  0.00     0.078 C 
ATOM     10  C   UNL A   1      31.037  26.921  21.923  1.00  0.00     0.018 C 
BRANCH   9  11
ATOM     11  C   UNL A   1      31.859  26.820  24.281  1.00  0.00     0.006 C 
ATOM     12  C   UNL A   1      31.408  25.962  25.468  1.00  0.00     0.033 C 
ATOM     13  C   UNL A   1      33.193  27.474  24.657  1.00  0.00     0.040 C 
ATOM     14  C   UNL A   1      31.345  26.822  26.730  1.00  0.00     0.161 C 
ATOM     15  C   UNL A   1      33.106  28.300  25.951  1.00  0.00     0.069 C 
ATOM     16  O   UNL A   1      32.578  27.483  27.010  1.00  0.00    -0.375 OA
ATOM     17  C   UNL A   1      32.276  29.585  25.745  1.00  0.00     0.035 C 
ATOM     18  C   UNL A   1      34.547  28.684  26.365  1.00  0.00     0.035 C 
ATOM     19  C   UNL A   1      32.312  30.503  26.963  1.00  0.00     0.003 C 
ATOM     20  C   UNL A   1      34.589  29.618  27.573  1.00  0.00     0.003 C 
ATOM     21  C   UNL A   1      33.742  30.864  27.346  1.00  0.00     0.000 C 
ENDBRANCH   9  11
ENDBRANCH   6   9
ENDBRANCH   4   5
ENDBRANCH   3   4
ENDBRANCH   2   3
ENDBRANCH   1   2
BRANCH   1  22
ATOM     22  C   UNL A   1      36.135  24.014  25.978  1.00  0.00     0.021 C 
BRANCH  22  23
ATOM     23  C   UNL A   1      37.118  23.578  24.898  1.00  0.00     0.116 C 
BRANCH  23  24
ATOM     24  N   UNL A   1      38.066  22.593  25.394  1.00  0.00    -0.352 N 
ATOM     25  C   UNL A   1      39.202  22.785  26.138  1.00  0.00     0.251 C 
ATOM     26  H   UNL A   1      37.863  21.657  25.164  1.00  0.00     0.163 HD
ATOM     27  O   UNL A   1      40.005  21.866  26.284  1.00  0.00    -0.269 OA
BRANCH  25  28
ATOM     28  C   UNL A   1      39.468  24.108  26.741  1.00  0.00     0.039 A 
ATOM     29  C   UNL A   1      39.042  24.352  28.049  1.00  0.00     0.014 A 
ATOM     30  C   UNL A   1      40.148  25.097  26.024  1.00  0.00     0.014 A 
ATOM     31  C   UNL A   1      39.365  25.564  28.662  1.00  0.00     0.010 A 
ATOM     32  C   UNL A   1      40.529  26.275  26.662  1.00  0.00     0.010 A 
ATOM     33  C   UNL A   1      40.149  26.518  27.990  1.00  0.00    -0.014 A 
BRANCH  33  34
ATOM     34  C   UNL A   1      40.617  27.748  28.681  1.00  0.00     0.031 A 
ATOM     35  C   UNL A   1      41.988  27.804  29.298  1.00  0.00     0.074 A 
ATOM     36  C   UNL A   1      39.775  28.795  28.804  1.00  0.00     0.049 A 
ATOM     37  N   UNL A   1      42.543  28.777  29.976  1.00  0.00    -0.248 NA
ATOM     38  C   UNL A   1      42.841  26.612  29.155  1.00  0.00     0.031 C 
ATOM     39  C   UNL A   1      38.403  28.844  28.288  1.00  0.00     0.029 A 
ATOM     40  N   UNL A   1      39.942  30.017  29.407  1.00  0.00    -0.354 N 
ATOM     41  C   UNL A   1      43.798  28.311  30.350  1.00  0.00     0.074 A 
ATOM     42  C   UNL A   1      43.911  26.956  29.859  1.00  0.00     0.031 C 
ATOM     43  C   UNL A   1      37.866  30.040  28.576  1.00  0.00     0.029 A 
ATOM     44  C   UNL A   1      38.830  30.826  29.337  1.00  0.00     0.049 A 
ATOM     45  H   UNL A   1      40.779  30.288  29.850  1.00  0.00     0.167 HD
ATOM     46  C   UNL A   1      44.772  28.961  31.031  1.00  0.00     0.031 A 
ATOM     47  C   UNL A   1      38.605  32.055  29.841  1.00  0.00     0.031 A 
ATOM     48  C   UNL A   1      44.660  30.316  31.506  1.00  0.00     0.049 A 
ATOM     49  C   UNL A   1      39.702  32.742  30.610  1.00  0.00     0.074 A 
ATOM     50  C   UNL A   1      45.623  31.083  32.139  1.00  0.00     0.029 A 
ATOM     51  N   UNL A   1      43.524  31.102  31.409  1.00  0.00    -0.354 N 
ATOM     52  N   UNL A   1      40.915  32.317  30.870  1.00  0.00    -0.248 NA
ATOM     53  C   UNL A   1      39.402  34.077  31.146  1.00  0.00     0.031 C 
ATOM     54  C   UNL A   1      45.047  32.307  32.489  1.00  0.00     0.029 A 
ATOM     55  C   UNL A   1      43.747  32.330  32.009  1.00  0.00     0.049 A 
ATOM     56  H   UNL A   1      42.681  30.829  30.978  1.00  0.00     0.167 HD
ATOM     57  C   UNL A   1      41.529  33.345  31.579  1.00  0.00     0.074 A 
ATOM     58  C   UNL A   1      40.565  34.419  31.681  1.00  0.00     0.031 C 
ATOM     59  C   UNL A   1      42.779  33.392  32.104  1.00  0.00     0.031 A 
BRANCH  46  60
ATOM     60  C   UNL A   1      46.055  28.224  31.317  1.00  0.00    -0.014 A 
ATOM     61  C   UNL A   1      46.216  27.474  32.495  1.00  0.00     0.010 A 
ATOM     62  C   UNL A   1      47.070  28.194  30.342  1.00  0.00     0.010 A 
ATOM     63  C   UNL A   1      47.373  26.716  32.697  1.00  0.00     0.020 A 
ATOM     64  C   UNL A   1      48.216  27.416  30.529  1.00  0.00     0.020 A 
ATOM     65  C   UNL A   1      48.362  26.686  31.709  1.00  0.00     0.054 A 
BRANCH  65  66
ATOM     66  S   UNL A   1      49.815  25.632  31.968  1.00  0.00     0.124 S 
ATOM     67  O   UNL A   1      50.819  26.602  32.397  1.00  0.00    -0.237 OA
ATOM     68  O   UNL A   1      49.356  24.705  32.999  1.00  0.00    -0.237 OA
ATOM     69  O   UNL A   1      50.050  25.034  30.656  1.00  0.00    -0.744 OA
ENDBRANCH  65  66
ENDBRANCH  46  60
BRANCH  47  70
ATOM     70  C   UNL A   1      37.279  32.712  29.663  1.00  0.00    -0.014 A 
ATOM     71  C   UNL A   1      36.960  33.379  28.466  1.00  0.00     0.010 A 
ATOM     72  C   UNL A   1      36.338  32.705  30.710  1.00  0.00     0.010 A 
ATOM     73  C   UNL A   1      35.746  34.061  28.336  1.00  0.00     0.020 A 
ATOM     74  C   UNL A   1      35.110  33.354  30.571  1.00  0.00     0.020 A 
ATOM     75  C   UNL A   1      34.831  34.048  29.392  1.00  0.00     0.054 A 
BRANCH  75  76
ATOM     76  S   UNL A   1      33.260  34.935  29.203  1.00  0.00     0.124 S 
ATOM     77  O   UNL A   1      32.712  34.869  30.554  1.00  0.00    -0.237 OA
ATOM     78  O   UNL A   1      33.695  36.257  28.759  1.00  0.00    -0.237 OA
ATOM     79  O   UNL A   1      32.546  34.153  28.197  1.00  0.00    -0.744 OA
ENDBRANCH  75  76
ENDBRANCH  47  70
BRANCH  59  80
ATOM     80  C   UNL A   1      43.188  34.657  32.811  1.00  0.00    -0.014 A 
ATOM     81  C   UNL A   1      43.761  35.733  32.109  1.00  0.00     0.010 A 
ATOM     82  C   UNL A   1      42.949  34.790  34.191  1.00  0.00     0.010 A 
ATOM     83  C   UNL A   1      44.119  36.904  32.780  1.00  0.00     0.020 A 
ATOM     84  C   UNL A   1      43.276  35.973  34.860  1.00  0.00     0.020 A 
ATOM     85  C   UNL A   1      43.873  37.017  34.153  1.00  0.00     0.054 A 
BRANCH  85  86
ATOM     86  S   UNL A   1      44.308  38.565  34.990  1.00  0.00     0.124 S 
ATOM     87  O   UNL A   1      45.744  38.652  34.741  1.00  0.00    -0.237 OA
ATOM     88  O   UNL A   1      43.488  39.550  34.288  1.00  0.00    -0.237 OA
ATOM     89  O   UNL A   1      43.929  38.325  36.381  1.00  0.00    -0.744 OA
ENDBRANCH  85  86
ENDBRANCH  59  80
ENDBRANCH  33  34
ENDBRANCH  25  28
ENDBRANCH  23  24
ENDBRANCH  22  23
ENDBRANCH   1  22
TORSDOF 17
ENDMDL
MODEL 3
REMARK VINA RESULT:     -10.4      3.321      6.404
REMARK SMILES C[C@@H](C(=O)NCCCCCCNC(=O)c1ccc(-c2c3nc(c(-c4ccc(S(=O)(=O)[O-])cc4)c4ccc([nH]4)c(-c4ccc(S(=O)(=O)[O-])cc4)c4nc(c(-c5ccc(S(=O)(=O)[O-])cc5)c5ccc2[nH]5)C=C4)C=C3)cc1)[C@H]1CCOC2(CCCCC2)C1
REMARK SMILES IDX 9 1 8 2 7 3 6 4 5 5 3 6 4 7 2 9 1 10 75 11 76 12 85 13 77 14
REMARK SMILES IDX 79 15 78 16 80 17 84 18 81 19 83 20 82 21 10 22 11 23 12 24
REMARK SMILES IDX 13 25 14 27 15 28 16 29 74 30 17 31 73 32 18 33 19 34 20 35
REMARK SMILES IDX 67 36 21 37 72 38 66 39 68 40 22 41 71 42 65 43 64 44 23 46
REMARK SMILES IDX 53 47 34 48 52 49 35 50 38 51 51 52 69 53 36 54 37 55 50 57
REMARK SMILES IDX 70 58 39 59 24 60 25 61 33 62 26 63 32 64 27 65 28 66 29 67
REMARK SMILES IDX 30 68 31 69 54 70 55 71 63 72 56 73 62 74 57 75 58 76 59 77
REMARK SMILES IDX 60 78 61 79 40 80 41 81 49 82 42 83 48 84 43 85 44 86 45 87
REMARK SMILES IDX 46 88 47 89
REMARK H PARENT 5 8 12 26 68 45 38 56
REMARK Flexibility Score: inf
ROOT
ATOM      1  C   UNL A   1      35.560  33.847  29.736  1.00  0.00     0.002 C 
ENDROOT
BRANCH   1   2
ATOM      2  C   UNL A   1      36.992  33.457  29.365  1.00  0.00     0.002 C 
BRANCH   2   3
ATOM      3  C   UNL A   1      38.034  34.569  29.553  1.00  0.00     0.021 C 
BRANCH   3   4
ATOM      4  C   UNL A   1      38.927  34.395  30.787  1.00  0.00     0.116 C 
BRANCH   4   5
ATOM      5  N   UNL A   1      38.253  34.904  31.959  1.00  0.00    -0.356 N 
ATOM      6  C   UNL A   1      37.354  34.309  32.787  1.00  0.00     0.223 C 
ATOM      7  O   UNL A   1      36.710  35.080  33.498  1.00  0.00    -0.275 OA
ATOM      8  H   UNL A   1      38.482  35.831  32.196  1.00  0.00     0.163 HD
BRANCH   6   9
ATOM      9  C   UNL A   1      37.201  32.777  32.795  1.00  0.00     0.078 C 
ATOM     10  C   UNL A   1      35.813  32.364  33.307  1.00  0.00     0.018 C 
BRANCH   9  11
ATOM     11  C   UNL A   1      38.261  31.969  33.611  1.00  0.00     0.006 C 
ATOM     12  C   UNL A   1      37.783  31.587  35.016  1.00  0.00     0.033 C 
ATOM     13  C   UNL A   1      38.806  30.701  32.943  1.00  0.00     0.040 C 
ATOM     14  C   UNL A   1      38.924  30.919  35.785  1.00  0.00     0.161 C 
ATOM     15  C   UNL A   1      39.924  30.032  33.758  1.00  0.00     0.069 C 
ATOM     16  O   UNL A   1      39.465  29.790  35.099  1.00  0.00    -0.375 OA
ATOM     17  C   UNL A   1      41.219  30.872  33.735  1.00  0.00     0.035 C 
ATOM     18  C   UNL A   1      40.204  28.646  33.131  1.00  0.00     0.035 C 
ATOM     19  C   UNL A   1      42.391  30.154  34.396  1.00  0.00     0.003 C 
ATOM     20  C   UNL A   1      41.388  27.929  33.776  1.00  0.00     0.003 C 
ATOM     21  C   UNL A   1      42.642  28.793  33.756  1.00  0.00     0.000 C 
ENDBRANCH   9  11
ENDBRANCH   6   9
ENDBRANCH   4   5
ENDBRANCH   3   4
ENDBRANCH   2   3
ENDBRANCH   1   2
BRANCH   1  22
ATOM     22  C   UNL A   1      34.514  32.764  29.460  1.00  0.00     0.021 C 
BRANCH  22  23
ATOM     23  C   UNL A   1      34.432  32.327  28.002  1.00  0.00     0.116 C 
BRANCH  23  24
ATOM     24  N   UNL A   1      33.836  31.007  27.865  1.00  0.00    -0.352 N 
ATOM     25  C   UNL A   1      34.451  29.781  27.829  1.00  0.00     0.251 C 
ATOM     26  H   UNL A   1      32.855  30.991  27.787  1.00  0.00     0.163 HD
ATOM     27  O   UNL A   1      33.817  28.785  27.487  1.00  0.00    -0.269 OA
BRANCH  25  28
ATOM     28  C   UNL A   1      35.882  29.669  28.179  1.00  0.00     0.039 A 
ATOM     29  C   UNL A   1      36.233  29.328  29.487  1.00  0.00     0.014 A 
ATOM     30  C   UNL A   1      36.873  29.885  27.216  1.00  0.00     0.014 A 
ATOM     31  C   UNL A   1      37.577  29.131  29.809  1.00  0.00     0.010 A 
ATOM     32  C   UNL A   1      38.205  29.619  27.522  1.00  0.00     0.010 A 
ATOM     33  C   UNL A   1      38.571  29.231  28.820  1.00  0.00    -0.014 A 
BRANCH  33  34
ATOM     34  C   UNL A   1      39.985  28.885  29.118  1.00  0.00     0.031 A 
ATOM     35  C   UNL A   1      40.914  29.908  29.713  1.00  0.00     0.074 A 
ATOM     36  C   UNL A   1      40.446  27.660  28.792  1.00  0.00     0.049 A 
ATOM     37  N   UNL A   1      42.186  29.794  29.997  1.00  0.00    -0.248 NA
ATOM     38  C   UNL A   1      40.351  31.236  30.012  1.00  0.00     0.031 C 
ATOM     39  C   UNL A   1      39.654  26.595  28.167  1.00  0.00     0.029 A 
ATOM     40  N   UNL A   1      41.693  27.102  28.931  1.00  0.00    -0.354 N 
ATOM     41  C   UNL A   1      42.579  31.032  30.493  1.00  0.00     0.074 A 
ATOM     42  C   UNL A   1      41.421  31.896  30.436  1.00  0.00     0.031 C 
ATOM     43  C   UNL A   1      40.427  25.510  28.001  1.00  0.00     0.029 A 
ATOM     44  C   UNL A   1      41.778  25.811  28.459  1.00  0.00     0.049 A 
ATOM     45  H   UNL A   1      42.455  27.581  29.331  1.00  0.00     0.167 HD
ATOM     46  C   UNL A   1      43.791  31.409  30.963  1.00  0.00     0.031 A 
ATOM     47  C   UNL A   1      42.829  24.970  28.387  1.00  0.00     0.031 A 
ATOM     48  C   UNL A   1      44.937  30.540  31.031  1.00  0.00     0.049 A 
ATOM     49  C   UNL A   1      44.168  25.427  28.901  1.00  0.00     0.074 A 
ATOM     50  C   UNL A   1      46.187  30.812  31.562  1.00  0.00     0.029 A 
ATOM     51  N   UNL A   1      44.982  29.242  30.549  1.00  0.00    -0.354 N 
ATOM     52  N   UNL A   1      44.491  26.572  29.452  1.00  0.00    -0.248 NA
ATOM     53  C   UNL A   1      45.282  24.474  28.791  1.00  0.00     0.031 C 
ATOM     54  C   UNL A   1      47.008  29.703  31.338  1.00  0.00     0.029 A 
ATOM     55  C   UNL A   1      46.249  28.714  30.733  1.00  0.00     0.049 A 
ATOM     56  H   UNL A   1      44.225  28.765  30.138  1.00  0.00     0.167 HD
ATOM     57  C   UNL A   1      45.840  26.466  29.775  1.00  0.00     0.074 A 
ATOM     58  C   UNL A   1      46.262  25.138  29.385  1.00  0.00     0.031 C 
ATOM     59  C   UNL A   1      46.657  27.389  30.341  1.00  0.00     0.031 A 
BRANCH  46  60
ATOM     60  C   UNL A   1      43.960  32.827  31.444  1.00  0.00    -0.014 A 
ATOM     61  C   UNL A   1      43.805  33.159  32.801  1.00  0.00     0.010 A 
ATOM     62  C   UNL A   1      44.388  33.819  30.541  1.00  0.00     0.010 A 
ATOM     63  C   UNL A   1      44.064  34.459  33.244  1.00  0.00     0.020 A 
ATOM     64  C   UNL A   1      44.675  35.112  30.985  1.00  0.00     0.020 A 
ATOM     65  C   UNL A   1      44.505  35.426  32.335  1.00  0.00     0.054 A 
BRANCH  65  66
ATOM     66  S   UNL A   1      44.907  37.082  32.955  1.00  0.00     0.124 S 
ATOM     67  O   UNL A   1      46.361  37.013  33.080  1.00  0.00    -0.237 OA
ATOM     68  O   UNL A   1      44.409  37.949  31.891  1.00  0.00    -0.237 OA
ATOM     69  O   UNL A   1      44.178  37.167  34.218  1.00  0.00    -0.744 OA
ENDBRANCH  65  66
ENDBRANCH  46  60
BRANCH  47  70
ATOM     70  C   UNL A   1      42.671  23.618  27.782  1.00  0.00    -0.014 A 
ATOM     71  C   UNL A   1      42.104  22.560  28.517  1.00  0.00     0.010 A 
ATOM     72  C   UNL A   1      43.124  23.370  26.472  1.00  0.00     0.010 A 
ATOM     73  C   UNL A   1      42.033  21.275  27.970  1.00  0.00     0.020 A 
ATOM     74  C   UNL A   1      43.022  22.096  25.909  1.00  0.00     0.020 A 
ATOM     75  C   UNL A   1      42.497  21.051  26.671  1.00  0.00     0.054 A 
BRANCH  75  76
ATOM     76  S   UNL A   1      42.393  19.377  25.979  1.00  0.00     0.124 S 
ATOM     77  O   UNL A   1      40.957  19.231  25.758  1.00  0.00    -0.237 OA
ATOM     78  O   UNL A   1      43.211  19.483  24.774  1.00  0.00    -0.237 OA
ATOM     79  O   UNL A   1      42.955  18.536  27.033  1.00  0.00    -0.744 OA
ENDBRANCH  75  76
ENDBRANCH  47  70
BRANCH  59  80
ATOM     80  C   UNL A   1      48.085  26.987  30.599  1.00  0.00    -0.014 A 
ATOM     81  C   UNL A   1      49.113  27.330  29.702  1.00  0.00     0.010 A 
ATOM     82  C   UNL A   1      48.411  26.299  31.782  1.00  0.00     0.010 A 
ATOM     83  C   UNL A   1      50.434  26.963  29.966  1.00  0.00     0.020 A 
ATOM     84  C   UNL A   1      49.736  25.959  32.066  1.00  0.00     0.020 A 
ATOM     85  C   UNL A   1      50.737  26.280  31.149  1.00  0.00     0.054 A 
BRANCH  85  86
ATOM     86  S   UNL A   1      52.467  25.853  31.489  1.00  0.00     0.124 S 
ATOM     87  O   UNL A   1      52.343  24.516  32.064  1.00  0.00    -0.237 OA
ATOM     88  O   UNL A   1      53.077  25.912  30.163  1.00  0.00    -0.237 OA
ATOM     89  O   UNL A   1      52.905  26.893  32.417  1.00  0.00    -0.744 OA
ENDBRANCH  85  86
ENDBRANCH  59  80
ENDBRANCH  33  34
ENDBRANCH  25  28
ENDBRANCH  23  24
ENDBRANCH  22  23
ENDBRANCH   1  22
TORSDOF 17
ENDMDL
