MODEL 1
REMARK VINA RESULT:     -14.1      0.000      0.000
REMARK SMILES Cc1c(NC(=O)c2cccc(-c3cc4ccccc4oc3=O)c2)cccc1C(=O)NCCCCCCNC(=O)c1ccc(-c2c3nc(c(-c4ccc(S(=O)(=O)[O-])cc4)c4ccc([nH]4)c(-c4ccc(S(=O)(=O)[O-])cc4)c4nc(c(-c5ccc(S(=O)(=O)[O-])cc5)c5ccc2[nH]5)C=C4)C=C3)cc1
REMARK SMILES IDX 33 1 32 2 31 3 30 4 28 5 29 6 27 8 1 9 2 10 3 11 24 12 26 13
REMARK SMILES IDX 25 14 4 15 5 16 6 18 7 19 8 20 23 21 9 22 11 23 10 24 12 25
REMARK SMILES IDX 13 26 21 27 14 28 20 29 22 30 15 31 19 32 16 33 18 34 17 35
REMARK SMILES IDX 34 36 35 37 36 38 37 39 38 40 39 42 40 43 41 44 99 45 42 46
REMARK SMILES IDX 98 47 43 48 44 49 45 50 92 51 46 52 97 53 91 54 93 55 47 56
REMARK SMILES IDX 96 57 90 58 89 59 48 61 78 62 59 63 77 64 60 65 63 66 76 67
REMARK SMILES IDX 94 68 61 69 62 70 75 72 95 73 64 74 49 75 50 76 58 77 51 78
REMARK SMILES IDX 57 79 52 80 53 81 54 82 55 83 56 84 79 85 80 86 88 87 81 88
REMARK SMILES IDX 87 89 82 90 83 91 84 92 85 93 86 94 65 95 66 96 74 97 67 98
REMARK SMILES IDX 73 99 68 100 69 101 70 102 71 103 72 104
REMARK H PARENT 30 7 4 17 37 41 93 60 63 71
REMARK Flexibility Score: inf
ROOT
ATOM      1  C   UNL A   1      38.391  21.148  25.738  1.00  0.00     0.002 C 
ENDROOT
BRANCH   1   2
ATOM      2  C   UNL A   1      37.694  20.000  24.994  1.00  0.00     0.021 C 
BRANCH   2   3
ATOM      3  C   UNL A   1      36.159  20.086  24.915  1.00  0.00     0.116 C 
BRANCH   3   4
ATOM      4  N   UNL A   1      35.644  20.947  25.964  1.00  0.00    -0.352 N 
ATOM      5  C   UNL A   1      34.644  21.866  26.109  1.00  0.00     0.251 C 
ATOM      6  O   UNL A   1      34.589  22.367  27.242  1.00  0.00    -0.269 OA
ATOM      7  H   UNL A   1      36.155  20.839  26.799  1.00  0.00     0.163 HD
BRANCH   5   8
ATOM      8  C   UNL A   1      33.611  22.322  25.112  1.00  0.00     0.044 A 
ATOM      9  C   UNL A   1      35.103  23.293  23.261  1.00  0.00     0.047 C 
ATOM     10  C   UNL A   1      33.767  22.966  23.861  1.00  0.00    -0.015 A 
ATOM     11  C   UNL A   1      32.608  23.444  23.174  1.00  0.00     0.045 A 
ATOM     12  C   UNL A   1      31.335  23.331  23.737  1.00  0.00     0.026 A 
ATOM     13  C   UNL A   1      32.295  22.223  25.634  1.00  0.00     0.014 A 
ATOM     14  C   UNL A   1      31.179  22.729  24.974  1.00  0.00     0.003 A 
BRANCH  11  15
ATOM     15  N   UNL A   1      32.749  24.018  21.892  1.00  0.00    -0.322 N 
ATOM     16  C   UNL A   1      32.674  25.331  21.477  1.00  0.00     0.255 C 
ATOM     17  H   UNL A   1      32.931  23.372  21.173  1.00  0.00     0.170 HD
ATOM     18  O   UNL A   1      32.397  25.571  20.301  1.00  0.00    -0.269 OA
BRANCH  16  19
ATOM     19  C   UNL A   1      33.062  26.464  22.370  1.00  0.00     0.040 A 
ATOM     20  C   UNL A   1      33.765  27.541  21.818  1.00  0.00     0.014 A 
ATOM     21  C   UNL A   1      32.882  26.412  23.759  1.00  0.00     0.022 A 
ATOM     22  C   UNL A   1      34.246  28.563  22.638  1.00  0.00     0.001 A 
ATOM     23  C   UNL A   1      33.348  27.438  24.596  1.00  0.00    -0.010 A 
ATOM     24  C   UNL A   1      34.033  28.514  24.017  1.00  0.00     0.009 A 
BRANCH  23  25
ATOM     25  C   UNL A   1      33.261  27.372  26.079  1.00  0.00     0.068 A 
ATOM     26  C   UNL A   1      34.105  28.041  26.895  1.00  0.00     0.028 A 
ATOM     27  C   UNL A   1      31.863  27.408  26.616  1.00  0.00     0.344 A 
ATOM     28  C   UNL A   1      33.685  29.443  27.119  1.00  0.00     0.018 A 
ATOM     29  O   UNL A   1      31.383  28.700  26.834  1.00  0.00    -0.422 OA
ATOM     30  O   UNL A   1      31.191  26.395  26.759  1.00  0.00    -0.246 OA
ATOM     31  C   UNL A   1      34.589  30.461  27.405  1.00  0.00     0.012 A 
ATOM     32  C   UNL A   1      32.321  29.744  26.992  1.00  0.00     0.138 A 
ATOM     33  C   UNL A   1      34.124  31.774  27.512  1.00  0.00     0.001 A 
ATOM     34  C   UNL A   1      31.859  31.052  27.051  1.00  0.00     0.048 A 
ATOM     35  C   UNL A   1      32.773  32.073  27.303  1.00  0.00     0.004 A 
ENDBRANCH  23  25
ENDBRANCH  16  19
ENDBRANCH  11  15
ENDBRANCH   5   8
ENDBRANCH   3   4
ENDBRANCH   2   3
ENDBRANCH   1   2
BRANCH   1  36
ATOM     36  C   UNL A   1      39.872  20.939  26.094  1.00  0.00     0.002 C 
BRANCH  36  37
ATOM     37  C   UNL A   1      40.401  21.767  27.266  1.00  0.00     0.021 C 
BRANCH  37  38
ATOM     38  C   UNL A   1      40.977  23.114  26.851  1.00  0.00     0.116 C 
BRANCH  38  39
ATOM     39  N   UNL A   1      40.046  23.921  26.077  1.00  0.00    -0.352 N 
ATOM     40  C   UNL A   1      39.128  24.760  26.686  1.00  0.00     0.251 C 
ATOM     41  H   UNL A   1      40.070  23.870  25.094  1.00  0.00     0.163 HD
ATOM     42  O   UNL A   1      37.925  24.777  26.445  1.00  0.00    -0.269 OA
BRANCH  40  43
ATOM     43  C   UNL A   1      39.715  25.699  27.660  1.00  0.00     0.039 A 
ATOM     44  C   UNL A   1      39.198  25.738  28.957  1.00  0.00     0.014 A 
ATOM     45  C   UNL A   1      40.577  26.689  27.189  1.00  0.00     0.014 A 
ATOM     46  C   UNL A   1      39.444  26.855  29.751  1.00  0.00     0.010 A 
ATOM     47  C   UNL A   1      40.751  27.828  27.948  1.00  0.00     0.010 A 
ATOM     48  C   UNL A   1      40.155  27.931  29.214  1.00  0.00    -0.014 A 
BRANCH  48  49
ATOM     49  C   UNL A   1      40.301  29.221  29.878  1.00  0.00     0.031 A 
ATOM     50  C   UNL A   1      39.228  30.235  29.758  1.00  0.00     0.074 A 
ATOM     51  C   UNL A   1      41.374  29.475  30.659  1.00  0.00     0.049 A 
ATOM     52  N   UNL A   1      39.385  31.498  29.986  1.00  0.00    -0.248 NA
ATOM     53  C   UNL A   1      37.881  29.897  29.313  1.00  0.00     0.031 C 
ATOM     54  C   UNL A   1      41.529  30.578  31.606  1.00  0.00     0.029 A 
ATOM     55  N   UNL A   1      42.652  28.919  30.582  1.00  0.00    -0.354 N 
ATOM     56  C   UNL A   1      38.136  32.075  30.005  1.00  0.00     0.074 A 
ATOM     57  C   UNL A   1      37.243  31.053  29.509  1.00  0.00     0.031 C 
ATOM     58  C   UNL A   1      42.840  30.817  31.768  1.00  0.00     0.029 A 
ATOM     59  C   UNL A   1      43.547  29.979  30.813  1.00  0.00     0.049 A 
ATOM     60  H   UNL A   1      42.880  27.978  30.402  1.00  0.00     0.167 HD
ATOM     61  C   UNL A   1      37.969  33.313  30.550  1.00  0.00     0.031 A 
ATOM     62  C   UNL A   1      44.446  30.422  29.885  1.00  0.00     0.031 A 
ATOM     63  C   UNL A   1      39.238  33.927  30.936  1.00  0.00     0.049 A 
ATOM     64  C   UNL A   1      44.278  31.889  29.518  1.00  0.00     0.074 A 
ATOM     65  C   UNL A   1      39.891  34.151  32.137  1.00  0.00     0.029 A 
ATOM     66  N   UNL A   1      40.165  34.193  29.943  1.00  0.00    -0.354 N 
ATOM     67  N   UNL A   1      43.348  32.670  29.996  1.00  0.00    -0.248 NA
ATOM     68  C   UNL A   1      45.087  32.559  28.497  1.00  0.00     0.031 C 
ATOM     69  C   UNL A   1      41.230  34.547  31.848  1.00  0.00     0.029 A 
ATOM     70  C   UNL A   1      41.381  34.572  30.474  1.00  0.00     0.049 A 
ATOM     71  H   UNL A   1      39.980  34.122  28.979  1.00  0.00     0.167 HD
ATOM     72  C   UNL A   1      43.385  33.876  29.348  1.00  0.00     0.074 A 
ATOM     73  C   UNL A   1      44.501  33.766  28.428  1.00  0.00     0.031 C 
ATOM     74  C   UNL A   1      42.473  34.865  29.565  1.00  0.00     0.031 A 
BRANCH  61  75
ATOM     75  C   UNL A   1      36.618  33.876  30.935  1.00  0.00    -0.014 A 
ATOM     76  C   UNL A   1      35.584  33.927  29.976  1.00  0.00     0.010 A 
ATOM     77  C   UNL A   1      36.315  34.413  32.200  1.00  0.00     0.010 A 
ATOM     78  C   UNL A   1      34.364  34.575  30.229  1.00  0.00     0.020 A 
ATOM     79  C   UNL A   1      35.119  35.099  32.456  1.00  0.00     0.020 A 
ATOM     80  C   UNL A   1      34.152  35.188  31.461  1.00  0.00     0.054 A 
BRANCH  80  81
ATOM     81  S   UNL A   1      32.618  36.110  31.740  1.00  0.00     0.124 S 
ATOM     82  O   UNL A   1      32.222  36.484  30.384  1.00  0.00    -0.237 OA
ATOM     83  O   UNL A   1      31.770  35.118  32.393  1.00  0.00    -0.237 OA
ATOM     84  O   UNL A   1      33.034  37.227  32.586  1.00  0.00    -0.744 OA
ENDBRANCH  80  81
ENDBRANCH  61  75
BRANCH  62  85
ATOM     85  C   UNL A   1      44.917  29.362  28.946  1.00  0.00    -0.014 A 
ATOM     86  C   UNL A   1      44.130  29.104  27.802  1.00  0.00     0.010 A 
ATOM     87  C   UNL A   1      46.259  28.950  28.953  1.00  0.00     0.010 A 
ATOM     88  C   UNL A   1      44.716  28.623  26.628  1.00  0.00     0.020 A 
ATOM     89  C   UNL A   1      46.845  28.449  27.781  1.00  0.00     0.020 A 
ATOM     90  C   UNL A   1      46.087  28.367  26.610  1.00  0.00     0.054 A 
BRANCH  90  91
ATOM     91  S   UNL A   1      46.892  28.098  25.000  1.00  0.00     0.124 S 
ATOM     92  O   UNL A   1      46.279  26.854  24.546  1.00  0.00    -0.237 OA
ATOM     93  O   UNL A   1      46.511  29.300  24.255  1.00  0.00    -0.237 OA
ATOM     94  O   UNL A   1      48.308  28.018  25.343  1.00  0.00    -0.744 OA
ENDBRANCH  90  91
ENDBRANCH  62  85
BRANCH  74  95
ATOM     95  C   UNL A   1      42.523  36.199  28.881  1.00  0.00    -0.014 A 
ATOM     96  C   UNL A   1      41.976  36.402  27.603  1.00  0.00     0.010 A 
ATOM     97  C   UNL A   1      43.244  37.266  29.461  1.00  0.00     0.010 A 
ATOM     98  C   UNL A   1      42.096  37.639  26.956  1.00  0.00     0.020 A 
ATOM     99  C   UNL A   1      43.386  38.497  28.815  1.00  0.00     0.020 A 
ATOM    100  C   UNL A   1      42.791  38.683  27.572  1.00  0.00     0.054 A 
BRANCH 100 101
ATOM    101  S   UNL A   1      42.962  40.267  26.708  1.00  0.00     0.124 S 
ATOM    102  O   UNL A   1      43.365  41.177  27.778  1.00  0.00    -0.237 OA
ATOM    103  O   UNL A   1      43.996  39.961  25.724  1.00  0.00    -0.237 OA
ATOM    104  O   UNL A   1      41.630  40.509  26.162  1.00  0.00    -0.744 OA
ENDBRANCH 100 101
ENDBRANCH  74  95
ENDBRANCH  48  49
ENDBRANCH  40  43
ENDBRANCH  38  39
ENDBRANCH  37  38
ENDBRANCH  36  37
ENDBRANCH   1  36
TORSDOF 19
ENDMDL
MODEL 2
REMARK VINA RESULT:     -13.5      1.805      2.126
REMARK SMILES Cc1c(NC(=O)c2cccc(-c3cc4ccccc4oc3=O)c2)cccc1C(=O)NCCCCCCNC(=O)c1ccc(-c2c3nc(c(-c4ccc(S(=O)(=O)[O-])cc4)c4ccc([nH]4)c(-c4ccc(S(=O)(=O)[O-])cc4)c4nc(c(-c5ccc(S(=O)(=O)[O-])cc5)c5ccc2[nH]5)C=C4)C=C3)cc1
REMARK SMILES IDX 33 1 32 2 31 3 30 4 28 5 29 6 27 8 1 9 2 10 3 11 24 12 26 13
REMARK SMILES IDX 25 14 4 15 5 16 6 18 7 19 8 20 23 21 9 22 11 23 10 24 12 25
REMARK SMILES IDX 13 26 21 27 14 28 20 29 22 30 15 31 19 32 16 33 18 34 17 35
REMARK SMILES IDX 34 36 35 37 36 38 37 39 38 40 39 42 40 43 41 44 99 45 42 46
REMARK SMILES IDX 98 47 43 48 44 49 45 50 92 51 46 52 97 53 91 54 93 55 47 56
REMARK SMILES IDX 96 57 90 58 89 59 48 61 78 62 59 63 77 64 60 65 63 66 76 67
REMARK SMILES IDX 94 68 61 69 62 70 75 72 95 73 64 74 49 75 50 76 58 77 51 78
REMARK SMILES IDX 57 79 52 80 53 81 54 82 55 83 56 84 79 85 80 86 88 87 81 88
REMARK SMILES IDX 87 89 82 90 83 91 84 92 85 93 86 94 65 95 66 96 74 97 67 98
REMARK SMILES IDX 73 99 68 100 69 101 70 102 71 103 72 104
REMARK H PARENT 30 7 4 17 37 41 93 60 63 71
REMARK Flexibility Score: inf
ROOT
ATOM      1  C   UNL A   1      38.122  21.325  25.798  1.00  0.00     0.002 C 
ENDROOT
BRANCH   1   2
ATOM      2  C   UNL A   1      37.248  20.699  24.700  1.00  0.00     0.021 C 
BRANCH   2   3
ATOM      3  C   UNL A   1      35.844  20.246  25.138  1.00  0.00     0.116 C 
BRANCH   3   4
ATOM      4  N   UNL A   1      35.271  21.199  26.071  1.00  0.00    -0.352 N 
ATOM      5  C   UNL A   1      34.318  22.177  26.049  1.00  0.00     0.251 C 
ATOM      6  O   UNL A   1      34.169  22.752  27.138  1.00  0.00    -0.269 OA
ATOM      7  H   UNL A   1      35.680  21.117  26.962  1.00  0.00     0.163 HD
BRANCH   5   8
ATOM      8  C   UNL A   1      33.429  22.624  24.918  1.00  0.00     0.044 A 
ATOM      9  C   UNL A   1      35.170  23.410  23.201  1.00  0.00     0.047 C 
ATOM     10  C   UNL A   1      33.759  23.185  23.660  1.00  0.00    -0.015 A 
ATOM     11  C   UNL A   1      32.713  23.678  22.820  1.00  0.00     0.045 A 
ATOM     12  C   UNL A   1      31.380  23.660  23.239  1.00  0.00     0.026 A 
ATOM     13  C   UNL A   1      32.060  22.620  25.290  1.00  0.00     0.014 A 
ATOM     14  C   UNL A   1      31.054  23.141  24.480  1.00  0.00     0.003 A 
BRANCH  11  15
ATOM     15  N   UNL A   1      33.027  24.168  21.535  1.00  0.00    -0.322 N 
ATOM     16  C   UNL A   1      32.770  25.388  20.945  1.00  0.00     0.255 C 
ATOM     17  H   UNL A   1      33.512  23.532  20.962  1.00  0.00     0.170 HD
ATOM     18  O   UNL A   1      32.736  25.462  19.716  1.00  0.00    -0.269 OA
BRANCH  16  19
ATOM     19  C   UNL A   1      32.677  26.646  21.744  1.00  0.00     0.040 A 
ATOM     20  C   UNL A   1      33.849  27.368  21.996  1.00  0.00     0.014 A 
ATOM     21  C   UNL A   1      31.489  27.042  22.374  1.00  0.00     0.022 A 
ATOM     22  C   UNL A   1      33.824  28.484  22.834  1.00  0.00     0.001 A 
ATOM     23  C   UNL A   1      31.443  28.170  23.209  1.00  0.00    -0.010 A 
ATOM     24  C   UNL A   1      32.627  28.885  23.431  1.00  0.00     0.009 A 
BRANCH  23  25
ATOM     25  C   UNL A   1      30.227  28.563  23.968  1.00  0.00     0.068 A 
ATOM     26  C   UNL A   1      29.942  29.846  24.283  1.00  0.00     0.028 A 
ATOM     27  C   UNL A   1      28.986  27.825  23.571  1.00  0.00     0.344 A 
ATOM     28  C   UNL A   1      29.258  30.561  23.182  1.00  0.00     0.018 A 
ATOM     29  O   UNL A   1      28.294  28.426  22.518  1.00  0.00    -0.422 OA
ATOM     30  O   UNL A   1      28.674  26.752  24.071  1.00  0.00    -0.246 OA
ATOM     31  C   UNL A   1      29.362  31.937  23.002  1.00  0.00     0.012 A 
ATOM     32  C   UNL A   1      28.514  29.798  22.270  1.00  0.00     0.138 A 
ATOM     33  C   UNL A   1      28.762  32.524  21.886  1.00  0.00     0.001 A 
ATOM     34  C   UNL A   1      27.955  30.368  21.135  1.00  0.00     0.048 A 
ATOM     35  C   UNL A   1      28.091  31.741  20.939  1.00  0.00     0.004 A 
ENDBRANCH  23  25
ENDBRANCH  16  19
ENDBRANCH  11  15
ENDBRANCH   5   8
ENDBRANCH   3   4
ENDBRANCH   2   3
ENDBRANCH   1   2
BRANCH   1  36
ATOM     36  C   UNL A   1      39.613  20.954  25.786  1.00  0.00     0.002 C 
BRANCH  36  37
ATOM     37  C   UNL A   1      40.428  21.422  26.993  1.00  0.00     0.021 C 
BRANCH  37  38
ATOM     38  C   UNL A   1      40.910  22.861  26.885  1.00  0.00     0.116 C 
BRANCH  38  39
ATOM     39  N   UNL A   1      40.090  23.674  25.998  1.00  0.00    -0.352 N 
ATOM     40  C   UNL A   1      39.193  24.609  26.487  1.00  0.00     0.251 C 
ATOM     41  H   UNL A   1      40.177  23.557  25.024  1.00  0.00     0.163 HD
ATOM     42  O   UNL A   1      38.014  24.687  26.160  1.00  0.00    -0.269 OA
BRANCH  40  43
ATOM     43  C   UNL A   1      39.777  25.570  27.441  1.00  0.00     0.039 A 
ATOM     44  C   UNL A   1      39.310  25.584  28.757  1.00  0.00     0.014 A 
ATOM     45  C   UNL A   1      40.576  26.597  26.940  1.00  0.00     0.014 A 
ATOM     46  C   UNL A   1      39.538  26.709  29.545  1.00  0.00     0.010 A 
ATOM     47  C   UNL A   1      40.731  27.742  27.696  1.00  0.00     0.010 A 
ATOM     48  C   UNL A   1      40.181  27.816  28.984  1.00  0.00    -0.014 A 
BRANCH  48  49
ATOM     49  C   UNL A   1      40.297  29.110  29.647  1.00  0.00     0.031 A 
ATOM     50  C   UNL A   1      39.223  30.117  29.486  1.00  0.00     0.074 A 
ATOM     51  C   UNL A   1      41.341  29.374  30.463  1.00  0.00     0.049 A 
ATOM     52  N   UNL A   1      39.365  31.382  29.714  1.00  0.00    -0.248 NA
ATOM     53  C   UNL A   1      37.893  29.769  28.998  1.00  0.00     0.031 C 
ATOM     54  C   UNL A   1      41.458  30.481  31.409  1.00  0.00     0.029 A 
ATOM     55  N   UNL A   1      42.625  28.825  30.431  1.00  0.00    -0.354 N 
ATOM     56  C   UNL A   1      38.112  31.952  29.688  1.00  0.00     0.074 A 
ATOM     57  C   UNL A   1      37.242  30.922  29.167  1.00  0.00     0.031 C 
ATOM     58  C   UNL A   1      42.761  30.729  31.614  1.00  0.00     0.029 A 
ATOM     59  C   UNL A   1      43.505  29.892  30.687  1.00  0.00     0.049 A 
ATOM     60  H   UNL A   1      42.864  27.885  30.263  1.00  0.00     0.167 HD
ATOM     61  C   UNL A   1      37.919  33.191  30.221  1.00  0.00     0.031 A 
ATOM     62  C   UNL A   1      44.432  30.335  29.787  1.00  0.00     0.031 A 
ATOM     63  C   UNL A   1      39.171  33.815  30.647  1.00  0.00     0.049 A 
ATOM     64  C   UNL A   1      44.268  31.800  29.408  1.00  0.00     0.074 A 
ATOM     65  C   UNL A   1      39.782  34.047  31.868  1.00  0.00     0.029 A 
ATOM     66  N   UNL A   1      40.130  34.082  29.684  1.00  0.00    -0.354 N 
ATOM     67  N   UNL A   1      43.318  32.578  29.851  1.00  0.00    -0.248 NA
ATOM     68  C   UNL A   1      45.107  32.470  28.412  1.00  0.00     0.031 C 
ATOM     69  C   UNL A   1      41.128  34.450  31.622  1.00  0.00     0.029 A 
ATOM     70  C   UNL A   1      41.326  34.470  30.254  1.00  0.00     0.049 A 
ATOM     71  H   UNL A   1      39.977  34.005  28.715  1.00  0.00     0.167 HD
ATOM     72  C   UNL A   1      43.370  33.780  29.199  1.00  0.00     0.074 A 
ATOM     73  C   UNL A   1      44.517  33.674  28.317  1.00  0.00     0.031 C 
ATOM     74  C   UNL A   1      42.445  34.765  29.381  1.00  0.00     0.031 A 
BRANCH  61  75
ATOM     75  C   UNL A   1      36.553  33.748  30.558  1.00  0.00    -0.014 A 
ATOM     76  C   UNL A   1      35.653  34.065  29.518  1.00  0.00     0.010 A 
ATOM     77  C   UNL A   1      36.112  34.026  31.865  1.00  0.00     0.010 A 
ATOM     78  C   UNL A   1      34.437  34.723  29.760  1.00  0.00     0.020 A 
ATOM     79  C   UNL A   1      34.920  34.720  32.121  1.00  0.00     0.020 A 
ATOM     80  C   UNL A   1      34.092  35.078  31.062  1.00  0.00     0.054 A 
BRANCH  80  81
ATOM     81  S   UNL A   1      32.572  36.019  31.352  1.00  0.00     0.124 S 
ATOM     82  O   UNL A   1      33.082  37.316  31.792  1.00  0.00    -0.237 OA
ATOM     83  O   UNL A   1      31.939  36.004  30.036  1.00  0.00    -0.237 OA
ATOM     84  O   UNL A   1      31.880  35.249  32.383  1.00  0.00    -0.744 OA
ENDBRANCH  80  81
ENDBRANCH  61  75
BRANCH  62  85
ATOM     85  C   UNL A   1      44.940  29.274  28.870  1.00  0.00    -0.014 A 
ATOM     86  C   UNL A   1      44.572  29.354  27.509  1.00  0.00     0.010 A 
ATOM     87  C   UNL A   1      46.056  28.499  29.227  1.00  0.00     0.010 A 
ATOM     88  C   UNL A   1      45.404  28.833  26.515  1.00  0.00     0.020 A 
ATOM     89  C   UNL A   1      46.883  27.960  28.230  1.00  0.00     0.020 A 
ATOM     90  C   UNL A   1      46.591  28.202  26.885  1.00  0.00     0.054 A 
BRANCH  90  91
ATOM     91  S   UNL A   1      47.826  27.860  25.592  1.00  0.00     0.124 S 
ATOM     92  O   UNL A   1      48.078  26.434  25.767  1.00  0.00    -0.237 OA
ATOM     93  O   UNL A   1      47.109  28.232  24.369  1.00  0.00    -0.237 OA
ATOM     94  O   UNL A   1      48.931  28.747  25.942  1.00  0.00    -0.744 OA
ENDBRANCH  90  91
ENDBRANCH  62  85
BRANCH  74  95
ATOM     95  C   UNL A   1      42.511  36.097  28.692  1.00  0.00    -0.014 A 
ATOM     96  C   UNL A   1      42.065  36.275  27.372  1.00  0.00     0.010 A 
ATOM     97  C   UNL A   1      43.148  37.188  29.321  1.00  0.00     0.010 A 
ATOM     98  C   UNL A   1      42.200  37.512  26.728  1.00  0.00     0.020 A 
ATOM     99  C   UNL A   1      43.305  38.420  28.680  1.00  0.00     0.020 A 
ATOM    100  C   UNL A   1      42.809  38.580  27.390  1.00  0.00     0.054 A 
BRANCH 100 101
ATOM    101  S   UNL A   1      43.002  40.164  26.531  1.00  0.00     0.124 S 
ATOM    102  O   UNL A   1      42.986  41.130  27.627  1.00  0.00    -0.237 OA
ATOM    103  O   UNL A   1      44.291  39.990  25.868  1.00  0.00    -0.237 OA
ATOM    104  O   UNL A   1      41.844  40.220  25.643  1.00  0.00    -0.744 OA
ENDBRANCH 100 101
ENDBRANCH  74  95
ENDBRANCH  48  49
ENDBRANCH  40  43
ENDBRANCH  38  39
ENDBRANCH  37  38
ENDBRANCH  36  37
ENDBRANCH   1  36
TORSDOF 19
ENDMDL
MODEL 3
REMARK VINA RESULT:     -11.7      1.851      2.623
REMARK SMILES Cc1c(NC(=O)c2cccc(-c3cc4ccccc4oc3=O)c2)cccc1C(=O)NCCCCCCNC(=O)c1ccc(-c2c3nc(c(-c4ccc(S(=O)(=O)[O-])cc4)c4ccc([nH]4)c(-c4ccc(S(=O)(=O)[O-])cc4)c4nc(c(-c5ccc(S(=O)(=O)[O-])cc5)c5ccc2[nH]5)C=C4)C=C3)cc1
REMARK SMILES IDX 33 1 32 2 31 3 30 4 28 5 29 6 27 8 1 9 2 10 3 11 24 12 26 13
REMARK SMILES IDX 25 14 4 15 5 16 6 18 7 19 8 20 23 21 9 22 11 23 10 24 12 25
REMARK SMILES IDX 13 26 21 27 14 28 20 29 22 30 15 31 19 32 16 33 18 34 17 35
REMARK SMILES IDX 34 36 35 37 36 38 37 39 38 40 39 42 40 43 41 44 99 45 42 46
REMARK SMILES IDX 98 47 43 48 44 49 45 50 92 51 46 52 97 53 91 54 93 55 47 56
REMARK SMILES IDX 96 57 90 58 89 59 48 61 78 62 59 63 77 64 60 65 63 66 76 67
REMARK SMILES IDX 94 68 61 69 62 70 75 72 95 73 64 74 49 75 50 76 58 77 51 78
REMARK SMILES IDX 57 79 52 80 53 81 54 82 55 83 56 84 79 85 80 86 88 87 81 88
REMARK SMILES IDX 87 89 82 90 83 91 84 92 85 93 86 94 65 95 66 96 74 97 67 98
REMARK SMILES IDX 73 99 68 100 69 101 70 102 71 103 72 104
REMARK H PARENT 30 7 4 17 37 41 93 60 63 71
REMARK Flexibility Score: inf
ROOT
ATOM      1  C   UNL A   1      36.602  23.645  25.528  1.00  0.00     0.002 C 
ENDROOT
BRANCH   1   2
ATOM      2  C   UNL A   1      36.143  22.215  25.849  1.00  0.00     0.021 C 
BRANCH   2   3
ATOM      3  C   UNL A   1      35.040  22.087  26.915  1.00  0.00     0.116 C 
BRANCH   3   4
ATOM      4  N   UNL A   1      34.069  21.082  26.523  1.00  0.00    -0.352 N 
ATOM      5  C   UNL A   1      32.999  20.994  25.680  1.00  0.00     0.251 C 
ATOM      6  O   UNL A   1      32.452  19.880  25.682  1.00  0.00    -0.269 OA
ATOM      7  H   UNL A   1      34.225  20.231  26.994  1.00  0.00     0.163 HD
BRANCH   5   8
ATOM      8  C   UNL A   1      32.423  22.032  24.751  1.00  0.00     0.044 A 
ATOM      9  C   UNL A   1      34.308  22.246  23.019  1.00  0.00     0.047 C 
ATOM     10  C   UNL A   1      32.969  22.621  23.585  1.00  0.00    -0.015 A 
ATOM     11  C   UNL A   1      32.282  23.711  22.967  1.00  0.00     0.045 A 
ATOM     12  C   UNL A   1      31.111  24.235  23.522  1.00  0.00     0.026 A 
ATOM     13  C   UNL A   1      31.228  22.595  25.267  1.00  0.00     0.014 A 
ATOM     14  C   UNL A   1      30.589  23.684  24.679  1.00  0.00     0.003 A 
BRANCH  11  15
ATOM     15  N   UNL A   1      32.778  24.253  21.763  1.00  0.00    -0.322 N 
ATOM     16  C   UNL A   1      32.909  25.561  21.346  1.00  0.00     0.255 C 
ATOM     17  H   UNL A   1      33.083  23.583  21.109  1.00  0.00     0.170 HD
ATOM     18  O   UNL A   1      32.951  25.802  20.139  1.00  0.00    -0.269 OA
BRANCH  16  19
ATOM     19  C   UNL A   1      33.149  26.675  22.311  1.00  0.00     0.040 A 
ATOM     20  C   UNL A   1      33.685  27.875  21.829  1.00  0.00     0.014 A 
ATOM     21  C   UNL A   1      33.002  26.507  23.694  1.00  0.00     0.022 A 
ATOM     22  C   UNL A   1      34.032  28.898  22.713  1.00  0.00     0.001 A 
ATOM     23  C   UNL A   1      33.334  27.530  24.596  1.00  0.00    -0.010 A 
ATOM     24  C   UNL A   1      33.851  28.728  24.087  1.00  0.00     0.009 A 
BRANCH  23  25
ATOM     25  C   UNL A   1      33.282  27.355  26.072  1.00  0.00     0.068 A 
ATOM     26  C   UNL A   1      34.328  27.630  26.881  1.00  0.00     0.028 A 
ATOM     27  C   UNL A   1      31.994  27.794  26.699  1.00  0.00     0.344 A 
ATOM     28  C   UNL A   1      34.403  29.064  27.242  1.00  0.00     0.018 A 
ATOM     29  O   UNL A   1      31.977  29.146  27.049  1.00  0.00    -0.422 OA
ATOM     30  O   UNL A   1      31.030  27.048  26.805  1.00  0.00    -0.246 OA
ATOM     31  C   UNL A   1      35.603  29.698  27.549  1.00  0.00     0.012 A 
ATOM     32  C   UNL A   1      33.213  29.805  27.228  1.00  0.00     0.138 A 
ATOM     33  C   UNL A   1      35.603  31.075  27.789  1.00  0.00     0.001 A 
ATOM     34  C   UNL A   1      33.212  31.180  27.420  1.00  0.00     0.048 A 
ATOM     35  C   UNL A   1      34.421  31.817  27.692  1.00  0.00     0.004 A 
ENDBRANCH  23  25
ENDBRANCH  16  19
ENDBRANCH  11  15
ENDBRANCH   5   8
ENDBRANCH   3   4
ENDBRANCH   2   3
ENDBRANCH   1   2
BRANCH   1  36
ATOM     36  C   UNL A   1      38.093  23.953  25.740  1.00  0.00     0.002 C 
BRANCH  36  37
ATOM     37  C   UNL A   1      38.573  23.968  27.193  1.00  0.00     0.021 C 
BRANCH  37  38
ATOM     38  C   UNL A   1      39.955  24.578  27.373  1.00  0.00     0.116 C 
BRANCH  38  39
ATOM     39  N   UNL A   1      41.035  23.655  27.054  1.00  0.00    -0.352 N 
ATOM     40  C   UNL A   1      42.194  24.078  26.427  1.00  0.00     0.251 C 
ATOM     41  H   UNL A   1      40.938  22.704  27.292  1.00  0.00     0.163 HD
ATOM     42  O   UNL A   1      42.679  23.560  25.426  1.00  0.00    -0.269 OA
BRANCH  40  43
ATOM     43  C   UNL A   1      42.860  25.217  27.085  1.00  0.00     0.039 A 
ATOM     44  C   UNL A   1      43.132  25.142  28.453  1.00  0.00     0.014 A 
ATOM     45  C   UNL A   1      42.954  26.422  26.388  1.00  0.00     0.014 A 
ATOM     46  C   UNL A   1      43.377  26.317  29.160  1.00  0.00     0.010 A 
ATOM     47  C   UNL A   1      43.117  27.589  27.105  1.00  0.00     0.010 A 
ATOM     48  C   UNL A   1      43.291  27.543  28.496  1.00  0.00    -0.014 A 
BRANCH  48  49
ATOM     49  C   UNL A   1      43.331  28.836  29.171  1.00  0.00     0.031 A 
ATOM     50  C   UNL A   1      42.073  29.582  29.408  1.00  0.00     0.074 A 
ATOM     51  C   UNL A   1      44.497  29.329  29.644  1.00  0.00     0.049 A 
ATOM     52  N   UNL A   1      42.009  30.848  29.658  1.00  0.00    -0.248 NA
ATOM     53  C   UNL A   1      40.763  28.946  29.328  1.00  0.00     0.031 C 
ATOM     54  C   UNL A   1      44.666  30.442  30.576  1.00  0.00     0.029 A 
ATOM     55  N   UNL A   1      45.793  29.075  29.189  1.00  0.00    -0.354 N 
ATOM     56  C   UNL A   1      40.720  31.129  30.051  1.00  0.00     0.074 A 
ATOM     57  C   UNL A   1      39.969  29.930  29.758  1.00  0.00     0.031 C 
ATOM     58  C   UNL A   1      45.885  30.971  30.389  1.00  0.00     0.029 A 
ATOM     59  C   UNL A   1      46.463  30.311  29.230  1.00  0.00     0.049 A 
ATOM     60  H   UNL A   1      46.161  28.210  28.899  1.00  0.00     0.167 HD
ATOM     61  C   UNL A   1      40.445  32.299  30.693  1.00  0.00     0.031 A 
ATOM     62  C   UNL A   1      46.948  30.941  28.119  1.00  0.00     0.031 A 
ATOM     63  C   UNL A   1      41.606  33.186  30.754  1.00  0.00     0.049 A 
ATOM     64  C   UNL A   1      46.369  32.331  27.899  1.00  0.00     0.074 A 
ATOM     65  C   UNL A   1      42.503  33.556  31.743  1.00  0.00     0.029 A 
ATOM     66  N   UNL A   1      42.139  33.650  29.564  1.00  0.00    -0.354 N 
ATOM     67  N   UNL A   1      45.463  32.885  28.658  1.00  0.00    -0.248 NA
ATOM     68  C   UNL A   1      46.696  33.162  26.738  1.00  0.00     0.031 C 
ATOM     69  C   UNL A   1      43.588  34.242  31.124  1.00  0.00     0.029 A 
ATOM     70  C   UNL A   1      43.342  34.296  29.765  1.00  0.00     0.049 A 
ATOM     71  H   UNL A   1      41.712  33.535  28.684  1.00  0.00     0.167 HD
ATOM     72  C   UNL A   1      45.054  34.065  28.096  1.00  0.00     0.074 A 
ATOM     73  C   UNL A   1      45.866  34.206  26.902  1.00  0.00     0.031 C 
ATOM     74  C   UNL A   1      44.046  34.823  28.612  1.00  0.00     0.031 A 
BRANCH  61  75
ATOM     75  C   UNL A   1      39.166  32.545  31.463  1.00  0.00    -0.014 A 
ATOM     76  C   UNL A   1      38.177  33.393  30.922  1.00  0.00     0.010 A 
ATOM     77  C   UNL A   1      38.896  32.014  32.738  1.00  0.00     0.010 A 
ATOM     78  C   UNL A   1      37.043  33.777  31.655  1.00  0.00     0.020 A 
ATOM     79  C   UNL A   1      37.789  32.419  33.499  1.00  0.00     0.020 A 
ATOM     80  C   UNL A   1      36.873  33.312  32.956  1.00  0.00     0.054 A 
BRANCH  80  81
ATOM     81  S   UNL A   1      35.461  33.897  33.929  1.00  0.00     0.124 S 
ATOM     82  O   UNL A   1      35.800  33.451  35.279  1.00  0.00    -0.237 OA
ATOM     83  O   UNL A   1      35.507  35.340  33.711  1.00  0.00    -0.237 OA
ATOM     84  O   UNL A   1      34.318  33.213  33.326  1.00  0.00    -0.744 OA
ENDBRANCH  80  81
ENDBRANCH  61  75
BRANCH  62  85
ATOM     85  C   UNL A   1      47.358  30.011  27.027  1.00  0.00    -0.014 A 
ATOM     86  C   UNL A   1      48.539  29.259  27.216  1.00  0.00     0.010 A 
ATOM     87  C   UNL A   1      46.423  29.577  26.074  1.00  0.00     0.010 A 
ATOM     88  C   UNL A   1      48.693  28.010  26.610  1.00  0.00     0.020 A 
ATOM     89  C   UNL A   1      46.584  28.331  25.450  1.00  0.00     0.020 A 
ATOM     90  C   UNL A   1      47.677  27.526  25.785  1.00  0.00     0.054 A 
BRANCH  90  91
ATOM     91  S   UNL A   1      47.719  25.772  25.303  1.00  0.00     0.124 S 
ATOM     92  O   UNL A   1      47.507  25.837  23.862  1.00  0.00    -0.237 OA
ATOM     93  O   UNL A   1      49.061  25.363  25.729  1.00  0.00    -0.237 OA
ATOM     94  O   UNL A   1      46.631  25.185  26.078  1.00  0.00    -0.744 OA
ENDBRANCH  90  91
ENDBRANCH  62  85
BRANCH  74  95
ATOM     95  C   UNL A   1      43.612  36.132  28.019  1.00  0.00    -0.014 A 
ATOM     96  C   UNL A   1      44.523  37.165  27.748  1.00  0.00     0.010 A 
ATOM     97  C   UNL A   1      42.239  36.405  27.836  1.00  0.00     0.010 A 
ATOM     98  C   UNL A   1      44.084  38.403  27.258  1.00  0.00     0.020 A 
ATOM     99  C   UNL A   1      41.790  37.642  27.366  1.00  0.00     0.020 A 
ATOM    100  C   UNL A   1      42.720  38.629  27.060  1.00  0.00     0.054 A 
BRANCH 100 101
ATOM    101  S   UNL A   1      42.167  40.245  26.455  1.00  0.00     0.124 S 
ATOM    102  O   UNL A   1      42.153  41.058  27.668  1.00  0.00    -0.237 OA
ATOM    103  O   UNL A   1      43.212  40.577  25.490  1.00  0.00    -0.237 OA
ATOM    104  O   UNL A   1      40.852  39.969  25.882  1.00  0.00    -0.744 OA
ENDBRANCH 100 101
ENDBRANCH  74  95
ENDBRANCH  48  49
ENDBRANCH  40  43
ENDBRANCH  38  39
ENDBRANCH  37  38
ENDBRANCH  36  37
ENDBRANCH   1  36
TORSDOF 19
ENDMDL
