MODEL 1
REMARK VINA RESULT:     -10.9      0.000      0.000
REMARK SMILES CCCc1cc(OC(F)(F)F)cc2c1O[C@@H](C(F)(F)F)C(C(=O)NCCCCCCNC(=O)c1ccc(-c3c4nc(c(-c5ccc(S(=O)(=O)[O-])cc5)c5ccc([nH]5)c(-c5ccc(S(=O)(=O)[O-])cc5)c5nc(c(-c6ccc(S(=O)(=O)[O-])cc6)c6ccc3[nH]6)C=C5)C=C4)cc1)=C2
REMARK SMILES IDX 28 1 27 2 26 3 25 4 24 5 22 6 23 7 21 9 4 10 5 11 14 12 6 13
REMARK SMILES IDX 13 14 15 15 12 16 94 17 16 18 3 19 2 20 1 21 7 22 8 23 9 24
REMARK SMILES IDX 10 25 11 26 17 27 18 28 19 29 20 30 29 31 30 32 31 33 32 34
REMARK SMILES IDX 33 36 34 37 35 38 93 39 36 40 92 41 37 42 38 43 39 44 86 45
REMARK SMILES IDX 40 46 91 47 85 48 87 49 41 50 90 51 84 52 83 53 42 55 72 56
REMARK SMILES IDX 53 57 71 58 54 59 57 60 70 61 88 62 55 63 56 64 69 66 89 67
REMARK SMILES IDX 58 68 43 69 44 70 52 71 45 72 51 73 46 74 47 75 48 76 49 77
REMARK SMILES IDX 50 78 73 79 74 80 82 81 75 82 81 83 76 84 77 85 78 86 79 87
REMARK SMILES IDX 80 88 59 89 60 90 68 91 61 92 67 93 62 94 63 95 64 96 65 97
REMARK SMILES IDX 66 98
REMARK H PARENT 24 8 31 35 87 54 57 65
REMARK Flexibility Score: inf
ROOT
ATOM      1  C   UNL A   1      35.465  33.848  28.558  1.00  0.00     0.002 C 
ENDROOT
BRANCH   1   2
ATOM      2  C   UNL A   1      35.582  32.447  27.947  1.00  0.00     0.002 C 
BRANCH   2   3
ATOM      3  C   UNL A   1      34.261  31.669  27.873  1.00  0.00     0.021 C 
BRANCH   3   4
ATOM      4  C   UNL A   1      34.439  30.227  27.380  1.00  0.00     0.116 C 
BRANCH   4   5
ATOM      5  N   UNL A   1      33.369  29.398  27.917  1.00  0.00    -0.352 N 
ATOM      6  C   UNL A   1      32.630  28.388  27.386  1.00  0.00     0.251 C 
ATOM      7  O   UNL A   1      31.637  28.010  28.003  1.00  0.00    -0.270 OA
ATOM      8  H   UNL A   1      33.136  29.610  28.850  1.00  0.00     0.163 HD
BRANCH   6   9
ATOM      9  C   UNL A   1      33.035  27.666  26.152  1.00  0.00     0.067 C 
ATOM     10  C   UNL A   1      33.489  25.507  22.569  1.00  0.00    -0.002 A 
ATOM     11  C   UNL A   1      33.983  24.193  22.658  1.00  0.00     0.054 A 
ATOM     12  C   UNL A   1      33.421  26.282  23.741  1.00  0.00     0.131 A 
ATOM     13  C   UNL A   1      34.485  23.684  23.853  1.00  0.00     0.130 A 
ATOM     14  C   UNL A   1      33.890  25.766  24.949  1.00  0.00     0.021 A 
ATOM     15  O   UNL A   1      32.813  27.502  23.659  1.00  0.00    -0.475 OA
ATOM     16  C   UNL A   1      34.435  24.477  24.997  1.00  0.00     0.058 A 
ATOM     17  C   UNL A   1      33.703  26.507  26.186  1.00  0.00     0.025 C 
ATOM     18  C   UNL A   1      32.776  28.373  24.827  1.00  0.00     0.314 C 
BRANCH  10  19
ATOM     19  C   UNL A   1      33.013  26.024  21.227  1.00  0.00     0.039 C 
BRANCH  19  20
ATOM     20  C   UNL A   1      32.687  24.927  20.200  1.00  0.00     0.001 C 
ATOM     21  C   UNL A   1      32.233  25.442  18.839  1.00  0.00     0.004 C 
ENDBRANCH  19  20
ENDBRANCH  10  19
BRANCH  13  22
ATOM     22  O   UNL A   1      35.006  22.437  24.040  1.00  0.00    -0.406 OA
BRANCH  22  23
ATOM     23  C   UNL A   1      34.145  21.446  24.578  1.00  0.00     0.573 C 
ATOM     24  F   UNL A   1      34.005  21.598  25.913  1.00  0.00    -0.132 F 
ATOM     25  F   UNL A   1      32.927  21.490  23.995  1.00  0.00    -0.132 F 
ATOM     26  F   UNL A   1      34.678  20.228  24.344  1.00  0.00    -0.132 F 
ENDBRANCH  22  23
ENDBRANCH  13  22
BRANCH  18  27
ATOM     27  C   UNL A   1      31.483  29.217  24.728  1.00  0.00     0.429 C 
ATOM     28  F   UNL A   1      31.195  29.587  23.461  1.00  0.00    -0.167 F 
ATOM     29  F   UNL A   1      30.404  28.500  25.144  1.00  0.00    -0.167 F 
ATOM     30  F   UNL A   1      31.528  30.330  25.495  1.00  0.00    -0.167 F 
ENDBRANCH  18  27
ENDBRANCH   6   9
ENDBRANCH   4   5
ENDBRANCH   3   4
ENDBRANCH   2   3
ENDBRANCH   1   2
BRANCH   1  31
ATOM     31  C   UNL A   1      35.754  33.923  30.060  1.00  0.00     0.021 C 
BRANCH  31  32
ATOM     32  C   UNL A   1      36.801  32.927  30.548  1.00  0.00     0.116 C 
BRANCH  32  33
ATOM     33  N   UNL A   1      36.186  31.717  31.071  1.00  0.00    -0.352 N 
ATOM     34  C   UNL A   1      36.595  30.413  30.942  1.00  0.00     0.251 C 
ATOM     35  H   UNL A   1      35.360  31.853  31.590  1.00  0.00     0.163 HD
ATOM     36  O   UNL A   1      35.830  29.499  31.234  1.00  0.00    -0.269 OA
BRANCH  34  37
ATOM     37  C   UNL A   1      37.954  30.117  30.444  1.00  0.00     0.039 A 
ATOM     38  C   UNL A   1      38.977  29.875  31.363  1.00  0.00     0.014 A 
ATOM     39  C   UNL A   1      38.221  30.093  29.072  1.00  0.00     0.014 A 
ATOM     40  C   UNL A   1      40.259  29.561  30.904  1.00  0.00     0.010 A 
ATOM     41  C   UNL A   1      39.480  29.713  28.616  1.00  0.00     0.010 A 
ATOM     42  C   UNL A   1      40.513  29.451  29.527  1.00  0.00    -0.014 A 
BRANCH  42  43
ATOM     43  C   UNL A   1      41.856  29.068  29.021  1.00  0.00     0.031 A 
ATOM     44  C   UNL A   1      42.951  30.097  28.926  1.00  0.00     0.074 A 
ATOM     45  C   UNL A   1      42.071  27.809  28.591  1.00  0.00     0.049 A 
ATOM     46  N   UNL A   1      44.166  29.967  28.461  1.00  0.00    -0.248 NA
ATOM     47  C   UNL A   1      42.629  31.456  29.392  1.00  0.00     0.031 C 
ATOM     48  C   UNL A   1      41.080  26.730  28.594  1.00  0.00     0.029 A 
ATOM     49  N   UNL A   1      43.194  27.224  28.060  1.00  0.00    -0.354 N 
ATOM     50  C   UNL A   1      44.748  31.225  28.563  1.00  0.00     0.074 A 
ATOM     51  C   UNL A   1      43.737  32.116  29.088  1.00  0.00     0.031 C 
ATOM     52  C   UNL A   1      41.645  25.612  28.114  1.00  0.00     0.029 A 
ATOM     53  C   UNL A   1      43.023  25.900  27.732  1.00  0.00     0.049 A 
ATOM     54  H   UNL A   1      44.042  27.707  27.927  1.00  0.00     0.167 HD
ATOM     55  C   UNL A   1      46.015  31.601  28.265  1.00  0.00     0.031 A 
ATOM     56  C   UNL A   1      43.878  25.017  27.179  1.00  0.00     0.031 A 
ATOM     57  C   UNL A   1      47.021  30.708  27.753  1.00  0.00     0.049 A 
ATOM     58  C   UNL A   1      45.277  25.461  26.848  1.00  0.00     0.074 A 
ATOM     59  C   UNL A   1      48.349  30.978  27.473  1.00  0.00     0.029 A 
ATOM     60  N   UNL A   1      46.811  29.373  27.442  1.00  0.00    -0.354 N 
ATOM     61  N   UNL A   1      45.827  26.640  27.013  1.00  0.00    -0.248 NA
ATOM     62  C   UNL A   1      46.172  24.452  26.264  1.00  0.00     0.031 C 
ATOM     63  C   UNL A   1      48.928  29.821  26.943  1.00  0.00     0.029 A 
ATOM     64  C   UNL A   1      47.977  28.813  26.949  1.00  0.00     0.049 A 
ATOM     65  H   UNL A   1      45.957  28.894  27.556  1.00  0.00     0.167 HD
ATOM     66  C   UNL A   1      47.141  26.508  26.577  1.00  0.00     0.074 A 
ATOM     67  C   UNL A   1      47.306  25.131  26.157  1.00  0.00     0.031 C 
ATOM     68  C   UNL A   1      48.123  27.442  26.530  1.00  0.00     0.031 A 
BRANCH  55  69
ATOM     69  C   UNL A   1      46.382  33.046  28.481  1.00  0.00    -0.014 A 
ATOM     70  C   UNL A   1      47.007  33.468  29.669  1.00  0.00     0.010 A 
ATOM     71  C   UNL A   1      46.132  33.990  27.469  1.00  0.00     0.010 A 
ATOM     72  C   UNL A   1      47.335  34.814  29.858  1.00  0.00     0.020 A 
ATOM     73  C   UNL A   1      46.485  35.332  27.641  1.00  0.00     0.020 A 
ATOM     74  C   UNL A   1      47.068  35.738  28.843  1.00  0.00     0.054 A 
BRANCH  74  75
ATOM     75  S   UNL A   1      47.521  37.474  29.108  1.00  0.00     0.124 S 
ATOM     76  O   UNL A   1      48.532  37.364  30.159  1.00  0.00    -0.237 OA
ATOM     77  O   UNL A   1      48.022  37.878  27.797  1.00  0.00    -0.237 OA
ATOM     78  O   UNL A   1      46.267  38.102  29.514  1.00  0.00    -0.744 OA
ENDBRANCH  74  75
ENDBRANCH  55  69
BRANCH  56  79
ATOM     79  C   UNL A   1      43.436  23.621  26.916  1.00  0.00    -0.014 A 
ATOM     80  C   UNL A   1      43.287  23.156  25.597  1.00  0.00     0.010 A 
ATOM     81  C   UNL A   1      43.174  22.743  27.984  1.00  0.00     0.010 A 
ATOM     82  C   UNL A   1      42.869  21.844  25.352  1.00  0.00     0.020 A 
ATOM     83  C   UNL A   1      42.783  21.424  27.742  1.00  0.00     0.020 A 
ATOM     84  C   UNL A   1      42.622  20.986  26.427  1.00  0.00     0.054 A 
BRANCH  84  85
ATOM     85  S   UNL A   1      42.132  19.273  26.084  1.00  0.00     0.124 S 
ATOM     86  O   UNL A   1      42.975  18.938  24.940  1.00  0.00    -0.237 OA
ATOM     87  O   UNL A   1      42.462  18.594  27.334  1.00  0.00    -0.237 OA
ATOM     88  O   UNL A   1      40.702  19.377  25.800  1.00  0.00    -0.744 OA
ENDBRANCH  84  85
ENDBRANCH  56  79
BRANCH  68  89
ATOM     89  C   UNL A   1      49.473  27.002  26.030  1.00  0.00    -0.014 A 
ATOM     90  C   UNL A   1      50.402  26.386  26.888  1.00  0.00     0.010 A 
ATOM     91  C   UNL A   1      49.794  27.159  24.669  1.00  0.00     0.010 A 
ATOM     92  C   UNL A   1      51.641  25.964  26.399  1.00  0.00     0.020 A 
ATOM     93  C   UNL A   1      51.020  26.712  24.171  1.00  0.00     0.020 A 
ATOM     94  C   UNL A   1      51.943  26.130  25.042  1.00  0.00     0.054 A 
BRANCH  94  95
ATOM     95  S   UNL A   1      53.539  25.533  24.424  1.00  0.00     0.124 S 
ATOM     96  O   UNL A   1      53.478  25.907  23.014  1.00  0.00    -0.237 OA
ATOM     97  O   UNL A   1      54.497  26.284  25.233  1.00  0.00    -0.237 OA
ATOM     98  O   UNL A   1      53.498  24.096  24.691  1.00  0.00    -0.744 OA
ENDBRANCH  94  95
ENDBRANCH  68  89
ENDBRANCH  42  43
ENDBRANCH  34  37
ENDBRANCH  32  33
ENDBRANCH  31  32
ENDBRANCH   1  31
TORSDOF 21
ENDMDL
MODEL 2
REMARK VINA RESULT:     -10.6      1.477      8.121
REMARK SMILES CCCc1cc(OC(F)(F)F)cc2c1O[C@@H](C(F)(F)F)C(C(=O)NCCCCCCNC(=O)c1ccc(-c3c4nc(c(-c5ccc(S(=O)(=O)[O-])cc5)c5ccc([nH]5)c(-c5ccc(S(=O)(=O)[O-])cc5)c5nc(c(-c6ccc(S(=O)(=O)[O-])cc6)c6ccc3[nH]6)C=C5)C=C4)cc1)=C2
REMARK SMILES IDX 28 1 27 2 26 3 25 4 24 5 22 6 23 7 21 9 4 10 5 11 14 12 6 13
REMARK SMILES IDX 13 14 15 15 12 16 94 17 16 18 3 19 2 20 1 21 7 22 8 23 9 24
REMARK SMILES IDX 10 25 11 26 17 27 18 28 19 29 20 30 29 31 30 32 31 33 32 34
REMARK SMILES IDX 33 36 34 37 35 38 93 39 36 40 92 41 37 42 38 43 39 44 86 45
REMARK SMILES IDX 40 46 91 47 85 48 87 49 41 50 90 51 84 52 83 53 42 55 72 56
REMARK SMILES IDX 53 57 71 58 54 59 57 60 70 61 88 62 55 63 56 64 69 66 89 67
REMARK SMILES IDX 58 68 43 69 44 70 52 71 45 72 51 73 46 74 47 75 48 76 49 77
REMARK SMILES IDX 50 78 73 79 74 80 82 81 75 82 81 83 76 84 77 85 78 86 79 87
REMARK SMILES IDX 80 88 59 89 60 90 68 91 61 92 67 93 62 94 63 95 64 96 65 97
REMARK SMILES IDX 66 98
REMARK H PARENT 24 8 31 35 87 54 57 65
REMARK Flexibility Score: inf
ROOT
ATOM      1  C   UNL A   1      34.586  31.423  28.020  1.00  0.00     0.002 C 
ENDROOT
BRANCH   1   2
ATOM      2  C   UNL A   1      33.169  31.618  27.464  1.00  0.00     0.002 C 
BRANCH   2   3
ATOM      3  C   UNL A   1      32.545  30.358  26.848  1.00  0.00     0.021 C 
BRANCH   3   4
ATOM      4  C   UNL A   1      33.531  29.557  25.989  1.00  0.00     0.116 C 
BRANCH   4   5
ATOM      5  N   UNL A   1      33.110  29.606  24.596  1.00  0.00    -0.352 N 
ATOM      6  C   UNL A   1      32.964  28.649  23.643  1.00  0.00     0.251 C 
ATOM      7  O   UNL A   1      32.800  29.009  22.479  1.00  0.00    -0.270 OA
ATOM      8  H   UNL A   1      32.886  30.512  24.284  1.00  0.00     0.163 HD
BRANCH   6   9
ATOM      9  C   UNL A   1      32.894  27.200  23.970  1.00  0.00     0.067 C 
ATOM     10  C   UNL A   1      32.396  23.314  25.502  1.00  0.00    -0.002 A 
ATOM     11  C   UNL A   1      33.542  22.645  25.970  1.00  0.00     0.054 A 
ATOM     12  C   UNL A   1      32.550  24.573  24.896  1.00  0.00     0.131 A 
ATOM     13  C   UNL A   1      34.819  23.160  25.764  1.00  0.00     0.130 A 
ATOM     14  C   UNL A   1      33.825  25.112  24.717  1.00  0.00     0.021 A 
ATOM     15  O   UNL A   1      31.418  25.264  24.573  1.00  0.00    -0.475 OA
ATOM     16  C   UNL A   1      34.954  24.397  25.136  1.00  0.00     0.058 A 
ATOM     17  C   UNL A   1      33.985  26.466  24.214  1.00  0.00     0.025 C 
ATOM     18  C   UNL A   1      31.521  26.544  23.883  1.00  0.00     0.314 C 
BRANCH  10  19
ATOM     19  C   UNL A   1      31.038  22.672  25.703  1.00  0.00     0.039 C 
BRANCH  19  20
ATOM     20  C   UNL A   1      30.241  23.224  26.897  1.00  0.00     0.001 C 
ATOM     21  C   UNL A   1      29.024  22.396  27.289  1.00  0.00     0.004 C 
ENDBRANCH  19  20
ENDBRANCH  10  19
BRANCH  13  22
ATOM     22  O   UNL A   1      35.992  22.583  26.154  1.00  0.00    -0.406 OA
BRANCH  22  23
ATOM     23  C   UNL A   1      36.941  22.290  25.141  1.00  0.00     0.573 C 
ATOM     24  F   UNL A   1      37.869  21.414  25.583  1.00  0.00    -0.132 F 
ATOM     25  F   UNL A   1      36.340  21.786  24.040  1.00  0.00    -0.132 F 
ATOM     26  F   UNL A   1      37.571  23.431  24.788  1.00  0.00    -0.132 F 
ENDBRANCH  22  23
ENDBRANCH  13  22
BRANCH  18  27
ATOM     27  C   UNL A   1      30.310  27.400  24.320  1.00  0.00     0.429 C 
ATOM     28  F   UNL A   1      30.546  28.105  25.449  1.00  0.00    -0.167 F 
ATOM     29  F   UNL A   1      30.008  28.332  23.375  1.00  0.00    -0.167 F 
ATOM     30  F   UNL A   1      29.191  26.662  24.508  1.00  0.00    -0.167 F 
ENDBRANCH  18  27
ENDBRANCH   6   9
ENDBRANCH   4   5
ENDBRANCH   3   4
ENDBRANCH   2   3
ENDBRANCH   1   2
BRANCH   1  31
ATOM     31  C   UNL A   1      35.374  32.717  28.245  1.00  0.00     0.021 C 
BRANCH  31  32
ATOM     32  C   UNL A   1      36.557  32.573  29.197  1.00  0.00     0.116 C 
BRANCH  32  33
ATOM     33  N   UNL A   1      36.210  31.778  30.365  1.00  0.00    -0.352 N 
ATOM     34  C   UNL A   1      36.803  30.635  30.841  1.00  0.00     0.251 C 
ATOM     35  H   UNL A   1      35.444  32.108  30.888  1.00  0.00     0.163 HD
ATOM     36  O   UNL A   1      36.234  29.960  31.694  1.00  0.00    -0.269 OA
BRANCH  34  37
ATOM     37  C   UNL A   1      38.120  30.218  30.317  1.00  0.00     0.039 A 
ATOM     38  C   UNL A   1      38.288  30.072  28.938  1.00  0.00     0.014 A 
ATOM     39  C   UNL A   1      39.183  29.957  31.186  1.00  0.00     0.014 A 
ATOM     40  C   UNL A   1      39.536  29.711  28.428  1.00  0.00     0.010 A 
ATOM     41  C   UNL A   1      40.444  29.665  30.673  1.00  0.00     0.010 A 
ATOM     42  C   UNL A   1      40.631  29.531  29.290  1.00  0.00    -0.014 A 
BRANCH  42  43
ATOM     43  C   UNL A   1      41.979  29.198  28.762  1.00  0.00     0.031 A 
ATOM     44  C   UNL A   1      42.285  27.800  28.296  1.00  0.00     0.074 A 
ATOM     45  C   UNL A   1      42.944  30.138  28.760  1.00  0.00     0.049 A 
ATOM     46  N   UNL A   1      43.413  27.305  27.858  1.00  0.00    -0.248 NA
ATOM     47  C   UNL A   1      41.184  26.823  28.355  1.00  0.00     0.031 C 
ATOM     48  C   UNL A   1      42.784  31.519  29.222  1.00  0.00     0.029 A 
ATOM     49  N   UNL A   1      44.256  30.074  28.360  1.00  0.00    -0.354 N 
ATOM     50  C   UNL A   1      43.165  25.962  27.603  1.00  0.00     0.074 A 
ATOM     51  C   UNL A   1      41.793  25.706  27.983  1.00  0.00     0.031 C 
ATOM     52  C   UNL A   1      43.943  32.176  29.056  1.00  0.00     0.029 A 
ATOM     53  C   UNL A   1      44.939  31.257  28.515  1.00  0.00     0.049 A 
ATOM     54  H   UNL A   1      44.669  29.257  27.996  1.00  0.00     0.167 HD
ATOM     55  C   UNL A   1      43.997  25.028  27.082  1.00  0.00     0.031 A 
ATOM     56  C   UNL A   1      46.224  31.567  28.257  1.00  0.00     0.031 A 
ATOM     57  C   UNL A   1      45.359  25.290  26.695  1.00  0.00     0.049 A 
ATOM     58  C   UNL A   1      47.132  30.511  27.688  1.00  0.00     0.074 A 
ATOM     59  C   UNL A   1      46.266  24.427  26.105  1.00  0.00     0.029 A 
ATOM     60  N   UNL A   1      46.010  26.502  26.860  1.00  0.00    -0.354 N 
ATOM     61  N   UNL A   1      46.859  29.262  27.393  1.00  0.00    -0.248 NA
ATOM     62  C   UNL A   1      48.519  30.909  27.408  1.00  0.00     0.031 C 
ATOM     63  C   UNL A   1      47.483  25.102  25.963  1.00  0.00     0.029 A 
ATOM     64  C   UNL A   1      47.316  26.403  26.409  1.00  0.00     0.049 A 
ATOM     65  H   UNL A   1      45.604  27.314  27.243  1.00  0.00     0.167 HD
ATOM     66  C   UNL A   1      48.034  28.732  26.869  1.00  0.00     0.074 A 
ATOM     67  C   UNL A   1      49.012  29.801  26.873  1.00  0.00     0.031 C 
ATOM     68  C   UNL A   1      48.279  27.475  26.424  1.00  0.00     0.031 A 
BRANCH  55  69
ATOM     69  C   UNL A   1      43.457  23.633  26.906  1.00  0.00    -0.014 A 
ATOM     70  C   UNL A   1      43.274  22.780  28.011  1.00  0.00     0.010 A 
ATOM     71  C   UNL A   1      43.094  23.179  25.626  1.00  0.00     0.010 A 
ATOM     72  C   UNL A   1      42.778  21.485  27.832  1.00  0.00     0.020 A 
ATOM     73  C   UNL A   1      42.571  21.895  25.446  1.00  0.00     0.020 A 
ATOM     74  C   UNL A   1      42.433  21.050  26.549  1.00  0.00     0.054 A 
BRANCH  74  75
ATOM     75  S   UNL A   1      41.776  19.371  26.349  1.00  0.00     0.124 S 
ATOM     76  O   UNL A   1      42.118  18.760  27.631  1.00  0.00    -0.237 OA
ATOM     77  O   UNL A   1      40.352  19.610  26.128  1.00  0.00    -0.237 OA
ATOM     78  O   UNL A   1      42.504  18.849  25.196  1.00  0.00    -0.744 OA
ENDBRANCH  74  75
ENDBRANCH  55  69
BRANCH  56  79
ATOM     79  C   UNL A   1      46.724  32.943  28.524  1.00  0.00    -0.014 A 
ATOM     80  C   UNL A   1      46.552  33.962  27.571  1.00  0.00     0.010 A 
ATOM     81  C   UNL A   1      47.363  33.245  29.740  1.00  0.00     0.010 A 
ATOM     82  C   UNL A   1      47.024  35.254  27.822  1.00  0.00     0.020 A 
ATOM     83  C   UNL A   1      47.811  34.542  30.006  1.00  0.00     0.020 A 
ATOM     84  C   UNL A   1      47.649  35.536  29.040  1.00  0.00     0.054 A 
BRANCH  84  85
ATOM     85  S   UNL A   1      48.206  37.232  29.367  1.00  0.00     0.124 S 
ATOM     86  O   UNL A   1      47.177  38.023  28.701  1.00  0.00    -0.237 OA
ATOM     87  O   UNL A   1      48.204  37.289  30.826  1.00  0.00    -0.237 OA
ATOM     88  O   UNL A   1      49.531  37.280  28.751  1.00  0.00    -0.744 OA
ENDBRANCH  84  85
ENDBRANCH  56  79
BRANCH  68  89
ATOM     89  C   UNL A   1      49.653  27.190  25.879  1.00  0.00    -0.014 A 
ATOM     90  C   UNL A   1      50.693  26.754  26.718  1.00  0.00     0.010 A 
ATOM     91  C   UNL A   1      49.889  27.308  24.497  1.00  0.00     0.010 A 
ATOM     92  C   UNL A   1      51.956  26.473  26.188  1.00  0.00     0.020 A 
ATOM     93  C   UNL A   1      51.141  27.000  23.960  1.00  0.00     0.020 A 
ATOM     94  C   UNL A   1      52.171  26.597  24.811  1.00  0.00     0.054 A 
BRANCH  94  95
ATOM     95  S   UNL A   1      53.806  26.182  24.143  1.00  0.00     0.124 S 
ATOM     96  O   UNL A   1      54.074  24.894  24.776  1.00  0.00    -0.237 OA
ATOM     97  O   UNL A   1      53.561  26.137  22.703  1.00  0.00    -0.237 OA
ATOM     98  O   UNL A   1      54.653  27.286  24.592  1.00  0.00    -0.744 OA
ENDBRANCH  94  95
ENDBRANCH  68  89
ENDBRANCH  42  43
ENDBRANCH  34  37
ENDBRANCH  32  33
ENDBRANCH  31  32
ENDBRANCH   1  31
TORSDOF 21
ENDMDL
MODEL 3
REMARK VINA RESULT:     -10.5      3.041      9.493
REMARK SMILES CCCc1cc(OC(F)(F)F)cc2c1O[C@@H](C(F)(F)F)C(C(=O)NCCCCCCNC(=O)c1ccc(-c3c4nc(c(-c5ccc(S(=O)(=O)[O-])cc5)c5ccc([nH]5)c(-c5ccc(S(=O)(=O)[O-])cc5)c5nc(c(-c6ccc(S(=O)(=O)[O-])cc6)c6ccc3[nH]6)C=C5)C=C4)cc1)=C2
REMARK SMILES IDX 28 1 27 2 26 3 25 4 24 5 22 6 23 7 21 9 4 10 5 11 14 12 6 13
REMARK SMILES IDX 13 14 15 15 12 16 94 17 16 18 3 19 2 20 1 21 7 22 8 23 9 24
REMARK SMILES IDX 10 25 11 26 17 27 18 28 19 29 20 30 29 31 30 32 31 33 32 34
REMARK SMILES IDX 33 36 34 37 35 38 93 39 36 40 92 41 37 42 38 43 39 44 86 45
REMARK SMILES IDX 40 46 91 47 85 48 87 49 41 50 90 51 84 52 83 53 42 55 72 56
REMARK SMILES IDX 53 57 71 58 54 59 57 60 70 61 88 62 55 63 56 64 69 66 89 67
REMARK SMILES IDX 58 68 43 69 44 70 52 71 45 72 51 73 46 74 47 75 48 76 49 77
REMARK SMILES IDX 50 78 73 79 74 80 82 81 75 82 81 83 76 84 77 85 78 86 79 87
REMARK SMILES IDX 80 88 59 89 60 90 68 91 61 92 67 93 62 94 63 95 64 96 65 97
REMARK SMILES IDX 66 98
REMARK H PARENT 24 8 31 35 87 54 57 65
REMARK Flexibility Score: inf
ROOT
ATOM      1  C   UNL A   1      36.219  23.119  23.474  1.00  0.00     0.002 C 
ENDROOT
BRANCH   1   2
ATOM      2  C   UNL A   1      34.797  23.289  22.924  1.00  0.00     0.002 C 
BRANCH   2   3
ATOM      3  C   UNL A   1      33.827  22.161  23.300  1.00  0.00     0.021 C 
BRANCH   3   4
ATOM      4  C   UNL A   1      32.419  22.362  22.726  1.00  0.00     0.116 C 
BRANCH   4   5
ATOM      5  N   UNL A   1      31.446  22.325  23.809  1.00  0.00    -0.352 N 
ATOM      6  C   UNL A   1      30.985  23.272  24.668  1.00  0.00     0.251 C 
ATOM      7  O   UNL A   1      30.317  22.906  25.632  1.00  0.00    -0.270 OA
ATOM      8  H   UNL A   1      31.041  21.438  23.945  1.00  0.00     0.163 HD
BRANCH   6   9
ATOM      9  C   UNL A   1      31.172  24.727  24.426  1.00  0.00     0.067 C 
ATOM     10  C   UNL A   1      31.609  28.912  24.443  1.00  0.00    -0.002 A 
ATOM     11  C   UNL A   1      30.542  29.681  23.944  1.00  0.00     0.054 A 
ATOM     12  C   UNL A   1      31.527  27.510  24.358  1.00  0.00     0.131 A 
ATOM     13  C   UNL A   1      29.462  29.091  23.293  1.00  0.00     0.130 A 
ATOM     14  C   UNL A   1      30.432  26.910  23.737  1.00  0.00     0.021 A 
ATOM     15  O   UNL A   1      32.507  26.781  24.968  1.00  0.00    -0.475 OA
ATOM     16  C   UNL A   1      29.412  27.702  23.194  1.00  0.00     0.058 A 
ATOM     17  C   UNL A   1      30.275  25.465  23.762  1.00  0.00     0.025 C 
ATOM     18  C   UNL A   1      32.506  25.327  24.853  1.00  0.00     0.314 C 
BRANCH  10  19
ATOM     19  C   UNL A   1      32.785  29.617  25.087  1.00  0.00     0.039 C 
BRANCH  19  20
ATOM     20  C   UNL A   1      32.767  29.615  26.625  1.00  0.00     0.001 C 
ATOM     21  C   UNL A   1      34.113  29.326  27.278  1.00  0.00     0.004 C 
ENDBRANCH  19  20
ENDBRANCH  10  19
BRANCH  13  22
ATOM     22  O   UNL A   1      28.392  29.744  22.755  1.00  0.00    -0.406 OA
BRANCH  22  23
ATOM     23  C   UNL A   1      28.640  30.592  21.645  1.00  0.00     0.573 C 
ATOM     24  F   UNL A   1      28.665  31.889  22.021  1.00  0.00    -0.132 F 
ATOM     25  F   UNL A   1      29.810  30.280  21.043  1.00  0.00    -0.132 F 
ATOM     26  F   UNL A   1      27.650  30.433  20.741  1.00  0.00    -0.132 F 
ENDBRANCH  22  23
ENDBRANCH  13  22
BRANCH  18  27
ATOM     27  C   UNL A   1      33.142  24.765  26.146  1.00  0.00     0.429 C 
ATOM     28  F   UNL A   1      34.271  25.418  26.502  1.00  0.00    -0.167 F 
ATOM     29  F   UNL A   1      32.298  24.910  27.204  1.00  0.00    -0.167 F 
ATOM     30  F   UNL A   1      33.427  23.446  26.055  1.00  0.00    -0.167 F 
ENDBRANCH  18  27
ENDBRANCH   6   9
ENDBRANCH   4   5
ENDBRANCH   3   4
ENDBRANCH   2   3
ENDBRANCH   1   2
BRANCH   1  31
ATOM     31  C   UNL A   1      36.298  22.550  24.894  1.00  0.00     0.021 C 
BRANCH  31  32
ATOM     32  C   UNL A   1      37.434  23.120  25.736  1.00  0.00     0.116 C 
BRANCH  32  33
ATOM     33  N   UNL A   1      38.388  22.090  26.114  1.00  0.00    -0.352 N 
ATOM     34  C   UNL A   1      39.684  22.227  26.547  1.00  0.00     0.251 C 
ATOM     35  H   UNL A   1      38.058  21.164  26.051  1.00  0.00     0.163 HD
ATOM     36  O   UNL A   1      40.424  21.248  26.588  1.00  0.00    -0.269 OA
BRANCH  34  37
ATOM     37  C   UNL A   1      40.184  23.556  26.956  1.00  0.00     0.039 A 
ATOM     38  C   UNL A   1      40.808  23.696  28.198  1.00  0.00     0.014 A 
ATOM     39  C   UNL A   1      40.023  24.666  26.121  1.00  0.00     0.014 A 
ATOM     40  C   UNL A   1      41.314  24.939  28.581  1.00  0.00     0.010 A 
ATOM     41  C   UNL A   1      40.588  25.888  26.474  1.00  0.00     0.010 A 
ATOM     42  C   UNL A   1      41.232  26.039  27.711  1.00  0.00    -0.014 A 
BRANCH  42  43
ATOM     43  C   UNL A   1      41.811  27.356  28.079  1.00  0.00     0.031 A 
ATOM     44  C   UNL A   1      43.294  27.588  27.970  1.00  0.00     0.074 A 
ATOM     45  C   UNL A   1      41.009  28.322  28.569  1.00  0.00     0.049 A 
ATOM     46  N   UNL A   1      43.988  28.648  28.296  1.00  0.00    -0.248 NA
ATOM     47  C   UNL A   1      44.106  26.475  27.451  1.00  0.00     0.031 C 
ATOM     48  C   UNL A   1      39.560  28.206  28.760  1.00  0.00     0.029 A 
ATOM     49  N   UNL A   1      41.298  29.592  29.002  1.00  0.00    -0.354 N 
ATOM     50  C   UNL A   1      45.315  28.326  28.037  1.00  0.00     0.074 A 
ATOM     51  C   UNL A   1      45.335  26.955  27.575  1.00  0.00     0.031 C 
ATOM     52  C   UNL A   1      39.087  29.364  29.246  1.00  0.00     0.029 A 
ATOM     53  C   UNL A   1      40.197  30.290  29.440  1.00  0.00     0.049 A 
ATOM     54  H   UNL A   1      42.208  29.968  28.999  1.00  0.00     0.167 HD
ATOM     55  C   UNL A   1      46.417  29.105  28.154  1.00  0.00     0.031 A 
ATOM     56  C   UNL A   1      40.094  31.534  29.949  1.00  0.00     0.031 A 
ATOM     57  C   UNL A   1      46.391  30.473  28.605  1.00  0.00     0.049 A 
ATOM     58  C   UNL A   1      41.332  32.377  30.079  1.00  0.00     0.074 A 
ATOM     59  C   UNL A   1      47.445  31.365  28.705  1.00  0.00     0.029 A 
ATOM     60  N   UNL A   1      45.256  31.145  29.032  1.00  0.00    -0.354 N 
ATOM     61  N   UNL A   1      42.570  32.076  29.767  1.00  0.00    -0.248 NA
ATOM     62  C   UNL A   1      41.158  33.731  30.622  1.00  0.00     0.031 C 
ATOM     63  C   UNL A   1      46.956  32.560  29.243  1.00  0.00     0.029 A 
ATOM     64  C   UNL A   1      45.588  32.432  29.421  1.00  0.00     0.049 A 
ATOM     65  H   UNL A   1      44.349  30.763  29.055  1.00  0.00     0.167 HD
ATOM     66  C   UNL A   1      43.319  33.212  30.052  1.00  0.00     0.074 A 
ATOM     67  C   UNL A   1      42.392  34.211  30.545  1.00  0.00     0.031 C 
ATOM     68  C   UNL A   1      44.654  33.412  29.915  1.00  0.00     0.031 A 
BRANCH  55  69
ATOM     69  C   UNL A   1      47.746  28.493  27.795  1.00  0.00    -0.014 A 
ATOM     70  C   UNL A   1      48.242  28.554  26.480  1.00  0.00     0.010 A 
ATOM     71  C   UNL A   1      48.526  27.882  28.792  1.00  0.00     0.010 A 
ATOM     72  C   UNL A   1      49.473  27.975  26.160  1.00  0.00     0.020 A 
ATOM     73  C   UNL A   1      49.772  27.327  28.483  1.00  0.00     0.020 A 
ATOM     74  C   UNL A   1      50.229  27.362  27.164  1.00  0.00     0.054 A 
BRANCH  74  75
ATOM     75  S   UNL A   1      51.832  26.635  26.724  1.00  0.00     0.124 S 
ATOM     76  O   UNL A   1      51.467  25.748  25.621  1.00  0.00    -0.237 OA
ATOM     77  O   UNL A   1      52.623  27.806  26.351  1.00  0.00    -0.237 OA
ATOM     78  O   UNL A   1      52.257  25.964  27.949  1.00  0.00    -0.744 OA
ENDBRANCH  74  75
ENDBRANCH  55  69
BRANCH  56  79
ATOM     79  C   UNL A   1      38.763  32.059  30.360  1.00  0.00    -0.014 A 
ATOM     80  C   UNL A   1      38.006  32.852  29.481  1.00  0.00     0.010 A 
ATOM     81  C   UNL A   1      38.241  31.756  31.630  1.00  0.00     0.010 A 
ATOM     82  C   UNL A   1      36.757  33.346  29.870  1.00  0.00     0.020 A 
ATOM     83  C   UNL A   1      36.981  32.225  32.012  1.00  0.00     0.020 A 
ATOM     84  C   UNL A   1      36.252  33.027  31.133  1.00  0.00     0.054 A 
BRANCH  84  85
ATOM     85  S   UNL A   1      34.606  33.636  31.597  1.00  0.00     0.124 S 
ATOM     86  O   UNL A   1      34.927  34.877  32.293  1.00  0.00    -0.237 OA
ATOM     87  O   UNL A   1      33.949  33.788  30.301  1.00  0.00    -0.237 OA
ATOM     88  O   UNL A   1      34.071  32.566  32.436  1.00  0.00    -0.744 OA
ENDBRANCH  84  85
ENDBRANCH  56  79
BRANCH  68  89
ATOM     89  C   UNL A   1      45.191  34.770  30.281  1.00  0.00    -0.014 A 
ATOM     90  C   UNL A   1      45.520  35.090  31.610  1.00  0.00     0.010 A 
ATOM     91  C   UNL A   1      45.420  35.721  29.269  1.00  0.00     0.010 A 
ATOM     92  C   UNL A   1      46.039  36.348  31.925  1.00  0.00     0.020 A 
ATOM     93  C   UNL A   1      45.967  36.968  29.576  1.00  0.00     0.020 A 
ATOM     94  C   UNL A   1      46.260  37.280  30.905  1.00  0.00     0.054 A 
BRANCH  94  95
ATOM     95  S   UNL A   1      46.977  38.890  31.334  1.00  0.00     0.124 S 
ATOM     96  O   UNL A   1      47.378  38.683  32.723  1.00  0.00    -0.237 OA
ATOM     97  O   UNL A   1      48.071  39.019  30.375  1.00  0.00    -0.237 OA
ATOM     98  O   UNL A   1      45.870  39.825  31.138  1.00  0.00    -0.744 OA
ENDBRANCH  94  95
ENDBRANCH  68  89
ENDBRANCH  42  43
ENDBRANCH  34  37
ENDBRANCH  32  33
ENDBRANCH  31  32
ENDBRANCH   1  31
TORSDOF 21
ENDMDL
