MODEL 1
REMARK VINA RESULT:     -10.4      0.000      0.000
REMARK SMILES CC(C)[NH2+][C@](C)(C[N@@H+]1CCC(C)(C)C1)C(=O)NCCCCCCNC(=O)c1ccc(-c2c3nc(c(-c4ccc(S(=O)(=O)[O-])cc4)c4ccc([nH]4)c(-c4ccc(S(=O)(=O)[O-])cc4)c4nc(c(-c5ccc(S(=O)(=O)[O-])cc5)c5ccc2[nH]5)C=C4)C=C3)cc1
REMARK SMILES IDX 21 1 20 2 19 3 18 4 17 5 15 6 16 7 5 9 6 10 4 11 2 14 1 15
REMARK SMILES IDX 3 16 7 17 8 18 9 19 14 20 10 22 11 23 12 24 13 25 22 26
REMARK SMILES IDX 23 27 24 28 25 29 26 31 27 32 28 33 86 34 29 35 85 36 30 37
REMARK SMILES IDX 31 38 32 39 79 40 33 41 84 42 78 43 80 44 34 45 83 46 77 47
REMARK SMILES IDX 76 48 35 50 65 51 46 52 64 53 47 54 50 55 63 56 81 57 48 58
REMARK SMILES IDX 49 59 62 61 82 62 51 63 36 64 37 65 45 66 38 67 44 68 39 69
REMARK SMILES IDX 40 70 41 71 42 72 43 73 66 74 67 75 75 76 68 77 74 78 69 79
REMARK SMILES IDX 70 80 71 81 72 82 73 83 52 84 53 85 61 86 54 87 60 88 55 89
REMARK SMILES IDX 56 90 57 91 58 92 59 93
REMARK H PARENT 17 8 4 12 4 13 8 21 24 30 80 49 50 60
REMARK Flexibility Score: inf
ROOT
ATOM      1  C   UNL A   1      40.874  20.848  26.408  1.00  0.00     0.002 C 
ENDROOT
BRANCH   1   2
ATOM      2  C   UNL A   1      39.497  20.676  25.757  1.00  0.00     0.002 C 
BRANCH   2   3
ATOM      3  C   UNL A   1      38.578  21.894  25.869  1.00  0.00     0.021 C 
BRANCH   3   4
ATOM      4  C   UNL A   1      37.130  21.619  25.462  1.00  0.00     0.116 C 
BRANCH   4   5
ATOM      5  N   UNL A   1      36.194  22.113  26.454  1.00  0.00    -0.350 N 
ATOM      6  C   UNL A   1      34.826  22.010  26.501  1.00  0.00     0.287 C 
ATOM      7  O   UNL A   1      34.271  22.448  27.515  1.00  0.00    -0.268 OA
ATOM      8  H   UNL A   1      36.602  22.596  27.209  1.00  0.00     0.163 HD
BRANCH   6   9
ATOM      9  C   UNL A   1      34.026  21.332  25.328  1.00  0.00     0.221 C 
ATOM     10  C   UNL A   1      32.503  21.472  25.584  1.00  0.00     0.097 C 
BRANCH   9  11
ATOM     11  N   UNL A   1      34.301  19.879  25.491  1.00  0.00    -0.327 N 
ATOM     12  H   UNL A   1      35.300  19.764  25.323  1.00  0.00     0.347 HD
ATOM     13  H   UNL A   1      33.911  19.705  26.418  1.00  0.00     0.347 HD
BRANCH  11  14
ATOM     14  C   UNL A   1      33.644  18.846  24.707  1.00  0.00     0.177 C 
ATOM     15  C   UNL A   1      34.765  17.893  24.261  1.00  0.00     0.075 C 
ATOM     16  C   UNL A   1      32.576  18.024  25.428  1.00  0.00     0.075 C 
ENDBRANCH  11  14
ENDBRANCH   9  11
BRANCH   9  17
ATOM     17  C   UNL A   1      34.414  22.041  23.980  1.00  0.00     0.341 C 
BRANCH  17  18
ATOM     18  N   UNL A   1      33.726  23.278  23.664  1.00  0.00    -0.329 N 
ATOM     19  C   UNL A   1      32.778  23.334  22.581  1.00  0.00     0.263 C 
ATOM     20  C   UNL A   1      34.019  24.576  24.237  1.00  0.00     0.269 C 
ATOM     21  H   UNL A   1      33.614  22.763  24.538  1.00  0.00     0.348 HD
ATOM     22  C   UNL A   1      31.935  24.522  23.010  1.00  0.00     0.073 C 
ATOM     23  C   UNL A   1      32.946  25.505  23.623  1.00  0.00     0.019 C 
ATOM     24  C   UNL A   1      33.555  26.399  22.532  1.00  0.00     0.017 C 
ATOM     25  C   UNL A   1      32.270  26.382  24.684  1.00  0.00     0.017 C 
ENDBRANCH  17  18
ENDBRANCH   9  17
ENDBRANCH   6   9
ENDBRANCH   4   5
ENDBRANCH   3   4
ENDBRANCH   2   3
ENDBRANCH   1   2
BRANCH   1  26
ATOM     26  C   UNL A   1      40.885  21.666  27.702  1.00  0.00     0.021 C 
BRANCH  26  27
ATOM     27  C   UNL A   1      41.960  22.747  27.757  1.00  0.00     0.116 C 
BRANCH  27  28
ATOM     28  N   UNL A   1      42.027  23.506  26.518  1.00  0.00    -0.352 N 
ATOM     29  C   UNL A   1      41.773  24.834  26.301  1.00  0.00     0.251 C 
ATOM     30  H   UNL A   1      42.294  22.993  25.722  1.00  0.00     0.163 HD
ATOM     31  O   UNL A   1      41.662  25.259  25.148  1.00  0.00    -0.269 OA
BRANCH  29  32
ATOM     32  C   UNL A   1      41.618  25.755  27.445  1.00  0.00     0.039 A 
ATOM     33  C   UNL A   1      42.604  26.716  27.685  1.00  0.00     0.014 A 
ATOM     34  C   UNL A   1      40.508  25.661  28.291  1.00  0.00     0.014 A 
ATOM     35  C   UNL A   1      42.450  27.615  28.742  1.00  0.00     0.010 A 
ATOM     36  C   UNL A   1      40.319  26.606  29.295  1.00  0.00     0.010 A 
ATOM     37  C   UNL A   1      41.293  27.587  29.539  1.00  0.00    -0.014 A 
BRANCH  37  38
ATOM     38  C   UNL A   1      41.090  28.561  30.641  1.00  0.00     0.031 A 
ATOM     39  C   UNL A   1      41.941  28.486  31.881  1.00  0.00     0.074 A 
ATOM     40  C   UNL A   1      40.106  29.479  30.551  1.00  0.00     0.049 A 
ATOM     41  N   UNL A   1      41.878  29.207  32.971  1.00  0.00    -0.248 NA
ATOM     42  C   UNL A   1      42.986  27.448  31.909  1.00  0.00     0.031 C 
ATOM     43  C   UNL A   1      39.192  29.633  29.416  1.00  0.00     0.029 A 
ATOM     44  N   UNL A   1      39.707  30.452  31.432  1.00  0.00    -0.354 N 
ATOM     45  C   UNL A   1      42.860  28.704  33.816  1.00  0.00     0.074 A 
ATOM     46  C   UNL A   1      43.466  27.580  33.137  1.00  0.00     0.031 C 
ATOM     47  C   UNL A   1      38.362  30.660  29.658  1.00  0.00     0.029 A 
ATOM     48  C   UNL A   1      38.649  31.207  30.980  1.00  0.00     0.049 A 
ATOM     49  H   UNL A   1      40.136  30.596  32.306  1.00  0.00     0.167 HD
ATOM     50  C   UNL A   1      43.239  29.149  35.037  1.00  0.00     0.031 A 
ATOM     51  C   UNL A   1      37.982  32.221  31.565  1.00  0.00     0.031 A 
ATOM     52  C   UNL A   1      42.637  30.272  35.707  1.00  0.00     0.049 A 
ATOM     53  C   UNL A   1      38.405  32.680  32.935  1.00  0.00     0.074 A 
ATOM     54  C   UNL A   1      42.977  30.830  36.927  1.00  0.00     0.029 A 
ATOM     55  N   UNL A   1      41.570  31.009  35.214  1.00  0.00    -0.354 N 
ATOM     56  N   UNL A   1      39.373  32.227  33.695  1.00  0.00    -0.248 NA
ATOM     57  C   UNL A   1      37.651  33.798  33.521  1.00  0.00     0.031 C 
ATOM     58  C   UNL A   1      42.080  31.867  37.198  1.00  0.00     0.029 A 
ATOM     59  C   UNL A   1      41.225  32.001  36.116  1.00  0.00     0.049 A 
ATOM     60  H   UNL A   1      41.124  30.850  34.351  1.00  0.00     0.167 HD
ATOM     61  C   UNL A   1      39.368  33.027  34.833  1.00  0.00     0.074 A 
ATOM     62  C   UNL A   1      38.308  33.998  34.655  1.00  0.00     0.031 C 
ATOM     63  C   UNL A   1      40.169  32.965  35.924  1.00  0.00     0.031 A 
BRANCH  50  64
ATOM     64  C   UNL A   1      44.356  28.415  35.733  1.00  0.00    -0.014 A 
ATOM     65  C   UNL A   1      45.704  28.728  35.473  1.00  0.00     0.010 A 
ATOM     66  C   UNL A   1      44.059  27.425  36.688  1.00  0.00     0.010 A 
ATOM     67  C   UNL A   1      46.730  28.038  36.123  1.00  0.00     0.020 A 
ATOM     68  C   UNL A   1      45.082  26.755  37.363  1.00  0.00     0.020 A 
ATOM     69  C   UNL A   1      46.413  27.053  37.063  1.00  0.00     0.054 A 
BRANCH  69  70
ATOM     70  S   UNL A   1      47.766  26.192  37.909  1.00  0.00     0.124 S 
ATOM     71  O   UNL A   1      48.419  25.499  36.801  1.00  0.00    -0.237 OA
ATOM     72  O   UNL A   1      48.526  27.291  38.497  1.00  0.00    -0.237 OA
ATOM     73  O   UNL A   1      47.083  25.327  38.867  1.00  0.00    -0.744 OA
ENDBRANCH  69  70
ENDBRANCH  50  64
BRANCH  51  74
ATOM     74  C   UNL A   1      36.852  32.881  30.854  1.00  0.00    -0.014 A 
ATOM     75  C   UNL A   1      37.084  33.980  30.009  1.00  0.00     0.010 A 
ATOM     76  C   UNL A   1      35.535  32.411  31.017  1.00  0.00     0.010 A 
ATOM     77  C   UNL A   1      36.020  34.613  29.360  1.00  0.00     0.020 A 
ATOM     78  C   UNL A   1      34.473  33.021  30.345  1.00  0.00     0.020 A 
ATOM     79  C   UNL A   1      34.721  34.129  29.532  1.00  0.00     0.054 A 
BRANCH  79  80
ATOM     80  S   UNL A   1      33.360  34.942  28.648  1.00  0.00     0.124 S 
ATOM     81  O   UNL A   1      32.743  33.822  27.945  1.00  0.00    -0.237 OA
ATOM     82  O   UNL A   1      32.576  35.517  29.738  1.00  0.00    -0.237 OA
ATOM     83  O   UNL A   1      34.040  35.918  27.798  1.00  0.00    -0.744 OA
ENDBRANCH  79  80
ENDBRANCH  51  74
BRANCH  63  84
ATOM     84  C   UNL A   1      39.967  34.002  36.997  1.00  0.00    -0.014 A 
ATOM     85  C   UNL A   1      40.647  35.232  36.967  1.00  0.00     0.010 A 
ATOM     86  C   UNL A   1      39.034  33.760  38.023  1.00  0.00     0.010 A 
ATOM     87  C   UNL A   1      40.422  36.188  37.963  1.00  0.00     0.020 A 
ATOM     88  C   UNL A   1      38.784  34.725  39.002  1.00  0.00     0.020 A 
ATOM     89  C   UNL A   1      39.491  35.927  38.973  1.00  0.00     0.054 A 
BRANCH  89  90
ATOM     90  S   UNL A   1      39.184  37.203  40.225  1.00  0.00     0.124 S 
ATOM     91  O   UNL A   1      38.471  36.453  41.256  1.00  0.00    -0.237 OA
ATOM     92  O   UNL A   1      40.535  37.632  40.582  1.00  0.00    -0.237 OA
ATOM     93  O   UNL A   1      38.386  38.201  39.517  1.00  0.00    -0.744 OA
ENDBRANCH  89  90
ENDBRANCH  63  84
ENDBRANCH  37  38
ENDBRANCH  29  32
ENDBRANCH  27  28
ENDBRANCH  26  27
ENDBRANCH   1  26
TORSDOF 20
ENDMDL
MODEL 2
REMARK VINA RESULT:     -10.2      6.324      8.667
REMARK SMILES CC(C)[NH2+][C@](C)(C[N@@H+]1CCC(C)(C)C1)C(=O)NCCCCCCNC(=O)c1ccc(-c2c3nc(c(-c4ccc(S(=O)(=O)[O-])cc4)c4ccc([nH]4)c(-c4ccc(S(=O)(=O)[O-])cc4)c4nc(c(-c5ccc(S(=O)(=O)[O-])cc5)c5ccc2[nH]5)C=C4)C=C3)cc1
REMARK SMILES IDX 21 1 20 2 19 3 18 4 17 5 15 6 16 7 5 9 6 10 4 11 2 14 1 15
REMARK SMILES IDX 3 16 7 17 8 18 9 19 14 20 10 22 11 23 12 24 13 25 22 26
REMARK SMILES IDX 23 27 24 28 25 29 26 31 27 32 28 33 86 34 29 35 85 36 30 37
REMARK SMILES IDX 31 38 32 39 79 40 33 41 84 42 78 43 80 44 34 45 83 46 77 47
REMARK SMILES IDX 76 48 35 50 65 51 46 52 64 53 47 54 50 55 63 56 81 57 48 58
REMARK SMILES IDX 49 59 62 61 82 62 51 63 36 64 37 65 45 66 38 67 44 68 39 69
REMARK SMILES IDX 40 70 41 71 42 72 43 73 66 74 67 75 75 76 68 77 74 78 69 79
REMARK SMILES IDX 70 80 71 81 72 82 73 83 52 84 53 85 61 86 54 87 60 88 55 89
REMARK SMILES IDX 56 90 57 91 58 92 59 93
REMARK H PARENT 17 8 4 12 4 13 8 21 24 30 80 49 50 60
REMARK Flexibility Score: inf
ROOT
ATOM      1  C   UNL A   1      39.952  21.519  26.640  1.00  0.00     0.002 C 
ENDROOT
BRANCH   1   2
ATOM      2  C   UNL A   1      40.153  22.980  27.055  1.00  0.00     0.002 C 
BRANCH   2   3
ATOM      3  C   UNL A   1      38.997  23.915  26.694  1.00  0.00     0.021 C 
BRANCH   3   4
ATOM      4  C   UNL A   1      37.817  23.213  26.022  1.00  0.00     0.116 C 
BRANCH   4   5
ATOM      5  N   UNL A   1      36.594  23.983  26.153  1.00  0.00    -0.350 N 
ATOM      6  C   UNL A   1      35.340  23.734  25.653  1.00  0.00     0.287 C 
ATOM      7  O   UNL A   1      34.443  24.516  25.989  1.00  0.00    -0.268 OA
ATOM      8  H   UNL A   1      36.675  24.811  26.680  1.00  0.00     0.163 HD
BRANCH   6   9
ATOM      9  C   UNL A   1      35.071  22.490  24.729  1.00  0.00     0.221 C 
ATOM     10  C   UNL A   1      36.041  22.516  23.519  1.00  0.00     0.097 C 
BRANCH   9  11
ATOM     11  N   UNL A   1      33.731  22.755  24.140  1.00  0.00    -0.327 N 
ATOM     12  H   UNL A   1      33.098  22.084  24.573  1.00  0.00     0.347 HD
ATOM     13  H   UNL A   1      33.627  23.754  24.323  1.00  0.00     0.347 HD
BRANCH  11  14
ATOM     14  C   UNL A   1      33.456  22.698  22.713  1.00  0.00     0.177 C 
ATOM     15  C   UNL A   1      32.269  21.732  22.562  1.00  0.00     0.075 C 
ATOM     16  C   UNL A   1      33.087  24.019  22.040  1.00  0.00     0.075 C 
ENDBRANCH  11  14
ENDBRANCH   9  11
BRANCH   9  17
ATOM     17  C   UNL A   1      35.294  21.181  25.571  1.00  0.00     0.341 C 
BRANCH  17  18
ATOM     18  N   UNL A   1      34.413  20.062  25.296  1.00  0.00    -0.329 N 
ATOM     19  C   UNL A   1      33.154  19.934  25.985  1.00  0.00     0.263 C 
ATOM     20  C   UNL A   1      34.742  18.908  24.486  1.00  0.00     0.269 C 
ATOM     21  H   UNL A   1      34.658  20.784  24.617  1.00  0.00     0.348 HD
ATOM     22  C   UNL A   1      32.385  19.071  25.001  1.00  0.00     0.073 C 
ATOM     23  C   UNL A   1      33.434  18.085  24.458  1.00  0.00     0.019 C 
ATOM     24  C   UNL A   1      33.539  16.856  25.372  1.00  0.00     0.017 C 
ATOM     25  C   UNL A   1      33.068  17.636  23.038  1.00  0.00     0.017 C 
ENDBRANCH  17  18
ENDBRANCH   9  17
ENDBRANCH   6   9
ENDBRANCH   4   5
ENDBRANCH   3   4
ENDBRANCH   2   3
ENDBRANCH   1   2
BRANCH   1  26
ATOM     26  C   UNL A   1      41.040  20.945  25.727  1.00  0.00     0.021 C 
BRANCH  26  27
ATOM     27  C   UNL A   1      41.886  19.848  26.366  1.00  0.00     0.116 C 
BRANCH  27  28
ATOM     28  N   UNL A   1      42.877  19.321  25.439  1.00  0.00    -0.352 N 
ATOM     29  C   UNL A   1      43.880  19.979  24.778  1.00  0.00     0.251 C 
ATOM     30  H   UNL A   1      42.819  18.355  25.263  1.00  0.00     0.163 HD
ATOM     31  O   UNL A   1      44.484  19.417  23.861  1.00  0.00    -0.269 OA
BRANCH  29  32
ATOM     32  C   UNL A   1      44.230  21.364  25.154  1.00  0.00     0.039 A 
ATOM     33  C   UNL A   1      43.986  22.399  24.248  1.00  0.00     0.014 A 
ATOM     34  C   UNL A   1      44.811  21.640  26.396  1.00  0.00     0.014 A 
ATOM     35  C   UNL A   1      44.278  23.716  24.606  1.00  0.00     0.010 A 
ATOM     36  C   UNL A   1      45.030  22.960  26.781  1.00  0.00     0.010 A 
ATOM     37  C   UNL A   1      44.776  24.011  25.887  1.00  0.00    -0.014 A 
BRANCH  37  38
ATOM     38  C   UNL A   1      45.055  25.409  26.304  1.00  0.00     0.031 A 
ATOM     39  C   UNL A   1      46.448  25.967  26.190  1.00  0.00     0.074 A 
ATOM     40  C   UNL A   1      44.067  26.158  26.835  1.00  0.00     0.049 A 
ATOM     41  N   UNL A   1      46.900  27.140  26.554  1.00  0.00    -0.248 NA
ATOM     42  C   UNL A   1      47.474  25.083  25.612  1.00  0.00     0.031 C 
ATOM     43  C   UNL A   1      42.682  25.722  27.029  1.00  0.00     0.029 A 
ATOM     44  N   UNL A   1      44.078  27.444  27.314  1.00  0.00    -0.354 N 
ATOM     45  C   UNL A   1      48.259  27.130  26.263  1.00  0.00     0.074 A 
ATOM     46  C   UNL A   1      48.570  25.815  25.746  1.00  0.00     0.031 C 
ATOM     47  C   UNL A   1      41.973  26.732  27.557  1.00  0.00     0.029 A 
ATOM     48  C   UNL A   1      42.857  27.870  27.782  1.00  0.00     0.049 A 
ATOM     49  H   UNL A   1      44.885  28.009  27.322  1.00  0.00     0.167 HD
ATOM     50  C   UNL A   1      49.163  28.130  26.393  1.00  0.00     0.031 A 
ATOM     51  C   UNL A   1      42.491  29.043  28.337  1.00  0.00     0.031 A 
ATOM     52  C   UNL A   1      48.847  29.438  26.902  1.00  0.00     0.049 A 
ATOM     53  C   UNL A   1      43.521  30.130  28.495  1.00  0.00     0.074 A 
ATOM     54  C   UNL A   1      49.682  30.534  27.033  1.00  0.00     0.029 A 
ATOM     55  N   UNL A   1      47.600  29.828  27.365  1.00  0.00    -0.354 N 
ATOM     56  N   UNL A   1      44.789  30.119  28.162  1.00  0.00    -0.248 NA
ATOM     57  C   UNL A   1      43.064  31.392  29.094  1.00  0.00     0.031 C 
ATOM     58  C   UNL A   1      48.954  31.570  27.627  1.00  0.00     0.029 A 
ATOM     59  C   UNL A   1      47.648  31.141  27.802  1.00  0.00     0.049 A 
ATOM     60  H   UNL A   1      46.798  29.257  27.379  1.00  0.00     0.167 HD
ATOM     61  C   UNL A   1      45.274  31.384  28.479  1.00  0.00     0.074 A 
ATOM     62  C   UNL A   1      44.159  32.136  29.018  1.00  0.00     0.031 C 
ATOM     63  C   UNL A   1      46.528  31.879  28.333  1.00  0.00     0.031 A 
BRANCH  50  64
ATOM     64  C   UNL A   1      50.585  27.843  25.982  1.00  0.00    -0.014 A 
ATOM     65  C   UNL A   1      51.018  28.066  24.662  1.00  0.00     0.010 A 
ATOM     66  C   UNL A   1      51.512  27.383  26.936  1.00  0.00     0.010 A 
ATOM     67  C   UNL A   1      52.338  27.795  24.294  1.00  0.00     0.020 A 
ATOM     68  C   UNL A   1      52.841  27.141  26.579  1.00  0.00     0.020 A 
ATOM     69  C   UNL A   1      53.242  27.331  25.255  1.00  0.00     0.054 A 
BRANCH  69  70
ATOM     70  S   UNL A   1      54.955  27.011  24.753  1.00  0.00     0.124 S 
ATOM     71  O   UNL A   1      55.019  27.686  23.459  1.00  0.00    -0.237 OA
ATOM     72  O   UNL A   1      55.724  27.635  25.826  1.00  0.00    -0.237 OA
ATOM     73  O   UNL A   1      55.034  25.553  24.699  1.00  0.00    -0.744 OA
ENDBRANCH  69  70
ENDBRANCH  50  64
BRANCH  51  74
ATOM     74  C   UNL A   1      41.082  29.257  28.771  1.00  0.00    -0.014 A 
ATOM     75  C   UNL A   1      40.732  29.171  30.130  1.00  0.00     0.010 A 
ATOM     76  C   UNL A   1      40.082  29.549  27.825  1.00  0.00     0.010 A 
ATOM     77  C   UNL A   1      39.406  29.348  30.533  1.00  0.00     0.020 A 
ATOM     78  C   UNL A   1      38.760  29.758  28.229  1.00  0.00     0.020 A 
ATOM     79  C   UNL A   1      38.428  29.642  29.579  1.00  0.00     0.054 A 
BRANCH  79  80
ATOM     80  S   UNL A   1      36.720  29.907  30.132  1.00  0.00     0.124 S 
ATOM     81  O   UNL A   1      36.649  29.057  31.316  1.00  0.00    -0.237 OA
ATOM     82  O   UNL A   1      36.690  31.346  30.380  1.00  0.00    -0.237 OA
ATOM     83  O   UNL A   1      35.919  29.462  28.992  1.00  0.00    -0.744 OA
ENDBRANCH  79  80
ENDBRANCH  51  74
BRANCH  63  84
ATOM     84  C   UNL A   1      46.758  33.317  28.719  1.00  0.00    -0.014 A 
ATOM     85  C   UNL A   1      47.192  33.670  30.008  1.00  0.00     0.010 A 
ATOM     86  C   UNL A   1      46.590  34.325  27.752  1.00  0.00     0.010 A 
ATOM     87  C   UNL A   1      47.421  35.011  30.333  1.00  0.00     0.020 A 
ATOM     88  C   UNL A   1      46.848  35.662  28.063  1.00  0.00     0.020 A 
ATOM     89  C   UNL A   1      47.249  35.998  29.357  1.00  0.00     0.054 A 
BRANCH  89  90
ATOM     90  S   UNL A   1      47.598  37.724  29.791  1.00  0.00     0.124 S 
ATOM     91  O   UNL A   1      48.699  38.048  28.889  1.00  0.00    -0.237 OA
ATOM     92  O   UNL A   1      46.330  38.389  29.502  1.00  0.00    -0.237 OA
ATOM     93  O   UNL A   1      47.953  37.660  31.208  1.00  0.00    -0.744 OA
ENDBRANCH  89  90
ENDBRANCH  63  84
ENDBRANCH  37  38
ENDBRANCH  29  32
ENDBRANCH  27  28
ENDBRANCH  26  27
ENDBRANCH   1  26
TORSDOF 20
ENDMDL
MODEL 3
REMARK VINA RESULT:     -10.2      5.954      8.325
REMARK SMILES CC(C)[NH2+][C@](C)(C[N@@H+]1CCC(C)(C)C1)C(=O)NCCCCCCNC(=O)c1ccc(-c2c3nc(c(-c4ccc(S(=O)(=O)[O-])cc4)c4ccc([nH]4)c(-c4ccc(S(=O)(=O)[O-])cc4)c4nc(c(-c5ccc(S(=O)(=O)[O-])cc5)c5ccc2[nH]5)C=C4)C=C3)cc1
REMARK SMILES IDX 21 1 20 2 19 3 18 4 17 5 15 6 16 7 5 9 6 10 4 11 2 14 1 15
REMARK SMILES IDX 3 16 7 17 8 18 9 19 14 20 10 22 11 23 12 24 13 25 22 26
REMARK SMILES IDX 23 27 24 28 25 29 26 31 27 32 28 33 86 34 29 35 85 36 30 37
REMARK SMILES IDX 31 38 32 39 79 40 33 41 84 42 78 43 80 44 34 45 83 46 77 47
REMARK SMILES IDX 76 48 35 50 65 51 46 52 64 53 47 54 50 55 63 56 81 57 48 58
REMARK SMILES IDX 49 59 62 61 82 62 51 63 36 64 37 65 45 66 38 67 44 68 39 69
REMARK SMILES IDX 40 70 41 71 42 72 43 73 66 74 67 75 75 76 68 77 74 78 69 79
REMARK SMILES IDX 70 80 71 81 72 82 73 83 52 84 53 85 61 86 54 87 60 88 55 89
REMARK SMILES IDX 56 90 57 91 58 92 59 93
REMARK H PARENT 17 8 4 12 4 13 8 21 24 30 80 49 50 60
REMARK Flexibility Score: inf
ROOT
ATOM      1  C   UNL A   1      38.147  21.448  25.339  1.00  0.00     0.002 C 
ENDROOT
BRANCH   1   2
ATOM      2  C   UNL A   1      36.915  21.498  24.429  1.00  0.00     0.002 C 
BRANCH   2   3
ATOM      3  C   UNL A   1      36.514  22.901  23.967  1.00  0.00     0.021 C 
BRANCH   3   4
ATOM      4  C   UNL A   1      35.522  23.600  24.896  1.00  0.00     0.116 C 
BRANCH   4   5
ATOM      5  N   UNL A   1      34.514  22.680  25.390  1.00  0.00    -0.350 N 
ATOM      6  C   UNL A   1      33.157  22.845  25.512  1.00  0.00     0.287 C 
ATOM      7  O   UNL A   1      32.509  21.860  25.883  1.00  0.00    -0.268 OA
ATOM      8  H   UNL A   1      34.855  21.804  25.682  1.00  0.00     0.163 HD
BRANCH   6   9
ATOM      9  C   UNL A   1      32.475  24.218  25.156  1.00  0.00     0.221 C 
ATOM     10  C   UNL A   1      30.981  23.985  24.808  1.00  0.00     0.097 C 
BRANCH   9  11
ATOM     11  N   UNL A   1      33.102  24.614  23.866  1.00  0.00    -0.327 N 
ATOM     12  H   UNL A   1      33.226  25.625  23.915  1.00  0.00     0.347 HD
ATOM     13  H   UNL A   1      33.914  23.996  23.842  1.00  0.00     0.347 HD
BRANCH  11  14
ATOM     14  C   UNL A   1      32.504  24.348  22.568  1.00  0.00     0.177 C 
ATOM     15  C   UNL A   1      32.603  25.672  21.792  1.00  0.00     0.075 C 
ATOM     16  C   UNL A   1      33.160  23.252  21.730  1.00  0.00     0.075 C 
ENDBRANCH  11  14
ENDBRANCH   9  11
BRANCH   9  17
ATOM     17  C   UNL A   1      32.597  25.176  26.396  1.00  0.00     0.341 C 
BRANCH  17  18
ATOM     18  N   UNL A   1      32.555  26.602  26.134  1.00  0.00    -0.329 N 
ATOM     19  C   UNL A   1      33.771  27.373  26.079  1.00  0.00     0.263 C 
ATOM     20  C   UNL A   1      31.358  27.415  26.080  1.00  0.00     0.269 C 
ATOM     21  H   UNL A   1      32.266  25.885  25.468  1.00  0.00     0.348 HD
ATOM     22  C   UNL A   1      33.318  28.546  25.227  1.00  0.00     0.073 C 
ATOM     23  C   UNL A   1      31.876  28.818  25.687  1.00  0.00     0.019 C 
ATOM     24  C   UNL A   1      31.869  29.764  26.897  1.00  0.00     0.017 C 
ATOM     25  C   UNL A   1      31.055  29.437  24.550  1.00  0.00     0.017 C 
ENDBRANCH  17  18
ENDBRANCH   9  17
ENDBRANCH   6   9
ENDBRANCH   4   5
ENDBRANCH   3   4
ENDBRANCH   2   3
ENDBRANCH   1   2
BRANCH   1  26
ATOM     26  C   UNL A   1      38.939  20.139  25.291  1.00  0.00     0.021 C 
BRANCH  26  27
ATOM     27  C   UNL A   1      39.860  19.913  26.487  1.00  0.00     0.116 C 
BRANCH  27  28
ATOM     28  N   UNL A   1      41.040  19.144  26.122  1.00  0.00    -0.352 N 
ATOM     29  C   UNL A   1      42.308  19.582  25.848  1.00  0.00     0.251 C 
ATOM     30  H   UNL A   1      40.909  18.171  26.065  1.00  0.00     0.163 HD
ATOM     31  O   UNL A   1      43.128  18.813  25.339  1.00  0.00    -0.269 OA
BRANCH  29  32
ATOM     32  C   UNL A   1      42.691  20.976  26.149  1.00  0.00     0.039 A 
ATOM     33  C   UNL A   1      42.865  21.363  27.481  1.00  0.00     0.014 A 
ATOM     34  C   UNL A   1      42.865  21.907  25.119  1.00  0.00     0.014 A 
ATOM     35  C   UNL A   1      43.263  22.669  27.776  1.00  0.00     0.010 A 
ATOM     36  C   UNL A   1      43.335  23.184  25.410  1.00  0.00     0.010 A 
ATOM     37  C   UNL A   1      43.529  23.582  26.742  1.00  0.00    -0.014 A 
BRANCH  37  38
ATOM     38  C   UNL A   1      43.993  24.963  27.031  1.00  0.00     0.031 A 
ATOM     39  C   UNL A   1      45.448  25.319  26.873  1.00  0.00     0.074 A 
ATOM     40  C   UNL A   1      43.118  25.882  27.486  1.00  0.00     0.049 A 
ATOM     41  N   UNL A   1      46.054  26.449  27.130  1.00  0.00    -0.248 NA
ATOM     42  C   UNL A   1      46.343  24.256  26.384  1.00  0.00     0.031 C 
ATOM     43  C   UNL A   1      41.689  25.653  27.712  1.00  0.00     0.029 A 
ATOM     44  N   UNL A   1      43.303  27.194  27.845  1.00  0.00    -0.354 N 
ATOM     45  C   UNL A   1      47.398  26.232  26.849  1.00  0.00     0.074 A 
ATOM     46  C   UNL A   1      47.528  24.846  26.456  1.00  0.00     0.031 C 
ATOM     47  C   UNL A   1      41.124  26.793  28.141  1.00  0.00     0.029 A 
ATOM     48  C   UNL A   1      42.152  27.820  28.266  1.00  0.00     0.049 A 
ATOM     49  H   UNL A   1      44.178  27.645  27.805  1.00  0.00     0.167 HD
ATOM     50  C   UNL A   1      48.427  27.110  26.892  1.00  0.00     0.031 A 
ATOM     51  C   UNL A   1      41.950  29.076  28.709  1.00  0.00     0.031 A 
ATOM     52  C   UNL A   1      48.292  28.490  27.277  1.00  0.00     0.049 A 
ATOM     53  C   UNL A   1      43.116  30.027  28.773  1.00  0.00     0.074 A 
ATOM     54  C   UNL A   1      49.266  29.473  27.311  1.00  0.00     0.029 A 
ATOM     55  N   UNL A   1      47.110  29.084  27.695  1.00  0.00    -0.354 N 
ATOM     56  N   UNL A   1      44.370  29.817  28.448  1.00  0.00    -0.248 NA
ATOM     57  C   UNL A   1      42.835  31.388  29.251  1.00  0.00     0.031 C 
ATOM     58  C   UNL A   1      48.686  30.646  27.804  1.00  0.00     0.029 A 
ATOM     59  C   UNL A   1      47.336  30.412  28.011  1.00  0.00     0.049 A 
ATOM     60  H   UNL A   1      46.240  28.627  27.758  1.00  0.00     0.167 HD
ATOM     61  C   UNL A   1      45.020  31.029  28.650  1.00  0.00     0.074 A 
ATOM     62  C   UNL A   1      44.019  31.969  29.112  1.00  0.00     0.031 C 
ATOM     63  C   UNL A   1      46.327  31.338  28.466  1.00  0.00     0.031 A 
BRANCH  50  64
ATOM     64  C   UNL A   1      49.795  26.601  26.516  1.00  0.00    -0.014 A 
ATOM     65  C   UNL A   1      50.602  25.927  27.452  1.00  0.00     0.010 A 
ATOM     66  C   UNL A   1      50.267  26.762  25.200  1.00  0.00     0.010 A 
ATOM     67  C   UNL A   1      51.869  25.462  27.091  1.00  0.00     0.020 A 
ATOM     68  C   UNL A   1      51.521  26.270  24.827  1.00  0.00     0.020 A 
ATOM     69  C   UNL A   1      52.322  25.638  25.780  1.00  0.00     0.054 A 
BRANCH  69  70
ATOM     70  S   UNL A   1      53.960  25.002  25.335  1.00  0.00     0.124 S 
ATOM     71  O   UNL A   1      54.792  25.535  26.411  1.00  0.00    -0.237 OA
ATOM     72  O   UNL A   1      53.758  23.556  25.356  1.00  0.00    -0.237 OA
ATOM     73  O   UNL A   1      54.209  25.575  24.015  1.00  0.00    -0.744 OA
ENDBRANCH  69  70
ENDBRANCH  50  64
BRANCH  51  74
ATOM     74  C   UNL A   1      40.585  29.514  29.114  1.00  0.00    -0.014 A 
ATOM     75  C   UNL A   1      40.288  29.770  30.464  1.00  0.00     0.010 A 
ATOM     76  C   UNL A   1      39.573  29.679  28.150  1.00  0.00     0.010 A 
ATOM     77  C   UNL A   1      39.001  30.158  30.846  1.00  0.00     0.020 A 
ATOM     78  C   UNL A   1      38.293  30.097  28.524  1.00  0.00     0.020 A 
ATOM     79  C   UNL A   1      38.012  30.320  29.873  1.00  0.00     0.054 A 
BRANCH  79  80
ATOM     80  S   UNL A   1      36.358  30.862  30.388  1.00  0.00     0.124 S 
ATOM     81  O   UNL A   1      36.605  32.242  30.793  1.00  0.00    -0.237 OA
ATOM     82  O   UNL A   1      35.576  30.690  29.167  1.00  0.00    -0.237 OA
ATOM     83  O   UNL A   1      36.019  29.942  31.472  1.00  0.00    -0.744 OA
ENDBRANCH  79  80
ENDBRANCH  51  74
BRANCH  63  84
ATOM     84  C   UNL A   1      46.749  32.762  28.720  1.00  0.00    -0.014 A 
ATOM     85  C   UNL A   1      47.231  33.172  29.975  1.00  0.00     0.010 A 
ATOM     86  C   UNL A   1      46.714  33.690  27.662  1.00  0.00     0.010 A 
ATOM     87  C   UNL A   1      47.639  34.494  30.177  1.00  0.00     0.020 A 
ATOM     88  C   UNL A   1      47.150  35.003  27.852  1.00  0.00     0.020 A 
ATOM     89  C   UNL A   1      47.597  35.401  29.113  1.00  0.00     0.054 A 
BRANCH  89  90
ATOM     90  S   UNL A   1      48.175  37.097  29.389  1.00  0.00     0.124 S 
ATOM     91  O   UNL A   1      48.507  37.078  30.811  1.00  0.00    -0.237 OA
ATOM     92  O   UNL A   1      49.314  37.199  28.480  1.00  0.00    -0.237 OA
ATOM     93  O   UNL A   1      47.022  37.921  29.030  1.00  0.00    -0.744 OA
ENDBRANCH  89  90
ENDBRANCH  63  84
ENDBRANCH  37  38
ENDBRANCH  29  32
ENDBRANCH  27  28
ENDBRANCH  26  27
ENDBRANCH   1  26
TORSDOF 20
ENDMDL
