MODEL 1
REMARK VINA RESULT:      -8.4      0.000      0.000
REMARK SMILES O=C(NCCCCCCNC(=O)c1ccc(-c2c3nc(c(-c4ccc(S(=O)(=O)[O-])cc4)c4ccc([nH]4)c(-c4ccc(S(=O)(=O)[O-])cc4)c4nc(c(-c5ccc(S(=O)(=O)[O-])cc5)c5ccc2[nH]5)C=C4)C=C3)cc1)c1ccc(/[NH+]=C2\S[C@@H](Cc3ccc(F)cc3)C(=O)N2Cc2ccccc2)cc1
REMARK SMILES IDX 6 1 5 2 4 3 3 4 1 5 2 6 73 8 74 9 100 10 75 11 99 12 76 13
REMARK SMILES IDX 77 14 78 15 79 17 91 18 80 19 89 20 90 21 92 22 93 23 94 24
REMARK SMILES IDX 98 25 95 26 97 27 96 28 81 29 82 30 83 31 88 32 84 33 87 34
REMARK SMILES IDX 85 35 86 36 7 37 8 38 9 39 10 40 11 41 12 43 13 44 14 45
REMARK SMILES IDX 72 46 15 47 71 48 16 49 17 50 18 51 65 52 19 53 70 54 64 55
REMARK SMILES IDX 66 56 20 57 69 58 63 59 62 60 21 62 51 63 32 64 50 65 33 66
REMARK SMILES IDX 36 67 49 68 67 69 34 70 35 71 48 73 68 74 37 75 22 76 23 77
REMARK SMILES IDX 31 78 24 79 30 80 25 81 26 82 27 83 28 84 29 85 52 86 53 87
REMARK SMILES IDX 61 88 54 89 60 90 55 91 56 92 57 93 58 94 59 95 38 96 39 97
REMARK SMILES IDX 47 98 40 99 46 100 41 101 42 102 43 103 44 104 45 105
REMARK H PARENT 3 7 77 16 10 42 66 61 36 72
REMARK Flexibility Score: inf
ROOT
ATOM      1  C   UNL A   1      37.334  32.373  31.058  1.00  0.00     0.002 C 
ENDROOT
BRANCH   1   2
ATOM      2  C   UNL A   1      37.751  33.035  32.374  1.00  0.00     0.021 C 
BRANCH   2   3
ATOM      3  C   UNL A   1      37.320  32.296  33.637  1.00  0.00     0.116 C 
BRANCH   3   4
ATOM      4  N   UNL A   1      36.864  30.941  33.359  1.00  0.00    -0.352 N 
ATOM      5  O   UNL A   1      37.066  28.731  32.934  1.00  0.00    -0.269 OA
ATOM      6  C   UNL A   1      37.573  29.766  33.360  1.00  0.00     0.251 C 
ATOM      7  H   UNL A   1      35.908  30.856  33.139  1.00  0.00     0.163 HD
BRANCH   6   8
ATOM      8  C   UNL A   1      38.963  29.748  33.860  1.00  0.00     0.040 A 
ATOM      9  C   UNL A   1      39.309  30.464  35.006  1.00  0.00     0.018 A 
ATOM     10  C   UNL A   1      39.926  28.990  33.187  1.00  0.00     0.018 A 
ATOM     11  C   UNL A   1      40.642  30.517  35.401  1.00  0.00     0.052 A 
ATOM     12  C   UNL A   1      41.258  29.017  33.615  1.00  0.00     0.052 A 
ATOM     13  C   UNL A   1      41.629  29.818  34.697  1.00  0.00     0.125 A 
BRANCH  13  14
ATOM     14  N   UNL A   1      42.937  29.904  35.178  1.00  0.00    -0.235 N 
ATOM     15  C   UNL A   1      43.516  28.925  35.785  1.00  0.00     0.320 C 
ATOM     16  H   UNL A   1      43.435  30.744  35.050  1.00  0.00     0.313 HD
ATOM     17  S   UNL A   1      42.800  27.438  36.341  1.00  0.00    -0.022 SA
ATOM     18  N   UNL A   1      44.860  28.943  36.052  1.00  0.00    -0.186 N 
ATOM     19  C   UNL A   1      44.260  27.013  37.346  1.00  0.00     0.178 C 
ATOM     20  C   UNL A   1      45.369  27.897  36.794  1.00  0.00     0.324 C 
ATOM     21  O   UNL A   1      46.558  27.751  37.056  1.00  0.00    -0.245 OA
BRANCH  18  22
ATOM     22  C   UNL A   1      45.737  29.983  35.525  1.00  0.00     0.283 C 
BRANCH  22  23
ATOM     23  C   UNL A   1      45.575  31.313  36.234  1.00  0.00    -0.006 A 
ATOM     24  C   UNL A   1      45.196  31.376  37.581  1.00  0.00     0.008 A 
ATOM     25  C   UNL A   1      45.819  32.516  35.552  1.00  0.00     0.008 A 
ATOM     26  C   UNL A   1      45.071  32.611  38.226  1.00  0.00     0.000 A 
ATOM     27  C   UNL A   1      45.725  33.746  36.203  1.00  0.00     0.000 A 
ATOM     28  C   UNL A   1      45.348  33.795  37.540  1.00  0.00     0.000 A 
ENDBRANCH  22  23
ENDBRANCH  18  22
BRANCH  19  29
ATOM     29  C   UNL A   1      44.544  25.512  37.281  1.00  0.00     0.063 C 
BRANCH  29  30
ATOM     30  C   UNL A   1      44.327  24.892  35.916  1.00  0.00    -0.046 A 
ATOM     31  C   UNL A   1      45.262  25.118  34.894  1.00  0.00     0.007 A 
ATOM     32  C   UNL A   1      43.199  24.102  35.644  1.00  0.00     0.007 A 
ATOM     33  C   UNL A   1      45.089  24.545  33.633  1.00  0.00     0.039 A 
ATOM     34  C   UNL A   1      43.030  23.525  34.382  1.00  0.00     0.039 A 
ATOM     35  C   UNL A   1      43.978  23.748  33.391  1.00  0.00     0.123 A 
ATOM     36  F   UNL A   1      43.814  23.188  32.185  1.00  0.00    -0.207 F 
ENDBRANCH  29  30
ENDBRANCH  19  29
ENDBRANCH  13  14
ENDBRANCH   6   8
ENDBRANCH   3   4
ENDBRANCH   2   3
ENDBRANCH   1   2
BRANCH   1  37
ATOM     37  C   UNL A   1      36.880  33.328  29.951  1.00  0.00     0.002 C 
BRANCH  37  38
ATOM     38  C   UNL A   1      35.406  33.231  29.552  1.00  0.00     0.021 C 
BRANCH  38  39
ATOM     39  C   UNL A   1      35.144  33.009  28.065  1.00  0.00     0.116 C 
BRANCH  39  40
ATOM     40  N   UNL A   1      34.250  31.891  27.816  1.00  0.00    -0.352 N 
ATOM     41  C   UNL A   1      34.529  30.547  27.751  1.00  0.00     0.251 C 
ATOM     42  H   UNL A   1      33.307  32.132  27.672  1.00  0.00     0.163 HD
ATOM     43  O   UNL A   1      33.663  29.763  27.375  1.00  0.00    -0.269 OA
BRANCH  41  44
ATOM     44  C   UNL A   1      35.876  30.049  28.110  1.00  0.00     0.039 A 
ATOM     45  C   UNL A   1      36.897  30.128  27.160  1.00  0.00     0.014 A 
ATOM     46  C   UNL A   1      36.132  29.495  29.368  1.00  0.00     0.014 A 
ATOM     47  C   UNL A   1      38.189  29.711  27.492  1.00  0.00     0.010 A 
ATOM     48  C   UNL A   1      37.433  29.142  29.719  1.00  0.00     0.010 A 
ATOM     49  C   UNL A   1      38.476  29.244  28.785  1.00  0.00    -0.014 A 
BRANCH  49  50
ATOM     50  C   UNL A   1      39.857  28.867  29.180  1.00  0.00     0.031 A 
ATOM     51  C   UNL A   1      40.736  29.852  29.904  1.00  0.00     0.074 A 
ATOM     52  C   UNL A   1      40.344  27.659  28.835  1.00  0.00     0.049 A 
ATOM     53  N   UNL A   1      41.983  29.724  30.279  1.00  0.00    -0.248 NA
ATOM     54  C   UNL A   1      40.144  31.161  30.226  1.00  0.00     0.031 C 
ATOM     55  C   UNL A   1      39.607  26.626  28.102  1.00  0.00     0.029 A 
ATOM     56  N   UNL A   1      41.578  27.096  29.048  1.00  0.00    -0.354 N 
ATOM     57  C   UNL A   1      42.331  30.937  30.861  1.00  0.00     0.074 A 
ATOM     58  C   UNL A   1      41.178  31.804  30.750  1.00  0.00     0.031 C 
ATOM     59  C   UNL A   1      40.393  25.547  27.952  1.00  0.00     0.029 A 
ATOM     60  C   UNL A   1      41.700  25.824  28.539  1.00  0.00     0.049 A 
ATOM     61  H   UNL A   1      42.306  27.559  29.520  1.00  0.00     0.167 HD
ATOM     62  C   UNL A   1      43.499  31.295  31.449  1.00  0.00     0.031 A 
ATOM     63  C   UNL A   1      42.747  24.975  28.539  1.00  0.00     0.031 A 
ATOM     64  C   UNL A   1      44.640  30.427  31.572  1.00  0.00     0.049 A 
ATOM     65  C   UNL A   1      44.035  25.398  29.191  1.00  0.00     0.074 A 
ATOM     66  C   UNL A   1      45.845  30.675  32.206  1.00  0.00     0.029 A 
ATOM     67  N   UNL A   1      44.720  29.145  31.048  1.00  0.00    -0.354 N 
ATOM     68  N   UNL A   1      44.322  26.527  29.793  1.00  0.00    -0.248 NA
ATOM     69  C   UNL A   1      45.138  24.426  29.171  1.00  0.00     0.031 C 
ATOM     70  C   UNL A   1      46.673  29.563  32.022  1.00  0.00     0.029 A 
ATOM     71  C   UNL A   1      45.964  28.599  31.323  1.00  0.00     0.049 A 
ATOM     72  H   UNL A   1      44.000  28.690  30.555  1.00  0.00     0.167 HD
ATOM     73  C   UNL A   1      45.629  26.390  30.250  1.00  0.00     0.074 A 
ATOM     74  C   UNL A   1      46.071  25.066  29.863  1.00  0.00     0.031 C 
ATOM     75  C   UNL A   1      46.391  27.280  30.931  1.00  0.00     0.031 A 
BRANCH  62  76
ATOM     76  C   UNL A   1      43.602  32.694  31.996  1.00  0.00    -0.014 A 
ATOM     77  C   UNL A   1      44.339  33.686  31.325  1.00  0.00     0.010 A 
ATOM     78  C   UNL A   1      42.922  33.033  33.181  1.00  0.00     0.010 A 
ATOM     79  C   UNL A   1      44.436  34.976  31.853  1.00  0.00     0.020 A 
ATOM     80  C   UNL A   1      42.993  34.329  33.698  1.00  0.00     0.020 A 
ATOM     81  C   UNL A   1      43.766  35.288  33.040  1.00  0.00     0.054 A 
BRANCH  81  82
ATOM     82  S   UNL A   1      43.899  36.973  33.698  1.00  0.00     0.124 S 
ATOM     83  O   UNL A   1      45.311  37.040  34.069  1.00  0.00    -0.237 OA
ATOM     84  O   UNL A   1      43.512  37.796  32.556  1.00  0.00    -0.237 OA
ATOM     85  O   UNL A   1      42.960  36.984  34.818  1.00  0.00    -0.744 OA
ENDBRANCH  81  82
ENDBRANCH  62  76
BRANCH  63  86
ATOM     86  C   UNL A   1      42.613  23.630  27.917  1.00  0.00    -0.014 A 
ATOM     87  C   UNL A   1      42.926  23.442  26.559  1.00  0.00     0.010 A 
ATOM     88  C   UNL A   1      42.186  22.529  28.681  1.00  0.00     0.010 A 
ATOM     89  C   UNL A   1      42.798  22.180  25.971  1.00  0.00     0.020 A 
ATOM     90  C   UNL A   1      42.082  21.260  28.103  1.00  0.00     0.020 A 
ATOM     91  C   UNL A   1      42.378  21.097  26.748  1.00  0.00     0.054 A 
BRANCH  91  92
ATOM     92  S   UNL A   1      42.270  19.457  25.979  1.00  0.00     0.124 S 
ATOM     93  O   UNL A   1      43.160  19.602  24.830  1.00  0.00    -0.237 OA
ATOM     94  O   UNL A   1      42.747  18.577  27.042  1.00  0.00    -0.237 OA
ATOM     95  O   UNL A   1      40.851  19.323  25.660  1.00  0.00    -0.744 OA
ENDBRANCH  91  92
ENDBRANCH  63  86
BRANCH  75  96
ATOM     96  C   UNL A   1      47.775  26.843  31.333  1.00  0.00    -0.014 A 
ATOM     97  C   UNL A   1      48.873  27.015  30.473  1.00  0.00     0.010 A 
ATOM     98  C   UNL A   1      47.984  26.299  32.613  1.00  0.00     0.010 A 
ATOM     99  C   UNL A   1      50.152  26.624  30.876  1.00  0.00     0.020 A 
ATOM    100  C   UNL A   1      49.265  25.932  33.030  1.00  0.00     0.020 A 
ATOM    101  C   UNL A   1      50.340  26.084  32.153  1.00  0.00     0.054 A 
BRANCH 101 102
ATOM    102  S   UNL A   1      52.018  25.626  32.670  1.00  0.00     0.124 S 
ATOM    103  O   UNL A   1      52.759  26.862  32.426  1.00  0.00    -0.237 OA
ATOM    104  O   UNL A   1      51.835  25.271  34.075  1.00  0.00    -0.237 OA
ATOM    105  O   UNL A   1      52.359  24.511  31.790  1.00  0.00    -0.744 OA
ENDBRANCH 101 102
ENDBRANCH  75  96
ENDBRANCH  49  50
ENDBRANCH  41  44
ENDBRANCH  39  40
ENDBRANCH  38  39
ENDBRANCH  37  38
ENDBRANCH   1  37
TORSDOF 21
ENDMDL
MODEL 2
REMARK VINA RESULT:      -8.3      4.260     11.972
REMARK SMILES O=C(NCCCCCCNC(=O)c1ccc(-c2c3nc(c(-c4ccc(S(=O)(=O)[O-])cc4)c4ccc([nH]4)c(-c4ccc(S(=O)(=O)[O-])cc4)c4nc(c(-c5ccc(S(=O)(=O)[O-])cc5)c5ccc2[nH]5)C=C4)C=C3)cc1)c1ccc(/[NH+]=C2\S[C@@H](Cc3ccc(F)cc3)C(=O)N2Cc2ccccc2)cc1
REMARK SMILES IDX 6 1 5 2 4 3 3 4 1 5 2 6 73 8 74 9 100 10 75 11 99 12 76 13
REMARK SMILES IDX 77 14 78 15 79 17 91 18 80 19 89 20 90 21 92 22 93 23 94 24
REMARK SMILES IDX 98 25 95 26 97 27 96 28 81 29 82 30 83 31 88 32 84 33 87 34
REMARK SMILES IDX 85 35 86 36 7 37 8 38 9 39 10 40 11 41 12 43 13 44 14 45
REMARK SMILES IDX 72 46 15 47 71 48 16 49 17 50 18 51 65 52 19 53 70 54 64 55
REMARK SMILES IDX 66 56 20 57 69 58 63 59 62 60 21 62 51 63 32 64 50 65 33 66
REMARK SMILES IDX 36 67 49 68 67 69 34 70 35 71 48 73 68 74 37 75 22 76 23 77
REMARK SMILES IDX 31 78 24 79 30 80 25 81 26 82 27 83 28 84 29 85 52 86 53 87
REMARK SMILES IDX 61 88 54 89 60 90 55 91 56 92 57 93 58 94 59 95 38 96 39 97
REMARK SMILES IDX 47 98 40 99 46 100 41 101 42 102 43 103 44 104 45 105
REMARK H PARENT 3 7 77 16 10 42 66 61 36 72
REMARK Flexibility Score: inf
ROOT
ATOM      1  C   UNL A   1      43.896  28.947  26.970  1.00  0.00     0.002 C 
ENDROOT
BRANCH   1   2
ATOM      2  C   UNL A   1      43.631  29.027  28.475  1.00  0.00     0.021 C 
BRANCH   2   3
ATOM      3  C   UNL A   1      43.588  27.685  29.199  1.00  0.00     0.116 C 
BRANCH   3   4
ATOM      4  N   UNL A   1      44.773  27.457  30.015  1.00  0.00    -0.352 N 
ATOM      5  O   UNL A   1      46.222  26.275  31.282  1.00  0.00    -0.269 OA
ATOM      6  C   UNL A   1      45.311  26.275  30.458  1.00  0.00     0.251 C 
ATOM      7  H   UNL A   1      45.257  28.269  30.288  1.00  0.00     0.163 HD
BRANCH   6   8
ATOM      8  C   UNL A   1      44.781  24.992  29.953  1.00  0.00     0.040 A 
ATOM      9  C   UNL A   1      45.126  24.538  28.680  1.00  0.00     0.018 A 
ATOM     10  C   UNL A   1      43.945  24.225  30.770  1.00  0.00     0.018 A 
ATOM     11  C   UNL A   1      44.536  23.381  28.185  1.00  0.00     0.052 A 
ATOM     12  C   UNL A   1      43.387  23.039  30.278  1.00  0.00     0.052 A 
ATOM     13  C   UNL A   1      43.644  22.637  28.966  1.00  0.00     0.125 A 
BRANCH  13  14
ATOM     14  N   UNL A   1      43.119  21.474  28.401  1.00  0.00    -0.235 N 
ATOM     15  C   UNL A   1      42.038  21.473  27.698  1.00  0.00     0.320 C 
ATOM     16  H   UNL A   1      43.592  20.622  28.544  1.00  0.00     0.313 HD
ATOM     17  S   UNL A   1      40.899  22.774  27.487  1.00  0.00    -0.022 SA
ATOM     18  N   UNL A   1      41.657  20.377  26.970  1.00  0.00    -0.186 N 
ATOM     19  C   UNL A   1      39.651  21.673  26.744  1.00  0.00     0.178 C 
ATOM     20  C   UNL A   1      40.435  20.435  26.332  1.00  0.00     0.324 C 
ATOM     21  O   UNL A   1      39.996  19.556  25.599  1.00  0.00    -0.245 OA
BRANCH  18  22
ATOM     22  C   UNL A   1      42.527  19.215  26.814  1.00  0.00     0.283 C 
BRANCH  22  23
ATOM     23  C   UNL A   1      43.709  19.477  25.902  1.00  0.00    -0.006 A 
ATOM     24  C   UNL A   1      43.912  20.734  25.319  1.00  0.00     0.008 A 
ATOM     25  C   UNL A   1      44.641  18.459  25.637  1.00  0.00     0.008 A 
ATOM     26  C   UNL A   1      45.020  20.964  24.497  1.00  0.00     0.000 A 
ATOM     27  C   UNL A   1      45.762  18.698  24.842  1.00  0.00     0.000 A 
ATOM     28  C   UNL A   1      45.951  19.950  24.269  1.00  0.00     0.000 A 
ENDBRANCH  22  23
ENDBRANCH  18  22
BRANCH  19  29
ATOM     29  C   UNL A   1      38.917  22.377  25.603  1.00  0.00     0.063 C 
BRANCH  29  30
ATOM     30  C   UNL A   1      37.440  22.048  25.511  1.00  0.00    -0.046 A 
ATOM     31  C   UNL A   1      36.489  23.023  25.850  1.00  0.00     0.007 A 
ATOM     32  C   UNL A   1      36.999  20.779  25.105  1.00  0.00     0.007 A 
ATOM     33  C   UNL A   1      35.125  22.746  25.759  1.00  0.00     0.039 A 
ATOM     34  C   UNL A   1      35.632  20.506  25.009  1.00  0.00     0.039 A 
ATOM     35  C   UNL A   1      34.709  21.492  25.333  1.00  0.00     0.123 A 
ATOM     36  F   UNL A   1      33.399  21.227  25.234  1.00  0.00    -0.207 F 
ENDBRANCH  29  30
ENDBRANCH  19  29
ENDBRANCH  13  14
ENDBRANCH   6   8
ENDBRANCH   3   4
ENDBRANCH   2   3
ENDBRANCH   1   2
BRANCH   1  37
ATOM     37  C   UNL A   1      42.664  29.078  26.072  1.00  0.00     0.002 C 
BRANCH  37  38
ATOM     38  C   UNL A   1      42.218  27.798  25.362  1.00  0.00     0.021 C 
BRANCH  38  39
ATOM     39  C   UNL A   1      42.018  26.586  26.266  1.00  0.00     0.116 C 
BRANCH  39  40
ATOM     40  N   UNL A   1      40.711  25.973  26.098  1.00  0.00    -0.352 N 
ATOM     41  C   UNL A   1      39.612  26.018  26.921  1.00  0.00     0.251 C 
ATOM     42  H   UNL A   1      40.597  25.447  25.274  1.00  0.00     0.163 HD
ATOM     43  O   UNL A   1      38.642  25.306  26.683  1.00  0.00    -0.269 OA
BRANCH  41  44
ATOM     44  C   UNL A   1      39.607  26.906  28.106  1.00  0.00     0.039 A 
ATOM     45  C   UNL A   1      39.288  26.361  29.353  1.00  0.00     0.014 A 
ATOM     46  C   UNL A   1      39.902  28.267  27.993  1.00  0.00     0.014 A 
ATOM     47  C   UNL A   1      39.326  27.168  30.494  1.00  0.00     0.010 A 
ATOM     48  C   UNL A   1      40.004  29.054  29.138  1.00  0.00     0.010 A 
ATOM     49  C   UNL A   1      39.716  28.513  30.401  1.00  0.00    -0.014 A 
BRANCH  49  50
ATOM     50  C   UNL A   1      39.835  29.367  31.611  1.00  0.00     0.031 A 
ATOM     51  C   UNL A   1      40.957  29.145  32.590  1.00  0.00     0.074 A 
ATOM     52  C   UNL A   1      38.898  30.303  31.863  1.00  0.00     0.049 A 
ATOM     53  N   UNL A   1      41.192  29.750  33.726  1.00  0.00    -0.248 NA
ATOM     54  C   UNL A   1      41.928  28.088  32.261  1.00  0.00     0.031 C 
ATOM     55  C   UNL A   1      37.742  30.593  31.012  1.00  0.00     0.029 A 
ATOM     56  N   UNL A   1      38.767  31.179  32.911  1.00  0.00    -0.354 N 
ATOM     57  C   UNL A   1      42.322  29.137  34.256  1.00  0.00     0.074 A 
ATOM     58  C   UNL A   1      42.699  28.083  33.339  1.00  0.00     0.031 C 
ATOM     59  C   UNL A   1      37.036  31.597  31.559  1.00  0.00     0.029 A 
ATOM     60  C   UNL A   1      37.663  31.994  32.816  1.00  0.00     0.049 A 
ATOM     61  H   UNL A   1      39.403  31.220  33.661  1.00  0.00     0.167 HD
ATOM     62  C   UNL A   1      42.994  29.432  35.395  1.00  0.00     0.031 A 
ATOM     63  C   UNL A   1      37.203  32.949  33.647  1.00  0.00     0.031 A 
ATOM     64  C   UNL A   1      42.626  30.490  36.299  1.00  0.00     0.049 A 
ATOM     65  C   UNL A   1      37.962  33.254  34.909  1.00  0.00     0.074 A 
ATOM     66  C   UNL A   1      43.280  30.908  37.445  1.00  0.00     0.029 A 
ATOM     67  N   UNL A   1      41.505  31.295  36.162  1.00  0.00    -0.354 N 
ATOM     68  N   UNL A   1      39.065  32.705  35.359  1.00  0.00    -0.248 NA
ATOM     69  C   UNL A   1      37.419  34.314  35.770  1.00  0.00     0.031 C 
ATOM     70  C   UNL A   1      42.527  31.932  38.029  1.00  0.00     0.029 A 
ATOM     71  C   UNL A   1      41.435  32.191  37.216  1.00  0.00     0.049 A 
ATOM     72  H   UNL A   1      40.856  31.238  35.424  1.00  0.00     0.167 HD
ATOM     73  C   UNL A   1      39.364  33.374  36.542  1.00  0.00     0.074 A 
ATOM     74  C   UNL A   1      38.332  34.373  36.730  1.00  0.00     0.031 C 
ATOM     75  C   UNL A   1      40.401  33.180  37.392  1.00  0.00     0.031 A 
BRANCH  62  76
ATOM     76  C   UNL A   1      44.195  28.588  35.733  1.00  0.00    -0.014 A 
ATOM     77  C   UNL A   1      45.477  28.924  35.263  1.00  0.00     0.010 A 
ATOM     78  C   UNL A   1      44.044  27.460  36.561  1.00  0.00     0.010 A 
ATOM     79  C   UNL A   1      46.578  28.122  35.575  1.00  0.00     0.020 A 
ATOM     80  C   UNL A   1      45.147  26.670  36.898  1.00  0.00     0.020 A 
ATOM     81  C   UNL A   1      46.405  26.997  36.386  1.00  0.00     0.054 A 
BRANCH  81  82
ATOM     82  S   UNL A   1      47.853  25.979  36.783  1.00  0.00     0.124 S 
ATOM     83  O   UNL A   1      47.396  24.644  36.403  1.00  0.00    -0.237 OA
ATOM     84  O   UNL A   1      48.892  26.552  35.933  1.00  0.00    -0.237 OA
ATOM     85  O   UNL A   1      48.040  26.187  38.218  1.00  0.00    -0.744 OA
ENDBRANCH  81  82
ENDBRANCH  62  76
BRANCH  63  86
ATOM     86  C   UNL A   1      35.967  33.703  33.300  1.00  0.00    -0.014 A 
ATOM     87  C   UNL A   1      34.701  33.166  33.596  1.00  0.00     0.010 A 
ATOM     88  C   UNL A   1      36.049  34.965  32.686  1.00  0.00     0.010 A 
ATOM     89  C   UNL A   1      33.539  33.870  33.269  1.00  0.00     0.020 A 
ATOM     90  C   UNL A   1      34.889  35.684  32.380  1.00  0.00     0.020 A 
ATOM     91  C   UNL A   1      33.641  35.126  32.664  1.00  0.00     0.054 A 
BRANCH  91  92
ATOM     92  S   UNL A   1      32.121  36.047  32.297  1.00  0.00     0.124 S 
ATOM     93  O   UNL A   1      32.334  36.441  30.908  1.00  0.00    -0.237 OA
ATOM     94  O   UNL A   1      31.082  35.045  32.520  1.00  0.00    -0.237 OA
ATOM     95  O   UNL A   1      32.142  37.138  33.269  1.00  0.00    -0.744 OA
ENDBRANCH  91  92
ENDBRANCH  63  86
BRANCH  75  96
ATOM     96  C   UNL A   1      40.495  34.086  38.590  1.00  0.00    -0.014 A 
ATOM     97  C   UNL A   1      39.886  33.747  39.811  1.00  0.00     0.010 A 
ATOM     98  C   UNL A   1      41.248  35.271  38.505  1.00  0.00     0.010 A 
ATOM     99  C   UNL A   1      40.006  34.592  40.917  1.00  0.00     0.020 A 
ATOM    100  C   UNL A   1      41.393  36.104  39.616  1.00  0.00     0.020 A 
ATOM    101  C   UNL A   1      40.758  35.766  40.813  1.00  0.00     0.054 A 
BRANCH 101 102
ATOM    102  S   UNL A   1      40.937  36.824  42.276  1.00  0.00     0.124 S 
ATOM    103  O   UNL A   1      39.551  36.971  42.715  1.00  0.00    -0.237 OA
ATOM    104  O   UNL A   1      41.791  36.023  43.149  1.00  0.00    -0.237 OA
ATOM    105  O   UNL A   1      41.557  38.038  41.751  1.00  0.00    -0.744 OA
ENDBRANCH 101 102
ENDBRANCH  75  96
ENDBRANCH  49  50
ENDBRANCH  41  44
ENDBRANCH  39  40
ENDBRANCH  38  39
ENDBRANCH  37  38
ENDBRANCH   1  37
TORSDOF 21
ENDMDL
MODEL 3
REMARK VINA RESULT:      -7.8      5.533     10.949
REMARK SMILES O=C(NCCCCCCNC(=O)c1ccc(-c2c3nc(c(-c4ccc(S(=O)(=O)[O-])cc4)c4ccc([nH]4)c(-c4ccc(S(=O)(=O)[O-])cc4)c4nc(c(-c5ccc(S(=O)(=O)[O-])cc5)c5ccc2[nH]5)C=C4)C=C3)cc1)c1ccc(/[NH+]=C2\S[C@@H](Cc3ccc(F)cc3)C(=O)N2Cc2ccccc2)cc1
REMARK SMILES IDX 6 1 5 2 4 3 3 4 1 5 2 6 73 8 74 9 100 10 75 11 99 12 76 13
REMARK SMILES IDX 77 14 78 15 79 17 91 18 80 19 89 20 90 21 92 22 93 23 94 24
REMARK SMILES IDX 98 25 95 26 97 27 96 28 81 29 82 30 83 31 88 32 84 33 87 34
REMARK SMILES IDX 85 35 86 36 7 37 8 38 9 39 10 40 11 41 12 43 13 44 14 45
REMARK SMILES IDX 72 46 15 47 71 48 16 49 17 50 18 51 65 52 19 53 70 54 64 55
REMARK SMILES IDX 66 56 20 57 69 58 63 59 62 60 21 62 51 63 32 64 50 65 33 66
REMARK SMILES IDX 36 67 49 68 67 69 34 70 35 71 48 73 68 74 37 75 22 76 23 77
REMARK SMILES IDX 31 78 24 79 30 80 25 81 26 82 27 83 28 84 29 85 52 86 53 87
REMARK SMILES IDX 61 88 54 89 60 90 55 91 56 92 57 93 58 94 59 95 38 96 39 97
REMARK SMILES IDX 47 98 40 99 46 100 41 101 42 102 43 103 44 104 45 105
REMARK H PARENT 3 7 77 16 10 42 66 61 36 72
REMARK Flexibility Score: inf
ROOT
ATOM      1  C   UNL A   1      41.448  24.794  26.740  1.00  0.00     0.002 C 
ENDROOT
BRANCH   1   2
ATOM      2  C   UNL A   1      39.954  24.553  26.963  1.00  0.00     0.021 C 
BRANCH   2   3
ATOM      3  C   UNL A   1      39.345  25.300  28.146  1.00  0.00     0.116 C 
BRANCH   3   4
ATOM      4  N   UNL A   1      40.357  25.888  29.011  1.00  0.00    -0.352 N 
ATOM      5  O   UNL A   1      41.531  27.546  30.001  1.00  0.00    -0.269 OA
ATOM      6  C   UNL A   1      40.518  27.194  29.402  1.00  0.00     0.251 C 
ATOM      7  H   UNL A   1      41.025  25.257  29.367  1.00  0.00     0.163 HD
BRANCH   6   8
ATOM      8  C   UNL A   1      39.471  28.188  29.087  1.00  0.00     0.040 A 
ATOM      9  C   UNL A   1      39.463  28.834  27.851  1.00  0.00     0.018 A 
ATOM     10  C   UNL A   1      38.476  28.461  30.031  1.00  0.00     0.018 A 
ATOM     11  C   UNL A   1      38.532  29.840  27.613  1.00  0.00     0.052 A 
ATOM     12  C   UNL A   1      37.518  29.446  29.766  1.00  0.00     0.052 A 
ATOM     13  C   UNL A   1      37.571  30.173  28.575  1.00  0.00     0.125 A 
BRANCH  13  14
ATOM     14  N   UNL A   1      36.658  31.175  28.243  1.00  0.00    -0.235 N 
ATOM     15  C   UNL A   1      35.439  30.917  27.907  1.00  0.00     0.320 C 
ATOM     16  H   UNL A   1      36.955  32.113  28.266  1.00  0.00     0.313 HD
ATOM     17  S   UNL A   1      34.731  29.363  27.566  1.00  0.00    -0.022 SA
ATOM     18  N   UNL A   1      34.501  31.909  27.801  1.00  0.00    -0.186 N 
ATOM     19  C   UNL A   1      33.236  30.111  26.840  1.00  0.00     0.178 C 
ATOM     20  C   UNL A   1      33.252  31.549  27.338  1.00  0.00     0.324 C 
ATOM     21  O   UNL A   1      32.300  32.316  27.251  1.00  0.00    -0.245 OA
BRANCH  18  22
ATOM     22  C   UNL A   1      34.777  33.280  28.218  1.00  0.00     0.283 C 
BRANCH  22  23
ATOM     23  C   UNL A   1      34.611  33.491  29.710  1.00  0.00    -0.006 A 
ATOM     24  C   UNL A   1      34.253  34.741  30.231  1.00  0.00     0.008 A 
ATOM     25  C   UNL A   1      34.800  32.424  30.604  1.00  0.00     0.008 A 
ATOM     26  C   UNL A   1      34.084  34.913  31.609  1.00  0.00     0.000 A 
ATOM     27  C   UNL A   1      34.601  32.588  31.975  1.00  0.00     0.000 A 
ATOM     28  C   UNL A   1      34.246  33.834  32.479  1.00  0.00     0.000 A 
ENDBRANCH  22  23
ENDBRANCH  18  22
BRANCH  19  29
ATOM     29  C   UNL A   1      31.989  29.313  27.224  1.00  0.00     0.063 C 
BRANCH  29  30
ATOM     30  C   UNL A   1      31.547  28.304  26.183  1.00  0.00    -0.046 A 
ATOM     31  C   UNL A   1      31.432  28.697  24.840  1.00  0.00     0.007 A 
ATOM     32  C   UNL A   1      31.235  26.981  26.534  1.00  0.00     0.007 A 
ATOM     33  C   UNL A   1      31.040  27.780  23.863  1.00  0.00     0.039 A 
ATOM     34  C   UNL A   1      30.848  26.064  25.554  1.00  0.00     0.039 A 
ATOM     35  C   UNL A   1      30.759  26.471  24.228  1.00  0.00     0.123 A 
ATOM     36  F   UNL A   1      30.392  25.586  23.291  1.00  0.00    -0.207 F 
ENDBRANCH  29  30
ENDBRANCH  19  29
ENDBRANCH  13  14
ENDBRANCH   6   8
ENDBRANCH   3   4
ENDBRANCH   2   3
ENDBRANCH   1   2
BRANCH   1  37
ATOM     37  C   UNL A   1      42.390  23.816  27.448  1.00  0.00     0.002 C 
BRANCH  37  38
ATOM     38  C   UNL A   1      42.141  22.332  27.168  1.00  0.00     0.021 C 
BRANCH  38  39
ATOM     39  C   UNL A   1      42.103  21.942  25.694  1.00  0.00     0.116 C 
BRANCH  39  40
ATOM     40  N   UNL A   1      43.193  21.056  25.322  1.00  0.00    -0.352 N 
ATOM     41  C   UNL A   1      44.529  21.333  25.163  1.00  0.00     0.251 C 
ATOM     42  H   UNL A   1      42.935  20.120  25.160  1.00  0.00     0.163 HD
ATOM     43  O   UNL A   1      45.276  20.481  24.692  1.00  0.00    -0.269 OA
BRANCH  41  44
ATOM     44  C   UNL A   1      45.062  22.663  25.535  1.00  0.00     0.039 A 
ATOM     45  C   UNL A   1      45.777  22.791  26.729  1.00  0.00     0.014 A 
ATOM     46  C   UNL A   1      44.852  23.781  24.723  1.00  0.00     0.014 A 
ATOM     47  C   UNL A   1      46.334  24.025  27.076  1.00  0.00     0.010 A 
ATOM     48  C   UNL A   1      45.463  24.993  25.037  1.00  0.00     0.010 A 
ATOM     49  C   UNL A   1      46.209  25.128  26.217  1.00  0.00    -0.014 A 
BRANCH  49  50
ATOM     50  C   UNL A   1      46.857  26.428  26.532  1.00  0.00     0.031 A 
ATOM     51  C   UNL A   1      46.152  27.439  27.396  1.00  0.00     0.074 A 
ATOM     52  C   UNL A   1      48.056  26.725  25.991  1.00  0.00     0.049 A 
ATOM     53  N   UNL A   1      46.533  28.644  27.733  1.00  0.00    -0.248 NA
ATOM     54  C   UNL A   1      44.836  27.054  27.931  1.00  0.00     0.031 C 
ATOM     55  C   UNL A   1      48.828  25.846  25.109  1.00  0.00     0.029 A 
ATOM     56  N   UNL A   1      48.832  27.852  26.098  1.00  0.00    -0.354 N 
ATOM     57  C   UNL A   1      45.499  29.169  28.500  1.00  0.00     0.074 A 
ATOM     58  C   UNL A   1      44.455  28.168  28.542  1.00  0.00     0.031 C 
ATOM     59  C   UNL A   1      49.979  26.456  24.779  1.00  0.00     0.029 A 
ATOM     60  C   UNL A   1      50.009  27.781  25.390  1.00  0.00     0.049 A 
ATOM     61  H   UNL A   1      48.572  28.637  26.632  1.00  0.00     0.167 HD
ATOM     62  C   UNL A   1      45.428  30.369  29.125  1.00  0.00     0.031 A 
ATOM     63  C   UNL A   1      51.000  28.682  25.242  1.00  0.00     0.031 A 
ATOM     64  C   UNL A   1      46.473  31.358  29.095  1.00  0.00     0.049 A 
ATOM     65  C   UNL A   1      50.895  30.010  25.940  1.00  0.00     0.074 A 
ATOM     66  C   UNL A   1      46.522  32.578  29.748  1.00  0.00     0.029 A 
ATOM     67  N   UNL A   1      47.650  31.245  28.370  1.00  0.00    -0.354 N 
ATOM     68  N   UNL A   1      49.937  30.462  26.714  1.00  0.00    -0.248 NA
ATOM     69  C   UNL A   1      52.012  30.948  25.752  1.00  0.00     0.031 C 
ATOM     70  C   UNL A   1      47.707  33.224  29.378  1.00  0.00     0.029 A 
ATOM     71  C   UNL A   1      48.422  32.383  28.540  1.00  0.00     0.049 A 
ATOM     72  H   UNL A   1      47.901  30.470  27.817  1.00  0.00     0.167 HD
ATOM     73  C   UNL A   1      50.349  31.724  27.129  1.00  0.00     0.074 A 
ATOM     74  C   UNL A   1      51.646  31.959  26.529  1.00  0.00     0.031 C 
ATOM     75  C   UNL A   1      49.711  32.606  27.936  1.00  0.00     0.031 A 
BRANCH  62  76
ATOM     76  C   UNL A   1      44.169  30.682  29.890  1.00  0.00    -0.014 A 
ATOM     77  C   UNL A   1      44.013  30.285  31.230  1.00  0.00     0.010 A 
ATOM     78  C   UNL A   1      43.139  31.413  29.270  1.00  0.00     0.010 A 
ATOM     79  C   UNL A   1      42.832  30.572  31.920  1.00  0.00     0.020 A 
ATOM     80  C   UNL A   1      41.968  31.727  29.965  1.00  0.00     0.020 A 
ATOM     81  C   UNL A   1      41.815  31.286  31.282  1.00  0.00     0.054 A 
BRANCH  81  82
ATOM     82  S   UNL A   1      40.297  31.654  32.204  1.00  0.00     0.124 S 
ATOM     83  O   UNL A   1      40.731  32.745  33.074  1.00  0.00    -0.237 OA
ATOM     84  O   UNL A   1      39.361  32.028  31.148  1.00  0.00    -0.237 OA
ATOM     85  O   UNL A   1      39.993  30.398  32.887  1.00  0.00    -0.744 OA
ENDBRANCH  81  82
ENDBRANCH  62  76
BRANCH  63  86
ATOM     86  C   UNL A   1      52.190  28.349  24.412  1.00  0.00    -0.014 A 
ATOM     87  C   UNL A   1      52.221  28.689  23.048  1.00  0.00     0.010 A 
ATOM     88  C   UNL A   1      53.301  27.704  24.983  1.00  0.00     0.010 A 
ATOM     89  C   UNL A   1      53.336  28.374  22.266  1.00  0.00     0.020 A 
ATOM     90  C   UNL A   1      54.428  27.411  24.210  1.00  0.00     0.020 A 
ATOM     91  C   UNL A   1      54.433  27.738  22.853  1.00  0.00     0.054 A 
BRANCH  91  92
ATOM     92  S   UNL A   1      55.892  27.388  21.832  1.00  0.00     0.124 S 
ATOM     93  O   UNL A   1      55.330  26.545  20.780  1.00  0.00    -0.237 OA
ATOM     94  O   UNL A   1      56.316  28.722  21.416  1.00  0.00    -0.237 OA
ATOM     95  O   UNL A   1      56.801  26.714  22.756  1.00  0.00    -0.744 OA
ENDBRANCH  91  92
ENDBRANCH  63  86
BRANCH  75  96
ATOM     96  C   UNL A   1      50.418  33.897  28.249  1.00  0.00    -0.014 A 
ATOM     97  C   UNL A   1      50.296  35.018  27.409  1.00  0.00     0.010 A 
ATOM     98  C   UNL A   1      51.176  34.004  29.429  1.00  0.00     0.010 A 
ATOM     99  C   UNL A   1      50.942  36.214  27.731  1.00  0.00     0.020 A 
ATOM    100  C   UNL A   1      51.801  35.206  29.768  1.00  0.00     0.020 A 
ATOM    101  C   UNL A   1      51.692  36.300  28.908  1.00  0.00     0.054 A 
BRANCH 101 102
ATOM    102  S   UNL A   1      52.484  37.878  29.328  1.00  0.00     0.124 S 
ATOM    103  O   UNL A   1      53.164  37.553  30.579  1.00  0.00    -0.237 OA
ATOM    104  O   UNL A   1      53.357  38.114  28.181  1.00  0.00    -0.237 OA
ATOM    105  O   UNL A   1      51.361  38.806  29.451  1.00  0.00    -0.744 OA
ENDBRANCH 101 102
ENDBRANCH  75  96
ENDBRANCH  49  50
ENDBRANCH  41  44
ENDBRANCH  39  40
ENDBRANCH  38  39
ENDBRANCH  37  38
ENDBRANCH   1  37
TORSDOF 21
ENDMDL
