MODEL 1
REMARK VINA RESULT:     -11.1      0.000      0.000
REMARK SMILES COC(=O)c1ccc(Cl)c(-c2ccc(F)cc2C(=O)NCCCCCCNC(=O)c2ccc(-c3c4nc(c(-c5ccc(S(=O)(=O)[O-])cc5)c5ccc([nH]5)c(-c5ccc(S(=O)(=O)[O-])cc5)c5nc(c(-c6ccc(S(=O)(=O)[O-])cc6)c6ccc3[nH]6)C=C5)C=C4)cc2)c1
REMARK SMILES IDX 23 1 22 2 21 3 20 4 18 5 19 6 17 8 11 9 12 10 13 11 16 12
REMARK SMILES IDX 14 13 15 14 10 15 5 16 6 17 90 18 7 19 8 20 9 21 3 22 4 23
REMARK SMILES IDX 2 24 1 25 24 26 25 27 26 28 27 29 28 30 29 32 30 33 31 34
REMARK SMILES IDX 89 35 32 36 88 37 33 38 34 39 35 40 82 41 36 42 87 43 81 44
REMARK SMILES IDX 83 45 37 46 86 47 80 48 79 49 38 51 68 52 49 53 67 54 50 55
REMARK SMILES IDX 53 56 66 57 84 58 51 59 52 60 65 62 85 63 54 64 39 65 40 66
REMARK SMILES IDX 48 67 41 68 47 69 42 70 43 71 44 72 45 73 46 74 69 75 70 76
REMARK SMILES IDX 78 77 71 78 77 79 72 80 73 81 74 82 75 83 76 84 55 85 56 86
REMARK SMILES IDX 64 87 57 88 63 89 58 90 59 91 60 92 61 93 62 94
REMARK H PARENT 20 7 27 31 83 50 53 61
REMARK Flexibility Score: inf
ROOT
ATOM      1  C   UNL A   1      33.485  26.508  23.809  1.00  0.00     0.002 C 
ENDROOT
BRANCH   1   2
ATOM      2  C   UNL A   1      33.131  25.549  22.663  1.00  0.00     0.021 C 
BRANCH   2   3
ATOM      3  C   UNL A   1      33.946  24.265  22.540  1.00  0.00     0.116 C 
BRANCH   3   4
ATOM      4  N   UNL A   1      33.202  23.094  22.147  1.00  0.00    -0.352 N 
ATOM      5  C   UNL A   1      32.398  22.262  22.886  1.00  0.00     0.252 C 
ATOM      6  O   UNL A   1      31.810  21.358  22.287  1.00  0.00    -0.269 OA
ATOM      7  H   UNL A   1      33.285  22.852  21.197  1.00  0.00     0.163 HD
BRANCH   5   8
ATOM      8  C   UNL A   1      32.249  22.321  24.372  1.00  0.00     0.050 A 
ATOM      9  C   UNL A   1      32.996  21.604  25.341  1.00  0.00    -0.004 A 
ATOM     10  C   UNL A   1      32.788  21.926  26.707  1.00  0.00     0.012 A 
ATOM     11  C   UNL A   1      31.872  22.896  27.109  1.00  0.00     0.040 A 
ATOM     12  C   UNL A   1      31.340  23.313  24.799  1.00  0.00     0.053 A 
ATOM     13  C   UNL A   1      31.156  23.583  26.148  1.00  0.00     0.124 A 
ATOM     14  F   UNL A   1      30.290  24.534  26.523  1.00  0.00    -0.207 F 
BRANCH   9  15
ATOM     15  C   UNL A   1      34.013  20.574  25.045  1.00  0.00     0.002 A 
ATOM     16  C   UNL A   1      34.553  18.249  24.520  1.00  0.00     0.060 A 
ATOM     17  C   UNL A   1      35.922  18.535  24.573  1.00  0.00     0.017 A 
ATOM     18  C   UNL A   1      33.609  19.270  24.707  1.00  0.00     0.026 A 
ATOM     19  C   UNL A   1      36.347  19.829  24.866  1.00  0.00     0.022 A 
ATOM     20  C   UNL A   1      35.406  20.834  25.118  1.00  0.00     0.048 A 
ATOM     21  Cl  UNL A   1      36.036  22.366  25.634  1.00  0.00    -0.084 Cl
BRANCH  16  22
ATOM     22  C   UNL A   1      34.057  16.860  24.387  1.00  0.00     0.337 C 
ATOM     23  O   UNL A   1      33.996  16.255  23.330  1.00  0.00    -0.246 OA
BRANCH  22  24
ATOM     24  O   UNL A   1      33.549  16.471  25.581  1.00  0.00    -0.465 OA
ATOM     25  C   UNL A   1      32.527  15.474  25.508  1.00  0.00     0.282 C 
ENDBRANCH  22  24
ENDBRANCH  16  22
ENDBRANCH   9  15
ENDBRANCH   5   8
ENDBRANCH   3   4
ENDBRANCH   2   3
ENDBRANCH   1   2
BRANCH   1  26
ATOM     26  C   UNL A   1      32.351  27.259  24.515  1.00  0.00     0.002 C 
BRANCH  26  27
ATOM     27  C   UNL A   1      32.582  27.707  25.959  1.00  0.00     0.021 C 
BRANCH  27  28
ATOM     28  C   UNL A   1      33.916  28.366  26.281  1.00  0.00     0.116 C 
BRANCH  28  29
ATOM     29  N   UNL A   1      33.774  29.731  26.751  1.00  0.00    -0.352 N 
ATOM     30  C   UNL A   1      34.562  30.494  27.579  1.00  0.00     0.251 C 
ATOM     31  H   UNL A   1      32.970  30.192  26.418  1.00  0.00     0.163 HD
ATOM     32  O   UNL A   1      34.133  31.587  27.946  1.00  0.00    -0.269 OA
BRANCH  30  33
ATOM     33  C   UNL A   1      35.895  30.039  28.061  1.00  0.00     0.039 A 
ATOM     34  C   UNL A   1      36.979  30.120  27.178  1.00  0.00     0.014 A 
ATOM     35  C   UNL A   1      36.092  29.465  29.320  1.00  0.00     0.014 A 
ATOM     36  C   UNL A   1      38.251  29.679  27.568  1.00  0.00     0.010 A 
ATOM     37  C   UNL A   1      37.376  29.097  29.738  1.00  0.00     0.010 A 
ATOM     38  C   UNL A   1      38.469  29.187  28.863  1.00  0.00    -0.014 A 
BRANCH  38  39
ATOM     39  C   UNL A   1      39.819  28.734  29.303  1.00  0.00     0.031 A 
ATOM     40  C   UNL A   1      40.694  29.642  30.133  1.00  0.00     0.074 A 
ATOM     41  C   UNL A   1      40.283  27.522  28.933  1.00  0.00     0.049 A 
ATOM     42  N   UNL A   1      41.922  29.455  30.546  1.00  0.00    -0.248 NA
ATOM     43  C   UNL A   1      40.118  30.935  30.537  1.00  0.00     0.031 C 
ATOM     44  C   UNL A   1      39.554  26.545  28.120  1.00  0.00     0.029 A 
ATOM     45  N   UNL A   1      41.482  26.904  29.193  1.00  0.00    -0.354 N 
ATOM     46  C   UNL A   1      42.270  30.607  31.243  1.00  0.00     0.074 A 
ATOM     47  C   UNL A   1      41.140  31.507  31.157  1.00  0.00     0.031 C 
ATOM     48  C   UNL A   1      40.309  25.444  27.971  1.00  0.00     0.029 A 
ATOM     49  C   UNL A   1      41.589  25.648  28.641  1.00  0.00     0.049 A 
ATOM     50  H   UNL A   1      42.198  27.321  29.725  1.00  0.00     0.167 HD
ATOM     51  C   UNL A   1      43.415  30.888  31.913  1.00  0.00     0.031 A 
ATOM     52  C   UNL A   1      42.604  24.762  28.665  1.00  0.00     0.031 A 
ATOM     53  C   UNL A   1      44.535  29.991  32.022  1.00  0.00     0.049 A 
ATOM     54  C   UNL A   1      43.873  25.105  29.399  1.00  0.00     0.074 A 
ATOM     55  C   UNL A   1      45.727  30.180  32.699  1.00  0.00     0.029 A 
ATOM     56  N   UNL A   1      44.598  28.730  31.450  1.00  0.00    -0.354 N 
ATOM     57  N   UNL A   1      44.169  26.194  30.066  1.00  0.00    -0.248 NA
ATOM     58  C   UNL A   1      44.940  24.094  29.389  1.00  0.00     0.031 C 
ATOM     59  C   UNL A   1      46.525  29.047  32.511  1.00  0.00     0.029 A 
ATOM     60  C   UNL A   1      45.810  28.135  31.754  1.00  0.00     0.049 A 
ATOM     61  H   UNL A   1      43.886  28.320  30.908  1.00  0.00     0.167 HD
ATOM     62  C   UNL A   1      45.445  25.985  30.581  1.00  0.00     0.074 A 
ATOM     63  C   UNL A   1      45.858  24.663  30.158  1.00  0.00     0.031 C 
ATOM     64  C   UNL A   1      46.205  26.813  31.337  1.00  0.00     0.031 A 
BRANCH  51  65
ATOM     65  C   UNL A   1      43.511  32.226  32.596  1.00  0.00    -0.014 A 
ATOM     66  C   UNL A   1      43.969  33.359  31.901  1.00  0.00     0.010 A 
ATOM     67  C   UNL A   1      43.088  32.366  33.931  1.00  0.00     0.010 A 
ATOM     68  C   UNL A   1      44.038  34.601  32.538  1.00  0.00     0.020 A 
ATOM     69  C   UNL A   1      43.131  33.613  34.564  1.00  0.00     0.020 A 
ATOM     70  C   UNL A   1      43.621  34.719  33.867  1.00  0.00     0.054 A 
BRANCH  70  71
ATOM     71  S   UNL A   1      43.694  36.349  34.659  1.00  0.00     0.124 S 
ATOM     72  O   UNL A   1      42.512  37.005  34.107  1.00  0.00    -0.237 OA
ATOM     73  O   UNL A   1      43.624  36.020  36.080  1.00  0.00    -0.237 OA
ATOM     74  O   UNL A   1      44.974  36.895  34.212  1.00  0.00    -0.744 OA
ENDBRANCH  70  71
ENDBRANCH  51  65
BRANCH  52  75
ATOM     75  C   UNL A   1      42.470  23.448  27.976  1.00  0.00    -0.014 A 
ATOM     76  C   UNL A   1      41.583  22.474  28.468  1.00  0.00     0.010 A 
ATOM     77  C   UNL A   1      43.247  23.156  26.842  1.00  0.00     0.010 A 
ATOM     78  C   UNL A   1      41.499  21.219  27.859  1.00  0.00     0.020 A 
ATOM     79  C   UNL A   1      43.147  21.911  26.212  1.00  0.00     0.020 A 
ATOM     80  C   UNL A   1      42.286  20.944  26.737  1.00  0.00     0.054 A 
BRANCH  80  81
ATOM     81  S   UNL A   1      42.148  19.319  25.943  1.00  0.00     0.124 S 
ATOM     82  O   UNL A   1      42.695  18.436  26.968  1.00  0.00    -0.237 OA
ATOM     83  O   UNL A   1      40.712  19.200  25.705  1.00  0.00    -0.237 OA
ATOM     84  O   UNL A   1      42.962  19.462  24.737  1.00  0.00    -0.744 OA
ENDBRANCH  80  81
ENDBRANCH  52  75
BRANCH  64  85
ATOM     85  C   UNL A   1      47.543  26.301  31.796  1.00  0.00    -0.014 A 
ATOM     86  C   UNL A   1      47.693  25.673  33.045  1.00  0.00     0.010 A 
ATOM     87  C   UNL A   1      48.656  26.410  30.943  1.00  0.00     0.010 A 
ATOM     88  C   UNL A   1      48.941  25.190  33.445  1.00  0.00     0.020 A 
ATOM     89  C   UNL A   1      49.900  25.907  31.330  1.00  0.00     0.020 A 
ATOM     90  C   UNL A   1      50.038  25.312  32.585  1.00  0.00     0.054 A 
BRANCH  90  91
ATOM     91  S   UNL A   1      51.641  24.640  33.109  1.00  0.00     0.124 S 
ATOM     92  O   UNL A   1      51.443  24.469  34.545  1.00  0.00    -0.237 OA
ATOM     93  O   UNL A   1      51.740  23.404  32.336  1.00  0.00    -0.237 OA
ATOM     94  O   UNL A   1      52.592  25.681  32.730  1.00  0.00    -0.744 OA
ENDBRANCH  90  91
ENDBRANCH  64  85
ENDBRANCH  38  39
ENDBRANCH  30  33
ENDBRANCH  28  29
ENDBRANCH  27  28
ENDBRANCH  26  27
ENDBRANCH   1  26
TORSDOF 19
ENDMDL
MODEL 2
REMARK VINA RESULT:     -11.1      4.261     10.192
REMARK SMILES COC(=O)c1ccc(Cl)c(-c2ccc(F)cc2C(=O)NCCCCCCNC(=O)c2ccc(-c3c4nc(c(-c5ccc(S(=O)(=O)[O-])cc5)c5ccc([nH]5)c(-c5ccc(S(=O)(=O)[O-])cc5)c5nc(c(-c6ccc(S(=O)(=O)[O-])cc6)c6ccc3[nH]6)C=C5)C=C4)cc2)c1
REMARK SMILES IDX 23 1 22 2 21 3 20 4 18 5 19 6 17 8 11 9 12 10 13 11 16 12
REMARK SMILES IDX 14 13 15 14 10 15 5 16 6 17 90 18 7 19 8 20 9 21 3 22 4 23
REMARK SMILES IDX 2 24 1 25 24 26 25 27 26 28 27 29 28 30 29 32 30 33 31 34
REMARK SMILES IDX 89 35 32 36 88 37 33 38 34 39 35 40 82 41 36 42 87 43 81 44
REMARK SMILES IDX 83 45 37 46 86 47 80 48 79 49 38 51 68 52 49 53 67 54 50 55
REMARK SMILES IDX 53 56 66 57 84 58 51 59 52 60 65 62 85 63 54 64 39 65 40 66
REMARK SMILES IDX 48 67 41 68 47 69 42 70 43 71 44 72 45 73 46 74 69 75 70 76
REMARK SMILES IDX 78 77 71 78 77 79 72 80 73 81 74 82 75 83 76 84 55 85 56 86
REMARK SMILES IDX 64 87 57 88 63 89 58 90 59 91 60 92 61 93 62 94
REMARK H PARENT 20 7 27 31 83 50 53 61
REMARK Flexibility Score: inf
ROOT
ATOM      1  C   UNL A   1      37.634  21.446  25.510  1.00  0.00     0.002 C 
ENDROOT
BRANCH   1   2
ATOM      2  C   UNL A   1      37.123  22.157  24.249  1.00  0.00     0.021 C 
BRANCH   2   3
ATOM      3  C   UNL A   1      36.031  23.208  24.425  1.00  0.00     0.116 C 
BRANCH   3   4
ATOM      4  N   UNL A   1      35.285  23.128  25.656  1.00  0.00    -0.352 N 
ATOM      5  C   UNL A   1      34.284  22.269  26.034  1.00  0.00     0.252 C 
ATOM      6  O   UNL A   1      33.854  22.367  27.187  1.00  0.00    -0.269 OA
ATOM      7  H   UNL A   1      35.533  23.798  26.334  1.00  0.00     0.163 HD
BRANCH   5   8
ATOM      8  C   UNL A   1      33.621  21.281  25.129  1.00  0.00     0.050 A 
ATOM      9  C   UNL A   1      32.712  21.555  24.076  1.00  0.00    -0.004 A 
ATOM     10  C   UNL A   1      32.320  20.475  23.244  1.00  0.00     0.012 A 
ATOM     11  C   UNL A   1      32.783  19.176  23.447  1.00  0.00     0.040 A 
ATOM     12  C   UNL A   1      34.094  19.963  25.306  1.00  0.00     0.053 A 
ATOM     13  C   UNL A   1      33.669  18.933  24.478  1.00  0.00     0.124 A 
ATOM     14  F   UNL A   1      34.139  17.693  24.667  1.00  0.00    -0.207 F 
BRANCH   9  15
ATOM     15  C   UNL A   1      32.169  22.888  23.740  1.00  0.00     0.002 A 
ATOM     16  C   UNL A   1      32.262  24.904  22.363  1.00  0.00     0.060 A 
ATOM     17  C   UNL A   1      31.238  25.490  23.118  1.00  0.00     0.017 A 
ATOM     18  C   UNL A   1      32.689  23.598  22.643  1.00  0.00     0.026 A 
ATOM     19  C   UNL A   1      30.680  24.789  24.185  1.00  0.00     0.022 A 
ATOM     20  C   UNL A   1      31.150  23.511  24.506  1.00  0.00     0.048 A 
ATOM     21  Cl  UNL A   1      30.506  22.794  25.948  1.00  0.00    -0.084 Cl
BRANCH  16  22
ATOM     22  C   UNL A   1      33.003  25.673  21.337  1.00  0.00     0.337 C 
ATOM     23  O   UNL A   1      32.841  25.540  20.135  1.00  0.00    -0.246 OA
BRANCH  22  24
ATOM     24  O   UNL A   1      33.970  26.392  21.956  1.00  0.00    -0.465 OA
ATOM     25  C   UNL A   1      33.723  27.796  22.036  1.00  0.00     0.282 C 
ENDBRANCH  22  24
ENDBRANCH  16  22
ENDBRANCH   9  15
ENDBRANCH   5   8
ENDBRANCH   3   4
ENDBRANCH   2   3
ENDBRANCH   1   2
BRANCH   1  26
ATOM     26  C   UNL A   1      39.146  21.288  25.703  1.00  0.00     0.002 C 
BRANCH  26  27
ATOM     27  C   UNL A   1      39.805  22.063  26.845  1.00  0.00     0.021 C 
BRANCH  27  28
ATOM     28  C   UNL A   1      39.621  23.574  26.861  1.00  0.00     0.116 C 
BRANCH  28  29
ATOM     29  N   UNL A   1      40.523  24.264  25.961  1.00  0.00    -0.352 N 
ATOM     30  C   UNL A   1      41.060  25.529  26.003  1.00  0.00     0.251 C 
ATOM     31  H   UNL A   1      40.801  23.733  25.179  1.00  0.00     0.163 HD
ATOM     32  O   UNL A   1      41.687  25.929  25.023  1.00  0.00    -0.269 OA
BRANCH  30  33
ATOM     33  C   UNL A   1      40.891  26.432  27.174  1.00  0.00     0.039 A 
ATOM     34  C   UNL A   1      41.679  27.589  27.235  1.00  0.00     0.014 A 
ATOM     35  C   UNL A   1      40.044  26.136  28.245  1.00  0.00     0.014 A 
ATOM     36  C   UNL A   1      41.583  28.460  28.328  1.00  0.00     0.010 A 
ATOM     37  C   UNL A   1      39.891  27.044  29.299  1.00  0.00     0.010 A 
ATOM     38  C   UNL A   1      40.667  28.211  29.361  1.00  0.00    -0.014 A 
BRANCH  38  39
ATOM     39  C   UNL A   1      40.535  29.138  30.520  1.00  0.00     0.031 A 
ATOM     40  C   UNL A   1      41.442  28.993  31.719  1.00  0.00     0.074 A 
ATOM     41  C   UNL A   1      39.582  30.093  30.522  1.00  0.00     0.049 A 
ATOM     42  N   UNL A   1      41.430  29.654  32.849  1.00  0.00    -0.248 NA
ATOM     43  C   UNL A   1      42.487  27.958  31.642  1.00  0.00     0.031 C 
ATOM     44  C   UNL A   1      38.626  30.340  29.439  1.00  0.00     0.029 A 
ATOM     45  N   UNL A   1      39.259  31.035  31.468  1.00  0.00    -0.354 N 
ATOM     46  C   UNL A   1      42.451  29.108  33.620  1.00  0.00     0.074 A 
ATOM     47  C   UNL A   1      43.031  28.031  32.848  1.00  0.00     0.031 C 
ATOM     48  C   UNL A   1      37.844  31.381  29.771  1.00  0.00     0.029 A 
ATOM     49  C   UNL A   1      38.212  31.850  31.104  1.00  0.00     0.049 A 
ATOM     50  H   UNL A   1      39.731  31.118  32.328  1.00  0.00     0.167 HD
ATOM     51  C   UNL A   1      42.884  29.479  34.850  1.00  0.00     0.031 A 
ATOM     52  C   UNL A   1      37.611  32.858  31.767  1.00  0.00     0.031 A 
ATOM     53  C   UNL A   1      42.328  30.562  35.616  1.00  0.00     0.049 A 
ATOM     54  C   UNL A   1      38.097  33.238  33.140  1.00  0.00     0.074 A 
ATOM     55  C   UNL A   1      42.717  31.025  36.862  1.00  0.00     0.029 A 
ATOM     56  N   UNL A   1      41.272  31.362  35.206  1.00  0.00    -0.354 N 
ATOM     57  N   UNL A   1      39.077  32.718  33.839  1.00  0.00    -0.248 NA
ATOM     58  C   UNL A   1      37.401  34.347  33.808  1.00  0.00     0.031 C 
ATOM     59  C   UNL A   1      41.877  32.084  37.220  1.00  0.00     0.029 A 
ATOM     60  C   UNL A   1      40.993  32.309  36.177  1.00  0.00     0.049 A 
ATOM     61  H   UNL A   1      40.793  31.268  34.352  1.00  0.00     0.167 HD
ATOM     62  C   UNL A   1      39.133  33.458  35.016  1.00  0.00     0.074 A 
ATOM     63  C   UNL A   1      38.098  34.467  34.929  1.00  0.00     0.031 C 
ATOM     64  C   UNL A   1      39.968  33.315  36.074  1.00  0.00     0.031 A 
BRANCH  51  65
ATOM     65  C   UNL A   1      44.033  28.708  35.445  1.00  0.00    -0.014 A 
ATOM     66  C   UNL A   1      43.801  27.612  36.295  1.00  0.00     0.010 A 
ATOM     67  C   UNL A   1      45.357  29.048  35.110  1.00  0.00     0.010 A 
ATOM     68  C   UNL A   1      44.874  26.891  36.828  1.00  0.00     0.020 A 
ATOM     69  C   UNL A   1      46.431  28.312  35.621  1.00  0.00     0.020 A 
ATOM     70  C   UNL A   1      46.182  27.248  36.490  1.00  0.00     0.054 A 
BRANCH  70  71
ATOM     71  S   UNL A   1      47.553  26.277  37.175  1.00  0.00     0.124 S 
ATOM     72  O   UNL A   1      47.553  25.104  36.304  1.00  0.00    -0.237 OA
ATOM     73  O   UNL A   1      48.693  27.175  37.018  1.00  0.00    -0.237 OA
ATOM     74  O   UNL A   1      47.144  26.027  38.555  1.00  0.00    -0.744 OA
ENDBRANCH  70  71
ENDBRANCH  51  65
BRANCH  52  75
ATOM     75  C   UNL A   1      36.477  33.596  31.143  1.00  0.00    -0.014 A 
ATOM     76  C   UNL A   1      35.375  33.995  31.921  1.00  0.00     0.010 A 
ATOM     77  C   UNL A   1      36.482  33.878  29.766  1.00  0.00     0.010 A 
ATOM     78  C   UNL A   1      34.284  34.635  31.327  1.00  0.00     0.020 A 
ATOM     79  C   UNL A   1      35.404  34.542  29.173  1.00  0.00     0.020 A 
ATOM     80  C   UNL A   1      34.303  34.900  29.955  1.00  0.00     0.054 A 
BRANCH  80  81
ATOM     81  S   UNL A   1      32.889  35.752  29.203  1.00  0.00     0.124 S 
ATOM     82  O   UNL A   1      32.470  34.797  28.182  1.00  0.00    -0.237 OA
ATOM     83  O   UNL A   1      31.977  35.912  30.333  1.00  0.00    -0.237 OA
ATOM     84  O   UNL A   1      33.471  36.994  28.701  1.00  0.00    -0.744 OA
ENDBRANCH  80  81
ENDBRANCH  52  75
BRANCH  64  85
ATOM     85  C   UNL A   1      39.831  34.299  37.204  1.00  0.00    -0.014 A 
ATOM     86  C   UNL A   1      40.504  35.533  37.181  1.00  0.00     0.010 A 
ATOM     87  C   UNL A   1      38.978  34.000  38.282  1.00  0.00     0.010 A 
ATOM     88  C   UNL A   1      40.349  36.439  38.233  1.00  0.00     0.020 A 
ATOM     89  C   UNL A   1      38.803  34.913  39.323  1.00  0.00     0.020 A 
ATOM     90  C   UNL A   1      39.501  36.122  39.300  1.00  0.00     0.054 A 
BRANCH  90  91
ATOM     91  S   UNL A   1      39.284  37.331  40.636  1.00  0.00     0.124 S 
ATOM     92  O   UNL A   1      38.790  36.495  41.725  1.00  0.00    -0.237 OA
ATOM     93  O   UNL A   1      40.633  37.862  40.813  1.00  0.00    -0.237 OA
ATOM     94  O   UNL A   1      38.316  38.279  40.088  1.00  0.00    -0.744 OA
ENDBRANCH  90  91
ENDBRANCH  64  85
ENDBRANCH  38  39
ENDBRANCH  30  33
ENDBRANCH  28  29
ENDBRANCH  27  28
ENDBRANCH  26  27
ENDBRANCH   1  26
TORSDOF 19
ENDMDL
MODEL 3
REMARK VINA RESULT:     -11.1      3.704      4.481
REMARK SMILES COC(=O)c1ccc(Cl)c(-c2ccc(F)cc2C(=O)NCCCCCCNC(=O)c2ccc(-c3c4nc(c(-c5ccc(S(=O)(=O)[O-])cc5)c5ccc([nH]5)c(-c5ccc(S(=O)(=O)[O-])cc5)c5nc(c(-c6ccc(S(=O)(=O)[O-])cc6)c6ccc3[nH]6)C=C5)C=C4)cc2)c1
REMARK SMILES IDX 23 1 22 2 21 3 20 4 18 5 19 6 17 8 11 9 12 10 13 11 16 12
REMARK SMILES IDX 14 13 15 14 10 15 5 16 6 17 90 18 7 19 8 20 9 21 3 22 4 23
REMARK SMILES IDX 2 24 1 25 24 26 25 27 26 28 27 29 28 30 29 32 30 33 31 34
REMARK SMILES IDX 89 35 32 36 88 37 33 38 34 39 35 40 82 41 36 42 87 43 81 44
REMARK SMILES IDX 83 45 37 46 86 47 80 48 79 49 38 51 68 52 49 53 67 54 50 55
REMARK SMILES IDX 53 56 66 57 84 58 51 59 52 60 65 62 85 63 54 64 39 65 40 66
REMARK SMILES IDX 48 67 41 68 47 69 42 70 43 71 44 72 45 73 46 74 69 75 70 76
REMARK SMILES IDX 78 77 71 78 77 79 72 80 73 81 74 82 75 83 76 84 55 85 56 86
REMARK SMILES IDX 64 87 57 88 63 89 58 90 59 91 60 92 61 93 62 94
REMARK H PARENT 20 7 27 31 83 50 53 61
REMARK Flexibility Score: inf
ROOT
ATOM      1  C   UNL A   1      33.362  27.730  26.881  1.00  0.00     0.002 C 
ENDROOT
BRANCH   1   2
ATOM      2  C   UNL A   1      32.569  26.677  26.094  1.00  0.00     0.021 C 
BRANCH   2   3
ATOM      3  C   UNL A   1      33.304  25.407  25.677  1.00  0.00     0.116 C 
BRANCH   3   4
ATOM      4  N   UNL A   1      33.012  24.234  26.464  1.00  0.00    -0.352 N 
ATOM      5  C   UNL A   1      33.768  23.114  26.701  1.00  0.00     0.252 C 
ATOM      6  O   UNL A   1      33.312  22.273  27.481  1.00  0.00    -0.269 OA
ATOM      7  H   UNL A   1      32.130  24.238  26.899  1.00  0.00     0.163 HD
BRANCH   5   8
ATOM      8  C   UNL A   1      35.063  22.799  26.022  1.00  0.00     0.050 A 
ATOM      9  C   UNL A   1      35.297  21.812  25.032  1.00  0.00    -0.004 A 
ATOM     10  C   UNL A   1      36.574  21.786  24.414  1.00  0.00     0.012 A 
ATOM     11  C   UNL A   1      37.587  22.677  24.765  1.00  0.00     0.040 A 
ATOM     12  C   UNL A   1      36.094  23.705  26.351  1.00  0.00     0.053 A 
ATOM     13  C   UNL A   1      37.335  23.631  25.732  1.00  0.00     0.124 A 
ATOM     14  F   UNL A   1      38.293  24.508  26.059  1.00  0.00    -0.207 F 
BRANCH   9  15
ATOM     15  C   UNL A   1      34.303  20.829  24.553  1.00  0.00     0.002 A 
ATOM     16  C   UNL A   1      33.595  18.500  24.330  1.00  0.00     0.060 A 
ATOM     17  C   UNL A   1      32.486  18.891  23.571  1.00  0.00     0.017 A 
ATOM     18  C   UNL A   1      34.468  19.465  24.856  1.00  0.00     0.026 A 
ATOM     19  C   UNL A   1      32.281  20.240  23.291  1.00  0.00     0.022 A 
ATOM     20  C   UNL A   1      33.187  21.198  23.760  1.00  0.00     0.048 A 
ATOM     21  Cl  UNL A   1      32.932  22.827  23.221  1.00  0.00    -0.084 Cl
BRANCH  16  22
ATOM     22  C   UNL A   1      33.951  17.073  24.504  1.00  0.00     0.337 C 
ATOM     23  O   UNL A   1      35.096  16.656  24.550  1.00  0.00    -0.246 OA
BRANCH  22  24
ATOM     24  O   UNL A   1      32.817  16.337  24.429  1.00  0.00    -0.465 OA
ATOM     25  C   UNL A   1      32.405  15.734  25.657  1.00  0.00     0.282 C 
ENDBRANCH  22  24
ENDBRANCH  16  22
ENDBRANCH   9  15
ENDBRANCH   5   8
ENDBRANCH   3   4
ENDBRANCH   2   3
ENDBRANCH   1   2
BRANCH   1  26
ATOM     26  C   UNL A   1      33.735  29.042  26.181  1.00  0.00     0.002 C 
BRANCH  26  27
ATOM     27  C   UNL A   1      33.971  30.275  27.056  1.00  0.00     0.021 C 
BRANCH  27  28
ATOM     28  C   UNL A   1      35.352  30.437  27.676  1.00  0.00     0.116 C 
BRANCH  28  29
ATOM     29  N   UNL A   1      35.318  30.498  29.124  1.00  0.00    -0.352 N 
ATOM     30  C   UNL A   1      36.256  30.159  30.071  1.00  0.00     0.251 C 
ATOM     31  H   UNL A   1      34.474  30.843  29.496  1.00  0.00     0.163 HD
ATOM     32  O   UNL A   1      35.917  30.165  31.254  1.00  0.00    -0.269 OA
BRANCH  30  33
ATOM     33  C   UNL A   1      37.647  29.767  29.717  1.00  0.00     0.039 A 
ATOM     34  C   UNL A   1      38.014  29.787  28.365  1.00  0.00     0.014 A 
ATOM     35  C   UNL A   1      38.571  29.310  30.659  1.00  0.00     0.014 A 
ATOM     36  C   UNL A   1      39.302  29.401  27.970  1.00  0.00     0.010 A 
ATOM     37  C   UNL A   1      39.880  28.998  30.276  1.00  0.00     0.010 A 
ATOM     38  C   UNL A   1      40.259  29.028  28.926  1.00  0.00    -0.014 A 
BRANCH  38  39
ATOM     39  C   UNL A   1      41.641  28.635  28.526  1.00  0.00     0.031 A 
ATOM     40  C   UNL A   1      42.746  29.663  28.497  1.00  0.00     0.074 A 
ATOM     41  C   UNL A   1      41.906  27.366  28.156  1.00  0.00     0.049 A 
ATOM     42  N   UNL A   1      43.989  29.529  28.107  1.00  0.00    -0.248 NA
ATOM     43  C   UNL A   1      42.404  31.022  28.948  1.00  0.00     0.031 C 
ATOM     44  C   UNL A   1      40.934  26.270  28.122  1.00  0.00     0.029 A 
ATOM     45  N   UNL A   1      43.075  26.780  27.735  1.00  0.00    -0.354 N 
ATOM     46  C   UNL A   1      44.571  30.784  28.252  1.00  0.00     0.074 A 
ATOM     47  C   UNL A   1      43.534  31.677  28.721  1.00  0.00     0.031 C 
ATOM     48  C   UNL A   1      41.552  25.143  27.730  1.00  0.00     0.029 A 
ATOM     49  C   UNL A   1      42.952  25.441  27.445  1.00  0.00     0.049 A 
ATOM     50  H   UNL A   1      43.923  27.274  27.648  1.00  0.00     0.167 HD
ATOM     51  C   UNL A   1      45.856  31.160  28.037  1.00  0.00     0.031 A 
ATOM     52  C   UNL A   1      43.860  24.552  26.995  1.00  0.00     0.031 A 
ATOM     53  C   UNL A   1      46.899  30.275  27.591  1.00  0.00     0.049 A 
ATOM     54  C   UNL A   1      45.275  24.999  26.744  1.00  0.00     0.074 A 
ATOM     55  C   UNL A   1      48.235  30.561  27.368  1.00  0.00     0.029 A 
ATOM     56  N   UNL A   1      46.729  28.928  27.314  1.00  0.00    -0.354 N 
ATOM     57  N   UNL A   1      45.805  26.187  26.907  1.00  0.00    -0.248 NA
ATOM     58  C   UNL A   1      46.217  23.980  26.256  1.00  0.00     0.031 C 
ATOM     59  C   UNL A   1      48.866  29.395  26.924  1.00  0.00     0.029 A 
ATOM     60  C   UNL A   1      47.933  28.373  26.915  1.00  0.00     0.049 A 
ATOM     61  H   UNL A   1      45.878  28.439  27.388  1.00  0.00     0.167 HD
ATOM     62  C   UNL A   1      47.148  26.050  26.572  1.00  0.00     0.074 A 
ATOM     63  C   UNL A   1      47.352  24.663  26.209  1.00  0.00     0.031 C 
ATOM     64  C   UNL A   1      48.126  26.988  26.567  1.00  0.00     0.031 A 
BRANCH  51  65
ATOM     65  C   UNL A   1      46.212  32.601  28.293  1.00  0.00    -0.014 A 
ATOM     66  C   UNL A   1      46.714  33.006  29.543  1.00  0.00     0.010 A 
ATOM     67  C   UNL A   1      46.094  33.549  27.260  1.00  0.00     0.010 A 
ATOM     68  C   UNL A   1      47.059  34.342  29.766  1.00  0.00     0.020 A 
ATOM     69  C   UNL A   1      46.463  34.881  27.474  1.00  0.00     0.020 A 
ATOM     70  C   UNL A   1      46.929  35.272  28.731  1.00  0.00     0.054 A 
BRANCH  70  71
ATOM     71  S   UNL A   1      47.411  36.993  29.042  1.00  0.00     0.124 S 
ATOM     72  O   UNL A   1      46.595  37.714  28.068  1.00  0.00    -0.237 OA
ATOM     73  O   UNL A   1      47.036  37.185  30.440  1.00  0.00    -0.237 OA
ATOM     74  O   UNL A   1      48.848  37.003  28.777  1.00  0.00    -0.744 OA
ENDBRANCH  70  71
ENDBRANCH  51  65
BRANCH  52  75
ATOM     75  C   UNL A   1      43.468  23.136  26.753  1.00  0.00    -0.014 A 
ATOM     76  C   UNL A   1      42.981  22.343  27.808  1.00  0.00     0.010 A 
ATOM     77  C   UNL A   1      43.604  22.567  25.475  1.00  0.00     0.010 A 
ATOM     78  C   UNL A   1      42.669  20.997  27.596  1.00  0.00     0.020 A 
ATOM     79  C   UNL A   1      43.268  21.228  25.253  1.00  0.00     0.020 A 
ATOM     80  C   UNL A   1      42.819  20.447  26.320  1.00  0.00     0.054 A 
BRANCH  80  81
ATOM     81  S   UNL A   1      42.388  18.704  26.058  1.00  0.00     0.124 S 
ATOM     82  O   UNL A   1      40.980  18.795  25.683  1.00  0.00    -0.237 OA
ATOM     83  O   UNL A   1      43.304  18.306  24.992  1.00  0.00    -0.237 OA
ATOM     84  O   UNL A   1      42.653  18.091  27.358  1.00  0.00    -0.744 OA
ENDBRANCH  80  81
ENDBRANCH  52  75
BRANCH  64  85
ATOM     85  C   UNL A   1      49.515  26.541  26.200  1.00  0.00    -0.014 A 
ATOM     86  C   UNL A   1      50.013  26.709  24.897  1.00  0.00     0.010 A 
ATOM     87  C   UNL A   1      50.347  25.988  27.189  1.00  0.00     0.010 A 
ATOM     88  C   UNL A   1      51.312  26.301  24.581  1.00  0.00     0.020 A 
ATOM     89  C   UNL A   1      51.654  25.602  26.884  1.00  0.00     0.020 A 
ATOM     90  C   UNL A   1      52.124  25.747  25.577  1.00  0.00     0.054 A 
BRANCH  90  91
ATOM     91  S   UNL A   1      53.821  25.264  25.155  1.00  0.00     0.124 S 
ATOM     92  O   UNL A   1      53.670  23.839  24.874  1.00  0.00    -0.237 OA
ATOM     93  O   UNL A   1      54.117  26.104  23.997  1.00  0.00    -0.237 OA
ATOM     94  O   UNL A   1      54.582  25.585  26.360  1.00  0.00    -0.744 OA
ENDBRANCH  90  91
ENDBRANCH  64  85
ENDBRANCH  38  39
ENDBRANCH  30  33
ENDBRANCH  28  29
ENDBRANCH  27  28
ENDBRANCH  26  27
ENDBRANCH   1  26
TORSDOF 19
ENDMDL
