MODEL 1
REMARK VINA RESULT:     -10.7      0.000      0.000
REMARK SMILES O=C(NCCCCCCNC(=O)[C@H]1CC[C@@H]2CCCC[C@@H]2N1C(=O)NC1CC1)c1ccc(-c2c3nc(c(-c4ccc(S(=O)(=O)[O-])cc4)c4ccc([nH]4)c(-c4ccc(S(=O)(=O)[O-])cc4)c4nc(c(-c5ccc(S(=O)(=O)[O-])cc5)c5ccc2[nH]5)C=C4)C=C3)cc1
REMARK SMILES IDX 6 1 5 2 4 3 3 4 1 5 2 6 29 8 30 9 88 10 31 11 87 12 32 13
REMARK SMILES IDX 33 14 34 15 81 16 35 17 86 18 80 19 82 20 36 21 85 22 79 23
REMARK SMILES IDX 78 24 37 26 67 27 48 28 66 29 49 30 52 31 65 32 83 33 50 34
REMARK SMILES IDX 51 35 64 37 84 38 53 39 38 40 39 41 47 42 40 43 46 44 41 45
REMARK SMILES IDX 42 46 43 47 44 48 45 49 68 50 69 51 77 52 70 53 76 54 71 55
REMARK SMILES IDX 72 56 73 57 74 58 75 59 54 60 55 61 63 62 56 63 62 64 57 65
REMARK SMILES IDX 58 66 59 67 60 68 61 69 7 70 8 71 9 72 10 73 11 74 12 76
REMARK SMILES IDX 13 77 14 78 22 79 15 80 21 81 16 82 20 83 17 84 19 85 18 86
REMARK SMILES IDX 23 87 24 88 25 89 26 91 27 92 28 93
REMARK H PARENT 3 7 82 25 52 36 10 75 25 90
REMARK Flexibility Score: inf
ROOT
ATOM      1  C   UNL A   1      36.125  23.267  23.784  1.00  0.00     0.002 C 
ENDROOT
BRANCH   1   2
ATOM      2  C   UNL A   1      35.990  24.180  24.999  1.00  0.00     0.021 C 
BRANCH   2   3
ATOM      3  C   UNL A   1      36.378  23.549  26.327  1.00  0.00     0.116 C 
BRANCH   3   4
ATOM      4  N   UNL A   1      37.454  22.584  26.189  1.00  0.00    -0.352 N 
ATOM      5  O   UNL A   1      39.589  21.877  26.056  1.00  0.00    -0.269 OA
ATOM      6  C   UNL A   1      38.804  22.757  26.386  1.00  0.00     0.251 C 
ATOM      7  H   UNL A   1      37.178  21.678  25.917  1.00  0.00     0.163 HD
BRANCH   6   8
ATOM      8  C   UNL A   1      39.306  24.022  26.974  1.00  0.00     0.039 A 
ATOM      9  C   UNL A   1      39.164  24.282  28.340  1.00  0.00     0.014 A 
ATOM     10  C   UNL A   1      39.939  24.953  26.147  1.00  0.00     0.014 A 
ATOM     11  C   UNL A   1      39.534  25.522  28.852  1.00  0.00     0.010 A 
ATOM     12  C   UNL A   1      40.387  26.167  26.680  1.00  0.00     0.010 A 
ATOM     13  C   UNL A   1      40.168  26.470  28.032  1.00  0.00    -0.014 A 
BRANCH  13  14
ATOM     14  C   UNL A   1      40.664  27.735  28.633  1.00  0.00     0.031 A 
ATOM     15  C   UNL A   1      42.098  27.890  29.059  1.00  0.00     0.074 A 
ATOM     16  C   UNL A   1      39.801  28.760  28.772  1.00  0.00     0.049 A 
ATOM     17  N   UNL A   1      42.687  28.934  29.585  1.00  0.00    -0.248 NA
ATOM     18  C   UNL A   1      42.984  26.730  28.875  1.00  0.00     0.031 C 
ATOM     19  C   UNL A   1      38.385  28.727  28.394  1.00  0.00     0.029 A 
ATOM     20  N   UNL A   1      39.988  30.034  29.243  1.00  0.00    -0.354 N 
ATOM     21  C   UNL A   1      44.006  28.556  29.810  1.00  0.00     0.074 A 
ATOM     22  C   UNL A   1      44.125  27.178  29.384  1.00  0.00     0.031 C 
ATOM     23  C   UNL A   1      37.845  29.936  28.603  1.00  0.00     0.029 A 
ATOM     24  C   UNL A   1      38.854  30.811  29.186  1.00  0.00     0.049 A 
ATOM     25  H   UNL A   1      40.848  30.361  29.589  1.00  0.00     0.167 HD
ATOM     26  C   UNL A   1      45.023  29.293  30.322  1.00  0.00     0.031 A 
ATOM     27  C   UNL A   1      38.640  32.081  29.573  1.00  0.00     0.031 A 
ATOM     28  C   UNL A   1      44.896  30.662  30.750  1.00  0.00     0.049 A 
ATOM     29  C   UNL A   1      39.774  32.861  30.171  1.00  0.00     0.074 A 
ATOM     30  C   UNL A   1      45.873  31.497  31.267  1.00  0.00     0.029 A 
ATOM     31  N   UNL A   1      43.721  31.398  30.717  1.00  0.00    -0.354 N 
ATOM     32  N   UNL A   1      41.018  32.489  30.360  1.00  0.00    -0.248 NA
ATOM     33  C   UNL A   1      39.477  34.230  30.611  1.00  0.00     0.031 C 
ATOM     34  C   UNL A   1      45.278  32.722  31.587  1.00  0.00     0.029 A 
ATOM     35  C   UNL A   1      43.943  32.670  31.222  1.00  0.00     0.049 A 
ATOM     36  H   UNL A   1      42.856  31.067  30.382  1.00  0.00     0.167 HD
ATOM     37  C   UNL A   1      41.655  33.583  30.931  1.00  0.00     0.074 A 
ATOM     38  C   UNL A   1      40.665  34.636  31.036  1.00  0.00     0.031 C 
ATOM     39  C   UNL A   1      42.944  33.703  31.330  1.00  0.00     0.031 A 
BRANCH  26  40
ATOM     40  C   UNL A   1      46.364  28.622  30.470  1.00  0.00    -0.014 A 
ATOM     41  C   UNL A   1      46.673  27.860  31.610  1.00  0.00     0.010 A 
ATOM     42  C   UNL A   1      47.310  28.716  29.432  1.00  0.00     0.010 A 
ATOM     43  C   UNL A   1      47.918  27.233  31.726  1.00  0.00     0.020 A 
ATOM     44  C   UNL A   1      48.547  28.072  29.534  1.00  0.00     0.020 A 
ATOM     45  C   UNL A   1      48.850  27.348  30.690  1.00  0.00     0.054 A 
BRANCH  45  46
ATOM     46  S   UNL A   1      50.451  26.513  30.860  1.00  0.00     0.124 S 
ATOM     47  O   UNL A   1      50.095  25.123  30.582  1.00  0.00    -0.237 OA
ATOM     48  O   UNL A   1      51.266  27.167  29.840  1.00  0.00    -0.237 OA
ATOM     49  O   UNL A   1      50.844  26.791  32.240  1.00  0.00    -0.744 OA
ENDBRANCH  45  46
ENDBRANCH  26  40
BRANCH  27  50
ATOM     50  C   UNL A   1      37.290  32.681  29.411  1.00  0.00    -0.014 A 
ATOM     51  C   UNL A   1      36.409  32.761  30.502  1.00  0.00     0.010 A 
ATOM     52  C   UNL A   1      36.896  33.216  28.171  1.00  0.00     0.010 A 
ATOM     53  C   UNL A   1      35.155  33.360  30.355  1.00  0.00     0.020 A 
ATOM     54  C   UNL A   1      35.655  33.840  28.026  1.00  0.00     0.020 A 
ATOM     55  C   UNL A   1      34.787  33.898  29.118  1.00  0.00     0.054 A 
BRANCH  55  56
ATOM     56  S   UNL A   1      33.184  34.732  28.965  1.00  0.00     0.124 S 
ATOM     57  O   UNL A   1      33.572  36.041  28.449  1.00  0.00    -0.237 OA
ATOM     58  O   UNL A   1      32.465  33.870  28.031  1.00  0.00    -0.237 OA
ATOM     59  O   UNL A   1      32.665  34.725  30.331  1.00  0.00    -0.744 OA
ENDBRANCH  55  56
ENDBRANCH  27  50
BRANCH  39  60
ATOM     60  C   UNL A   1      43.362  35.030  31.902  1.00  0.00    -0.014 A 
ATOM     61  C   UNL A   1      43.892  36.040  31.079  1.00  0.00     0.010 A 
ATOM     62  C   UNL A   1      43.186  35.283  33.274  1.00  0.00     0.010 A 
ATOM     63  C   UNL A   1      44.268  37.269  31.625  1.00  0.00     0.020 A 
ATOM     64  C   UNL A   1      43.539  36.518  33.819  1.00  0.00     0.020 A 
ATOM     65  C   UNL A   1      44.091  37.500  32.993  1.00  0.00     0.054 A 
BRANCH  65  66
ATOM     66  S   UNL A   1      44.549  39.117  33.673  1.00  0.00     0.124 S 
ATOM     67  O   UNL A   1      45.732  38.790  34.464  1.00  0.00    -0.237 OA
ATOM     68  O   UNL A   1      44.796  39.914  32.473  1.00  0.00    -0.237 OA
ATOM     69  O   UNL A   1      43.373  39.514  34.445  1.00  0.00    -0.744 OA
ENDBRANCH  65  66
ENDBRANCH  39  60
ENDBRANCH  13  14
ENDBRANCH   6   8
ENDBRANCH   3   4
ENDBRANCH   2   3
ENDBRANCH   1   2
BRANCH   1  70
ATOM     70  C   UNL A   1      34.822  22.723  23.191  1.00  0.00     0.002 C 
BRANCH  70  71
ATOM     71  C   UNL A   1      33.569  22.774  24.075  1.00  0.00     0.021 C 
BRANCH  71  72
ATOM     72  C   UNL A   1      32.588  23.909  23.801  1.00  0.00     0.116 C 
BRANCH  72  73
ATOM     73  N   UNL A   1      32.711  24.459  22.472  1.00  0.00    -0.354 N 
ATOM     74  C   UNL A   1      32.775  25.759  22.071  1.00  0.00     0.242 C 
ATOM     75  H   UNL A   1      32.757  23.795  21.747  1.00  0.00     0.163 HD
ATOM     76  O   UNL A   1      33.155  25.959  20.914  1.00  0.00    -0.273 OA
BRANCH  74  77
ATOM     77  C   UNL A   1      32.520  26.909  23.064  1.00  0.00     0.176 C 
ATOM     78  C   UNL A   1      32.972  28.257  22.489  1.00  0.00     0.036 C 
ATOM     79  N   UNL A   1      31.297  27.116  23.885  1.00  0.00    -0.310 N 
ATOM     80  C   UNL A   1      33.393  29.155  23.652  1.00  0.00     0.008 C 
ATOM     81  C   UNL A   1      31.552  27.992  25.068  1.00  0.00     0.091 C 
ATOM     82  C   UNL A   1      32.254  29.315  24.670  1.00  0.00     0.012 C 
ATOM     83  C   UNL A   1      32.139  27.250  26.280  1.00  0.00     0.025 C 
ATOM     84  C   UNL A   1      32.706  30.058  25.926  1.00  0.00     0.006 C 
ATOM     85  C   UNL A   1      33.468  27.761  26.822  1.00  0.00     0.002 C 
ATOM     86  C   UNL A   1      33.706  29.269  26.762  1.00  0.00     0.000 C 
BRANCH  79  87
ATOM     87  C   UNL A   1      29.974  27.051  23.518  1.00  0.00     0.318 C 
ATOM     88  O   UNL A   1      29.306  26.017  23.662  1.00  0.00    -0.249 OA
ATOM     89  N   UNL A   1      29.255  28.037  22.962  1.00  0.00    -0.335 N 
ATOM     90  H   UNL A   1      28.302  27.794  22.909  1.00  0.00     0.165 HD
BRANCH  89  91
ATOM     91  C   UNL A   1      29.481  29.324  22.432  1.00  0.00     0.084 C 
ATOM     92  C   UNL A   1      28.310  30.056  21.809  1.00  0.00     0.027 C 
ATOM     93  C   UNL A   1      28.914  30.556  23.082  1.00  0.00     0.027 C 
ENDBRANCH  89  91
ENDBRANCH  79  87
ENDBRANCH  74  77
ENDBRANCH  72  73
ENDBRANCH  71  72
ENDBRANCH  70  71
ENDBRANCH   1  70
TORSDOF 18
ENDMDL
MODEL 2
REMARK VINA RESULT:     -10.6      3.593      4.181
REMARK SMILES O=C(NCCCCCCNC(=O)[C@H]1CC[C@@H]2CCCC[C@@H]2N1C(=O)NC1CC1)c1ccc(-c2c3nc(c(-c4ccc(S(=O)(=O)[O-])cc4)c4ccc([nH]4)c(-c4ccc(S(=O)(=O)[O-])cc4)c4nc(c(-c5ccc(S(=O)(=O)[O-])cc5)c5ccc2[nH]5)C=C4)C=C3)cc1
REMARK SMILES IDX 6 1 5 2 4 3 3 4 1 5 2 6 29 8 30 9 88 10 31 11 87 12 32 13
REMARK SMILES IDX 33 14 34 15 81 16 35 17 86 18 80 19 82 20 36 21 85 22 79 23
REMARK SMILES IDX 78 24 37 26 67 27 48 28 66 29 49 30 52 31 65 32 83 33 50 34
REMARK SMILES IDX 51 35 64 37 84 38 53 39 38 40 39 41 47 42 40 43 46 44 41 45
REMARK SMILES IDX 42 46 43 47 44 48 45 49 68 50 69 51 77 52 70 53 76 54 71 55
REMARK SMILES IDX 72 56 73 57 74 58 75 59 54 60 55 61 63 62 56 63 62 64 57 65
REMARK SMILES IDX 58 66 59 67 60 68 61 69 7 70 8 71 9 72 10 73 11 74 12 76
REMARK SMILES IDX 13 77 14 78 22 79 15 80 21 81 16 82 20 83 17 84 19 85 18 86
REMARK SMILES IDX 23 87 24 88 25 89 26 91 27 92 28 93
REMARK H PARENT 3 7 82 25 52 36 10 75 25 90
REMARK Flexibility Score: inf
ROOT
ATOM      1  C   UNL A   1      37.640  22.834  25.168  1.00  0.00     0.002 C 
ENDROOT
BRANCH   1   2
ATOM      2  C   UNL A   1      38.195  23.849  26.164  1.00  0.00     0.021 C 
BRANCH   2   3
ATOM      3  C   UNL A   1      39.469  23.423  26.878  1.00  0.00     0.116 C 
BRANCH   3   4
ATOM      4  N   UNL A   1      40.663  23.723  26.108  1.00  0.00    -0.352 N 
ATOM      5  O   UNL A   1      42.382  24.977  25.369  1.00  0.00    -0.269 OA
ATOM      6  C   UNL A   1      41.519  24.794  26.218  1.00  0.00     0.251 C 
ATOM      7  H   UNL A   1      40.892  23.067  25.409  1.00  0.00     0.163 HD
BRANCH   6   8
ATOM      8  C   UNL A   1      41.374  25.738  27.352  1.00  0.00     0.039 A 
ATOM      9  C   UNL A   1      40.407  25.528  28.339  1.00  0.00     0.014 A 
ATOM     10  C   UNL A   1      42.230  26.839  27.433  1.00  0.00     0.014 A 
ATOM     11  C   UNL A   1      40.209  26.484  29.329  1.00  0.00     0.010 A 
ATOM     12  C   UNL A   1      42.084  27.758  28.479  1.00  0.00     0.010 A 
ATOM     13  C   UNL A   1      41.058  27.599  29.423  1.00  0.00    -0.014 A 
BRANCH  13  14
ATOM     14  C   UNL A   1      40.902  28.539  30.563  1.00  0.00     0.031 A 
ATOM     15  C   UNL A   1      41.825  28.491  31.749  1.00  0.00     0.074 A 
ATOM     16  C   UNL A   1      39.920  29.460  30.505  1.00  0.00     0.049 A 
ATOM     17  N   UNL A   1      41.828  29.251  32.815  1.00  0.00    -0.248 NA
ATOM     18  C   UNL A   1      42.875  27.461  31.743  1.00  0.00     0.031 C 
ATOM     19  C   UNL A   1      38.962  29.603  29.404  1.00  0.00     0.029 A 
ATOM     20  N   UNL A   1      39.577  30.463  31.374  1.00  0.00    -0.354 N 
ATOM     21  C   UNL A   1      42.865  28.785  33.614  1.00  0.00     0.074 A 
ATOM     22  C   UNL A   1      43.456  27.661  32.920  1.00  0.00     0.031 C 
ATOM     23  C   UNL A   1      38.174  30.661  29.641  1.00  0.00     0.029 A 
ATOM     24  C   UNL A   1      38.525  31.232  30.935  1.00  0.00     0.049 A 
ATOM     25  H   UNL A   1      40.038  30.618  32.229  1.00  0.00     0.167 HD
ATOM     26  C   UNL A   1      43.288  29.255  34.814  1.00  0.00     0.031 A 
ATOM     27  C   UNL A   1      37.898  32.273  31.512  1.00  0.00     0.031 A 
ATOM     28  C   UNL A   1      42.691  30.370  35.503  1.00  0.00     0.049 A 
ATOM     29  C   UNL A   1      38.361  32.748  32.857  1.00  0.00     0.074 A 
ATOM     30  C   UNL A   1      43.059  30.930  36.716  1.00  0.00     0.029 A 
ATOM     31  N   UNL A   1      41.600  31.094  35.045  1.00  0.00    -0.354 N 
ATOM     32  N   UNL A   1      39.356  32.303  33.587  1.00  0.00    -0.248 NA
ATOM     33  C   UNL A   1      37.618  33.863  33.458  1.00  0.00     0.031 C 
ATOM     34  C   UNL A   1      42.162  31.962  37.011  1.00  0.00     0.029 A 
ATOM     35  C   UNL A   1      41.268  32.081  35.959  1.00  0.00     0.049 A 
ATOM     36  H   UNL A   1      41.131  30.931  34.196  1.00  0.00     0.167 HD
ATOM     37  C   UNL A   1      39.365  33.091  34.731  1.00  0.00     0.074 A 
ATOM     38  C   UNL A   1      38.291  34.054  34.584  1.00  0.00     0.031 C 
ATOM     39  C   UNL A   1      40.189  33.024  35.804  1.00  0.00     0.031 A 
BRANCH  26  40
ATOM     40  C   UNL A   1      44.442  28.545  35.475  1.00  0.00    -0.014 A 
ATOM     41  C   UNL A   1      44.231  27.425  36.298  1.00  0.00     0.010 A 
ATOM     42  C   UNL A   1      45.759  28.975  35.228  1.00  0.00     0.010 A 
ATOM     43  C   UNL A   1      45.314  26.771  36.893  1.00  0.00     0.020 A 
ATOM     44  C   UNL A   1      46.846  28.309  35.803  1.00  0.00     0.020 A 
ATOM     45  C   UNL A   1      46.615  27.220  36.646  1.00  0.00     0.054 A 
BRANCH  45  46
ATOM     46  S   UNL A   1      48.001  26.343  37.419  1.00  0.00     0.124 S 
ATOM     47  O   UNL A   1      48.446  27.309  38.421  1.00  0.00    -0.237 OA
ATOM     48  O   UNL A   1      47.367  25.139  37.948  1.00  0.00    -0.237 OA
ATOM     49  O   UNL A   1      48.931  26.119  36.314  1.00  0.00    -0.744 OA
ENDBRANCH  45  46
ENDBRANCH  26  40
BRANCH  27  50
ATOM     50  C   UNL A   1      36.757  32.923  30.814  1.00  0.00    -0.014 A 
ATOM     51  C   UNL A   1      35.443  32.747  31.278  1.00  0.00     0.010 A 
ATOM     52  C   UNL A   1      36.988  33.757  29.704  1.00  0.00     0.010 A 
ATOM     53  C   UNL A   1      34.377  33.390  30.641  1.00  0.00     0.020 A 
ATOM     54  C   UNL A   1      35.929  34.422  29.081  1.00  0.00     0.020 A 
ATOM     55  C   UNL A   1      34.628  34.226  29.548  1.00  0.00     0.054 A 
BRANCH  55  56
ATOM     56  S   UNL A   1      33.240  35.104  28.779  1.00  0.00     0.124 S 
ATOM     57  O   UNL A   1      33.921  36.190  28.080  1.00  0.00    -0.237 OA
ATOM     58  O   UNL A   1      32.646  34.077  27.929  1.00  0.00    -0.237 OA
ATOM     59  O   UNL A   1      32.420  35.509  29.918  1.00  0.00    -0.744 OA
ENDBRANCH  55  56
ENDBRANCH  27  50
BRANCH  39  60
ATOM     60  C   UNL A   1      39.972  34.034  36.898  1.00  0.00    -0.014 A 
ATOM     61  C   UNL A   1      40.506  35.332  36.802  1.00  0.00     0.010 A 
ATOM     62  C   UNL A   1      39.193  33.690  38.017  1.00  0.00     0.010 A 
ATOM     63  C   UNL A   1      40.288  36.260  37.823  1.00  0.00     0.020 A 
ATOM     64  C   UNL A   1      38.954  34.623  39.028  1.00  0.00     0.020 A 
ATOM     65  C   UNL A   1      39.515  35.898  38.932  1.00  0.00     0.054 A 
BRANCH  65  66
ATOM     66  S   UNL A   1      39.213  37.132  40.226  1.00  0.00     0.124 S 
ATOM     67  O   UNL A   1      38.373  36.390  41.163  1.00  0.00    -0.237 OA
ATOM     68  O   UNL A   1      40.561  37.440  40.699  1.00  0.00    -0.237 OA
ATOM     69  O   UNL A   1      38.545  38.221  39.517  1.00  0.00    -0.744 OA
ENDBRANCH  65  66
ENDBRANCH  39  60
ENDBRANCH  13  14
ENDBRANCH   6   8
ENDBRANCH   3   4
ENDBRANCH   2   3
ENDBRANCH   1   2
BRANCH   1  70
ATOM     70  C   UNL A   1      36.271  23.154  24.561  1.00  0.00     0.002 C 
BRANCH  70  71
ATOM     71  C   UNL A   1      35.430  24.240  25.246  1.00  0.00     0.021 C 
BRANCH  71  72
ATOM     72  C   UNL A   1      33.968  24.334  24.827  1.00  0.00     0.116 C 
BRANCH  72  73
ATOM     73  N   UNL A   1      33.795  24.623  23.424  1.00  0.00    -0.354 N 
ATOM     74  C   UNL A   1      33.389  25.771  22.815  1.00  0.00     0.242 C 
ATOM     75  H   UNL A   1      34.004  23.878  22.815  1.00  0.00     0.163 HD
ATOM     76  O   UNL A   1      33.588  25.849  21.599  1.00  0.00    -0.273 OA
BRANCH  74  77
ATOM     77  C   UNL A   1      32.842  26.954  23.636  1.00  0.00     0.176 C 
ATOM     78  C   UNL A   1      33.258  28.299  23.029  1.00  0.00     0.036 C 
ATOM     79  N   UNL A   1      31.473  27.080  24.205  1.00  0.00    -0.310 N 
ATOM     80  C   UNL A   1      33.364  29.322  24.160  1.00  0.00     0.008 C 
ATOM     81  C   UNL A   1      31.415  28.062  25.329  1.00  0.00     0.091 C 
ATOM     82  C   UNL A   1      32.046  29.425  24.941  1.00  0.00     0.012 C 
ATOM     83  C   UNL A   1      31.836  27.483  26.688  1.00  0.00     0.025 C 
ATOM     84  C   UNL A   1      32.181  30.304  26.184  1.00  0.00     0.006 C 
ATOM     85  C   UNL A   1      32.985  28.179  27.408  1.00  0.00     0.002 C 
ATOM     86  C   UNL A   1      33.081  29.696  27.253  1.00  0.00     0.000 C 
BRANCH  79  87
ATOM     87  C   UNL A   1      30.254  26.839  23.617  1.00  0.00     0.318 C 
ATOM     88  O   UNL A   1      29.717  25.722  23.660  1.00  0.00    -0.249 OA
ATOM     89  N   UNL A   1      29.516  27.722  22.930  1.00  0.00    -0.335 N 
ATOM     90  H   UNL A   1      28.628  27.353  22.718  1.00  0.00     0.165 HD
BRANCH  89  91
ATOM     91  C   UNL A   1      29.653  29.032  22.427  1.00  0.00     0.084 C 
ATOM     92  C   UNL A   1      28.403  29.759  21.973  1.00  0.00     0.027 C 
ATOM     93  C   UNL A   1      29.144  30.227  23.185  1.00  0.00     0.027 C 
ENDBRANCH  89  91
ENDBRANCH  79  87
ENDBRANCH  74  77
ENDBRANCH  72  73
ENDBRANCH  71  72
ENDBRANCH  70  71
ENDBRANCH   1  70
TORSDOF 18
ENDMDL
MODEL 3
REMARK VINA RESULT:     -10.5      3.549      9.568
REMARK SMILES O=C(NCCCCCCNC(=O)[C@H]1CC[C@@H]2CCCC[C@@H]2N1C(=O)NC1CC1)c1ccc(-c2c3nc(c(-c4ccc(S(=O)(=O)[O-])cc4)c4ccc([nH]4)c(-c4ccc(S(=O)(=O)[O-])cc4)c4nc(c(-c5ccc(S(=O)(=O)[O-])cc5)c5ccc2[nH]5)C=C4)C=C3)cc1
REMARK SMILES IDX 6 1 5 2 4 3 3 4 1 5 2 6 29 8 30 9 88 10 31 11 87 12 32 13
REMARK SMILES IDX 33 14 34 15 81 16 35 17 86 18 80 19 82 20 36 21 85 22 79 23
REMARK SMILES IDX 78 24 37 26 67 27 48 28 66 29 49 30 52 31 65 32 83 33 50 34
REMARK SMILES IDX 51 35 64 37 84 38 53 39 38 40 39 41 47 42 40 43 46 44 41 45
REMARK SMILES IDX 42 46 43 47 44 48 45 49 68 50 69 51 77 52 70 53 76 54 71 55
REMARK SMILES IDX 72 56 73 57 74 58 75 59 54 60 55 61 63 62 56 63 62 64 57 65
REMARK SMILES IDX 58 66 59 67 60 68 61 69 7 70 8 71 9 72 10 73 11 74 12 76
REMARK SMILES IDX 13 77 14 78 22 79 15 80 21 81 16 82 20 83 17 84 19 85 18 86
REMARK SMILES IDX 23 87 24 88 25 89 26 91 27 92 28 93
REMARK H PARENT 3 7 82 25 52 36 10 75 25 90
REMARK Flexibility Score: inf
ROOT
ATOM      1  C   UNL A   1      32.628  27.049  25.602  1.00  0.00     0.002 C 
ENDROOT
BRANCH   1   2
ATOM      2  C   UNL A   1      33.246  27.918  26.694  1.00  0.00     0.021 C 
BRANCH   2   3
ATOM      3  C   UNL A   1      34.187  29.005  26.199  1.00  0.00     0.116 C 
BRANCH   3   4
ATOM      4  N   UNL A   1      33.768  30.332  26.614  1.00  0.00    -0.352 N 
ATOM      5  O   UNL A   1      33.714  32.165  27.922  1.00  0.00    -0.269 OA
ATOM      6  C   UNL A   1      34.302  31.145  27.587  1.00  0.00     0.251 C 
ATOM      7  H   UNL A   1      32.994  30.702  26.129  1.00  0.00     0.163 HD
BRANCH   6   8
ATOM      8  C   UNL A   1      35.576  30.767  28.244  1.00  0.00     0.039 A 
ATOM      9  C   UNL A   1      35.635  29.677  29.116  1.00  0.00     0.014 A 
ATOM     10  C   UNL A   1      36.729  31.507  27.969  1.00  0.00     0.014 A 
ATOM     11  C   UNL A   1      36.810  29.410  29.813  1.00  0.00     0.010 A 
ATOM     12  C   UNL A   1      37.931  31.184  28.607  1.00  0.00     0.010 A 
ATOM     13  C   UNL A   1      37.976  30.147  29.551  1.00  0.00    -0.014 A 
BRANCH  13  14
ATOM     14  C   UNL A   1      39.246  29.759  30.216  1.00  0.00     0.031 A 
ATOM     15  C   UNL A   1      39.712  30.441  31.473  1.00  0.00     0.074 A 
ATOM     16  C   UNL A   1      39.973  28.759  29.679  1.00  0.00     0.049 A 
ATOM     17  N   UNL A   1      40.789  30.208  32.180  1.00  0.00    -0.248 NA
ATOM     18  C   UNL A   1      38.867  31.522  32.004  1.00  0.00     0.031 C 
ATOM     19  C   UNL A   1      39.622  28.023  28.461  1.00  0.00     0.029 A 
ATOM     20  N   UNL A   1      41.140  28.173  30.095  1.00  0.00    -0.354 N 
ATOM     21  C   UNL A   1      40.762  31.120  33.229  1.00  0.00     0.074 A 
ATOM     22  C   UNL A   1      39.572  31.926  33.053  1.00  0.00     0.031 C 
ATOM     23  C   UNL A   1      40.525  27.054  28.256  1.00  0.00     0.029 A 
ATOM     24  C   UNL A   1      41.552  27.139  29.287  1.00  0.00     0.049 A 
ATOM     25  H   UNL A   1      41.636  28.464  30.893  1.00  0.00     0.167 HD
ATOM     26  C   UNL A   1      41.646  31.268  34.246  1.00  0.00     0.031 A 
ATOM     27  C   UNL A   1      42.641  26.353  29.355  1.00  0.00     0.031 A 
ATOM     28  C   UNL A   1      42.831  30.466  34.412  1.00  0.00     0.049 A 
ATOM     29  C   UNL A   1      43.623  26.563  30.470  1.00  0.00     0.074 A 
ATOM     30  C   UNL A   1      43.780  30.530  35.419  1.00  0.00     0.029 A 
ATOM     31  N   UNL A   1      43.235  29.459  33.549  1.00  0.00    -0.354 N 
ATOM     32  N   UNL A   1      43.569  27.420  31.461  1.00  0.00    -0.248 NA
ATOM     33  C   UNL A   1      44.813  25.702  30.475  1.00  0.00     0.031 C 
ATOM     34  C   UNL A   1      44.780  29.592  35.140  1.00  0.00     0.029 A 
ATOM     35  C   UNL A   1      44.428  28.907  33.988  1.00  0.00     0.049 A 
ATOM     36  H   UNL A   1      42.746  29.176  32.743  1.00  0.00     0.167 HD
ATOM     37  C   UNL A   1      44.713  27.195  32.215  1.00  0.00     0.074 A 
ATOM     38  C   UNL A   1      45.428  26.107  31.578  1.00  0.00     0.031 C 
ATOM     39  C   UNL A   1      45.133  27.832  33.335  1.00  0.00     0.031 A 
BRANCH  26  40
ATOM     40  C   UNL A   1      41.377  32.357  35.253  1.00  0.00    -0.014 A 
ATOM     41  C   UNL A   1      41.850  33.665  35.050  1.00  0.00     0.010 A 
ATOM     42  C   UNL A   1      40.599  32.079  36.391  1.00  0.00     0.010 A 
ATOM     43  C   UNL A   1      41.580  34.667  35.988  1.00  0.00     0.020 A 
ATOM     44  C   UNL A   1      40.308  33.084  37.319  1.00  0.00     0.020 A 
ATOM     45  C   UNL A   1      40.816  34.369  37.120  1.00  0.00     0.054 A 
BRANCH  45  46
ATOM     46  S   UNL A   1      40.469  35.692  38.311  1.00  0.00     0.124 S 
ATOM     47  O   UNL A   1      41.814  36.061  38.749  1.00  0.00    -0.237 OA
ATOM     48  O   UNL A   1      39.781  36.688  37.495  1.00  0.00    -0.237 OA
ATOM     49  O   UNL A   1      39.641  35.040  39.324  1.00  0.00    -0.744 OA
ENDBRANCH  45  46
ENDBRANCH  26  40
BRANCH  27  50
ATOM     50  C   UNL A   1      42.855  25.303  28.324  1.00  0.00    -0.014 A 
ATOM     51  C   UNL A   1      43.617  25.576  27.176  1.00  0.00     0.010 A 
ATOM     52  C   UNL A   1      42.333  24.011  28.510  1.00  0.00     0.010 A 
ATOM     53  C   UNL A   1      43.847  24.576  26.227  1.00  0.00     0.020 A 
ATOM     54  C   UNL A   1      42.583  23.001  27.578  1.00  0.00     0.020 A 
ATOM     55  C   UNL A   1      43.331  23.293  26.436  1.00  0.00     0.054 A 
BRANCH  55  56
ATOM     56  S   UNL A   1      43.699  21.992  25.228  1.00  0.00     0.124 S 
ATOM     57  O   UNL A   1      42.710  20.974  25.570  1.00  0.00    -0.237 OA
ATOM     58  O   UNL A   1      43.492  22.673  23.953  1.00  0.00    -0.237 OA
ATOM     59  O   UNL A   1      45.087  21.640  25.518  1.00  0.00    -0.744 OA
ENDBRANCH  55  56
ENDBRANCH  27  50
BRANCH  39  60
ATOM     60  C   UNL A   1      46.417  27.353  33.954  1.00  0.00    -0.014 A 
ATOM     61  C   UNL A   1      46.422  26.318  34.906  1.00  0.00     0.010 A 
ATOM     62  C   UNL A   1      47.639  27.921  33.549  1.00  0.00     0.010 A 
ATOM     63  C   UNL A   1      47.625  25.880  35.465  1.00  0.00     0.020 A 
ATOM     64  C   UNL A   1      48.844  27.470  34.088  1.00  0.00     0.020 A 
ATOM     65  C   UNL A   1      48.829  26.461  35.054  1.00  0.00     0.054 A 
BRANCH  65  66
ATOM     66  S   UNL A   1      50.382  25.850  35.764  1.00  0.00     0.124 S 
ATOM     67  O   UNL A   1      49.904  24.929  36.791  1.00  0.00    -0.237 OA
ATOM     68  O   UNL A   1      51.039  25.227  34.617  1.00  0.00    -0.237 OA
ATOM     69  O   UNL A   1      51.032  27.059  36.264  1.00  0.00    -0.744 OA
ENDBRANCH  65  66
ENDBRANCH  39  60
ENDBRANCH  13  14
ENDBRANCH   6   8
ENDBRANCH   3   4
ENDBRANCH   2   3
ENDBRANCH   1   2
BRANCH   1  70
ATOM     70  C   UNL A   1      31.188  27.381  25.200  1.00  0.00     0.002 C 
BRANCH  70  71
ATOM     71  C   UNL A   1      30.351  26.255  24.577  1.00  0.00     0.021 C 
BRANCH  71  72
ATOM     72  C   UNL A   1      31.033  24.900  24.431  1.00  0.00     0.116 C 
BRANCH  72  73
ATOM     73  N   UNL A   1      30.334  23.835  25.110  1.00  0.00    -0.354 N 
ATOM     74  C   UNL A   1      30.820  22.695  25.674  1.00  0.00     0.242 C 
ATOM     75  H   UNL A   1      29.358  23.951  25.176  1.00  0.00     0.163 HD
ATOM     76  O   UNL A   1      30.057  22.086  26.430  1.00  0.00    -0.273 OA
BRANCH  74  77
ATOM     77  C   UNL A   1      32.291  22.280  25.481  1.00  0.00     0.176 C 
ATOM     78  C   UNL A   1      32.788  21.417  26.648  1.00  0.00     0.036 C 
ATOM     79  N   UNL A   1      32.917  21.799  24.220  1.00  0.00    -0.310 N 
ATOM     80  C   UNL A   1      34.290  21.652  26.808  1.00  0.00     0.008 C 
ATOM     81  C   UNL A   1      34.403  21.958  24.231  1.00  0.00     0.091 C 
ATOM     82  C   UNL A   1      35.042  21.347  25.504  1.00  0.00     0.012 C 
ATOM     83  C   UNL A   1      34.885  23.363  23.838  1.00  0.00     0.025 C 
ATOM     84  C   UNL A   1      36.515  21.744  25.584  1.00  0.00     0.006 C 
ATOM     85  C   UNL A   1      35.760  24.099  24.845  1.00  0.00     0.002 C 
ATOM     86  C   UNL A   1      36.726  23.251  25.671  1.00  0.00     0.000 C 
BRANCH  79  87
ATOM     87  C   UNL A   1      32.466  20.867  23.317  1.00  0.00     0.318 C 
ATOM     88  O   UNL A   1      31.874  21.196  22.278  1.00  0.00    -0.249 OA
ATOM     89  N   UNL A   1      32.576  19.536  23.429  1.00  0.00    -0.335 N 
ATOM     90  H   UNL A   1      32.294  19.086  22.599  1.00  0.00     0.165 HD
BRANCH  89  91
ATOM     91  C   UNL A   1      32.983  18.599  24.401  1.00  0.00     0.084 C 
ATOM     92  C   UNL A   1      33.087  17.143  23.992  1.00  0.00     0.027 C 
ATOM     93  C   UNL A   1      34.321  17.916  24.329  1.00  0.00     0.027 C 
ENDBRANCH  89  91
ENDBRANCH  79  87
ENDBRANCH  74  77
ENDBRANCH  72  73
ENDBRANCH  71  72
ENDBRANCH  70  71
ENDBRANCH   1  70
TORSDOF 18
ENDMDL
