MODEL 1
REMARK VINA RESULT:     -12.5      0.000      0.000
REMARK SMILES Cc1ccc(C[C@H](C(=O)NCCCCCCNC(=O)c2ccc(-c3c4nc(c(-c5ccc(S(=O)(=O)[O-])cc5)c5ccc([nH]5)c(-c5ccc(S(=O)(=O)[O-])cc5)c5nc(c(-c6ccc(S(=O)(=O)[O-])cc6)c6ccc3[nH]6)C=C5)C=C4)cc2)[C@@H]2CCCC[C@@H]2O)cc1
REMARK SMILES IDX 14 1 13 2 12 3 11 4 10 5 8 6 9 7 7 9 6 10 5 11 1 12 2 13
REMARK SMILES IDX 3 14 88 15 4 16 87 17 80 18 81 19 85 20 82 21 84 22 83 23
REMARK SMILES IDX 86 24 15 26 16 27 17 28 18 29 19 31 20 32 21 33 79 34 22 35
REMARK SMILES IDX 78 36 23 37 24 38 25 39 72 40 26 41 77 42 71 43 73 44 27 45
REMARK SMILES IDX 76 46 70 47 69 48 28 50 58 51 39 52 57 53 40 54 43 55 56 56
REMARK SMILES IDX 74 57 41 58 42 59 55 61 75 62 44 63 29 64 30 65 38 66 31 67
REMARK SMILES IDX 37 68 32 69 33 70 34 71 35 72 36 73 59 74 60 75 68 76 61 77
REMARK SMILES IDX 67 78 62 79 63 80 64 81 65 82 66 83 45 84 46 85 54 86 47 87
REMARK SMILES IDX 53 88 48 89 49 90 50 91 51 92 52 93
REMARK H PARENT 10 8 86 25 17 30 73 49 43 60
REMARK Flexibility Score: inf
ROOT
ATOM      1  C   UNL A   1      33.641  28.100  25.942  1.00  0.00     0.002 C 
ENDROOT
BRANCH   1   2
ATOM      2  C   UNL A   1      34.213  28.618  24.614  1.00  0.00     0.002 C 
BRANCH   2   3
ATOM      3  C   UNL A   1      33.243  28.985  23.435  1.00  0.00     0.021 C 
BRANCH   3   4
ATOM      4  C   UNL A   1      32.225  27.961  22.893  1.00  0.00     0.116 C 
BRANCH   4   5
ATOM      5  N   UNL A   1      32.667  27.101  21.806  1.00  0.00    -0.356 N 
ATOM      6  C   UNL A   1      32.947  25.765  21.750  1.00  0.00     0.223 C 
ATOM      7  O   UNL A   1      33.200  25.351  20.605  1.00  0.00    -0.275 OA
ATOM      8  H   UNL A   1      32.787  27.571  20.948  1.00  0.00     0.163 HD
BRANCH   6   9
ATOM      9  C   UNL A   1      33.079  24.778  22.979  1.00  0.00     0.088 C 
BRANCH   9  10
ATOM     10  C   UNL A   1      34.120  25.206  24.056  1.00  0.00     0.049 C 
BRANCH  10  11
ATOM     11  C   UNL A   1      34.964  24.095  24.629  1.00  0.00    -0.047 A 
ATOM     12  C   UNL A   1      38.454  21.835  25.423  1.00  0.00     0.044 C 
ATOM     13  C   UNL A   1      37.115  22.480  25.288  1.00  0.00    -0.051 A 
ATOM     14  C   UNL A   1      36.295  22.128  24.217  1.00  0.00     0.004 A 
ATOM     15  C   UNL A   1      36.703  23.477  26.178  1.00  0.00     0.004 A 
ATOM     16  C   UNL A   1      35.206  22.927  23.895  1.00  0.00     0.004 A 
ATOM     17  C   UNL A   1      35.611  24.279  25.857  1.00  0.00     0.004 A 
ENDBRANCH  10  11
ENDBRANCH   9  10
BRANCH   9  18
ATOM     18  C   UNL A   1      31.622  24.610  23.637  1.00  0.00     0.030 C 
ATOM     19  C   UNL A   1      31.357  25.238  25.027  1.00  0.00     0.007 C 
ATOM     20  C   UNL A   1      31.140  23.132  23.696  1.00  0.00     0.118 C 
ATOM     21  C   UNL A   1      32.014  24.476  26.173  1.00  0.00     0.001 C 
ATOM     22  C   UNL A   1      31.748  22.345  24.863  1.00  0.00     0.032 C 
ATOM     23  C   UNL A   1      31.529  23.033  26.206  1.00  0.00     0.003 C 
BRANCH  20  24
ATOM     24  O   UNL A   1      31.407  22.423  22.496  1.00  0.00    -0.393 OA
ATOM     25  H   UNL A   1      30.789  21.679  22.415  1.00  0.00     0.210 HD
ENDBRANCH  20  24
ENDBRANCH   9  18
ENDBRANCH   6   9
ENDBRANCH   4   5
ENDBRANCH   3   4
ENDBRANCH   2   3
ENDBRANCH   1   2
BRANCH   1  26
ATOM     26  C   UNL A   1      33.774  28.884  27.286  1.00  0.00     0.021 C 
BRANCH  26  27
ATOM     27  C   UNL A   1      34.113  30.371  27.372  1.00  0.00     0.116 C 
BRANCH  27  28
ATOM     28  N   UNL A   1      35.477  30.750  27.049  1.00  0.00    -0.352 N 
ATOM     29  C   UNL A   1      36.381  30.971  28.095  1.00  0.00     0.251 C 
ATOM     30  H   UNL A   1      35.760  30.849  26.112  1.00  0.00     0.163 HD
ATOM     31  O   UNL A   1      36.261  31.803  28.968  1.00  0.00    -0.269 OA
BRANCH  29  32
ATOM     32  C   UNL A   1      37.233  29.785  28.338  1.00  0.00     0.039 A 
ATOM     33  C   UNL A   1      37.182  28.962  29.462  1.00  0.00     0.014 A 
ATOM     34  C   UNL A   1      38.247  29.650  27.392  1.00  0.00     0.014 A 
ATOM     35  C   UNL A   1      38.266  28.116  29.729  1.00  0.00     0.010 A 
ATOM     36  C   UNL A   1      39.327  28.859  27.680  1.00  0.00     0.010 A 
ATOM     37  C   UNL A   1      39.371  28.149  28.878  1.00  0.00    -0.014 A 
BRANCH  37  38
ATOM     38  C   UNL A   1      40.683  27.576  29.140  1.00  0.00     0.031 A 
ATOM     39  C   UNL A   1      40.965  26.180  28.742  1.00  0.00     0.074 A 
ATOM     40  C   UNL A   1      41.679  28.433  29.466  1.00  0.00     0.049 A 
ATOM     41  N   UNL A   1      41.939  25.468  29.194  1.00  0.00    -0.248 NA
ATOM     42  C   UNL A   1      40.127  25.459  27.785  1.00  0.00     0.031 C 
ATOM     43  C   UNL A   1      43.117  28.185  29.424  1.00  0.00     0.029 A 
ATOM     44  N   UNL A   1      41.586  29.689  30.077  1.00  0.00    -0.354 N 
ATOM     45  C   UNL A   1      42.058  24.367  28.370  1.00  0.00     0.074 A 
ATOM     46  C   UNL A   1      40.840  24.345  27.597  1.00  0.00     0.031 C 
ATOM     47  C   UNL A   1      43.723  29.054  30.253  1.00  0.00     0.029 A 
ATOM     48  C   UNL A   1      42.666  29.756  30.969  1.00  0.00     0.049 A 
ATOM     49  H   UNL A   1      40.905  30.380  29.913  1.00  0.00     0.167 HD
ATOM     50  C   UNL A   1      43.248  23.702  28.306  1.00  0.00     0.031 A 
ATOM     51  C   UNL A   1      42.503  29.731  32.328  1.00  0.00     0.031 A 
ATOM     52  C   UNL A   1      44.208  24.267  29.256  1.00  0.00     0.049 A 
ATOM     53  C   UNL A   1      43.156  28.521  32.969  1.00  0.00     0.074 A 
ATOM     54  C   UNL A   1      45.271  25.140  29.097  1.00  0.00     0.029 A 
ATOM     55  N   UNL A   1      43.931  24.222  30.619  1.00  0.00    -0.354 N 
ATOM     56  N   UNL A   1      43.476  27.438  32.315  1.00  0.00    -0.248 NA
ATOM     57  C   UNL A   1      43.493  28.429  34.387  1.00  0.00     0.031 C 
ATOM     58  C   UNL A   1      45.548  25.720  30.365  1.00  0.00     0.029 A 
ATOM     59  C   UNL A   1      44.685  25.164  31.294  1.00  0.00     0.049 A 
ATOM     60  H   UNL A   1      43.292  23.606  31.043  1.00  0.00     0.167 HD
ATOM     61  C   UNL A   1      44.071  26.541  33.162  1.00  0.00     0.074 A 
ATOM     62  C   UNL A   1      44.052  27.206  34.453  1.00  0.00     0.031 C 
ATOM     63  C   UNL A   1      44.538  25.332  32.734  1.00  0.00     0.031 A 
BRANCH  50  64
ATOM     64  C   UNL A   1      43.655  22.765  27.180  1.00  0.00    -0.014 A 
ATOM     65  C   UNL A   1      42.863  21.629  26.905  1.00  0.00     0.010 A 
ATOM     66  C   UNL A   1      44.820  22.899  26.398  1.00  0.00     0.010 A 
ATOM     67  C   UNL A   1      43.256  20.643  25.985  1.00  0.00     0.020 A 
ATOM     68  C   UNL A   1      45.240  21.910  25.493  1.00  0.00     0.020 A 
ATOM     69  C   UNL A   1      44.460  20.777  25.301  1.00  0.00     0.054 A 
BRANCH  69  70
ATOM     70  S   UNL A   1      44.985  19.467  24.164  1.00  0.00     0.124 S 
ATOM     71  O   UNL A   1      44.510  19.962  22.874  1.00  0.00    -0.237 OA
ATOM     72  O   UNL A   1      46.434  19.459  24.341  1.00  0.00    -0.237 OA
ATOM     73  O   UNL A   1      44.294  18.278  24.660  1.00  0.00    -0.744 OA
ENDBRANCH  69  70
ENDBRANCH  50  64
BRANCH  51  74
ATOM     74  C   UNL A   1      41.247  30.380  32.809  1.00  0.00    -0.014 A 
ATOM     75  C   UNL A   1      40.184  29.529  33.176  1.00  0.00     0.010 A 
ATOM     76  C   UNL A   1      41.266  31.695  33.310  1.00  0.00     0.010 A 
ATOM     77  C   UNL A   1      39.280  29.909  34.169  1.00  0.00     0.020 A 
ATOM     78  C   UNL A   1      40.350  32.084  34.301  1.00  0.00     0.020 A 
ATOM     79  C   UNL A   1      39.418  31.158  34.775  1.00  0.00     0.054 A 
BRANCH  79  80
ATOM     80  S   UNL A   1      38.557  31.419  36.355  1.00  0.00     0.124 S 
ATOM     81  O   UNL A   1      38.230  30.061  36.768  1.00  0.00    -0.237 OA
ATOM     82  O   UNL A   1      39.598  32.093  37.135  1.00  0.00    -0.237 OA
ATOM     83  O   UNL A   1      37.421  32.260  35.994  1.00  0.00    -0.744 OA
ENDBRANCH  79  80
ENDBRANCH  51  74
BRANCH  63  84
ATOM     84  C   UNL A   1      44.991  24.202  33.624  1.00  0.00    -0.014 A 
ATOM     85  C   UNL A   1      44.138  23.202  34.116  1.00  0.00     0.010 A 
ATOM     86  C   UNL A   1      46.377  24.046  33.873  1.00  0.00     0.010 A 
ATOM     87  C   UNL A   1      44.635  22.137  34.878  1.00  0.00     0.020 A 
ATOM     88  C   UNL A   1      46.888  22.961  34.587  1.00  0.00     0.020 A 
ATOM     89  C   UNL A   1      46.007  22.026  35.112  1.00  0.00     0.054 A 
BRANCH  89  90
ATOM     90  S   UNL A   1      46.640  20.619  36.056  1.00  0.00     0.124 S 
ATOM     91  O   UNL A   1      45.519  19.685  35.987  1.00  0.00    -0.237 OA
ATOM     92  O   UNL A   1      47.828  20.227  35.301  1.00  0.00    -0.237 OA
ATOM     93  O   UNL A   1      46.908  21.182  37.377  1.00  0.00    -0.744 OA
ENDBRANCH  89  90
ENDBRANCH  63  84
ENDBRANCH  37  38
ENDBRANCH  29  32
ENDBRANCH  27  28
ENDBRANCH  26  27
ENDBRANCH   1  26
TORSDOF 20
ENDMDL
MODEL 2
REMARK VINA RESULT:     -12.1      4.662     11.131
REMARK SMILES Cc1ccc(C[C@H](C(=O)NCCCCCCNC(=O)c2ccc(-c3c4nc(c(-c5ccc(S(=O)(=O)[O-])cc5)c5ccc([nH]5)c(-c5ccc(S(=O)(=O)[O-])cc5)c5nc(c(-c6ccc(S(=O)(=O)[O-])cc6)c6ccc3[nH]6)C=C5)C=C4)cc2)[C@@H]2CCCC[C@@H]2O)cc1
REMARK SMILES IDX 14 1 13 2 12 3 11 4 10 5 8 6 9 7 7 9 6 10 5 11 1 12 2 13
REMARK SMILES IDX 3 14 88 15 4 16 87 17 80 18 81 19 85 20 82 21 84 22 83 23
REMARK SMILES IDX 86 24 15 26 16 27 17 28 18 29 19 31 20 32 21 33 79 34 22 35
REMARK SMILES IDX 78 36 23 37 24 38 25 39 72 40 26 41 77 42 71 43 73 44 27 45
REMARK SMILES IDX 76 46 70 47 69 48 28 50 58 51 39 52 57 53 40 54 43 55 56 56
REMARK SMILES IDX 74 57 41 58 42 59 55 61 75 62 44 63 29 64 30 65 38 66 31 67
REMARK SMILES IDX 37 68 32 69 33 70 34 71 35 72 36 73 59 74 60 75 68 76 61 77
REMARK SMILES IDX 67 78 62 79 63 80 64 81 65 82 66 83 45 84 46 85 54 86 47 87
REMARK SMILES IDX 53 88 48 89 49 90 50 91 51 92 52 93
REMARK H PARENT 10 8 86 25 17 30 73 49 43 60
REMARK Flexibility Score: inf
ROOT
ATOM      1  C   UNL A   1      36.619  22.689  24.218  1.00  0.00     0.002 C 
ENDROOT
BRANCH   1   2
ATOM      2  C   UNL A   1      35.422  23.308  23.482  1.00  0.00     0.002 C 
BRANCH   2   3
ATOM      3  C   UNL A   1      33.974  23.137  24.063  1.00  0.00     0.021 C 
BRANCH   3   4
ATOM      4  C   UNL A   1      33.702  23.267  25.576  1.00  0.00     0.116 C 
BRANCH   4   5
ATOM      5  N   UNL A   1      32.310  23.324  25.995  1.00  0.00    -0.356 N 
ATOM      6  C   UNL A   1      31.357  24.297  25.875  1.00  0.00     0.223 C 
ATOM      7  O   UNL A   1      30.229  23.946  26.265  1.00  0.00    -0.275 OA
ATOM      8  H   UNL A   1      31.995  22.510  26.449  1.00  0.00     0.163 HD
BRANCH   6   9
ATOM      9  C   UNL A   1      31.589  25.792  25.413  1.00  0.00     0.088 C 
BRANCH   9  10
ATOM     10  C   UNL A   1      33.002  26.365  25.731  1.00  0.00     0.049 C 
BRANCH  10  11
ATOM     11  C   UNL A   1      33.025  27.644  26.530  1.00  0.00    -0.047 A 
ATOM     12  C   UNL A   1      32.959  31.815  27.252  1.00  0.00     0.044 C 
ATOM     13  C   UNL A   1      32.985  30.324  27.233  1.00  0.00    -0.051 A 
ATOM     14  C   UNL A   1      34.207  29.665  27.106  1.00  0.00     0.004 A 
ATOM     15  C   UNL A   1      31.799  29.582  27.270  1.00  0.00     0.004 A 
ATOM     16  C   UNL A   1      34.230  28.318  26.771  1.00  0.00     0.004 A 
ATOM     17  C   UNL A   1      31.820  28.231  26.934  1.00  0.00     0.004 A 
ENDBRANCH  10  11
ENDBRANCH   9  10
BRANCH   9  18
ATOM     18  C   UNL A   1      31.286  25.875  23.837  1.00  0.00     0.030 C 
ATOM     19  C   UNL A   1      32.323  26.562  22.917  1.00  0.00     0.007 C 
ATOM     20  C   UNL A   1      29.895  26.488  23.509  1.00  0.00     0.118 C 
ATOM     21  C   UNL A   1      32.333  28.082  23.042  1.00  0.00     0.001 C 
ATOM     22  C   UNL A   1      29.878  28.020  23.583  1.00  0.00     0.032 C 
ATOM     23  C   UNL A   1      30.961  28.657  22.720  1.00  0.00     0.003 C 
BRANCH  20  24
ATOM     24  O   UNL A   1      28.867  25.991  24.351  1.00  0.00    -0.393 OA
ATOM     25  H   UNL A   1      28.526  26.710  24.906  1.00  0.00     0.210 HD
ENDBRANCH  20  24
ENDBRANCH   9  18
ENDBRANCH   6   9
ENDBRANCH   4   5
ENDBRANCH   3   4
ENDBRANCH   2   3
ENDBRANCH   1   2
BRANCH   1  26
ATOM     26  C   UNL A   1      37.480  23.481  25.254  1.00  0.00     0.021 C 
BRANCH  26  27
ATOM     27  C   UNL A   1      38.693  22.896  25.975  1.00  0.00     0.116 C 
BRANCH  27  28
ATOM     28  N   UNL A   1      38.907  23.324  27.346  1.00  0.00    -0.352 N 
ATOM     29  C   UNL A   1      40.064  24.050  27.652  1.00  0.00     0.251 C 
ATOM     30  H   UNL A   1      38.250  23.108  28.046  1.00  0.00     0.163 HD
ATOM     31  O   UNL A   1      41.202  23.661  27.500  1.00  0.00    -0.269 OA
BRANCH  29  32
ATOM     32  C   UNL A   1      39.797  25.504  27.703  1.00  0.00     0.039 A 
ATOM     33  C   UNL A   1      40.263  26.451  26.791  1.00  0.00     0.014 A 
ATOM     34  C   UNL A   1      39.155  25.891  28.878  1.00  0.00     0.014 A 
ATOM     35  C   UNL A   1      40.246  27.804  27.154  1.00  0.00     0.010 A 
ATOM     36  C   UNL A   1      39.184  27.210  29.250  1.00  0.00     0.010 A 
ATOM     37  C   UNL A   1      39.790  28.153  28.425  1.00  0.00    -0.014 A 
BRANCH  37  38
ATOM     38  C   UNL A   1      39.961  29.442  29.081  1.00  0.00     0.031 A 
ATOM     39  C   UNL A   1      38.902  30.468  28.968  1.00  0.00     0.074 A 
ATOM     40  C   UNL A   1      40.942  29.537  30.009  1.00  0.00     0.049 A 
ATOM     41  N   UNL A   1      39.064  31.722  29.214  1.00  0.00    -0.248 NA
ATOM     42  C   UNL A   1      37.545  30.141  28.537  1.00  0.00     0.031 C 
ATOM     43  C   UNL A   1      41.094  30.558  31.042  1.00  0.00     0.029 A 
ATOM     44  N   UNL A   1      42.128  28.802  30.106  1.00  0.00    -0.354 N 
ATOM     45  C   UNL A   1      37.807  32.286  29.305  1.00  0.00     0.074 A 
ATOM     46  C   UNL A   1      36.912  31.297  28.755  1.00  0.00     0.031 C 
ATOM     47  C   UNL A   1      42.386  30.594  31.418  1.00  0.00     0.029 A 
ATOM     48  C   UNL A   1      43.111  29.719  30.507  1.00  0.00     0.049 A 
ATOM     49  H   UNL A   1      42.247  27.841  29.930  1.00  0.00     0.167 HD
ATOM     50  C   UNL A   1      37.642  33.450  29.999  1.00  0.00     0.031 A 
ATOM     51  C   UNL A   1      44.119  30.129  29.677  1.00  0.00     0.031 A 
ATOM     52  C   UNL A   1      38.932  33.958  30.469  1.00  0.00     0.049 A 
ATOM     53  C   UNL A   1      44.065  31.618  29.389  1.00  0.00     0.074 A 
ATOM     54  C   UNL A   1      39.560  33.909  31.702  1.00  0.00     0.029 A 
ATOM     55  N   UNL A   1      39.906  34.317  29.542  1.00  0.00    -0.354 N 
ATOM     56  N   UNL A   1      42.997  32.350  29.555  1.00  0.00    -0.248 NA
ATOM     57  C   UNL A   1      45.195  32.396  28.889  1.00  0.00     0.031 C 
ATOM     58  C   UNL A   1      40.949  34.114  31.489  1.00  0.00     0.029 A 
ATOM     59  C   UNL A   1      41.154  34.334  30.138  1.00  0.00     0.049 A 
ATOM     60  H   UNL A   1      39.732  34.530  28.598  1.00  0.00     0.167 HD
ATOM     61  C   UNL A   1      43.272  33.653  29.237  1.00  0.00     0.074 A 
ATOM     62  C   UNL A   1      44.662  33.630  28.817  1.00  0.00     0.031 C 
ATOM     63  C   UNL A   1      42.341  34.645  29.352  1.00  0.00     0.031 A 
BRANCH  50  64
ATOM     64  C   UNL A   1      36.311  33.958  30.530  1.00  0.00    -0.014 A 
ATOM     65  C   UNL A   1      35.281  34.278  29.619  1.00  0.00     0.010 A 
ATOM     66  C   UNL A   1      36.023  34.204  31.887  1.00  0.00     0.010 A 
ATOM     67  C   UNL A   1      34.084  34.893  30.023  1.00  0.00     0.020 A 
ATOM     68  C   UNL A   1      34.842  34.841  32.305  1.00  0.00     0.020 A 
ATOM     69  C   UNL A   1      33.882  35.196  31.366  1.00  0.00     0.054 A 
BRANCH  69  70
ATOM     70  S   UNL A   1      32.362  36.045  31.866  1.00  0.00     0.124 S 
ATOM     71  O   UNL A   1      32.870  37.141  32.687  1.00  0.00    -0.237 OA
ATOM     72  O   UNL A   1      31.782  36.433  30.584  1.00  0.00    -0.237 OA
ATOM     73  O   UNL A   1      31.617  35.022  32.599  1.00  0.00    -0.744 OA
ENDBRANCH  69  70
ENDBRANCH  50  64
BRANCH  51  74
ATOM     74  C   UNL A   1      44.585  29.089  28.713  1.00  0.00    -0.014 A 
ATOM     75  C   UNL A   1      45.709  28.322  29.089  1.00  0.00     0.010 A 
ATOM     76  C   UNL A   1      43.715  28.579  27.732  1.00  0.00     0.010 A 
ATOM     77  C   UNL A   1      45.850  27.005  28.649  1.00  0.00     0.020 A 
ATOM     78  C   UNL A   1      43.861  27.257  27.280  1.00  0.00     0.020 A 
ATOM     79  C   UNL A   1      44.882  26.461  27.805  1.00  0.00     0.054 A 
BRANCH  79  80
ATOM     80  S   UNL A   1      44.832  24.650  27.651  1.00  0.00     0.124 S 
ATOM     81  O   UNL A   1      44.167  24.458  26.368  1.00  0.00    -0.237 OA
ATOM     82  O   UNL A   1      46.261  24.325  27.687  1.00  0.00    -0.237 OA
ATOM     83  O   UNL A   1      44.078  24.224  28.824  1.00  0.00    -0.744 OA
ENDBRANCH  79  80
ENDBRANCH  51  74
BRANCH  63  84
ATOM     84  C   UNL A   1      42.482  36.047  28.814  1.00  0.00    -0.014 A 
ATOM     85  C   UNL A   1      43.281  37.036  29.406  1.00  0.00     0.010 A 
ATOM     86  C   UNL A   1      41.892  36.358  27.564  1.00  0.00     0.010 A 
ATOM     87  C   UNL A   1      43.428  38.298  28.815  1.00  0.00     0.020 A 
ATOM     88  C   UNL A   1      42.074  37.594  26.942  1.00  0.00     0.020 A 
ATOM     89  C   UNL A   1      42.819  38.569  27.589  1.00  0.00     0.054 A 
BRANCH  89  90
ATOM     90  S   UNL A   1      43.058  40.186  26.813  1.00  0.00     0.124 S 
ATOM     91  O   UNL A   1      44.145  39.910  25.876  1.00  0.00    -0.237 OA
ATOM     92  O   UNL A   1      41.757  40.451  26.202  1.00  0.00    -0.237 OA
ATOM     93  O   UNL A   1      43.402  41.058  27.933  1.00  0.00    -0.744 OA
ENDBRANCH  89  90
ENDBRANCH  63  84
ENDBRANCH  37  38
ENDBRANCH  29  32
ENDBRANCH  27  28
ENDBRANCH  26  27
ENDBRANCH   1  26
TORSDOF 20
ENDMDL
MODEL 3
REMARK VINA RESULT:     -11.9      1.536      2.452
REMARK SMILES Cc1ccc(C[C@H](C(=O)NCCCCCCNC(=O)c2ccc(-c3c4nc(c(-c5ccc(S(=O)(=O)[O-])cc5)c5ccc([nH]5)c(-c5ccc(S(=O)(=O)[O-])cc5)c5nc(c(-c6ccc(S(=O)(=O)[O-])cc6)c6ccc3[nH]6)C=C5)C=C4)cc2)[C@@H]2CCCC[C@@H]2O)cc1
REMARK SMILES IDX 14 1 13 2 12 3 11 4 10 5 8 6 9 7 7 9 6 10 5 11 1 12 2 13
REMARK SMILES IDX 3 14 88 15 4 16 87 17 80 18 81 19 85 20 82 21 84 22 83 23
REMARK SMILES IDX 86 24 15 26 16 27 17 28 18 29 19 31 20 32 21 33 79 34 22 35
REMARK SMILES IDX 78 36 23 37 24 38 25 39 72 40 26 41 77 42 71 43 73 44 27 45
REMARK SMILES IDX 76 46 70 47 69 48 28 50 58 51 39 52 57 53 40 54 43 55 56 56
REMARK SMILES IDX 74 57 41 58 42 59 55 61 75 62 44 63 29 64 30 65 38 66 31 67
REMARK SMILES IDX 37 68 32 69 33 70 34 71 35 72 36 73 59 74 60 75 68 76 61 77
REMARK SMILES IDX 67 78 62 79 63 80 64 81 65 82 66 83 45 84 46 85 54 86 47 87
REMARK SMILES IDX 53 88 48 89 49 90 50 91 51 92 52 93
REMARK H PARENT 10 8 86 25 17 30 73 49 43 60
REMARK Flexibility Score: inf
ROOT
ATOM      1  C   UNL A   1      33.193  28.327  25.610  1.00  0.00     0.002 C 
ENDROOT
BRANCH   1   2
ATOM      2  C   UNL A   1      31.822  27.659  25.426  1.00  0.00     0.002 C 
BRANCH   2   3
ATOM      3  C   UNL A   1      31.491  26.909  24.087  1.00  0.00     0.021 C 
BRANCH   3   4
ATOM      4  C   UNL A   1      30.864  25.500  24.097  1.00  0.00     0.116 C 
BRANCH   4   5
ATOM      5  N   UNL A   1      30.984  24.732  25.327  1.00  0.00    -0.356 N 
ATOM      6  C   UNL A   1      31.832  23.726  25.699  1.00  0.00     0.223 C 
ATOM      7  O   UNL A   1      31.706  23.377  26.886  1.00  0.00    -0.275 OA
ATOM      8  H   UNL A   1      30.334  24.985  26.021  1.00  0.00     0.163 HD
BRANCH   6   9
ATOM      9  C   UNL A   1      32.827  22.936  24.758  1.00  0.00     0.088 C 
BRANCH   9  10
ATOM     10  C   UNL A   1      32.145  22.115  23.623  1.00  0.00     0.049 C 
BRANCH  10  11
ATOM     11  C   UNL A   1      32.263  20.616  23.738  1.00  0.00    -0.047 A 
ATOM     12  C   UNL A   1      34.126  16.815  23.672  1.00  0.00     0.044 C 
ATOM     13  C   UNL A   1      33.277  18.038  23.767  1.00  0.00    -0.051 A 
ATOM     14  C   UNL A   1      32.633  18.510  22.624  1.00  0.00     0.004 A 
ATOM     15  C   UNL A   1      33.173  18.752  24.965  1.00  0.00     0.004 A 
ATOM     16  C   UNL A   1      32.109  19.796  22.612  1.00  0.00     0.004 A 
ATOM     17  C   UNL A   1      32.648  20.042  24.956  1.00  0.00     0.004 A 
ENDBRANCH  10  11
ENDBRANCH   9  10
BRANCH   9  18
ATOM     18  C   UNL A   1      33.871  23.992  24.143  1.00  0.00     0.030 C 
ATOM     19  C   UNL A   1      34.826  23.525  23.019  1.00  0.00     0.007 C 
ATOM     20  C   UNL A   1      34.736  24.702  25.223  1.00  0.00     0.118 C 
ATOM     21  C   UNL A   1      35.955  22.628  23.516  1.00  0.00     0.001 C 
ATOM     22  C   UNL A   1      35.909  23.845  25.716  1.00  0.00     0.032 C 
ATOM     23  C   UNL A   1      36.785  23.343  24.573  1.00  0.00     0.003 C 
BRANCH  20  24
ATOM     24  O   UNL A   1      33.977  25.107  26.352  1.00  0.00    -0.393 OA
ATOM     25  H   UNL A   1      34.509  25.703  26.903  1.00  0.00     0.210 HD
ENDBRANCH  20  24
ENDBRANCH   9  18
ENDBRANCH   6   9
ENDBRANCH   4   5
ENDBRANCH   3   4
ENDBRANCH   2   3
ENDBRANCH   1   2
BRANCH   1  26
ATOM     26  C   UNL A   1      33.728  28.794  27.001  1.00  0.00     0.021 C 
BRANCH  26  27
ATOM     27  C   UNL A   1      34.141  30.232  27.313  1.00  0.00     0.116 C 
BRANCH  27  28
ATOM     28  N   UNL A   1      35.507  30.603  26.991  1.00  0.00    -0.352 N 
ATOM     29  C   UNL A   1      36.402  30.854  28.038  1.00  0.00     0.251 C 
ATOM     30  H   UNL A   1      35.798  30.677  26.054  1.00  0.00     0.163 HD
ATOM     31  O   UNL A   1      36.273  31.710  28.887  1.00  0.00    -0.269 OA
BRANCH  29  32
ATOM     32  C   UNL A   1      37.254  29.677  28.320  1.00  0.00     0.039 A 
ATOM     33  C   UNL A   1      37.210  28.898  29.476  1.00  0.00     0.014 A 
ATOM     34  C   UNL A   1      38.259  29.503  27.373  1.00  0.00     0.014 A 
ATOM     35  C   UNL A   1      38.294  28.061  29.768  1.00  0.00     0.010 A 
ATOM     36  C   UNL A   1      39.340  28.720  27.684  1.00  0.00     0.010 A 
ATOM     37  C   UNL A   1      39.392  28.058  28.907  1.00  0.00    -0.014 A 
BRANCH  37  38
ATOM     38  C   UNL A   1      40.705  27.492  29.181  1.00  0.00     0.031 A 
ATOM     39  C   UNL A   1      41.005  26.105  28.766  1.00  0.00     0.074 A 
ATOM     40  C   UNL A   1      41.687  28.353  29.537  1.00  0.00     0.049 A 
ATOM     41  N   UNL A   1      41.979  25.395  29.223  1.00  0.00    -0.248 NA
ATOM     42  C   UNL A   1      40.190  25.392  27.785  1.00  0.00     0.031 C 
ATOM     43  C   UNL A   1      43.128  28.117  29.514  1.00  0.00     0.029 A 
ATOM     44  N   UNL A   1      41.574  29.598  30.165  1.00  0.00    -0.354 N 
ATOM     45  C   UNL A   1      42.120  24.308  28.383  1.00  0.00     0.074 A 
ATOM     46  C   UNL A   1      40.915  24.287  27.590  1.00  0.00     0.031 C 
ATOM     47  C   UNL A   1      43.713  28.979  30.367  1.00  0.00     0.029 A 
ATOM     48  C   UNL A   1      42.639  29.660  31.076  1.00  0.00     0.049 A 
ATOM     49  H   UNL A   1      40.889  30.285  30.002  1.00  0.00     0.167 HD
ATOM     50  C   UNL A   1      43.318  23.654  28.328  1.00  0.00     0.031 A 
ATOM     51  C   UNL A   1      42.454  29.612  32.432  1.00  0.00     0.031 A 
ATOM     52  C   UNL A   1      44.257  24.213  29.302  1.00  0.00     0.049 A 
ATOM     53  C   UNL A   1      43.108  28.398  33.064  1.00  0.00     0.074 A 
ATOM     54  C   UNL A   1      45.314  25.098  29.174  1.00  0.00     0.029 A 
ATOM     55  N   UNL A   1      43.959  24.144  30.659  1.00  0.00    -0.354 N 
ATOM     56  N   UNL A   1      43.448  27.328  32.399  1.00  0.00    -0.248 NA
ATOM     57  C   UNL A   1      43.423  28.287  34.486  1.00  0.00     0.031 C 
ATOM     58  C   UNL A   1      45.566  25.660  30.455  1.00  0.00     0.029 A 
ATOM     59  C   UNL A   1      44.694  25.082  31.362  1.00  0.00     0.049 A 
ATOM     60  H   UNL A   1      43.318  23.516  31.063  1.00  0.00     0.167 HD
ATOM     61  C   UNL A   1      44.037  26.423  33.241  1.00  0.00     0.074 A 
ATOM     62  C   UNL A   1      43.992  27.068  34.541  1.00  0.00     0.031 C 
ATOM     63  C   UNL A   1      44.522  25.225  32.801  1.00  0.00     0.031 A 
BRANCH  50  64
ATOM     64  C   UNL A   1      43.751  22.739  27.194  1.00  0.00    -0.014 A 
ATOM     65  C   UNL A   1      42.887  21.705  26.772  1.00  0.00     0.010 A 
ATOM     66  C   UNL A   1      45.000  22.793  26.544  1.00  0.00     0.010 A 
ATOM     67  C   UNL A   1      43.280  20.731  25.838  1.00  0.00     0.020 A 
ATOM     68  C   UNL A   1      45.417  21.814  25.627  1.00  0.00     0.020 A 
ATOM     69  C   UNL A   1      44.557  20.777  25.289  1.00  0.00     0.054 A 
BRANCH  69  70
ATOM     70  S   UNL A   1      45.073  19.480  24.133  1.00  0.00     0.124 S 
ATOM     71  O   UNL A   1      44.523  19.951  22.865  1.00  0.00    -0.237 OA
ATOM     72  O   UNL A   1      46.528  19.521  24.244  1.00  0.00    -0.237 OA
ATOM     73  O   UNL A   1      44.445  18.270  24.665  1.00  0.00    -0.744 OA
ENDBRANCH  69  70
ENDBRANCH  50  64
BRANCH  51  74
ATOM     74  C   UNL A   1      41.185  30.243  32.903  1.00  0.00    -0.014 A 
ATOM     75  C   UNL A   1      40.213  29.388  33.464  1.00  0.00     0.010 A 
ATOM     76  C   UNL A   1      41.136  31.616  33.206  1.00  0.00     0.010 A 
ATOM     77  C   UNL A   1      39.345  29.852  34.454  1.00  0.00     0.020 A 
ATOM     78  C   UNL A   1      40.256  32.088  34.193  1.00  0.00     0.020 A 
ATOM     79  C   UNL A   1      39.426  31.184  34.861  1.00  0.00     0.054 A 
BRANCH  79  80
ATOM     80  S   UNL A   1      38.646  31.621  36.445  1.00  0.00     0.124 S 
ATOM     81  O   UNL A   1      37.832  32.776  36.091  1.00  0.00    -0.237 OA
ATOM     82  O   UNL A   1      37.914  30.388  36.747  1.00  0.00    -0.237 OA
ATOM     83  O   UNL A   1      39.778  31.891  37.324  1.00  0.00    -0.744 OA
ENDBRANCH  79  80
ENDBRANCH  51  74
BRANCH  63  84
ATOM     84  C   UNL A   1      44.971  24.085  33.681  1.00  0.00    -0.014 A 
ATOM     85  C   UNL A   1      44.144  23.018  34.062  1.00  0.00     0.010 A 
ATOM     86  C   UNL A   1      46.340  23.998  34.036  1.00  0.00     0.010 A 
ATOM     87  C   UNL A   1      44.643  21.950  34.820  1.00  0.00     0.020 A 
ATOM     88  C   UNL A   1      46.858  22.914  34.747  1.00  0.00     0.020 A 
ATOM     89  C   UNL A   1      45.996  21.909  35.161  1.00  0.00     0.054 A 
BRANCH  89  90
ATOM     90  S   UNL A   1      46.637  20.500  36.098  1.00  0.00     0.124 S 
ATOM     91  O   UNL A   1      45.842  20.568  37.321  1.00  0.00    -0.237 OA
ATOM     92  O   UNL A   1      46.344  19.366  35.223  1.00  0.00    -0.237 OA
ATOM     93  O   UNL A   1      48.057  20.806  36.253  1.00  0.00    -0.744 OA
ENDBRANCH  89  90
ENDBRANCH  63  84
ENDBRANCH  37  38
ENDBRANCH  29  32
ENDBRANCH  27  28
ENDBRANCH  26  27
ENDBRANCH   1  26
TORSDOF 20
ENDMDL
