MODEL 1
REMARK VINA RESULT:     -11.5      0.000      0.000
REMARK SMILES COc1ccc(Cl)cc1C(=O)Nc1ccc(OCC(=O)NCCCCCCNC(=O)c2ccc(-c3c4nc(c(-c5ccc(S(=O)(=O)[O-])cc5)c5ccc([nH]5)c(-c5ccc(S(=O)(=O)[O-])cc5)c5nc(c(-c6ccc(S(=O)(=O)[O-])cc6)c6ccc3[nH]6)C=C5)C=C4)cc2)cc1
REMARK SMILES IDX 23 1 22 2 21 3 19 4 20 5 18 7 17 8 16 9 13 10 14 11 92 12
REMARK SMILES IDX 15 13 91 14 12 15 10 16 11 17 9 19 3 20 4 21 5 22 8 23 6 24
REMARK SMILES IDX 7 25 2 26 1 27 24 28 25 29 26 30 27 31 28 32 29 33 30 35
REMARK SMILES IDX 31 36 32 37 90 38 33 39 89 40 34 41 35 42 36 43 83 44 37 45
REMARK SMILES IDX 88 46 82 47 84 48 38 49 87 50 81 51 80 52 39 54 69 55 50 56
REMARK SMILES IDX 68 57 51 58 54 59 67 60 85 61 52 62 53 63 66 65 86 66 55 67
REMARK SMILES IDX 40 68 41 69 49 70 42 71 48 72 43 73 44 74 45 75 46 76 47 77
REMARK SMILES IDX 70 78 71 79 79 80 72 81 78 82 73 83 74 84 75 85 76 86 77 87
REMARK SMILES IDX 56 88 57 89 65 90 58 91 64 92 59 93 60 94 61 95 62 96 63 97
REMARK H PARENT 21 6 12 18 28 34 84 53 54 64
REMARK Flexibility Score: inf
ROOT
ATOM      1  C   UNL A   1      35.924  21.262  24.578  1.00  0.00     0.021 C 
ENDROOT
BRANCH   1   2
ATOM      2  C   UNL A   1      35.050  21.178  25.838  1.00  0.00     0.116 C 
BRANCH   2   3
ATOM      3  N   UNL A   1      33.878  20.335  25.668  1.00  0.00    -0.353 N 
ATOM      4  C   UNL A   1      32.671  20.607  25.086  1.00  0.00     0.257 C 
ATOM      5  O   UNL A   1      31.820  19.711  25.090  1.00  0.00    -0.271 OA
ATOM      6  H   UNL A   1      33.968  19.424  26.029  1.00  0.00     0.163 HD
BRANCH   4   7
ATOM      7  C   UNL A   1      32.386  21.960  24.403  1.00  0.00     0.329 C 
BRANCH   7   8
ATOM      8  O   UNL A   1      31.438  22.867  24.938  1.00  0.00    -0.484 OA
BRANCH   8   9
ATOM      9  C   UNL A   1      31.888  24.029  25.496  1.00  0.00     0.120 A 
ATOM     10  C   UNL A   1      32.507  26.676  26.182  1.00  0.00     0.041 A 
ATOM     11  C   UNL A   1      31.183  26.229  26.228  1.00  0.00     0.030 A 
ATOM     12  C   UNL A   1      33.532  25.753  25.978  1.00  0.00     0.030 A 
ATOM     13  C   UNL A   1      30.875  24.917  25.863  1.00  0.00     0.048 A 
ATOM     14  C   UNL A   1      33.220  24.416  25.656  1.00  0.00     0.048 A 
BRANCH  10  15
ATOM     15  N   UNL A   1      32.714  28.050  26.342  1.00  0.00    -0.322 N 
ATOM     16  C   UNL A   1      32.519  29.143  25.525  1.00  0.00     0.259 C 
ATOM     17  O   UNL A   1      33.082  30.189  25.873  1.00  0.00    -0.269 OA
ATOM     18  H   UNL A   1      33.078  28.287  27.225  1.00  0.00     0.170 HD
BRANCH  16  19
ATOM     19  C   UNL A   1      31.600  29.228  24.341  1.00  0.00     0.083 A 
ATOM     20  C   UNL A   1      31.606  28.406  23.206  1.00  0.00     0.131 A 
ATOM     21  C   UNL A   1      30.603  28.524  22.222  1.00  0.00     0.049 A 
ATOM     22  C   UNL A   1      29.563  29.430  22.365  1.00  0.00     0.024 A 
ATOM     23  C   UNL A   1      30.512  30.119  24.479  1.00  0.00     0.038 A 
ATOM     24  C   UNL A   1      29.509  30.208  23.508  1.00  0.00     0.042 A 
ATOM     25  Cl  UNL A   1      28.163  31.252  23.748  1.00  0.00    -0.084 Cl
BRANCH  20  26
ATOM     26  O   UNL A   1      32.506  27.385  23.097  1.00  0.00    -0.496 OA
ATOM     27  C   UNL A   1      33.641  27.771  22.333  1.00  0.00     0.278 C 
ENDBRANCH  20  26
ENDBRANCH  16  19
ENDBRANCH  10  15
ENDBRANCH   8   9
ENDBRANCH   7   8
ENDBRANCH   4   7
ENDBRANCH   2   3
ENDBRANCH   1   2
BRANCH   1  28
ATOM     28  C   UNL A   1      36.488  22.650  24.230  1.00  0.00     0.002 C 
BRANCH  28  29
ATOM     29  C   UNL A   1      37.102  23.440  25.387  1.00  0.00     0.002 C 
BRANCH  29  30
ATOM     30  C   UNL A   1      38.318  22.795  26.047  1.00  0.00     0.021 C 
BRANCH  30  31
ATOM     31  C   UNL A   1      39.237  23.757  26.794  1.00  0.00     0.116 C 
BRANCH  31  32
ATOM     32  N   UNL A   1      40.420  24.111  26.027  1.00  0.00    -0.352 N 
ATOM     33  C   UNL A   1      41.178  25.260  26.065  1.00  0.00     0.251 C 
ATOM     34  H   UNL A   1      40.726  23.428  25.386  1.00  0.00     0.163 HD
ATOM     35  O   UNL A   1      42.041  25.453  25.219  1.00  0.00    -0.269 OA
BRANCH  33  36
ATOM     36  C   UNL A   1      40.925  26.275  27.114  1.00  0.00     0.039 A 
ATOM     37  C   UNL A   1      40.118  25.937  28.203  1.00  0.00     0.014 A 
ATOM     38  C   UNL A   1      41.488  27.552  27.031  1.00  0.00     0.014 A 
ATOM     39  C   UNL A   1      39.940  26.851  29.246  1.00  0.00     0.010 A 
ATOM     40  C   UNL A   1      41.373  28.433  28.106  1.00  0.00     0.010 A 
ATOM     41  C   UNL A   1      40.603  28.090  29.227  1.00  0.00    -0.014 A 
BRANCH  41  42
ATOM     42  C   UNL A   1      40.522  29.029  30.379  1.00  0.00     0.031 A 
ATOM     43  C   UNL A   1      41.446  28.874  31.556  1.00  0.00     0.074 A 
ATOM     44  C   UNL A   1      39.571  29.986  30.392  1.00  0.00     0.049 A 
ATOM     45  N   UNL A   1      41.483  29.558  32.671  1.00  0.00    -0.248 NA
ATOM     46  C   UNL A   1      42.445  27.796  31.479  1.00  0.00     0.031 C 
ATOM     47  C   UNL A   1      38.596  30.227  29.326  1.00  0.00     0.029 A 
ATOM     48  N   UNL A   1      39.265  30.932  31.339  1.00  0.00    -0.354 N 
ATOM     49  C   UNL A   1      42.499  28.991  33.430  1.00  0.00     0.074 A 
ATOM     50  C   UNL A   1      43.015  27.871  32.673  1.00  0.00     0.031 C 
ATOM     51  C   UNL A   1      37.826  31.274  29.662  1.00  0.00     0.029 A 
ATOM     52  C   UNL A   1      38.215  31.747  30.987  1.00  0.00     0.049 A 
ATOM     53  H   UNL A   1      39.752  31.020  32.189  1.00  0.00     0.167 HD
ATOM     54  C   UNL A   1      42.977  29.378  34.638  1.00  0.00     0.031 A 
ATOM     55  C   UNL A   1      37.621  32.756  31.656  1.00  0.00     0.031 A 
ATOM     56  C   UNL A   1      42.457  30.487  35.395  1.00  0.00     0.049 A 
ATOM     57  C   UNL A   1      38.132  33.132  33.021  1.00  0.00     0.074 A 
ATOM     58  C   UNL A   1      42.897  30.981  36.610  1.00  0.00     0.029 A 
ATOM     59  N   UNL A   1      41.377  31.269  35.014  1.00  0.00    -0.354 N 
ATOM     60  N   UNL A   1      39.134  32.621  33.695  1.00  0.00    -0.248 NA
ATOM     61  C   UNL A   1      37.434  34.224  33.712  1.00  0.00     0.031 C 
ATOM     62  C   UNL A   1      42.043  32.021  36.994  1.00  0.00     0.029 A 
ATOM     63  C   UNL A   1      41.114  32.221  35.985  1.00  0.00     0.049 A 
ATOM     64  H   UNL A   1      40.871  31.164  34.176  1.00  0.00     0.167 HD
ATOM     65  C   UNL A   1      39.204  33.348  34.878  1.00  0.00     0.074 A 
ATOM     66  C   UNL A   1      38.153  34.343  34.819  1.00  0.00     0.031 C 
ATOM     67  C   UNL A   1      40.060  33.203  35.920  1.00  0.00     0.031 A 
BRANCH  54  68
ATOM     68  C   UNL A   1      44.118  28.580  35.220  1.00  0.00    -0.014 A 
ATOM     69  C   UNL A   1      45.457  28.927  34.958  1.00  0.00     0.010 A 
ATOM     70  C   UNL A   1      43.850  27.482  36.059  1.00  0.00     0.010 A 
ATOM     71  C   UNL A   1      46.503  28.160  35.477  1.00  0.00     0.020 A 
ATOM     72  C   UNL A   1      44.895  26.732  36.607  1.00  0.00     0.020 A 
ATOM     73  C   UNL A   1      46.214  27.063  36.294  1.00  0.00     0.054 A 
BRANCH  73  74
ATOM     74  S   UNL A   1      47.593  26.085  36.952  1.00  0.00     0.124 S 
ATOM     75  O   UNL A   1      48.484  26.006  35.796  1.00  0.00    -0.237 OA
ATOM     76  O   UNL A   1      48.072  26.911  38.057  1.00  0.00    -0.237 OA
ATOM     77  O   UNL A   1      46.969  24.824  37.344  1.00  0.00    -0.744 OA
ENDBRANCH  73  74
ENDBRANCH  54  68
BRANCH  55  78
ATOM     78  C   UNL A   1      36.486  33.494  31.036  1.00  0.00    -0.014 A 
ATOM     79  C   UNL A   1      36.523  33.845  29.676  1.00  0.00     0.010 A 
ATOM     80  C   UNL A   1      35.355  33.839  31.799  1.00  0.00     0.010 A 
ATOM     81  C   UNL A   1      35.459  34.540  29.092  1.00  0.00     0.020 A 
ATOM     82  C   UNL A   1      34.276  34.507  31.212  1.00  0.00     0.020 A 
ATOM     83  C   UNL A   1      34.339  34.861  29.863  1.00  0.00     0.054 A 
BRANCH  83  84
ATOM     84  S   UNL A   1      32.946  35.711  29.070  1.00  0.00     0.124 S 
ATOM     85  O   UNL A   1      32.435  34.682  28.170  1.00  0.00    -0.237 OA
ATOM     86  O   UNL A   1      32.092  36.041  30.207  1.00  0.00    -0.237 OA
ATOM     87  O   UNL A   1      33.572  36.859  28.418  1.00  0.00    -0.744 OA
ENDBRANCH  83  84
ENDBRANCH  55  78
BRANCH  67  88
ATOM     88  C   UNL A   1      39.918  34.162  37.074  1.00  0.00    -0.014 A 
ATOM     89  C   UNL A   1      40.436  35.467  37.007  1.00  0.00     0.010 A 
ATOM     90  C   UNL A   1      39.204  33.767  38.220  1.00  0.00     0.010 A 
ATOM     91  C   UNL A   1      40.266  36.351  38.075  1.00  0.00     0.020 A 
ATOM     92  C   UNL A   1      39.005  34.658  39.278  1.00  0.00     0.020 A 
ATOM     93  C   UNL A   1      39.548  35.942  39.204  1.00  0.00     0.054 A 
BRANCH  93  94
ATOM     94  S   UNL A   1      39.297  37.127  40.553  1.00  0.00     0.124 S 
ATOM     95  O   UNL A   1      38.383  36.400  41.431  1.00  0.00    -0.237 OA
ATOM     96  O   UNL A   1      40.650  37.313  41.071  1.00  0.00    -0.237 OA
ATOM     97  O   UNL A   1      38.723  38.296  39.888  1.00  0.00    -0.744 OA
ENDBRANCH  93  94
ENDBRANCH  67  88
ENDBRANCH  41  42
ENDBRANCH  33  36
ENDBRANCH  31  32
ENDBRANCH  30  31
ENDBRANCH  29  30
ENDBRANCH  28  29
ENDBRANCH   1  28
TORSDOF 21
ENDMDL
MODEL 2
REMARK VINA RESULT:     -11.1      1.510      8.163
REMARK SMILES COc1ccc(Cl)cc1C(=O)Nc1ccc(OCC(=O)NCCCCCCNC(=O)c2ccc(-c3c4nc(c(-c5ccc(S(=O)(=O)[O-])cc5)c5ccc([nH]5)c(-c5ccc(S(=O)(=O)[O-])cc5)c5nc(c(-c6ccc(S(=O)(=O)[O-])cc6)c6ccc3[nH]6)C=C5)C=C4)cc2)cc1
REMARK SMILES IDX 23 1 22 2 21 3 19 4 20 5 18 7 17 8 16 9 13 10 14 11 92 12
REMARK SMILES IDX 15 13 91 14 12 15 10 16 11 17 9 19 3 20 4 21 5 22 8 23 6 24
REMARK SMILES IDX 7 25 2 26 1 27 24 28 25 29 26 30 27 31 28 32 29 33 30 35
REMARK SMILES IDX 31 36 32 37 90 38 33 39 89 40 34 41 35 42 36 43 83 44 37 45
REMARK SMILES IDX 88 46 82 47 84 48 38 49 87 50 81 51 80 52 39 54 69 55 50 56
REMARK SMILES IDX 68 57 51 58 54 59 67 60 85 61 52 62 53 63 66 65 86 66 55 67
REMARK SMILES IDX 40 68 41 69 49 70 42 71 48 72 43 73 44 74 45 75 46 76 47 77
REMARK SMILES IDX 70 78 71 79 79 80 72 81 78 82 73 83 74 84 75 85 76 86 77 87
REMARK SMILES IDX 56 88 57 89 65 90 58 91 64 92 59 93 60 94 61 95 62 96 63 97
REMARK H PARENT 21 6 12 18 28 34 84 53 54 64
REMARK Flexibility Score: inf
ROOT
ATOM      1  C   UNL A   1      36.427  21.412  24.600  1.00  0.00     0.021 C 
ENDROOT
BRANCH   1   2
ATOM      2  C   UNL A   1      35.332  21.194  25.655  1.00  0.00     0.116 C 
BRANCH   2   3
ATOM      3  N   UNL A   1      34.660  19.910  25.528  1.00  0.00    -0.353 N 
ATOM      4  C   UNL A   1      33.540  19.567  24.825  1.00  0.00     0.257 C 
ATOM      5  O   UNL A   1      33.155  18.395  24.901  1.00  0.00    -0.271 OA
ATOM      6  H   UNL A   1      35.079  19.173  26.027  1.00  0.00     0.163 HD
BRANCH   4   7
ATOM      7  C   UNL A   1      32.800  20.581  23.928  1.00  0.00     0.329 C 
BRANCH   7   8
ATOM      8  O   UNL A   1      32.215  21.751  24.472  1.00  0.00    -0.484 OA
BRANCH   8   9
ATOM      9  C   UNL A   1      32.267  22.906  23.744  1.00  0.00     0.120 A 
ATOM     10  C   UNL A   1      32.616  25.508  22.761  1.00  0.00     0.041 A 
ATOM     11  C   UNL A   1      33.726  24.732  23.107  1.00  0.00     0.030 A 
ATOM     12  C   UNL A   1      31.354  24.916  22.730  1.00  0.00     0.030 A 
ATOM     13  C   UNL A   1      33.548  23.445  23.618  1.00  0.00     0.048 A 
ATOM     14  C   UNL A   1      31.182  23.599  23.202  1.00  0.00     0.048 A 
BRANCH  10  15
ATOM     15  N   UNL A   1      32.854  26.856  22.471  1.00  0.00    -0.322 N 
ATOM     16  C   UNL A   1      32.700  28.025  23.184  1.00  0.00     0.259 C 
ATOM     17  O   UNL A   1      32.729  29.072  22.525  1.00  0.00    -0.269 OA
ATOM     18  H   UNL A   1      33.207  26.999  21.563  1.00  0.00     0.170 HD
BRANCH  16  19
ATOM     19  C   UNL A   1      32.628  28.164  24.677  1.00  0.00     0.083 A 
ATOM     20  C   UNL A   1      31.609  27.702  25.521  1.00  0.00     0.131 A 
ATOM     21  C   UNL A   1      31.732  27.796  26.923  1.00  0.00     0.049 A 
ATOM     22  C   UNL A   1      32.876  28.317  27.507  1.00  0.00     0.024 A 
ATOM     23  C   UNL A   1      33.797  28.658  25.298  1.00  0.00     0.038 A 
ATOM     24  C   UNL A   1      33.916  28.724  26.690  1.00  0.00     0.042 A 
ATOM     25  Cl  UNL A   1      35.384  29.263  27.408  1.00  0.00    -0.084 Cl
BRANCH  20  26
ATOM     26  O   UNL A   1      30.539  27.028  25.007  1.00  0.00    -0.496 OA
ATOM     27  C   UNL A   1      30.133  25.967  25.863  1.00  0.00     0.278 C 
ENDBRANCH  20  26
ENDBRANCH  16  19
ENDBRANCH  10  15
ENDBRANCH   8   9
ENDBRANCH   7   8
ENDBRANCH   4   7
ENDBRANCH   2   3
ENDBRANCH   1   2
BRANCH   1  28
ATOM     28  C   UNL A   1      37.418  22.556  24.872  1.00  0.00     0.002 C 
BRANCH  28  29
ATOM     29  C   UNL A   1      38.570  22.239  25.827  1.00  0.00     0.002 C 
BRANCH  29  30
ATOM     30  C   UNL A   1      38.998  23.387  26.739  1.00  0.00     0.021 C 
BRANCH  30  31
ATOM     31  C   UNL A   1      40.481  23.410  27.100  1.00  0.00     0.116 C 
BRANCH  31  32
ATOM     32  N   UNL A   1      41.293  24.064  26.087  1.00  0.00    -0.352 N 
ATOM     33  C   UNL A   1      41.662  25.386  25.980  1.00  0.00     0.251 C 
ATOM     34  H   UNL A   1      41.630  23.476  25.373  1.00  0.00     0.163 HD
ATOM     35  O   UNL A   1      42.208  25.790  24.961  1.00  0.00    -0.269 OA
BRANCH  33  36
ATOM     36  C   UNL A   1      41.371  26.326  27.088  1.00  0.00     0.039 A 
ATOM     37  C   UNL A   1      40.325  26.032  27.968  1.00  0.00     0.014 A 
ATOM     38  C   UNL A   1      42.129  27.486  27.268  1.00  0.00     0.014 A 
ATOM     39  C   UNL A   1      40.092  26.859  29.070  1.00  0.00     0.010 A 
ATOM     40  C   UNL A   1      41.945  28.267  28.407  1.00  0.00     0.010 A 
ATOM     41  C   UNL A   1      40.929  27.959  29.324  1.00  0.00    -0.014 A 
BRANCH  41  42
ATOM     42  C   UNL A   1      40.772  28.784  30.553  1.00  0.00     0.031 A 
ATOM     43  C   UNL A   1      39.729  29.865  30.617  1.00  0.00     0.074 A 
ATOM     44  C   UNL A   1      41.614  28.601  31.591  1.00  0.00     0.049 A 
ATOM     45  N   UNL A   1      39.485  30.721  31.577  1.00  0.00    -0.248 NA
ATOM     46  C   UNL A   1      38.859  30.020  29.440  1.00  0.00     0.031 C 
ATOM     47  C   UNL A   1      42.687  27.604  31.646  1.00  0.00     0.029 A 
ATOM     48  N   UNL A   1      41.704  29.249  32.797  1.00  0.00    -0.354 N 
ATOM     49  C   UNL A   1      38.442  31.518  31.120  1.00  0.00     0.074 A 
ATOM     50  C   UNL A   1      38.139  31.082  29.774  1.00  0.00     0.031 C 
ATOM     51  C   UNL A   1      43.301  27.684  32.836  1.00  0.00     0.029 A 
ATOM     52  C   UNL A   1      42.705  28.769  33.609  1.00  0.00     0.049 A 
ATOM     53  H   UNL A   1      41.108  29.987  33.057  1.00  0.00     0.167 HD
ATOM     54  C   UNL A   1      37.781  32.509  31.766  1.00  0.00     0.031 A 
ATOM     55  C   UNL A   1      43.107  29.161  34.835  1.00  0.00     0.031 A 
ATOM     56  C   UNL A   1      38.090  32.948  33.103  1.00  0.00     0.049 A 
ATOM     57  C   UNL A   1      42.395  30.301  35.511  1.00  0.00     0.074 A 
ATOM     58  C   UNL A   1      37.455  33.918  33.858  1.00  0.00     0.029 A 
ATOM     59  N   UNL A   1      39.127  32.452  33.880  1.00  0.00    -0.354 N 
ATOM     60  N   UNL A   1      41.372  31.002  35.085  1.00  0.00    -0.248 NA
ATOM     61  C   UNL A   1      42.889  30.699  36.836  1.00  0.00     0.031 C 
ATOM     62  C   UNL A   1      38.147  34.053  35.066  1.00  0.00     0.029 A 
ATOM     63  C   UNL A   1      39.170  33.119  35.093  1.00  0.00     0.049 A 
ATOM     64  H   UNL A   1      39.741  31.733  33.609  1.00  0.00     0.167 HD
ATOM     65  C   UNL A   1      41.083  31.907  36.101  1.00  0.00     0.074 A 
ATOM     66  C   UNL A   1      42.029  31.651  37.168  1.00  0.00     0.031 C 
ATOM     67  C   UNL A   1      40.121  32.862  36.146  1.00  0.00     0.031 A 
BRANCH  54  68
ATOM     68  C   UNL A   1      36.662  33.194  31.023  1.00  0.00    -0.014 A 
ATOM     69  C   UNL A   1      36.928  34.089  29.970  1.00  0.00     0.010 A 
ATOM     70  C   UNL A   1      35.323  32.924  31.365  1.00  0.00     0.010 A 
ATOM     71  C   UNL A   1      35.883  34.742  29.312  1.00  0.00     0.020 A 
ATOM     72  C   UNL A   1      34.273  33.551  30.687  1.00  0.00     0.020 A 
ATOM     73  C   UNL A   1      34.561  34.472  29.679  1.00  0.00     0.054 A 
BRANCH  73  74
ATOM     74  S   UNL A   1      33.225  35.336  28.808  1.00  0.00     0.124 S 
ATOM     75  O   UNL A   1      33.972  36.211  27.906  1.00  0.00    -0.237 OA
ATOM     76  O   UNL A   1      32.503  34.241  28.164  1.00  0.00    -0.237 OA
ATOM     77  O   UNL A   1      32.497  36.017  29.875  1.00  0.00    -0.744 OA
ENDBRANCH  73  74
ENDBRANCH  54  68
BRANCH  55  78
ATOM     78  C   UNL A   1      44.232  28.457  35.510  1.00  0.00    -0.014 A 
ATOM     79  C   UNL A   1      43.983  27.348  36.338  1.00  0.00     0.010 A 
ATOM     80  C   UNL A   1      45.560  28.882  35.320  1.00  0.00     0.010 A 
ATOM     81  C   UNL A   1      45.038  26.686  36.975  1.00  0.00     0.020 A 
ATOM     82  C   UNL A   1      46.620  28.204  35.930  1.00  0.00     0.020 A 
ATOM     83  C   UNL A   1      46.350  27.115  36.762  1.00  0.00     0.054 A 
BRANCH  83  84
ATOM     84  S   UNL A   1      47.707  26.205  37.552  1.00  0.00     0.124 S 
ATOM     85  O   UNL A   1      47.319  26.242  38.959  1.00  0.00    -0.237 OA
ATOM     86  O   UNL A   1      47.625  24.898  36.906  1.00  0.00    -0.237 OA
ATOM     87  O   UNL A   1      48.891  26.988  37.207  1.00  0.00    -0.744 OA
ENDBRANCH  83  84
ENDBRANCH  55  78
BRANCH  67  88
ATOM     88  C   UNL A   1      40.022  33.690  37.402  1.00  0.00    -0.014 A 
ATOM     89  C   UNL A   1      40.730  34.896  37.538  1.00  0.00     0.010 A 
ATOM     90  C   UNL A   1      39.160  33.281  38.436  1.00  0.00     0.010 A 
ATOM     91  C   UNL A   1      40.600  35.666  38.698  1.00  0.00     0.020 A 
ATOM     92  C   UNL A   1      39.003  34.063  39.584  1.00  0.00     0.020 A 
ATOM     93  C   UNL A   1      39.734  35.245  39.712  1.00  0.00     0.054 A 
BRANCH  93  94
ATOM     94  S   UNL A   1      39.543  36.290  41.183  1.00  0.00     0.124 S 
ATOM     95  O   UNL A   1      40.902  36.787  41.382  1.00  0.00    -0.237 OA
ATOM     96  O   UNL A   1      38.568  37.285  40.742  1.00  0.00    -0.237 OA
ATOM     97  O   UNL A   1      39.062  35.365  42.207  1.00  0.00    -0.744 OA
ENDBRANCH  93  94
ENDBRANCH  67  88
ENDBRANCH  41  42
ENDBRANCH  33  36
ENDBRANCH  31  32
ENDBRANCH  30  31
ENDBRANCH  29  30
ENDBRANCH  28  29
ENDBRANCH   1  28
TORSDOF 21
ENDMDL
MODEL 3
REMARK VINA RESULT:     -10.7      6.133      7.881
REMARK SMILES COc1ccc(Cl)cc1C(=O)Nc1ccc(OCC(=O)NCCCCCCNC(=O)c2ccc(-c3c4nc(c(-c5ccc(S(=O)(=O)[O-])cc5)c5ccc([nH]5)c(-c5ccc(S(=O)(=O)[O-])cc5)c5nc(c(-c6ccc(S(=O)(=O)[O-])cc6)c6ccc3[nH]6)C=C5)C=C4)cc2)cc1
REMARK SMILES IDX 23 1 22 2 21 3 19 4 20 5 18 7 17 8 16 9 13 10 14 11 92 12
REMARK SMILES IDX 15 13 91 14 12 15 10 16 11 17 9 19 3 20 4 21 5 22 8 23 6 24
REMARK SMILES IDX 7 25 2 26 1 27 24 28 25 29 26 30 27 31 28 32 29 33 30 35
REMARK SMILES IDX 31 36 32 37 90 38 33 39 89 40 34 41 35 42 36 43 83 44 37 45
REMARK SMILES IDX 88 46 82 47 84 48 38 49 87 50 81 51 80 52 39 54 69 55 50 56
REMARK SMILES IDX 68 57 51 58 54 59 67 60 85 61 52 62 53 63 66 65 86 66 55 67
REMARK SMILES IDX 40 68 41 69 49 70 42 71 48 72 43 73 44 74 45 75 46 76 47 77
REMARK SMILES IDX 70 78 71 79 79 80 72 81 78 82 73 83 74 84 75 85 76 86 77 87
REMARK SMILES IDX 56 88 57 89 65 90 58 91 64 92 59 93 60 94 61 95 62 96 63 97
REMARK H PARENT 21 6 12 18 28 34 84 53 54 64
REMARK Flexibility Score: inf
ROOT
ATOM      1  C   UNL A   1      36.064  21.837  24.429  1.00  0.00     0.021 C 
ENDROOT
BRANCH   1   2
ATOM      2  C   UNL A   1      35.388  20.862  25.405  1.00  0.00     0.116 C 
BRANCH   2   3
ATOM      3  N   UNL A   1      35.087  19.570  24.809  1.00  0.00    -0.353 N 
ATOM      4  C   UNL A   1      33.894  18.916  24.678  1.00  0.00     0.257 C 
ATOM      5  O   UNL A   1      33.911  17.800  24.145  1.00  0.00    -0.271 OA
ATOM      6  H   UNL A   1      35.865  19.092  24.443  1.00  0.00     0.163 HD
BRANCH   4   7
ATOM      7  C   UNL A   1      32.564  19.552  25.130  1.00  0.00     0.329 C 
BRANCH   7   8
ATOM      8  O   UNL A   1      32.540  20.783  25.831  1.00  0.00    -0.484 OA
BRANCH   8   9
ATOM      9  C   UNL A   1      32.111  21.901  25.174  1.00  0.00     0.120 A 
ATOM     10  C   UNL A   1      30.706  24.088  24.122  1.00  0.00     0.041 A 
ATOM     11  C   UNL A   1      30.988  24.024  25.490  1.00  0.00     0.030 A 
ATOM     12  C   UNL A   1      31.290  23.157  23.263  1.00  0.00     0.030 A 
ATOM     13  C   UNL A   1      31.666  22.923  26.015  1.00  0.00     0.048 A 
ATOM     14  C   UNL A   1      32.016  22.071  23.791  1.00  0.00     0.048 A 
BRANCH  10  15
ATOM     15  N   UNL A   1      29.835  25.099  23.703  1.00  0.00    -0.322 N 
ATOM     16  C   UNL A   1      29.870  26.475  23.774  1.00  0.00     0.259 C 
ATOM     17  O   UNL A   1      28.798  27.057  23.570  1.00  0.00    -0.269 OA
ATOM     18  H   UNL A   1      29.024  24.754  23.266  1.00  0.00     0.170 HD
BRANCH  16  19
ATOM     19  C   UNL A   1      31.088  27.335  23.947  1.00  0.00     0.083 A 
ATOM     20  C   UNL A   1      32.249  27.323  23.161  1.00  0.00     0.131 A 
ATOM     21  C   UNL A   1      33.271  28.275  23.364  1.00  0.00     0.049 A 
ATOM     22  C   UNL A   1      33.141  29.269  24.321  1.00  0.00     0.024 A 
ATOM     23  C   UNL A   1      30.967  28.379  24.891  1.00  0.00     0.038 A 
ATOM     24  C   UNL A   1      31.975  29.332  25.065  1.00  0.00     0.042 A 
ATOM     25  Cl  UNL A   1      31.758  30.630  26.173  1.00  0.00    -0.084 Cl
BRANCH  20  26
ATOM     26  O   UNL A   1      32.355  26.476  22.096  1.00  0.00    -0.496 OA
ATOM     27  C   UNL A   1      33.524  25.672  22.185  1.00  0.00     0.278 C 
ENDBRANCH  20  26
ENDBRANCH  16  19
ENDBRANCH  10  15
ENDBRANCH   8   9
ENDBRANCH   7   8
ENDBRANCH   4   7
ENDBRANCH   2   3
ENDBRANCH   1   2
BRANCH   1  28
ATOM     28  C   UNL A   1      37.461  22.343  24.827  1.00  0.00     0.002 C 
BRANCH  28  29
ATOM     29  C   UNL A   1      38.423  21.297  25.392  1.00  0.00     0.002 C 
BRANCH  29  30
ATOM     30  C   UNL A   1      39.643  21.857  26.120  1.00  0.00     0.021 C 
BRANCH  30  31
ATOM     31  C   UNL A   1      40.369  20.866  27.026  1.00  0.00     0.116 C 
BRANCH  31  32
ATOM     32  N   UNL A   1      41.325  20.044  26.302  1.00  0.00    -0.352 N 
ATOM     33  C   UNL A   1      42.544  20.389  25.762  1.00  0.00     0.251 C 
ATOM     34  H   UNL A   1      41.064  19.102  26.181  1.00  0.00     0.163 HD
ATOM     35  O   UNL A   1      43.136  19.602  25.034  1.00  0.00    -0.269 OA
BRANCH  33  36
ATOM     36  C   UNL A   1      43.123  21.724  26.040  1.00  0.00     0.039 A 
ATOM     37  C   UNL A   1      43.098  22.695  25.034  1.00  0.00     0.014 A 
ATOM     38  C   UNL A   1      43.681  22.023  27.286  1.00  0.00     0.014 A 
ATOM     39  C   UNL A   1      43.559  23.986  25.305  1.00  0.00     0.010 A 
ATOM     40  C   UNL A   1      44.069  23.329  27.578  1.00  0.00     0.010 A 
ATOM     41  C   UNL A   1      44.006  24.327  26.594  1.00  0.00    -0.014 A 
BRANCH  41  42
ATOM     42  C   UNL A   1      44.391  25.723  26.936  1.00  0.00     0.031 A 
ATOM     43  C   UNL A   1      45.805  26.195  26.732  1.00  0.00     0.074 A 
ATOM     44  C   UNL A   1      43.480  26.548  27.491  1.00  0.00     0.049 A 
ATOM     45  N   UNL A   1      46.338  27.354  27.026  1.00  0.00    -0.248 NA
ATOM     46  C   UNL A   1      46.748  25.234  26.139  1.00  0.00     0.031 C 
ATOM     47  C   UNL A   1      42.083  26.205  27.766  1.00  0.00     0.029 A 
ATOM     48  N   UNL A   1      43.594  27.845  27.928  1.00  0.00    -0.354 N 
ATOM     49  C   UNL A   1      47.676  27.260  26.662  1.00  0.00     0.074 A 
ATOM     50  C   UNL A   1      47.886  25.912  26.181  1.00  0.00     0.031 C 
ATOM     51  C   UNL A   1      41.462  27.274  28.291  1.00  0.00     0.029 A 
ATOM     52  C   UNL A   1      42.426  28.360  28.439  1.00  0.00     0.049 A 
ATOM     53  H   UNL A   1      44.433  28.357  27.880  1.00  0.00     0.167 HD
ATOM     54  C   UNL A   1      48.639  28.213  26.705  1.00  0.00     0.031 A 
ATOM     55  C   UNL A   1      42.159  29.568  28.976  1.00  0.00     0.031 A 
ATOM     56  C   UNL A   1      48.430  29.551  27.193  1.00  0.00     0.049 A 
ATOM     57  C   UNL A   1      43.258  30.591  29.065  1.00  0.00     0.074 A 
ATOM     58  C   UNL A   1      49.332  30.600  27.242  1.00  0.00     0.029 A 
ATOM     59  N   UNL A   1      47.239  30.024  27.725  1.00  0.00    -0.354 N 
ATOM     60  N   UNL A   1      44.502  30.501  28.661  1.00  0.00    -0.248 NA
ATOM     61  C   UNL A   1      42.915  31.881  29.680  1.00  0.00     0.031 C 
ATOM     62  C   UNL A   1      48.705  31.686  27.862  1.00  0.00     0.029 A 
ATOM     63  C   UNL A   1      47.392  31.338  28.135  1.00  0.00     0.049 A 
ATOM     64  H   UNL A   1      46.408  29.502  27.799  1.00  0.00     0.167 HD
ATOM     65  C   UNL A   1      45.083  31.732  28.947  1.00  0.00     0.074 A 
ATOM     66  C   UNL A   1      44.049  32.553  29.543  1.00  0.00     0.031 C 
ATOM     67  C   UNL A   1      46.357  32.144  28.735  1.00  0.00     0.031 A 
BRANCH  54  68
ATOM     68  C   UNL A   1      50.014  27.830  26.218  1.00  0.00    -0.014 A 
ATOM     69  C   UNL A   1      50.359  27.931  24.857  1.00  0.00     0.010 A 
ATOM     70  C   UNL A   1      50.985  27.384  27.134  1.00  0.00     0.010 A 
ATOM     71  C   UNL A   1      51.626  27.541  24.415  1.00  0.00     0.020 A 
ATOM     72  C   UNL A   1      52.265  27.025  26.701  1.00  0.00     0.020 A 
ATOM     73  C   UNL A   1      52.569  27.085  25.340  1.00  0.00     0.054 A 
BRANCH  73  74
ATOM     74  S   UNL A   1      54.205  26.586  24.736  1.00  0.00     0.124 S 
ATOM     75  O   UNL A   1      54.934  26.374  25.985  1.00  0.00    -0.237 OA
ATOM     76  O   UNL A   1      53.908  25.377  23.971  1.00  0.00    -0.237 OA
ATOM     77  O   UNL A   1      54.647  27.730  23.944  1.00  0.00    -0.744 OA
ENDBRANCH  73  74
ENDBRANCH  54  68
BRANCH  55  78
ATOM     78  C   UNL A   1      40.785  29.880  29.458  1.00  0.00    -0.014 A 
ATOM     79  C   UNL A   1      39.744  30.110  28.541  1.00  0.00     0.010 A 
ATOM     80  C   UNL A   1      40.504  29.938  30.836  1.00  0.00     0.010 A 
ATOM     81  C   UNL A   1      38.453  30.405  28.990  1.00  0.00     0.020 A 
ATOM     82  C   UNL A   1      39.209  30.203  31.289  1.00  0.00     0.020 A 
ATOM     83  C   UNL A   1      38.193  30.444  30.362  1.00  0.00     0.054 A 
BRANCH  83  84
ATOM     84  S   UNL A   1      36.498  30.772  30.921  1.00  0.00     0.124 S 
ATOM     85  O   UNL A   1      36.632  32.085  31.545  1.00  0.00    -0.237 OA
ATOM     86  O   UNL A   1      35.744  30.738  29.671  1.00  0.00    -0.237 OA
ATOM     87  O   UNL A   1      36.220  29.668  31.837  1.00  0.00    -0.744 OA
ENDBRANCH  83  84
ENDBRANCH  55  78
BRANCH  67  88
ATOM     88  C   UNL A   1      46.704  33.559  29.124  1.00  0.00    -0.014 A 
ATOM     89  C   UNL A   1      47.232  33.857  30.392  1.00  0.00     0.010 A 
ATOM     90  C   UNL A   1      46.554  34.594  28.184  1.00  0.00     0.010 A 
ATOM     91  C   UNL A   1      47.577  35.171  30.724  1.00  0.00     0.020 A 
ATOM     92  C   UNL A   1      46.927  35.904  28.500  1.00  0.00     0.020 A 
ATOM     93  C   UNL A   1      47.426  36.185  29.773  1.00  0.00     0.054 A 
BRANCH  93  94
ATOM     94  S   UNL A   1      47.932  37.871  30.211  1.00  0.00     0.124 S 
ATOM     95  O   UNL A   1      46.648  38.562  30.294  1.00  0.00    -0.237 OA
ATOM     96  O   UNL A   1      48.624  37.676  31.482  1.00  0.00    -0.237 OA
ATOM     97  O   UNL A   1      48.787  38.278  29.098  1.00  0.00    -0.744 OA
ENDBRANCH  93  94
ENDBRANCH  67  88
ENDBRANCH  41  42
ENDBRANCH  33  36
ENDBRANCH  31  32
ENDBRANCH  30  31
ENDBRANCH  29  30
ENDBRANCH  28  29
ENDBRANCH   1  28
TORSDOF 21
ENDMDL
