MODEL 1
REMARK VINA RESULT:     -10.0      0.000      0.000
REMARK SMILES COC(=O)[C@@H](CC(=O)NCCCCCCNC(=O)c1ccc(-c2c3nc(c(-c4ccc(S(=O)(=O)[O-])cc4)c4ccc([nH]4)c(-c4ccc(S(=O)(=O)[O-])cc4)c4nc(c(-c5ccc(S(=O)(=O)[O-])cc5)c5ccc2[nH]5)C=C4)C=C3)cc1)C1CCCCC1
REMARK SMILES IDX 12 1 11 2 10 3 9 4 7 5 8 6 6 8 5 9 3 10 4 11 2 12 1 13 79 14
REMARK SMILES IDX 80 15 84 16 81 17 83 18 82 19 13 20 14 21 15 22 16 23 17 24
REMARK SMILES IDX 18 26 19 27 20 28 78 29 21 30 77 31 22 32 23 33 24 34 71 35
REMARK SMILES IDX 25 36 76 37 70 38 72 39 26 40 75 41 69 42 68 43 27 45 57 46
REMARK SMILES IDX 38 47 56 48 39 49 42 50 55 51 73 52 40 53 41 54 54 56 74 57
REMARK SMILES IDX 43 58 28 59 29 60 37 61 30 62 36 63 31 64 32 65 33 66 34 67
REMARK SMILES IDX 35 68 58 69 59 70 67 71 60 72 66 73 61 74 62 75 63 76 64 77
REMARK SMILES IDX 65 78 44 79 45 80 53 81 46 82 52 83 47 84 48 85 49 86 50 87
REMARK SMILES IDX 51 88
REMARK H PARENT 9 7 16 25 72 44 42 55
REMARK Flexibility Score: inf
ROOT
ATOM      1  C   UNL A   1      32.889  26.850  23.395  1.00  0.00     0.002 C 
ENDROOT
BRANCH   1   2
ATOM      2  C   UNL A   1      33.641  25.996  22.373  1.00  0.00     0.021 C 
BRANCH   2   3
ATOM      3  C   UNL A   1      32.896  24.754  21.888  1.00  0.00     0.116 C 
BRANCH   3   4
ATOM      4  N   UNL A   1      31.813  24.397  22.788  1.00  0.00    -0.356 N 
ATOM      5  C   UNL A   1      31.558  23.227  23.432  1.00  0.00     0.220 C 
ATOM      6  O   UNL A   1      30.627  23.204  24.243  1.00  0.00    -0.275 OA
ATOM      7  H   UNL A   1      31.162  25.116  22.958  1.00  0.00     0.163 HD
BRANCH   5   8
ATOM      8  C   UNL A   1      32.393  21.986  23.191  1.00  0.00     0.115 C 
BRANCH   8   9
ATOM      9  C   UNL A   1      32.934  21.194  24.401  1.00  0.00     0.111 C 
BRANCH   9  10
ATOM     10  C   UNL A   1      34.086  21.938  25.072  1.00  0.00     0.309 C 
ATOM     11  O   UNL A   1      34.269  21.918  26.279  1.00  0.00    -0.252 OA
BRANCH  10  12
ATOM     12  O   UNL A   1      34.894  22.575  24.185  1.00  0.00    -0.469 OA
ATOM     13  C   UNL A   1      36.274  22.187  24.183  1.00  0.00     0.282 C 
ENDBRANCH  10  12
ENDBRANCH   9  10
BRANCH   9  14
ATOM     14  C   UNL A   1      33.058  19.643  24.305  1.00  0.00     0.004 C 
ATOM     15  C   UNL A   1      32.498  19.135  22.962  1.00  0.00     0.004 C 
ATOM     16  C   UNL A   1      34.451  19.047  24.575  1.00  0.00     0.004 C 
ATOM     17  C   UNL A   1      32.520  17.610  22.873  1.00  0.00     0.000 C 
ATOM     18  C   UNL A   1      34.474  17.523  24.447  1.00  0.00     0.000 C 
ATOM     19  C   UNL A   1      33.923  17.065  23.100  1.00  0.00     0.000 C 
ENDBRANCH   9  14
ENDBRANCH   8   9
ENDBRANCH   5   8
ENDBRANCH   3   4
ENDBRANCH   2   3
ENDBRANCH   1   2
BRANCH   1  20
ATOM     20  C   UNL A   1      33.497  26.865  24.804  1.00  0.00     0.002 C 
BRANCH  20  21
ATOM     21  C   UNL A   1      33.844  28.248  25.371  1.00  0.00     0.021 C 
BRANCH  21  22
ATOM     22  C   UNL A   1      33.751  28.375  26.892  1.00  0.00     0.116 C 
BRANCH  22  23
ATOM     23  N   UNL A   1      33.641  29.760  27.320  1.00  0.00    -0.352 N 
ATOM     24  C   UNL A   1      34.497  30.523  28.077  1.00  0.00     0.251 C 
ATOM     25  H   UNL A   1      32.826  30.223  27.022  1.00  0.00     0.163 HD
ATOM     26  O   UNL A   1      34.112  31.602  28.520  1.00  0.00    -0.269 OA
BRANCH  24  27
ATOM     27  C   UNL A   1      35.871  30.057  28.374  1.00  0.00     0.039 A 
ATOM     28  C   UNL A   1      36.824  30.066  27.350  1.00  0.00     0.014 A 
ATOM     29  C   UNL A   1      36.214  29.562  29.636  1.00  0.00     0.014 A 
ATOM     30  C   UNL A   1      38.132  29.643  27.607  1.00  0.00     0.010 A 
ATOM     31  C   UNL A   1      37.534  29.193  29.907  1.00  0.00     0.010 A 
ATOM     32  C   UNL A   1      38.508  29.233  28.897  1.00  0.00    -0.014 A 
BRANCH  32  33
ATOM     33  C   UNL A   1      39.915  28.868  29.211  1.00  0.00     0.031 A 
ATOM     34  C   UNL A   1      40.847  29.873  29.833  1.00  0.00     0.074 A 
ATOM     35  C   UNL A   1      40.375  27.646  28.877  1.00  0.00     0.049 A 
ATOM     36  N   UNL A   1      42.121  29.754  30.110  1.00  0.00    -0.248 NA
ATOM     37  C   UNL A   1      40.279  31.188  30.171  1.00  0.00     0.031 C 
ATOM     38  C   UNL A   1      39.584  26.588  28.243  1.00  0.00     0.029 A 
ATOM     39  N   UNL A   1      41.623  27.089  29.013  1.00  0.00    -0.354 N 
ATOM     40  C   UNL A   1      42.512  30.978  30.639  1.00  0.00     0.074 A 
ATOM     41  C   UNL A   1      41.349  31.839  30.610  1.00  0.00     0.031 C 
ATOM     42  C   UNL A   1      40.361  25.508  28.061  1.00  0.00     0.029 A 
ATOM     43  C   UNL A   1      41.713  25.807  28.525  1.00  0.00     0.049 A 
ATOM     44  H   UNL A   1      42.384  27.565  29.421  1.00  0.00     0.167 HD
ATOM     45  C   UNL A   1      43.725  31.351  31.118  1.00  0.00     0.031 A 
ATOM     46  C   UNL A   1      42.764  24.967  28.444  1.00  0.00     0.031 A 
ATOM     47  C   UNL A   1      44.881  30.493  31.155  1.00  0.00     0.049 A 
ATOM     48  C   UNL A   1      44.104  25.411  28.962  1.00  0.00     0.074 A 
ATOM     49  C   UNL A   1      46.136  30.765  31.672  1.00  0.00     0.029 A 
ATOM     50  N   UNL A   1      44.927  29.202  30.653  1.00  0.00    -0.354 N 
ATOM     51  N   UNL A   1      44.437  26.554  29.512  1.00  0.00    -0.248 NA
ATOM     52  C   UNL A   1      45.210  24.447  28.852  1.00  0.00     0.031 C 
ATOM     53  C   UNL A   1      46.956  29.655  31.437  1.00  0.00     0.029 A 
ATOM     54  C   UNL A   1      46.195  28.673  30.823  1.00  0.00     0.049 A 
ATOM     55  H   UNL A   1      44.170  28.730  30.237  1.00  0.00     0.167 HD
ATOM     56  C   UNL A   1      45.785  26.438  29.835  1.00  0.00     0.074 A 
ATOM     57  C   UNL A   1      46.201  25.110  29.432  1.00  0.00     0.031 C 
ATOM     58  C   UNL A   1      46.601  27.352  30.415  1.00  0.00     0.031 A 
BRANCH  45  59
ATOM     59  C   UNL A   1      43.867  32.756  31.638  1.00  0.00    -0.014 A 
ATOM     60  C   UNL A   1      43.988  33.848  30.758  1.00  0.00     0.010 A 
ATOM     61  C   UNL A   1      43.833  32.996  33.024  1.00  0.00     0.010 A 
ATOM     62  C   UNL A   1      44.112  35.147  31.256  1.00  0.00     0.020 A 
ATOM     63  C   UNL A   1      43.933  34.298  33.525  1.00  0.00     0.020 A 
ATOM     64  C   UNL A   1      44.090  35.364  32.637  1.00  0.00     0.054 A 
BRANCH  64  65
ATOM     65  S   UNL A   1      44.238  37.063  33.255  1.00  0.00     0.124 S 
ATOM     66  O   UNL A   1      45.236  36.912  34.312  1.00  0.00    -0.237 OA
ATOM     67  O   UNL A   1      44.682  37.797  32.073  1.00  0.00    -0.237 OA
ATOM     68  O   UNL A   1      42.889  37.385  33.713  1.00  0.00    -0.744 OA
ENDBRANCH  64  65
ENDBRANCH  45  59
BRANCH  46  69
ATOM     69  C   UNL A   1      42.587  23.615  27.850  1.00  0.00    -0.014 A 
ATOM     70  C   UNL A   1      42.846  23.396  26.487  1.00  0.00     0.010 A 
ATOM     71  C   UNL A   1      42.173  22.534  28.651  1.00  0.00     0.010 A 
ATOM     72  C   UNL A   1      42.680  22.125  25.929  1.00  0.00     0.020 A 
ATOM     73  C   UNL A   1      42.031  21.256  28.103  1.00  0.00     0.020 A 
ATOM     74  C   UNL A   1      42.275  21.062  26.742  1.00  0.00     0.054 A 
BRANCH  74  75
ATOM     75  S   UNL A   1      42.120  19.408  26.011  1.00  0.00     0.124 S 
ATOM     76  O   UNL A   1      42.614  18.555  27.086  1.00  0.00    -0.237 OA
ATOM     77  O   UNL A   1      40.687  19.317  25.737  1.00  0.00    -0.237 OA
ATOM     78  O   UNL A   1      42.968  19.480  24.823  1.00  0.00    -0.744 OA
ENDBRANCH  74  75
ENDBRANCH  46  69
BRANCH  58  79
ATOM     79  C   UNL A   1      48.027  26.943  30.675  1.00  0.00    -0.014 A 
ATOM     80  C   UNL A   1      49.018  27.097  29.691  1.00  0.00     0.010 A 
ATOM     81  C   UNL A   1      48.390  26.456  31.945  1.00  0.00     0.010 A 
ATOM     82  C   UNL A   1      50.344  26.750  29.964  1.00  0.00     0.020 A 
ATOM     83  C   UNL A   1      49.719  26.131  32.229  1.00  0.00     0.020 A 
ATOM     84  C   UNL A   1      50.686  26.269  31.231  1.00  0.00     0.054 A 
BRANCH  84  85
ATOM     85  S   UNL A   1      52.423  25.878  31.579  1.00  0.00     0.124 S 
ATOM     86  O   UNL A   1      53.058  26.140  30.290  1.00  0.00    -0.237 OA
ATOM     87  O   UNL A   1      52.757  26.819  32.646  1.00  0.00    -0.237 OA
ATOM     88  O   UNL A   1      52.388  24.475  31.984  1.00  0.00    -0.744 OA
ENDBRANCH  84  85
ENDBRANCH  58  79
ENDBRANCH  32  33
ENDBRANCH  24  27
ENDBRANCH  22  23
ENDBRANCH  21  22
ENDBRANCH  20  21
ENDBRANCH   1  20
TORSDOF 20
ENDMDL
MODEL 2
REMARK VINA RESULT:      -9.6      2.642      3.713
REMARK SMILES COC(=O)[C@@H](CC(=O)NCCCCCCNC(=O)c1ccc(-c2c3nc(c(-c4ccc(S(=O)(=O)[O-])cc4)c4ccc([nH]4)c(-c4ccc(S(=O)(=O)[O-])cc4)c4nc(c(-c5ccc(S(=O)(=O)[O-])cc5)c5ccc2[nH]5)C=C4)C=C3)cc1)C1CCCCC1
REMARK SMILES IDX 12 1 11 2 10 3 9 4 7 5 8 6 6 8 5 9 3 10 4 11 2 12 1 13 79 14
REMARK SMILES IDX 80 15 84 16 81 17 83 18 82 19 13 20 14 21 15 22 16 23 17 24
REMARK SMILES IDX 18 26 19 27 20 28 78 29 21 30 77 31 22 32 23 33 24 34 71 35
REMARK SMILES IDX 25 36 76 37 70 38 72 39 26 40 75 41 69 42 68 43 27 45 57 46
REMARK SMILES IDX 38 47 56 48 39 49 42 50 55 51 73 52 40 53 41 54 54 56 74 57
REMARK SMILES IDX 43 58 28 59 29 60 37 61 30 62 36 63 31 64 32 65 33 66 34 67
REMARK SMILES IDX 35 68 58 69 59 70 67 71 60 72 66 73 61 74 62 75 63 76 64 77
REMARK SMILES IDX 65 78 44 79 45 80 53 81 46 82 52 83 47 84 48 85 49 86 50 87
REMARK SMILES IDX 51 88
REMARK H PARENT 9 7 16 25 72 44 42 55
REMARK Flexibility Score: inf
ROOT
ATOM      1  C   UNL A   1      31.137  26.822  25.644  1.00  0.00     0.002 C 
ENDROOT
BRANCH   1   2
ATOM      2  C   UNL A   1      30.794  27.575  24.357  1.00  0.00     0.021 C 
BRANCH   2   3
ATOM      3  C   UNL A   1      30.420  26.692  23.167  1.00  0.00     0.116 C 
BRANCH   3   4
ATOM      4  N   UNL A   1      31.584  26.355  22.367  1.00  0.00    -0.356 N 
ATOM      5  C   UNL A   1      32.256  25.179  22.248  1.00  0.00     0.220 C 
ATOM      6  O   UNL A   1      33.156  25.109  21.406  1.00  0.00    -0.275 OA
ATOM      7  H   UNL A   1      31.942  27.095  21.825  1.00  0.00     0.163 HD
BRANCH   5   8
ATOM      8  C   UNL A   1      31.909  23.974  23.099  1.00  0.00     0.115 C 
BRANCH   8   9
ATOM      9  C   UNL A   1      33.015  22.954  23.448  1.00  0.00     0.111 C 
BRANCH   9  10
ATOM     10  C   UNL A   1      32.448  21.784  24.248  1.00  0.00     0.309 C 
ATOM     11  O   UNL A   1      31.543  21.916  25.057  1.00  0.00    -0.252 OA
BRANCH  10  12
ATOM     12  O   UNL A   1      33.024  20.597  23.930  1.00  0.00    -0.469 OA
ATOM     13  C   UNL A   1      32.460  19.428  24.541  1.00  0.00     0.282 C 
ENDBRANCH  10  12
ENDBRANCH   9  10
BRANCH   9  14
ATOM     14  C   UNL A   1      34.428  23.470  23.859  1.00  0.00     0.004 C 
ATOM     15  C   UNL A   1      34.549  23.556  25.393  1.00  0.00     0.004 C 
ATOM     16  C   UNL A   1      35.633  22.726  23.257  1.00  0.00     0.004 C 
ATOM     17  C   UNL A   1      35.889  24.145  25.829  1.00  0.00     0.000 C 
ATOM     18  C   UNL A   1      36.972  23.297  23.728  1.00  0.00     0.000 C 
ATOM     19  C   UNL A   1      37.053  23.353  25.250  1.00  0.00     0.000 C 
ENDBRANCH   9  14
ENDBRANCH   8   9
ENDBRANCH   5   8
ENDBRANCH   3   4
ENDBRANCH   2   3
ENDBRANCH   1   2
BRANCH   1  20
ATOM     20  C   UNL A   1      32.634  26.719  25.959  1.00  0.00     0.002 C 
BRANCH  20  21
ATOM     21  C   UNL A   1      33.214  27.833  26.841  1.00  0.00     0.021 C 
BRANCH  21  22
ATOM     22  C   UNL A   1      34.104  28.844  26.119  1.00  0.00     0.116 C 
BRANCH  22  23
ATOM     23  N   UNL A   1      33.854  30.207  26.559  1.00  0.00    -0.352 N 
ATOM     24  C   UNL A   1      34.449  30.939  27.558  1.00  0.00     0.251 C 
ATOM     25  H   UNL A   1      33.146  30.680  26.064  1.00  0.00     0.163 HD
ATOM     26  O   UNL A   1      33.936  31.993  27.922  1.00  0.00    -0.269 OA
BRANCH  24  27
ATOM     27  C   UNL A   1      35.693  30.466  28.209  1.00  0.00     0.039 A 
ATOM     28  C   UNL A   1      36.924  30.797  27.633  1.00  0.00     0.014 A 
ATOM     29  C   UNL A   1      35.655  29.657  29.349  1.00  0.00     0.014 A 
ATOM     30  C   UNL A   1      38.114  30.374  28.235  1.00  0.00     0.010 A 
ATOM     31  C   UNL A   1      36.844  29.283  29.980  1.00  0.00     0.010 A 
ATOM     32  C   UNL A   1      38.086  29.640  29.432  1.00  0.00    -0.014 A 
BRANCH  32  33
ATOM     33  C   UNL A   1      39.340  29.261  30.135  1.00  0.00     0.031 A 
ATOM     34  C   UNL A   1      39.801  30.025  31.348  1.00  0.00     0.074 A 
ATOM     35  C   UNL A   1      40.104  28.266  29.642  1.00  0.00     0.049 A 
ATOM     36  N   UNL A   1      40.901  29.881  32.043  1.00  0.00    -0.248 NA
ATOM     37  C   UNL A   1      38.919  31.099  31.832  1.00  0.00     0.031 C 
ATOM     38  C   UNL A   1      39.789  27.464  28.456  1.00  0.00     0.029 A 
ATOM     39  N   UNL A   1      41.309  27.764  30.068  1.00  0.00    -0.354 N 
ATOM     40  C   UNL A   1      40.854  30.854  33.036  1.00  0.00     0.074 A 
ATOM     41  C   UNL A   1      39.634  31.605  32.829  1.00  0.00     0.031 C 
ATOM     42  C   UNL A   1      40.765  26.565  28.262  1.00  0.00     0.029 A 
ATOM     43  C   UNL A   1      41.796  26.748  29.280  1.00  0.00     0.049 A 
ATOM     44  H   UNL A   1      41.782  28.101  30.864  1.00  0.00     0.167 HD
ATOM     45  C   UNL A   1      41.737  31.093  34.036  1.00  0.00     0.031 A 
ATOM     46  C   UNL A   1      42.945  26.049  29.354  1.00  0.00     0.031 A 
ATOM     47  C   UNL A   1      42.946  30.341  34.247  1.00  0.00     0.049 A 
ATOM     48  C   UNL A   1      43.920  26.348  30.460  1.00  0.00     0.074 A 
ATOM     49  C   UNL A   1      43.874  30.476  35.265  1.00  0.00     0.029 A 
ATOM     50  N   UNL A   1      43.399  29.320  33.427  1.00  0.00    -0.354 N 
ATOM     51  N   UNL A   1      43.827  27.234  31.422  1.00  0.00    -0.248 NA
ATOM     52  C   UNL A   1      45.153  25.547  30.491  1.00  0.00     0.031 C 
ATOM     53  C   UNL A   1      44.914  29.568  35.033  1.00  0.00     0.029 A 
ATOM     54  C   UNL A   1      44.606  28.832  33.900  1.00  0.00     0.049 A 
ATOM     55  H   UNL A   1      42.932  28.989  32.626  1.00  0.00     0.167 HD
ATOM     56  C   UNL A   1      44.979  27.081  32.187  1.00  0.00     0.074 A 
ATOM     57  C   UNL A   1      45.745  26.010  31.585  1.00  0.00     0.031 C 
ATOM     58  C   UNL A   1      45.363  27.768  33.291  1.00  0.00     0.031 A 
BRANCH  45  59
ATOM     59  C   UNL A   1      41.431  32.225  34.980  1.00  0.00    -0.014 A 
ATOM     60  C   UNL A   1      40.677  32.013  36.149  1.00  0.00     0.010 A 
ATOM     61  C   UNL A   1      41.943  33.510  34.721  1.00  0.00     0.010 A 
ATOM     62  C   UNL A   1      40.406  33.072  37.019  1.00  0.00     0.020 A 
ATOM     63  C   UNL A   1      41.696  34.567  35.603  1.00  0.00     0.020 A 
ATOM     64  C   UNL A   1      40.913  34.345  36.737  1.00  0.00     0.054 A 
BRANCH  64  65
ATOM     65  S   UNL A   1      40.560  35.698  37.892  1.00  0.00     0.124 S 
ATOM     66  O   UNL A   1      39.868  36.654  37.031  1.00  0.00    -0.237 OA
ATOM     67  O   UNL A   1      39.730  35.049  38.904  1.00  0.00    -0.237 OA
ATOM     68  O   UNL A   1      41.882  36.117  38.350  1.00  0.00    -0.744 OA
ENDBRANCH  64  65
ENDBRANCH  45  59
BRANCH  46  69
ATOM     69  C   UNL A   1      43.236  24.992  28.349  1.00  0.00    -0.014 A 
ATOM     70  C   UNL A   1      42.827  23.665  28.571  1.00  0.00     0.010 A 
ATOM     71  C   UNL A   1      43.909  25.310  27.155  1.00  0.00     0.010 A 
ATOM     72  C   UNL A   1      43.100  22.672  27.626  1.00  0.00     0.020 A 
ATOM     73  C   UNL A   1      44.161  24.325  26.196  1.00  0.00     0.020 A 
ATOM     74  C   UNL A   1      43.764  23.009  26.443  1.00  0.00     0.054 A 
BRANCH  74  75
ATOM     75  S   UNL A   1      44.059  21.716  25.204  1.00  0.00     0.124 S 
ATOM     76  O   UNL A   1      43.888  22.450  23.955  1.00  0.00    -0.237 OA
ATOM     77  O   UNL A   1      45.423  21.292  25.508  1.00  0.00    -0.237 OA
ATOM     78  O   UNL A   1      43.028  20.723  25.497  1.00  0.00    -0.744 OA
ENDBRANCH  74  75
ENDBRANCH  46  69
BRANCH  58  79
ATOM     79  C   UNL A   1      46.661  27.369  33.940  1.00  0.00    -0.014 A 
ATOM     80  C   UNL A   1      46.706  26.358  34.915  1.00  0.00     0.010 A 
ATOM     81  C   UNL A   1      47.862  27.973  33.522  1.00  0.00     0.010 A 
ATOM     82  C   UNL A   1      47.926  25.973  35.477  1.00  0.00     0.020 A 
ATOM     83  C   UNL A   1      49.086  27.574  34.064  1.00  0.00     0.020 A 
ATOM     84  C   UNL A   1      49.109  26.583  35.048  1.00  0.00     0.054 A 
BRANCH  84  85
ATOM     85  S   UNL A   1      50.686  26.027  35.753  1.00  0.00     0.124 S 
ATOM     86  O   UNL A   1      50.716  26.737  37.028  1.00  0.00    -0.237 OA
ATOM     87  O   UNL A   1      50.504  24.580  35.844  1.00  0.00    -0.237 OA
ATOM     88  O   UNL A   1      51.676  26.463  34.772  1.00  0.00    -0.744 OA
ENDBRANCH  84  85
ENDBRANCH  58  79
ENDBRANCH  32  33
ENDBRANCH  24  27
ENDBRANCH  22  23
ENDBRANCH  21  22
ENDBRANCH  20  21
ENDBRANCH   1  20
TORSDOF 20
ENDMDL
MODEL 3
REMARK VINA RESULT:      -9.5      4.798     10.230
REMARK SMILES COC(=O)[C@@H](CC(=O)NCCCCCCNC(=O)c1ccc(-c2c3nc(c(-c4ccc(S(=O)(=O)[O-])cc4)c4ccc([nH]4)c(-c4ccc(S(=O)(=O)[O-])cc4)c4nc(c(-c5ccc(S(=O)(=O)[O-])cc5)c5ccc2[nH]5)C=C4)C=C3)cc1)C1CCCCC1
REMARK SMILES IDX 12 1 11 2 10 3 9 4 7 5 8 6 6 8 5 9 3 10 4 11 2 12 1 13 79 14
REMARK SMILES IDX 80 15 84 16 81 17 83 18 82 19 13 20 14 21 15 22 16 23 17 24
REMARK SMILES IDX 18 26 19 27 20 28 78 29 21 30 77 31 22 32 23 33 24 34 71 35
REMARK SMILES IDX 25 36 76 37 70 38 72 39 26 40 75 41 69 42 68 43 27 45 57 46
REMARK SMILES IDX 38 47 56 48 39 49 42 50 55 51 73 52 40 53 41 54 54 56 74 57
REMARK SMILES IDX 43 58 28 59 29 60 37 61 30 62 36 63 31 64 32 65 33 66 34 67
REMARK SMILES IDX 35 68 58 69 59 70 67 71 60 72 66 73 61 74 62 75 63 76 64 77
REMARK SMILES IDX 65 78 44 79 45 80 53 81 46 82 52 83 47 84 48 85 49 86 50 87
REMARK SMILES IDX 51 88
REMARK H PARENT 9 7 16 25 72 44 42 55
REMARK Flexibility Score: inf
ROOT
ATOM      1  C   UNL A   1      33.294  30.041  26.717  1.00  0.00     0.002 C 
ENDROOT
BRANCH   1   2
ATOM      2  C   UNL A   1      33.445  28.666  27.370  1.00  0.00     0.021 C 
BRANCH   2   3
ATOM      3  C   UNL A   1      33.534  27.491  26.398  1.00  0.00     0.116 C 
BRANCH   3   4
ATOM      4  N   UNL A   1      32.480  26.522  26.635  1.00  0.00    -0.356 N 
ATOM      5  C   UNL A   1      31.230  26.438  26.105  1.00  0.00     0.220 C 
ATOM      6  O   UNL A   1      30.550  25.445  26.380  1.00  0.00    -0.275 OA
ATOM      7  H   UNL A   1      32.705  25.813  27.280  1.00  0.00     0.163 HD
BRANCH   5   8
ATOM      8  C   UNL A   1      30.680  27.511  25.187  1.00  0.00     0.115 C 
BRANCH   8   9
ATOM      9  C   UNL A   1      30.415  27.170  23.705  1.00  0.00     0.111 C 
BRANCH   9  10
ATOM     10  C   UNL A   1      31.656  26.570  23.049  1.00  0.00     0.309 C 
ATOM     11  O   UNL A   1      32.766  27.068  23.160  1.00  0.00    -0.252 OA
BRANCH  10  12
ATOM     12  O   UNL A   1      31.398  25.417  22.381  1.00  0.00    -0.469 OA
ATOM     13  C   UNL A   1      30.768  24.369  23.130  1.00  0.00     0.282 C 
ENDBRANCH  10  12
ENDBRANCH   9  10
BRANCH   9  14
ATOM     14  C   UNL A   1      29.563  28.147  22.836  1.00  0.00     0.004 C 
ATOM     15  C   UNL A   1      28.172  28.358  23.465  1.00  0.00     0.004 C 
ATOM     16  C   UNL A   1      30.213  29.497  22.484  1.00  0.00     0.004 C 
ATOM     17  C   UNL A   1      27.278  29.237  22.592  1.00  0.00     0.000 C 
ATOM     18  C   UNL A   1      29.297  30.388  21.642  1.00  0.00     0.000 C 
ATOM     19  C   UNL A   1      27.937  30.579  22.304  1.00  0.00     0.000 C 
ENDBRANCH   9  14
ENDBRANCH   8   9
ENDBRANCH   5   8
ENDBRANCH   3   4
ENDBRANCH   2   3
ENDBRANCH   1   2
BRANCH   1  20
ATOM     20  C   UNL A   1      31.871  30.614  26.727  1.00  0.00     0.002 C 
BRANCH  20  21
ATOM     21  C   UNL A   1      31.755  32.124  26.971  1.00  0.00     0.021 C 
BRANCH  21  22
ATOM     22  C   UNL A   1      33.081  32.864  27.145  1.00  0.00     0.116 C 
BRANCH  22  23
ATOM     23  N   UNL A   1      32.898  34.197  27.694  1.00  0.00    -0.352 N 
ATOM     24  C   UNL A   1      33.459  34.782  28.804  1.00  0.00     0.251 C 
ATOM     25  H   UNL A   1      32.273  34.771  27.194  1.00  0.00     0.163 HD
ATOM     26  O   UNL A   1      32.997  35.839  29.228  1.00  0.00    -0.269 OA
BRANCH  24  27
ATOM     27  C   UNL A   1      34.602  34.150  29.501  1.00  0.00     0.039 A 
ATOM     28  C   UNL A   1      35.900  34.428  29.060  1.00  0.00     0.014 A 
ATOM     29  C   UNL A   1      34.405  33.247  30.550  1.00  0.00     0.014 A 
ATOM     30  C   UNL A   1      36.998  33.853  29.709  1.00  0.00     0.010 A 
ATOM     31  C   UNL A   1      35.503  32.718  31.233  1.00  0.00     0.010 A 
ATOM     32  C   UNL A   1      36.811  33.019  30.822  1.00  0.00    -0.014 A 
BRANCH  32  33
ATOM     33  C   UNL A   1      37.968  32.474  31.581  1.00  0.00     0.031 A 
ATOM     34  C   UNL A   1      38.751  31.303  31.048  1.00  0.00     0.074 A 
ATOM     35  C   UNL A   1      38.278  32.992  32.785  1.00  0.00     0.049 A 
ATOM     36  N   UNL A   1      39.741  30.652  31.605  1.00  0.00    -0.248 NA
ATOM     37  C   UNL A   1      38.358  30.785  29.728  1.00  0.00     0.031 C 
ATOM     38  C   UNL A   1      37.582  34.110  33.431  1.00  0.00     0.029 A 
ATOM     39  N   UNL A   1      39.250  32.643  33.690  1.00  0.00    -0.354 N 
ATOM     40  C   UNL A   1      40.081  29.641  30.714  1.00  0.00     0.074 A 
ATOM     41  C   UNL A   1      39.166  29.741  29.597  1.00  0.00     0.031 C 
ATOM     42  C   UNL A   1      38.160  34.362  34.615  1.00  0.00     0.029 A 
ATOM     43  C   UNL A   1      39.239  33.403  34.836  1.00  0.00     0.049 A 
ATOM     44  H   UNL A   1      39.896  31.916  33.533  1.00  0.00     0.167 HD
ATOM     45  C   UNL A   1      41.072  28.720  30.809  1.00  0.00     0.031 A 
ATOM     46  C   UNL A   1      39.998  33.332  35.947  1.00  0.00     0.031 A 
ATOM     47  C   UNL A   1      41.987  28.625  31.916  1.00  0.00     0.049 A 
ATOM     48  C   UNL A   1      41.076  32.287  36.039  1.00  0.00     0.074 A 
ATOM     49  C   UNL A   1      43.057  27.760  32.074  1.00  0.00     0.029 A 
ATOM     50  N   UNL A   1      41.941  29.415  33.054  1.00  0.00    -0.354 N 
ATOM     51  N   UNL A   1      41.418  31.378  35.158  1.00  0.00    -0.248 NA
ATOM     52  C   UNL A   1      41.875  32.265  37.273  1.00  0.00     0.031 C 
ATOM     53  C   UNL A   1      43.627  27.994  33.331  1.00  0.00     0.029 A 
ATOM     54  C   UNL A   1      42.946  29.041  33.931  1.00  0.00     0.049 A 
ATOM     55  H   UNL A   1      41.291  30.136  33.216  1.00  0.00     0.167 HD
ATOM     56  C   UNL A   1      42.487  30.689  35.723  1.00  0.00     0.074 A 
ATOM     57  C   UNL A   1      42.743  31.296  37.013  1.00  0.00     0.031 C 
ATOM     58  C   UNL A   1      43.191  29.649  35.214  1.00  0.00     0.031 A 
BRANCH  45  59
ATOM     59  C   UNL A   1      41.214  27.731  29.683  1.00  0.00    -0.014 A 
ATOM     60  C   UNL A   1      40.306  26.668  29.530  1.00  0.00     0.010 A 
ATOM     61  C   UNL A   1      42.243  27.893  28.736  1.00  0.00     0.010 A 
ATOM     62  C   UNL A   1      40.447  25.762  28.476  1.00  0.00     0.020 A 
ATOM     63  C   UNL A   1      42.373  27.002  27.666  1.00  0.00     0.020 A 
ATOM     64  C   UNL A   1      41.484  25.932  27.553  1.00  0.00     0.054 A 
BRANCH  64  65
ATOM     65  S   UNL A   1      41.635  24.750  26.185  1.00  0.00     0.124 S 
ATOM     66  O   UNL A   1      43.022  24.312  26.320  1.00  0.00    -0.237 OA
ATOM     67  O   UNL A   1      40.625  23.747  26.514  1.00  0.00    -0.237 OA
ATOM     68  O   UNL A   1      41.347  25.553  24.999  1.00  0.00    -0.744 OA
ENDBRANCH  64  65
ENDBRANCH  45  59
BRANCH  46  69
ATOM     69  C   UNL A   1      39.765  34.285  37.066  1.00  0.00    -0.014 A 
ATOM     70  C   UNL A   1      38.955  33.921  38.155  1.00  0.00     0.010 A 
ATOM     71  C   UNL A   1      40.366  35.557  37.054  1.00  0.00     0.010 A 
ATOM     72  C   UNL A   1      38.736  34.817  39.206  1.00  0.00     0.020 A 
ATOM     73  C   UNL A   1      40.171  36.446  38.114  1.00  0.00     0.020 A 
ATOM     74  C   UNL A   1      39.347  36.074  39.179  1.00  0.00     0.054 A 
BRANCH  74  75
ATOM     75  S   UNL A   1      39.097  37.201  40.579  1.00  0.00     0.124 S 
ATOM     76  O   UNL A   1      40.451  37.682  40.827  1.00  0.00    -0.237 OA
ATOM     77  O   UNL A   1      38.166  38.184  40.031  1.00  0.00    -0.237 OA
ATOM     78  O   UNL A   1      38.537  36.336  41.616  1.00  0.00    -0.744 OA
ENDBRANCH  74  75
ENDBRANCH  46  69
BRANCH  58  79
ATOM     79  C   UNL A   1      44.327  29.110  36.041  1.00  0.00    -0.014 A 
ATOM     80  C   UNL A   1      45.615  29.666  35.958  1.00  0.00     0.010 A 
ATOM     81  C   UNL A   1      44.087  28.071  36.961  1.00  0.00     0.010 A 
ATOM     82  C   UNL A   1      46.648  29.179  36.763  1.00  0.00     0.020 A 
ATOM     83  C   UNL A   1      45.112  27.598  37.784  1.00  0.00     0.020 A 
ATOM     84  C   UNL A   1      46.391  28.149  37.672  1.00  0.00     0.054 A 
BRANCH  84  85
ATOM     85  S   UNL A   1      47.734  27.572  38.745  1.00  0.00     0.124 S 
ATOM     86  O   UNL A   1      48.572  28.763  38.851  1.00  0.00    -0.237 OA
ATOM     87  O   UNL A   1      47.028  27.189  39.966  1.00  0.00    -0.237 OA
ATOM     88  O   UNL A   1      48.320  26.461  37.999  1.00  0.00    -0.744 OA
ENDBRANCH  84  85
ENDBRANCH  58  79
ENDBRANCH  32  33
ENDBRANCH  24  27
ENDBRANCH  22  23
ENDBRANCH  21  22
ENDBRANCH  20  21
ENDBRANCH   1  20
TORSDOF 20
ENDMDL
