MODEL 1
REMARK VINA RESULT:     -13.2      0.000      0.000
REMARK SMILES O=C(Cn1cc(/C=C2\SC(N3CCOCC3)=[NH+]C2=O)c2ccccc21)NCCCCCCNC(=O)c1ccc(-c2c3nc(c(-c4ccc(S(=O)(=O)[O-])cc4)c4ccc([nH]4)c(-c4ccc(S(=O)(=O)[O-])cc4)c4nc(c(-c5ccc(S(=O)(=O)[O-])cc5)c5ccc2[nH]5)C=C4)C=C3)cc1
REMARK SMILES IDX 30 1 29 2 28 3 27 4 26 5 1 6 2 7 3 9 4 10 5 11 25 12 6 13
REMARK SMILES IDX 20 14 24 15 21 16 23 17 22 18 7 19 8 20 9 21 18 22 10 23
REMARK SMILES IDX 17 24 19 25 11 26 12 28 16 29 13 30 15 31 14 32 31 33 32 34
REMARK SMILES IDX 33 35 34 36 35 38 36 39 37 40 95 41 38 42 94 43 39 44 40 45
REMARK SMILES IDX 41 46 88 47 42 48 93 49 87 50 89 51 43 52 92 53 86 54 85 55
REMARK SMILES IDX 44 57 74 58 55 59 73 60 56 61 59 62 72 63 90 64 57 65 58 66
REMARK SMILES IDX 71 68 91 69 60 70 45 71 46 72 54 73 47 74 53 75 48 76 49 77
REMARK SMILES IDX 50 78 51 79 52 80 75 81 76 82 84 83 77 84 83 85 78 86 79 87
REMARK SMILES IDX 80 88 81 89 82 90 61 91 62 92 70 93 63 94 69 95 64 96 65 97
REMARK SMILES IDX 66 98 67 99 68 100
REMARK H PARENT 26 8 17 27 33 37 89 56 59 67
REMARK Flexibility Score: inf
ROOT
ATOM      1  C   UNL A   1      40.786  22.477  28.030  1.00  0.00     0.002 C 
ENDROOT
BRANCH   1   2
ATOM      2  C   UNL A   1      40.482  23.974  28.130  1.00  0.00     0.002 C 
BRANCH   2   3
ATOM      3  C   UNL A   1      39.073  24.389  27.697  1.00  0.00     0.021 C 
BRANCH   3   4
ATOM      4  C   UNL A   1      38.724  24.038  26.252  1.00  0.00     0.116 C 
BRANCH   4   5
ATOM      5  N   UNL A   1      38.068  22.749  26.151  1.00  0.00    -0.355 N 
ATOM      6  O   UNL A   1      37.068  23.130  24.119  1.00  0.00    -0.273 OA
ATOM      7  C   UNL A   1      37.334  22.367  25.046  1.00  0.00     0.239 C 
ATOM      8  H   UNL A   1      38.149  22.118  26.903  1.00  0.00     0.163 HD
BRANCH   7   9
ATOM      9  C   UNL A   1      36.797  20.949  25.083  1.00  0.00     0.222 C 
BRANCH   9  10
ATOM     10  N   UNL A   1      35.366  20.813  25.346  1.00  0.00    -0.337 N 
ATOM     11  C   UNL A   1      34.557  21.723  25.974  1.00  0.00     0.095 A 
ATOM     12  C   UNL A   1      34.617  19.707  24.971  1.00  0.00     0.049 A 
ATOM     13  C   UNL A   1      33.263  21.263  25.903  1.00  0.00     0.001 A 
ATOM     14  C   UNL A   1      33.288  19.966  25.327  1.00  0.00     0.007 A 
ATOM     15  C   UNL A   1      34.994  18.505  24.346  1.00  0.00     0.027 A 
ATOM     16  C   UNL A   1      32.306  18.992  25.057  1.00  0.00     0.011 A 
ATOM     17  C   UNL A   1      34.001  17.554  24.095  1.00  0.00     0.002 A 
ATOM     18  C   UNL A   1      32.676  17.789  24.448  1.00  0.00     0.001 A 
BRANCH  13  19
ATOM     19  C   UNL A   1      32.138  21.996  26.378  1.00  0.00     0.034 C 
ATOM     20  C   UNL A   1      31.782  23.227  25.984  1.00  0.00     0.110 C 
ATOM     21  S   UNL A   1      32.493  24.203  24.764  1.00  0.00     0.006 SA
ATOM     22  C   UNL A   1      30.634  23.954  26.598  1.00  0.00     0.346 C 
ATOM     23  C   UNL A   1      31.392  25.509  25.187  1.00  0.00     0.319 C 
ATOM     24  N   UNL A   1      30.550  25.245  26.126  1.00  0.00    -0.200 N 
ATOM     25  O   UNL A   1      29.881  23.430  27.398  1.00  0.00    -0.240 OA
ATOM     26  N   UNL A   1      31.551  26.705  24.549  1.00  0.00    -0.251 N 
ATOM     27  H   UNL A   1      29.908  25.904  26.475  1.00  0.00     0.316 HD
ATOM     28  C   UNL A   1      31.566  26.865  23.095  1.00  0.00     0.265 C 
ATOM     29  C   UNL A   1      31.436  27.984  25.265  1.00  0.00     0.265 C 
ATOM     30  C   UNL A   1      32.712  27.801  22.702  1.00  0.00     0.206 C 
ATOM     31  C   UNL A   1      32.608  28.876  24.819  1.00  0.00     0.206 C 
ATOM     32  O   UNL A   1      32.636  29.058  23.390  1.00  0.00    -0.373 OA
ENDBRANCH  13  19
ENDBRANCH   9  10
ENDBRANCH   7   9
ENDBRANCH   4   5
ENDBRANCH   3   4
ENDBRANCH   2   3
ENDBRANCH   1   2
BRANCH   1  33
ATOM     33  C   UNL A   1      42.047  22.097  27.242  1.00  0.00     0.021 C 
BRANCH  33  34
ATOM     34  C   UNL A   1      41.874  22.057  25.725  1.00  0.00     0.116 C 
BRANCH  34  35
ATOM     35  N   UNL A   1      42.887  22.807  25.011  1.00  0.00    -0.352 N 
ATOM     36  C   UNL A   1      43.371  24.083  25.055  1.00  0.00     0.251 C 
ATOM     37  H   UNL A   1      43.337  22.262  24.326  1.00  0.00     0.163 HD
ATOM     38  O   UNL A   1      44.354  24.294  24.337  1.00  0.00    -0.269 OA
BRANCH  36  39
ATOM     39  C   UNL A   1      42.798  25.217  25.834  1.00  0.00     0.039 A 
ATOM     40  C   UNL A   1      41.771  26.067  25.422  1.00  0.00     0.014 A 
ATOM     41  C   UNL A   1      43.428  25.478  27.068  1.00  0.00     0.014 A 
ATOM     42  C   UNL A   1      41.458  27.204  26.171  1.00  0.00     0.010 A 
ATOM     43  C   UNL A   1      43.115  26.605  27.820  1.00  0.00     0.010 A 
ATOM     44  C   UNL A   1      42.168  27.501  27.340  1.00  0.00    -0.014 A 
BRANCH  44  45
ATOM     45  C   UNL A   1      41.831  28.714  28.085  1.00  0.00     0.031 A 
ATOM     46  C   UNL A   1      42.854  29.796  28.020  1.00  0.00     0.074 A 
ATOM     47  C   UNL A   1      40.639  28.921  28.687  1.00  0.00     0.049 A 
ATOM     48  N   UNL A   1      43.531  30.314  28.991  1.00  0.00    -0.248 NA
ATOM     49  C   UNL A   1      43.248  30.282  26.689  1.00  0.00     0.031 C 
ATOM     50  C   UNL A   1      39.432  28.090  28.611  1.00  0.00     0.029 A 
ATOM     51  N   UNL A   1      40.220  29.993  29.420  1.00  0.00    -0.354 N 
ATOM     52  C   UNL A   1      44.310  31.322  28.424  1.00  0.00     0.074 A 
ATOM     53  C   UNL A   1      44.202  31.160  26.996  1.00  0.00     0.031 C 
ATOM     54  C   UNL A   1      38.370  28.797  29.062  1.00  0.00     0.029 A 
ATOM     55  C   UNL A   1      38.842  30.059  29.606  1.00  0.00     0.049 A 
ATOM     56  H   UNL A   1      40.841  30.663  29.787  1.00  0.00     0.167 HD
ATOM     57  C   UNL A   1      44.837  32.337  29.166  1.00  0.00     0.031 A 
ATOM     58  C   UNL A   1      38.137  31.095  30.131  1.00  0.00     0.031 A 
ATOM     59  C   UNL A   1      44.846  32.025  30.568  1.00  0.00     0.049 A 
ATOM     60  C   UNL A   1      39.082  31.905  30.933  1.00  0.00     0.074 A 
ATOM     61  C   UNL A   1      45.462  31.064  31.343  1.00  0.00     0.029 A 
ATOM     62  N   UNL A   1      43.832  32.544  31.337  1.00  0.00    -0.354 N 
ATOM     63  N   UNL A   1      39.662  31.478  32.018  1.00  0.00    -0.248 NA
ATOM     64  C   UNL A   1      39.707  33.052  30.296  1.00  0.00     0.031 C 
ATOM     65  C   UNL A   1      44.497  30.720  32.333  1.00  0.00     0.029 A 
ATOM     66  C   UNL A   1      43.380  31.540  32.154  1.00  0.00     0.049 A 
ATOM     67  H   UNL A   1      43.494  33.468  31.307  1.00  0.00     0.167 HD
ATOM     68  C   UNL A   1      40.942  32.006  31.963  1.00  0.00     0.074 A 
ATOM     69  C   UNL A   1      40.878  33.044  30.935  1.00  0.00     0.031 C 
ATOM     70  C   UNL A   1      41.996  31.375  32.557  1.00  0.00     0.031 A 
BRANCH  57  71
ATOM     71  C   UNL A   1      45.037  33.742  28.650  1.00  0.00    -0.014 A 
ATOM     72  C   UNL A   1      43.969  34.578  28.264  1.00  0.00     0.010 A 
ATOM     73  C   UNL A   1      46.303  34.353  28.779  1.00  0.00     0.010 A 
ATOM     74  C   UNL A   1      44.144  35.939  28.008  1.00  0.00     0.020 A 
ATOM     75  C   UNL A   1      46.482  35.729  28.568  1.00  0.00     0.020 A 
ATOM     76  C   UNL A   1      45.398  36.511  28.176  1.00  0.00     0.054 A 
BRANCH  76  77
ATOM     77  S   UNL A   1      45.555  38.299  27.941  1.00  0.00     0.124 S 
ATOM     78  O   UNL A   1      45.099  38.809  29.231  1.00  0.00    -0.237 OA
ATOM     79  O   UNL A   1      46.982  38.454  27.670  1.00  0.00    -0.237 OA
ATOM     80  O   UNL A   1      44.672  38.575  26.811  1.00  0.00    -0.744 OA
ENDBRANCH  76  77
ENDBRANCH  57  71
BRANCH  58  81
ATOM     81  C   UNL A   1      36.855  31.664  29.636  1.00  0.00    -0.014 A 
ATOM     82  C   UNL A   1      36.858  32.515  28.512  1.00  0.00     0.010 A 
ATOM     83  C   UNL A   1      35.700  31.654  30.447  1.00  0.00     0.010 A 
ATOM     84  C   UNL A   1      35.794  33.388  28.257  1.00  0.00     0.020 A 
ATOM     85  C   UNL A   1      34.627  32.528  30.196  1.00  0.00     0.020 A 
ATOM     86  C   UNL A   1      34.701  33.418  29.123  1.00  0.00     0.054 A 
BRANCH  86  87
ATOM     87  S   UNL A   1      33.440  34.702  28.870  1.00  0.00     0.124 S 
ATOM     88  O   UNL A   1      34.222  35.784  28.279  1.00  0.00    -0.237 OA
ATOM     89  O   UNL A   1      32.497  34.045  27.966  1.00  0.00    -0.237 OA
ATOM     90  O   UNL A   1      32.931  34.960  30.213  1.00  0.00    -0.744 OA
ENDBRANCH  86  87
ENDBRANCH  58  81
BRANCH  70  91
ATOM     91  C   UNL A   1      41.725  30.235  33.519  1.00  0.00    -0.014 A 
ATOM     92  C   UNL A   1      41.877  30.506  34.891  1.00  0.00     0.010 A 
ATOM     93  C   UNL A   1      41.555  28.896  33.114  1.00  0.00     0.010 A 
ATOM     94  C   UNL A   1      41.918  29.475  35.829  1.00  0.00     0.020 A 
ATOM     95  C   UNL A   1      41.564  27.855  34.057  1.00  0.00     0.020 A 
ATOM     96  C   UNL A   1      41.780  28.153  35.404  1.00  0.00     0.054 A 
BRANCH  96  97
ATOM     97  S   UNL A   1      41.941  26.839  36.644  1.00  0.00     0.124 S 
ATOM     98  O   UNL A   1      42.104  25.650  35.809  1.00  0.00    -0.237 OA
ATOM     99  O   UNL A   1      43.130  27.245  37.392  1.00  0.00    -0.237 OA
ATOM    100  O   UNL A   1      40.685  26.908  37.386  1.00  0.00    -0.744 OA
ENDBRANCH  96  97
ENDBRANCH  70  91
ENDBRANCH  44  45
ENDBRANCH  36  39
ENDBRANCH  34  35
ENDBRANCH  33  34
ENDBRANCH   1  33
TORSDOF 18
ENDMDL
MODEL 2
REMARK VINA RESULT:     -12.5      2.841      3.796
REMARK SMILES O=C(Cn1cc(/C=C2\SC(N3CCOCC3)=[NH+]C2=O)c2ccccc21)NCCCCCCNC(=O)c1ccc(-c2c3nc(c(-c4ccc(S(=O)(=O)[O-])cc4)c4ccc([nH]4)c(-c4ccc(S(=O)(=O)[O-])cc4)c4nc(c(-c5ccc(S(=O)(=O)[O-])cc5)c5ccc2[nH]5)C=C4)C=C3)cc1
REMARK SMILES IDX 30 1 29 2 28 3 27 4 26 5 1 6 2 7 3 9 4 10 5 11 25 12 6 13
REMARK SMILES IDX 20 14 24 15 21 16 23 17 22 18 7 19 8 20 9 21 18 22 10 23
REMARK SMILES IDX 17 24 19 25 11 26 12 28 16 29 13 30 15 31 14 32 31 33 32 34
REMARK SMILES IDX 33 35 34 36 35 38 36 39 37 40 95 41 38 42 94 43 39 44 40 45
REMARK SMILES IDX 41 46 88 47 42 48 93 49 87 50 89 51 43 52 92 53 86 54 85 55
REMARK SMILES IDX 44 57 74 58 55 59 73 60 56 61 59 62 72 63 90 64 57 65 58 66
REMARK SMILES IDX 71 68 91 69 60 70 45 71 46 72 54 73 47 74 53 75 48 76 49 77
REMARK SMILES IDX 50 78 51 79 52 80 75 81 76 82 84 83 77 84 83 85 78 86 79 87
REMARK SMILES IDX 80 88 81 89 82 90 61 91 62 92 70 93 63 94 69 95 64 96 65 97
REMARK SMILES IDX 66 98 67 99 68 100
REMARK H PARENT 26 8 17 27 33 37 89 56 59 67
REMARK Flexibility Score: inf
ROOT
ATOM      1  C   UNL A   1      42.349  19.557  27.609  1.00  0.00     0.002 C 
ENDROOT
BRANCH   1   2
ATOM      2  C   UNL A   1      41.048  20.355  27.717  1.00  0.00     0.002 C 
BRANCH   2   3
ATOM      3  C   UNL A   1      40.317  20.605  26.395  1.00  0.00     0.021 C 
BRANCH   3   4
ATOM      4  C   UNL A   1      39.863  22.048  26.183  1.00  0.00     0.116 C 
BRANCH   4   5
ATOM      5  N   UNL A   1      38.440  22.208  26.417  1.00  0.00    -0.355 N 
ATOM      6  O   UNL A   1      37.748  21.221  24.463  1.00  0.00    -0.273 OA
ATOM      7  C   UNL A   1      37.481  21.715  25.556  1.00  0.00     0.239 C 
ATOM      8  H   UNL A   1      38.147  22.688  27.226  1.00  0.00     0.163 HD
BRANCH   7   9
ATOM      9  C   UNL A   1      36.046  21.900  26.011  1.00  0.00     0.222 C 
BRANCH   9  10
ATOM     10  N   UNL A   1      35.049  22.036  24.950  1.00  0.00    -0.337 N 
ATOM     11  C   UNL A   1      34.902  23.094  24.094  1.00  0.00     0.095 A 
ATOM     12  C   UNL A   1      34.097  21.068  24.661  1.00  0.00     0.049 A 
ATOM     13  C   UNL A   1      33.935  22.766  23.173  1.00  0.00     0.001 A 
ATOM     14  C   UNL A   1      33.374  21.518  23.551  1.00  0.00     0.007 A 
ATOM     15  C   UNL A   1      33.815  19.837  25.279  1.00  0.00     0.027 A 
ATOM     16  C   UNL A   1      32.331  20.716  23.045  1.00  0.00     0.011 A 
ATOM     17  C   UNL A   1      32.772  19.064  24.760  1.00  0.00     0.002 A 
ATOM     18  C   UNL A   1      32.037  19.497  23.661  1.00  0.00     0.001 A 
BRANCH  13  19
ATOM     19  C   UNL A   1      33.577  23.598  22.075  1.00  0.00     0.034 C 
ATOM     20  C   UNL A   1      33.225  24.890  22.153  1.00  0.00     0.110 C 
ATOM     21  S   UNL A   1      33.201  25.907  23.537  1.00  0.00     0.006 SA
ATOM     22  C   UNL A   1      32.784  25.664  20.958  1.00  0.00     0.346 C 
ATOM     23  C   UNL A   1      32.517  27.199  22.557  1.00  0.00     0.319 C 
ATOM     24  N   UNL A   1      32.346  26.921  21.311  1.00  0.00    -0.200 N 
ATOM     25  O   UNL A   1      32.836  25.211  19.829  1.00  0.00    -0.240 OA
ATOM     26  N   UNL A   1      32.162  28.355  23.190  1.00  0.00    -0.251 N 
ATOM     27  H   UNL A   1      31.940  27.548  20.670  1.00  0.00     0.316 HD
ATOM     28  C   UNL A   1      33.064  29.142  24.030  1.00  0.00     0.265 C 
ATOM     29  C   UNL A   1      30.922  29.069  22.855  1.00  0.00     0.265 C 
ATOM     30  C   UNL A   1      32.329  29.560  25.306  1.00  0.00     0.206 C 
ATOM     31  C   UNL A   1      30.240  29.466  24.176  1.00  0.00     0.206 C 
ATOM     32  O   UNL A   1      31.107  30.254  25.016  1.00  0.00    -0.373 OA
ENDBRANCH  13  19
ENDBRANCH   9  10
ENDBRANCH   7   9
ENDBRANCH   4   5
ENDBRANCH   3   4
ENDBRANCH   2   3
ENDBRANCH   1   2
BRANCH   1  33
ATOM     33  C   UNL A   1      42.574  18.810  26.287  1.00  0.00     0.021 C 
BRANCH  33  34
ATOM     34  C   UNL A   1      44.037  18.566  25.924  1.00  0.00     0.116 C 
BRANCH  34  35
ATOM     35  N   UNL A   1      44.454  19.256  24.721  1.00  0.00    -0.352 N 
ATOM     36  C   UNL A   1      44.589  20.561  24.339  1.00  0.00     0.251 C 
ATOM     37  H   UNL A   1      44.700  18.632  24.001  1.00  0.00     0.163 HD
ATOM     38  O   UNL A   1      45.108  20.729  23.231  1.00  0.00    -0.269 OA
BRANCH  36  39
ATOM     39  C   UNL A   1      44.131  21.755  25.104  1.00  0.00     0.039 A 
ATOM     40  C   UNL A   1      43.150  22.664  24.706  1.00  0.00     0.014 A 
ATOM     41  C   UNL A   1      44.828  22.006  26.303  1.00  0.00     0.014 A 
ATOM     42  C   UNL A   1      42.949  23.842  25.430  1.00  0.00     0.010 A 
ATOM     43  C   UNL A   1      44.627  23.173  27.030  1.00  0.00     0.010 A 
ATOM     44  C   UNL A   1      43.726  24.121  26.560  1.00  0.00    -0.014 A 
BRANCH  44  45
ATOM     45  C   UNL A   1      43.508  25.375  27.279  1.00  0.00     0.031 A 
ATOM     46  C   UNL A   1      44.532  26.429  27.031  1.00  0.00     0.074 A 
ATOM     47  C   UNL A   1      42.405  25.639  28.014  1.00  0.00     0.049 A 
ATOM     48  N   UNL A   1      45.336  26.978  27.882  1.00  0.00    -0.248 NA
ATOM     49  C   UNL A   1      44.763  26.841  25.638  1.00  0.00     0.031 C 
ATOM     50  C   UNL A   1      41.184  24.834  28.133  1.00  0.00     0.029 A 
ATOM     51  N   UNL A   1      42.100  26.755  28.739  1.00  0.00    -0.354 N 
ATOM     52  C   UNL A   1      46.054  27.939  27.171  1.00  0.00     0.074 A 
ATOM     53  C   UNL A   1      45.763  27.710  25.779  1.00  0.00     0.031 C 
ATOM     54  C   UNL A   1      40.199  25.587  28.677  1.00  0.00     0.029 A 
ATOM     55  C   UNL A   1      40.758  26.862  29.093  1.00  0.00     0.049 A 
ATOM     56  H   UNL A   1      42.774  27.427  28.991  1.00  0.00     0.167 HD
ATOM     57  C   UNL A   1      46.687  28.975  27.788  1.00  0.00     0.031 A 
ATOM     58  C   UNL A   1      40.143  27.938  29.649  1.00  0.00     0.031 A 
ATOM     59  C   UNL A   1      46.869  28.732  29.193  1.00  0.00     0.049 A 
ATOM     60  C   UNL A   1      41.195  28.764  30.284  1.00  0.00     0.074 A 
ATOM     61  C   UNL A   1      47.561  27.795  29.932  1.00  0.00     0.029 A 
ATOM     62  N   UNL A   1      45.969  29.310  30.055  1.00  0.00    -0.354 N 
ATOM     63  N   UNL A   1      41.901  28.376  31.308  1.00  0.00    -0.248 NA
ATOM     64  C   UNL A   1      41.754  29.864  29.516  1.00  0.00     0.031 C 
ATOM     65  C   UNL A   1      46.724  27.522  31.051  1.00  0.00     0.029 A 
ATOM     66  C   UNL A   1      45.607  28.358  30.972  1.00  0.00     0.049 A 
ATOM     67  H   UNL A   1      45.646  30.239  30.021  1.00  0.00     0.167 HD
ATOM     68  C   UNL A   1      43.173  28.871  31.065  1.00  0.00     0.074 A 
ATOM     69  C   UNL A   1      42.997  29.859  30.003  1.00  0.00     0.031 C 
ATOM     70  C   UNL A   1      44.282  28.245  31.554  1.00  0.00     0.031 A 
BRANCH  57  71
ATOM     71  C   UNL A   1      46.845  30.349  27.180  1.00  0.00    -0.014 A 
ATOM     72  C   UNL A   1      45.749  31.146  26.789  1.00  0.00     0.010 A 
ATOM     73  C   UNL A   1      48.105  30.984  27.221  1.00  0.00     0.010 A 
ATOM     74  C   UNL A   1      45.892  32.491  26.444  1.00  0.00     0.020 A 
ATOM     75  C   UNL A   1      48.254  32.347  26.920  1.00  0.00     0.020 A 
ATOM     76  C   UNL A   1      47.143  33.088  26.526  1.00  0.00     0.054 A 
BRANCH  76  77
ATOM     77  S   UNL A   1      47.262  34.860  26.177  1.00  0.00     0.124 S 
ATOM     78  O   UNL A   1      45.857  35.230  26.032  1.00  0.00    -0.237 OA
ATOM     79  O   UNL A   1      47.929  35.369  27.373  1.00  0.00    -0.237 OA
ATOM     80  O   UNL A   1      48.053  34.916  24.951  1.00  0.00    -0.744 OA
ENDBRANCH  76  77
ENDBRANCH  57  71
BRANCH  58  81
ATOM     81  C   UNL A   1      38.818  28.512  29.290  1.00  0.00    -0.014 A 
ATOM     82  C   UNL A   1      38.627  29.078  28.014  1.00  0.00     0.010 A 
ATOM     83  C   UNL A   1      37.868  28.812  30.289  1.00  0.00     0.010 A 
ATOM     84  C   UNL A   1      37.584  29.979  27.765  1.00  0.00     0.020 A 
ATOM     85  C   UNL A   1      36.817  29.715  30.046  1.00  0.00     0.020 A 
ATOM     86  C   UNL A   1      36.708  30.322  28.794  1.00  0.00     0.054 A 
BRANCH  86  87
ATOM     87  S   UNL A   1      35.497  31.642  28.485  1.00  0.00     0.124 S 
ATOM     88  O   UNL A   1      36.332  32.695  27.916  1.00  0.00    -0.237 OA
ATOM     89  O   UNL A   1      34.568  31.006  27.552  1.00  0.00    -0.237 OA
ATOM     90  O   UNL A   1      34.946  31.926  29.807  1.00  0.00    -0.744 OA
ENDBRANCH  86  87
ENDBRANCH  58  81
BRANCH  70  91
ATOM     91  C   UNL A   1      44.116  27.159  32.598  1.00  0.00    -0.014 A 
ATOM     92  C   UNL A   1      44.192  27.553  33.948  1.00  0.00     0.010 A 
ATOM     93  C   UNL A   1      44.115  25.782  32.300  1.00  0.00     0.010 A 
ATOM     94  C   UNL A   1      44.324  26.609  34.966  1.00  0.00     0.020 A 
ATOM     95  C   UNL A   1      44.216  24.826  33.324  1.00  0.00     0.020 A 
ATOM     96  C   UNL A   1      44.354  25.251  34.648  1.00  0.00     0.054 A 
BRANCH  96  97
ATOM     97  S   UNL A   1      44.627  24.067  35.993  1.00  0.00     0.124 S 
ATOM     98  O   UNL A   1      43.788  24.615  37.057  1.00  0.00    -0.237 OA
ATOM     99  O   UNL A   1      44.159  22.808  35.414  1.00  0.00    -0.237 OA
ATOM    100  O   UNL A   1      46.065  24.143  36.236  1.00  0.00    -0.744 OA
ENDBRANCH  96  97
ENDBRANCH  70  91
ENDBRANCH  44  45
ENDBRANCH  36  39
ENDBRANCH  34  35
ENDBRANCH  33  34
ENDBRANCH   1  33
TORSDOF 18
ENDMDL
MODEL 3
REMARK VINA RESULT:     -12.5      1.977      2.549
REMARK SMILES O=C(Cn1cc(/C=C2\SC(N3CCOCC3)=[NH+]C2=O)c2ccccc21)NCCCCCCNC(=O)c1ccc(-c2c3nc(c(-c4ccc(S(=O)(=O)[O-])cc4)c4ccc([nH]4)c(-c4ccc(S(=O)(=O)[O-])cc4)c4nc(c(-c5ccc(S(=O)(=O)[O-])cc5)c5ccc2[nH]5)C=C4)C=C3)cc1
REMARK SMILES IDX 30 1 29 2 28 3 27 4 26 5 1 6 2 7 3 9 4 10 5 11 25 12 6 13
REMARK SMILES IDX 20 14 24 15 21 16 23 17 22 18 7 19 8 20 9 21 18 22 10 23
REMARK SMILES IDX 17 24 19 25 11 26 12 28 16 29 13 30 15 31 14 32 31 33 32 34
REMARK SMILES IDX 33 35 34 36 35 38 36 39 37 40 95 41 38 42 94 43 39 44 40 45
REMARK SMILES IDX 41 46 88 47 42 48 93 49 87 50 89 51 43 52 92 53 86 54 85 55
REMARK SMILES IDX 44 57 74 58 55 59 73 60 56 61 59 62 72 63 90 64 57 65 58 66
REMARK SMILES IDX 71 68 91 69 60 70 45 71 46 72 54 73 47 74 53 75 48 76 49 77
REMARK SMILES IDX 50 78 51 79 52 80 75 81 76 82 84 83 77 84 83 85 78 86 79 87
REMARK SMILES IDX 80 88 81 89 82 90 61 91 62 92 70 93 63 94 69 95 64 96 65 97
REMARK SMILES IDX 66 98 67 99 68 100
REMARK H PARENT 26 8 17 27 33 37 89 56 59 67
REMARK Flexibility Score: inf
ROOT
ATOM      1  C   UNL A   1      41.381  20.297  27.485  1.00  0.00     0.002 C 
ENDROOT
BRANCH   1   2
ATOM      2  C   UNL A   1      40.932  21.718  27.836  1.00  0.00     0.002 C 
BRANCH   2   3
ATOM      3  C   UNL A   1      40.559  22.603  26.644  1.00  0.00     0.021 C 
BRANCH   3   4
ATOM      4  C   UNL A   1      39.076  22.959  26.558  1.00  0.00     0.116 C 
BRANCH   4   5
ATOM      5  N   UNL A   1      38.265  21.817  26.182  1.00  0.00    -0.355 N 
ATOM      6  O   UNL A   1      37.453  22.712  24.230  1.00  0.00    -0.273 OA
ATOM      7  C   UNL A   1      37.559  21.758  24.998  1.00  0.00     0.239 C 
ATOM      8  H   UNL A   1      38.216  21.050  26.799  1.00  0.00     0.163 HD
BRANCH   7   9
ATOM      9  C   UNL A   1      36.841  20.448  24.736  1.00  0.00     0.222 C 
BRANCH   9  10
ATOM     10  N   UNL A   1      35.422  20.414  25.084  1.00  0.00    -0.337 N 
ATOM     11  C   UNL A   1      34.699  21.414  25.678  1.00  0.00     0.095 A 
ATOM     12  C   UNL A   1      34.595  19.327  24.839  1.00  0.00     0.049 A 
ATOM     13  C   UNL A   1      33.380  21.025  25.712  1.00  0.00     0.001 A 
ATOM     14  C   UNL A   1      33.304  19.688  25.242  1.00  0.00     0.007 A 
ATOM     15  C   UNL A   1      34.873  18.060  24.294  1.00  0.00     0.027 A 
ATOM     16  C   UNL A   1      32.259  18.753  25.103  1.00  0.00     0.011 A 
ATOM     17  C   UNL A   1      33.818  17.151  24.173  1.00  0.00     0.002 A 
ATOM     18  C   UNL A   1      32.530  17.488  24.574  1.00  0.00     0.001 A 
BRANCH  13  19
ATOM     19  C   UNL A   1      32.325  21.855  26.186  1.00  0.00     0.034 C 
ATOM     20  C   UNL A   1      32.066  23.104  25.772  1.00  0.00     0.110 C 
ATOM     21  S   UNL A   1      32.840  23.998  24.527  1.00  0.00     0.006 SA
ATOM     22  C   UNL A   1      30.988  23.933  26.384  1.00  0.00     0.346 C 
ATOM     23  C   UNL A   1      31.854  25.396  24.938  1.00  0.00     0.319 C 
ATOM     24  N   UNL A   1      31.004  25.219  25.890  1.00  0.00    -0.200 N 
ATOM     25  O   UNL A   1      30.203  23.486  27.202  1.00  0.00    -0.240 OA
ATOM     26  N   UNL A   1      32.102  26.565  24.277  1.00  0.00    -0.251 N 
ATOM     27  H   UNL A   1      30.421  25.933  26.233  1.00  0.00     0.316 HD
ATOM     28  C   UNL A   1      32.113  26.697  22.820  1.00  0.00     0.265 C 
ATOM     29  C   UNL A   1      32.100  27.860  24.970  1.00  0.00     0.265 C 
ATOM     30  C   UNL A   1      33.327  27.529  22.399  1.00  0.00     0.206 C 
ATOM     31  C   UNL A   1      33.336  28.646  24.497  1.00  0.00     0.206 C 
ATOM     32  O   UNL A   1      33.362  28.800  23.064  1.00  0.00    -0.373 OA
ENDBRANCH  13  19
ENDBRANCH   9  10
ENDBRANCH   7   9
ENDBRANCH   4   5
ENDBRANCH   3   4
ENDBRANCH   2   3
ENDBRANCH   1   2
BRANCH   1  33
ATOM     33  C   UNL A   1      41.860  20.078  26.044  1.00  0.00     0.021 C 
BRANCH  33  34
ATOM     34  C   UNL A   1      43.235  19.426  25.912  1.00  0.00     0.116 C 
BRANCH  34  35
ATOM     35  N   UNL A   1      44.102  20.099  24.967  1.00  0.00    -0.352 N 
ATOM     36  C   UNL A   1      44.517  21.384  24.765  1.00  0.00     0.251 C 
ATOM     37  H   UNL A   1      44.486  19.477  24.309  1.00  0.00     0.163 HD
ATOM     38  O   UNL A   1      45.383  21.522  23.894  1.00  0.00    -0.269 OA
BRANCH  36  39
ATOM     39  C   UNL A   1      43.991  22.599  25.450  1.00  0.00     0.039 A 
ATOM     40  C   UNL A   1      43.301  23.652  24.850  1.00  0.00     0.014 A 
ATOM     41  C   UNL A   1      44.305  22.700  26.820  1.00  0.00     0.014 A 
ATOM     42  C   UNL A   1      43.028  24.816  25.573  1.00  0.00     0.010 A 
ATOM     43  C   UNL A   1      44.030  23.853  27.546  1.00  0.00     0.010 A 
ATOM     44  C   UNL A   1      43.442  24.936  26.904  1.00  0.00    -0.014 A 
BRANCH  44  45
ATOM     45  C   UNL A   1      43.164  26.179  27.623  1.00  0.00     0.031 A 
ATOM     46  C   UNL A   1      44.156  27.269  27.403  1.00  0.00     0.074 A 
ATOM     47  C   UNL A   1      42.036  26.400  28.335  1.00  0.00     0.049 A 
ATOM     48  N   UNL A   1      44.920  27.841  28.274  1.00  0.00    -0.248 NA
ATOM     49  C   UNL A   1      44.403  27.696  26.017  1.00  0.00     0.031 C 
ATOM     50  C   UNL A   1      40.842  25.552  28.422  1.00  0.00     0.029 A 
ATOM     51  N   UNL A   1      41.676  27.501  29.057  1.00  0.00    -0.354 N 
ATOM     52  C   UNL A   1      45.620  28.831  27.584  1.00  0.00     0.074 A 
ATOM     53  C   UNL A   1      45.368  28.599  26.184  1.00  0.00     0.031 C 
ATOM     54  C   UNL A   1      39.819  26.267  28.947  1.00  0.00     0.029 A 
ATOM     55  C   UNL A   1      40.324  27.558  29.382  1.00  0.00     0.049 A 
ATOM     56  H   UNL A   1      42.321  28.195  29.327  1.00  0.00     0.167 HD
ATOM     57  C   UNL A   1      46.202  29.885  28.220  1.00  0.00     0.031 A 
ATOM     58  C   UNL A   1      39.659  28.610  29.928  1.00  0.00     0.031 A 
ATOM     59  C   UNL A   1      46.361  29.641  29.627  1.00  0.00     0.049 A 
ATOM     60  C   UNL A   1      40.667  29.469  30.590  1.00  0.00     0.074 A 
ATOM     61  C   UNL A   1      47.069  28.725  30.377  1.00  0.00     0.029 A 
ATOM     62  N   UNL A   1      45.423  30.183  30.472  1.00  0.00    -0.354 N 
ATOM     63  N   UNL A   1      41.363  29.100  31.628  1.00  0.00    -0.248 NA
ATOM     64  C   UNL A   1      41.204  30.592  29.840  1.00  0.00     0.031 C 
ATOM     65  C   UNL A   1      46.217  28.417  31.477  1.00  0.00     0.029 A 
ATOM     66  C   UNL A   1      45.073  29.214  31.376  1.00  0.00     0.049 A 
ATOM     67  H   UNL A   1      45.067  31.100  30.434  1.00  0.00     0.167 HD
ATOM     68  C   UNL A   1      42.621  29.641  31.416  1.00  0.00     0.074 A 
ATOM     69  C   UNL A   1      42.435  30.628  30.355  1.00  0.00     0.031 C 
ATOM     70  C   UNL A   1      43.741  29.051  31.927  1.00  0.00     0.031 A 
BRANCH  57  71
ATOM     71  C   UNL A   1      46.325  31.267  27.622  1.00  0.00    -0.014 A 
ATOM     72  C   UNL A   1      45.256  32.186  27.587  1.00  0.00     0.010 A 
ATOM     73  C   UNL A   1      47.604  31.772  27.304  1.00  0.00     0.010 A 
ATOM     74  C   UNL A   1      45.438  33.527  27.244  1.00  0.00     0.020 A 
ATOM     75  C   UNL A   1      47.806  33.128  27.001  1.00  0.00     0.020 A 
ATOM     76  C   UNL A   1      46.716  33.994  26.967  1.00  0.00     0.054 A 
BRANCH  76  77
ATOM     77  S   UNL A   1      46.922  35.762  26.636  1.00  0.00     0.124 S 
ATOM     78  O   UNL A   1      47.410  36.250  27.923  1.00  0.00    -0.237 OA
ATOM     79  O   UNL A   1      47.896  35.765  25.549  1.00  0.00    -0.237 OA
ATOM     80  O   UNL A   1      45.577  36.200  26.270  1.00  0.00    -0.744 OA
ENDBRANCH  76  77
ENDBRANCH  57  71
BRANCH  58  81
ATOM     81  C   UNL A   1      38.323  29.139  29.542  1.00  0.00    -0.014 A 
ATOM     82  C   UNL A   1      38.059  29.446  28.193  1.00  0.00     0.010 A 
ATOM     83  C   UNL A   1      37.444  29.657  30.517  1.00  0.00     0.010 A 
ATOM     84  C   UNL A   1      37.017  30.309  27.833  1.00  0.00     0.020 A 
ATOM     85  C   UNL A   1      36.394  30.524  30.162  1.00  0.00     0.020 A 
ATOM     86  C   UNL A   1      36.214  30.874  28.823  1.00  0.00     0.054 A 
BRANCH  86  87
ATOM     87  S   UNL A   1      35.007  32.141  28.330  1.00  0.00     0.124 S 
ATOM     88  O   UNL A   1      35.849  33.112  27.639  1.00  0.00    -0.237 OA
ATOM     89  O   UNL A   1      34.090  31.387  27.477  1.00  0.00    -0.237 OA
ATOM     90  O   UNL A   1      34.440  32.593  29.597  1.00  0.00    -0.744 OA
ENDBRANCH  86  87
ENDBRANCH  58  81
BRANCH  70  91
ATOM     91  C   UNL A   1      43.590  27.955  32.963  1.00  0.00    -0.014 A 
ATOM     92  C   UNL A   1      43.615  28.345  34.315  1.00  0.00     0.010 A 
ATOM     93  C   UNL A   1      43.650  26.580  32.660  1.00  0.00     0.010 A 
ATOM     94  C   UNL A   1      43.757  27.402  35.334  1.00  0.00     0.020 A 
ATOM     95  C   UNL A   1      43.760  25.624  33.683  1.00  0.00     0.020 A 
ATOM     96  C   UNL A   1      43.848  26.048  35.010  1.00  0.00     0.054 A 
BRANCH  96  97
ATOM     97  S   UNL A   1      44.132  24.868  36.358  1.00  0.00     0.124 S 
ATOM     98  O   UNL A   1      45.572  24.993  36.573  1.00  0.00    -0.237 OA
ATOM     99  O   UNL A   1      43.292  25.397  37.431  1.00  0.00    -0.237 OA
ATOM    100  O   UNL A   1      43.696  23.592  35.799  1.00  0.00    -0.744 OA
ENDBRANCH  96  97
ENDBRANCH  70  91
ENDBRANCH  44  45
ENDBRANCH  36  39
ENDBRANCH  34  35
ENDBRANCH  33  34
ENDBRANCH   1  33
TORSDOF 18
ENDMDL
