MODEL 1
REMARK VINA RESULT:     -12.1      0.000      0.000
REMARK SMILES O=C(NCCCCCCNC(=O)[C@H]1c2[nH]cnc2CC[N@H+]1Cc1ccoc1)c1ccc(-c2c3nc(c(-c4ccc(S(=O)(=O)[O-])cc4)c4ccc([nH]4)c(-c4ccc(S(=O)(=O)[O-])cc4)c4nc(c(-c5ccc(S(=O)(=O)[O-])cc5)c5ccc2[nH]5)C=C4)C=C3)cc1
REMARK SMILES IDX 6 1 5 2 4 3 3 4 1 5 2 6 28 8 29 9 87 10 30 11 86 12 31 13
REMARK SMILES IDX 32 14 33 15 80 16 34 17 85 18 79 19 81 20 35 21 84 22 78 23
REMARK SMILES IDX 77 24 36 26 66 27 47 28 65 29 48 30 51 31 64 32 82 33 49 34
REMARK SMILES IDX 50 35 63 37 83 38 52 39 37 40 38 41 46 42 39 43 45 44 40 45
REMARK SMILES IDX 41 46 42 47 43 48 44 49 67 50 68 51 76 52 69 53 75 54 70 55
REMARK SMILES IDX 71 56 72 57 73 58 74 59 53 60 54 61 62 62 55 63 61 64 56 65
REMARK SMILES IDX 57 66 58 67 59 68 60 69 7 70 8 71 9 72 10 73 11 74 12 76
REMARK SMILES IDX 13 77 14 78 21 79 15 80 18 81 20 82 16 84 17 86 19 87 22 88
REMARK SMILES IDX 23 89 24 90 27 91 25 92 26 93
REMARK H PARENT 3 7 81 25 51 36 10 75 21 83 15 85
REMARK Flexibility Score: inf
ROOT
ATOM      1  C   UNL A   1      33.776  27.537  25.638  1.00  0.00     0.002 C 
ENDROOT
BRANCH   1   2
ATOM      2  C   UNL A   1      32.767  28.526  26.239  1.00  0.00     0.021 C 
BRANCH   2   3
ATOM      3  C   UNL A   1      33.175  29.117  27.588  1.00  0.00     0.116 C 
BRANCH   3   4
ATOM      4  N   UNL A   1      33.337  30.553  27.569  1.00  0.00    -0.352 N 
ATOM      5  O   UNL A   1      34.147  32.601  27.519  1.00  0.00    -0.269 OA
ATOM      6  C   UNL A   1      34.398  31.404  27.687  1.00  0.00     0.251 C 
ATOM      7  H   UNL A   1      32.484  31.029  27.442  1.00  0.00     0.163 HD
BRANCH   6   8
ATOM      8  C   UNL A   1      35.783  31.003  28.052  1.00  0.00     0.039 A 
ATOM      9  C   UNL A   1      36.758  31.829  28.615  1.00  0.00     0.014 A 
ATOM     10  C   UNL A   1      36.121  29.667  27.764  1.00  0.00     0.014 A 
ATOM     11  C   UNL A   1      38.055  31.360  28.809  1.00  0.00     0.010 A 
ATOM     12  C   UNL A   1      37.409  29.189  27.969  1.00  0.00     0.010 A 
ATOM     13  C   UNL A   1      38.385  30.051  28.458  1.00  0.00    -0.014 A 
BRANCH  13  14
ATOM     14  C   UNL A   1      39.734  29.575  28.748  1.00  0.00     0.031 A 
ATOM     15  C   UNL A   1      40.079  29.519  30.200  1.00  0.00     0.074 A 
ATOM     16  C   UNL A   1      40.555  29.068  27.806  1.00  0.00     0.049 A 
ATOM     17  N   UNL A   1      41.022  30.140  30.828  1.00  0.00    -0.248 NA
ATOM     18  C   UNL A   1      39.182  28.752  31.081  1.00  0.00     0.031 C 
ATOM     19  C   UNL A   1      40.246  28.779  26.403  1.00  0.00     0.029 A 
ATOM     20  N   UNL A   1      41.820  28.584  27.945  1.00  0.00    -0.354 N 
ATOM     21  C   UNL A   1      40.962  29.700  32.151  1.00  0.00     0.074 A 
ATOM     22  C   UNL A   1      39.732  28.962  32.277  1.00  0.00     0.031 C 
ATOM     23  C   UNL A   1      41.193  27.956  25.898  1.00  0.00     0.029 A 
ATOM     24  C   UNL A   1      42.241  27.780  26.891  1.00  0.00     0.049 A 
ATOM     25  H   UNL A   1      42.389  28.786  28.724  1.00  0.00     0.167 HD
ATOM     26  C   UNL A   1      42.024  29.796  33.001  1.00  0.00     0.031 A 
ATOM     27  C   UNL A   1      43.331  26.971  26.868  1.00  0.00     0.031 A 
ATOM     28  C   UNL A   1      43.014  30.721  32.522  1.00  0.00     0.049 A 
ATOM     29  C   UNL A   1      44.250  27.438  27.933  1.00  0.00     0.074 A 
ATOM     30  C   UNL A   1      43.033  32.073  32.246  1.00  0.00     0.029 A 
ATOM     31  N   UNL A   1      44.124  30.193  31.907  1.00  0.00    -0.354 N 
ATOM     32  N   UNL A   1      44.850  28.596  27.909  1.00  0.00    -0.248 NA
ATOM     33  C   UNL A   1      44.156  26.811  29.242  1.00  0.00     0.031 C 
ATOM     34  C   UNL A   1      43.856  32.196  31.088  1.00  0.00     0.029 A 
ATOM     35  C   UNL A   1      44.338  30.924  30.768  1.00  0.00     0.049 A 
ATOM     36  H   UNL A   1      44.664  29.433  32.224  1.00  0.00     0.167 HD
ATOM     37  C   UNL A   1      44.827  29.035  29.225  1.00  0.00     0.074 A 
ATOM     38  C   UNL A   1      44.468  27.857  30.012  1.00  0.00     0.031 C 
ATOM     39  C   UNL A   1      44.833  30.368  29.529  1.00  0.00     0.031 A 
BRANCH  26  40
ATOM     40  C   UNL A   1      42.345  28.767  34.060  1.00  0.00    -0.014 A 
ATOM     41  C   UNL A   1      42.876  27.522  33.662  1.00  0.00     0.010 A 
ATOM     42  C   UNL A   1      41.871  28.863  35.385  1.00  0.00     0.010 A 
ATOM     43  C   UNL A   1      42.839  26.408  34.514  1.00  0.00     0.020 A 
ATOM     44  C   UNL A   1      41.870  27.771  36.256  1.00  0.00     0.020 A 
ATOM     45  C   UNL A   1      42.315  26.539  35.799  1.00  0.00     0.054 A 
BRANCH  45  46
ATOM     46  S   UNL A   1      42.140  25.067  36.838  1.00  0.00     0.124 S 
ATOM     47  O   UNL A   1      40.944  25.383  37.608  1.00  0.00    -0.237 OA
ATOM     48  O   UNL A   1      41.998  24.004  35.848  1.00  0.00    -0.237 OA
ATOM     49  O   UNL A   1      43.389  25.039  37.601  1.00  0.00    -0.744 OA
ENDBRANCH  45  46
ENDBRANCH  26  40
BRANCH  27  50
ATOM     50  C   UNL A   1      43.450  25.628  26.239  1.00  0.00    -0.014 A 
ATOM     51  C   UNL A   1      44.375  25.377  25.209  1.00  0.00     0.010 A 
ATOM     52  C   UNL A   1      42.840  24.513  26.853  1.00  0.00     0.010 A 
ATOM     53  C   UNL A   1      44.715  24.060  24.842  1.00  0.00     0.020 A 
ATOM     54  C   UNL A   1      43.168  23.201  26.490  1.00  0.00     0.020 A 
ATOM     55  C   UNL A   1      44.120  22.979  25.499  1.00  0.00     0.054 A 
BRANCH  55  56
ATOM     56  S   UNL A   1      44.683  21.287  25.142  1.00  0.00     0.124 S 
ATOM     57  O   UNL A   1      43.712  20.476  25.871  1.00  0.00    -0.237 OA
ATOM     58  O   UNL A   1      44.596  21.222  23.686  1.00  0.00    -0.237 OA
ATOM     59  O   UNL A   1      46.043  21.256  25.680  1.00  0.00    -0.744 OA
ENDBRANCH  55  56
ENDBRANCH  27  50
BRANCH  39  60
ATOM     60  C   UNL A   1      45.138  31.362  28.433  1.00  0.00    -0.014 A 
ATOM     61  C   UNL A   1      44.147  32.012  27.671  1.00  0.00     0.010 A 
ATOM     62  C   UNL A   1      46.470  31.792  28.307  1.00  0.00     0.010 A 
ATOM     63  C   UNL A   1      44.486  33.060  26.801  1.00  0.00     0.020 A 
ATOM     64  C   UNL A   1      46.812  32.846  27.456  1.00  0.00     0.020 A 
ATOM     65  C   UNL A   1      45.818  33.474  26.705  1.00  0.00     0.054 A 
BRANCH  65  66
ATOM     66  S   UNL A   1      46.248  34.885  25.646  1.00  0.00     0.124 S 
ATOM     67  O   UNL A   1      47.707  34.792  25.571  1.00  0.00    -0.237 OA
ATOM     68  O   UNL A   1      45.538  34.585  24.402  1.00  0.00    -0.237 OA
ATOM     69  O   UNL A   1      45.740  36.039  26.374  1.00  0.00    -0.744 OA
ENDBRANCH  65  66
ENDBRANCH  39  60
ENDBRANCH  13  14
ENDBRANCH   6   8
ENDBRANCH   3   4
ENDBRANCH   2   3
ENDBRANCH   1   2
BRANCH   1  70
ATOM     70  C   UNL A   1      33.480  26.050  25.873  1.00  0.00     0.002 C 
BRANCH  70  71
ATOM     71  C   UNL A   1      34.398  25.082  25.129  1.00  0.00     0.021 C 
BRANCH  71  72
ATOM     72  C   UNL A   1      34.437  23.689  25.738  1.00  0.00     0.116 C 
BRANCH  72  73
ATOM     73  N   UNL A   1      33.407  23.504  26.736  1.00  0.00    -0.351 N 
ATOM     74  C   UNL A   1      32.183  22.912  26.623  1.00  0.00     0.284 C 
ATOM     75  H   UNL A   1      33.620  23.859  27.629  1.00  0.00     0.163 HD
ATOM     76  O   UNL A   1      31.460  22.935  27.631  1.00  0.00    -0.268 OA
BRANCH  74  77
ATOM     77  C   UNL A   1      31.634  22.312  25.303  1.00  0.00     0.324 C 
ATOM     78  C   UNL A   1      31.203  23.419  24.416  1.00  0.00     0.106 A 
ATOM     79  N   UNL A   1      32.502  21.357  24.584  1.00  0.00    -0.315 N 
ATOM     80  N   UNL A   1      30.367  24.453  24.730  1.00  0.00    -0.343 N 
ATOM     81  C   UNL A   1      31.666  23.686  23.154  1.00  0.00     0.074 A 
ATOM     82  C   UNL A   1      33.308  21.799  23.440  1.00  0.00     0.270 C 
ATOM     83  H   UNL A   1      31.732  20.976  24.035  1.00  0.00     0.349 HD
ATOM     84  C   UNL A   1      30.410  25.325  23.674  1.00  0.00     0.197 A 
ATOM     85  H   UNL A   1      29.837  24.552  25.554  1.00  0.00     0.167 HD
ATOM     86  N   UNL A   1      31.176  24.880  22.699  1.00  0.00    -0.241 NA
ATOM     87  C   UNL A   1      32.661  22.833  22.465  1.00  0.00     0.120 C 
BRANCH  79  88
ATOM     88  C   UNL A   1      32.972  20.180  25.307  1.00  0.00     0.303 C 
BRANCH  88  89
ATOM     89  C   UNL A   1      33.207  18.987  24.442  1.00  0.00     0.044 A 
ATOM     90  C   UNL A   1      34.358  18.140  24.429  1.00  0.00     0.051 A 
ATOM     91  C   UNL A   1      32.342  18.416  23.527  1.00  0.00     0.204 A 
ATOM     92  C   UNL A   1      34.153  17.203  23.446  1.00  0.00     0.195 A 
ATOM     93  O   UNL A   1      32.922  17.359  22.903  1.00  0.00    -0.472 OA
ENDBRANCH  88  89
ENDBRANCH  79  88
ENDBRANCH  74  77
ENDBRANCH  72  73
ENDBRANCH  71  72
ENDBRANCH  70  71
ENDBRANCH   1  70
TORSDOF 18
ENDMDL
MODEL 2
REMARK VINA RESULT:     -12.1      2.456      9.011
REMARK SMILES O=C(NCCCCCCNC(=O)[C@H]1c2[nH]cnc2CC[N@H+]1Cc1ccoc1)c1ccc(-c2c3nc(c(-c4ccc(S(=O)(=O)[O-])cc4)c4ccc([nH]4)c(-c4ccc(S(=O)(=O)[O-])cc4)c4nc(c(-c5ccc(S(=O)(=O)[O-])cc5)c5ccc2[nH]5)C=C4)C=C3)cc1
REMARK SMILES IDX 6 1 5 2 4 3 3 4 1 5 2 6 28 8 29 9 87 10 30 11 86 12 31 13
REMARK SMILES IDX 32 14 33 15 80 16 34 17 85 18 79 19 81 20 35 21 84 22 78 23
REMARK SMILES IDX 77 24 36 26 66 27 47 28 65 29 48 30 51 31 64 32 82 33 49 34
REMARK SMILES IDX 50 35 63 37 83 38 52 39 37 40 38 41 46 42 39 43 45 44 40 45
REMARK SMILES IDX 41 46 42 47 43 48 44 49 67 50 68 51 76 52 69 53 75 54 70 55
REMARK SMILES IDX 71 56 72 57 73 58 74 59 53 60 54 61 62 62 55 63 61 64 56 65
REMARK SMILES IDX 57 66 58 67 59 68 60 69 7 70 8 71 9 72 10 73 11 74 12 76
REMARK SMILES IDX 13 77 14 78 21 79 15 80 18 81 20 82 16 84 17 86 19 87 22 88
REMARK SMILES IDX 23 89 24 90 27 91 25 92 26 93
REMARK H PARENT 3 7 81 25 51 36 10 75 21 83 15 85
REMARK Flexibility Score: inf
ROOT
ATOM      1  C   UNL A   1      38.857  22.538  26.631  1.00  0.00     0.002 C 
ENDROOT
BRANCH   1   2
ATOM      2  C   UNL A   1      39.344  21.289  25.882  1.00  0.00     0.021 C 
BRANCH   2   3
ATOM      3  C   UNL A   1      40.574  20.615  26.492  1.00  0.00     0.116 C 
BRANCH   3   4
ATOM      4  N   UNL A   1      41.792  20.847  25.750  1.00  0.00    -0.352 N 
ATOM      5  O   UNL A   1      43.725  21.613  25.021  1.00  0.00    -0.269 OA
ATOM      6  C   UNL A   1      42.755  21.815  25.758  1.00  0.00     0.251 C 
ATOM      7  H   UNL A   1      41.970  20.144  25.083  1.00  0.00     0.163 HD
BRANCH   6   8
ATOM      8  C   UNL A   1      42.688  23.086  26.529  1.00  0.00     0.039 A 
ATOM      9  C   UNL A   1      43.145  23.282  27.834  1.00  0.00     0.014 A 
ATOM     10  C   UNL A   1      42.077  24.165  25.862  1.00  0.00     0.014 A 
ATOM     11  C   UNL A   1      42.925  24.494  28.484  1.00  0.00     0.010 A 
ATOM     12  C   UNL A   1      41.868  25.380  26.501  1.00  0.00     0.010 A 
ATOM     13  C   UNL A   1      42.261  25.530  27.827  1.00  0.00    -0.014 A 
BRANCH  13  14
ATOM     14  C   UNL A   1      42.118  26.808  28.516  1.00  0.00     0.031 A 
ATOM     15  C   UNL A   1      43.270  27.743  28.345  1.00  0.00     0.074 A 
ATOM     16  C   UNL A   1      40.978  27.195  29.124  1.00  0.00     0.049 A 
ATOM     17  N   UNL A   1      44.040  28.247  29.253  1.00  0.00    -0.248 NA
ATOM     18  C   UNL A   1      43.680  28.070  26.968  1.00  0.00     0.031 C 
ATOM     19  C   UNL A   1      39.678  26.519  29.112  1.00  0.00     0.029 A 
ATOM     20  N   UNL A   1      40.712  28.355  29.786  1.00  0.00    -0.354 N 
ATOM     21  C   UNL A   1      44.916  29.104  28.587  1.00  0.00     0.074 A 
ATOM     22  C   UNL A   1      44.742  28.848  27.179  1.00  0.00     0.031 C 
ATOM     23  C   UNL A   1      38.721  27.387  29.515  1.00  0.00     0.029 A 
ATOM     24  C   UNL A   1      39.357  28.621  29.946  1.00  0.00     0.049 A 
ATOM     25  H   UNL A   1      41.418  28.953  30.123  1.00  0.00     0.167 HD
ATOM     26  C   UNL A   1      45.578  30.111  29.224  1.00  0.00     0.031 A 
ATOM     27  C   UNL A   1      38.797  29.796  30.332  1.00  0.00     0.031 A 
ATOM     28  C   UNL A   1      45.581  29.935  30.649  1.00  0.00     0.049 A 
ATOM     29  C   UNL A   1      39.853  30.585  31.012  1.00  0.00     0.074 A 
ATOM     30  C   UNL A   1      46.076  28.979  31.513  1.00  0.00     0.029 A 
ATOM     31  N   UNL A   1      44.675  30.669  31.377  1.00  0.00    -0.354 N 
ATOM     32  N   UNL A   1      40.399  30.233  32.142  1.00  0.00    -0.248 NA
ATOM     33  C   UNL A   1      40.619  31.531  30.216  1.00  0.00     0.031 C 
ATOM     34  C   UNL A   1      45.095  28.875  32.542  1.00  0.00     0.029 A 
ATOM     35  C   UNL A   1      44.095  29.814  32.277  1.00  0.00     0.049 A 
ATOM     36  H   UNL A   1      44.479  31.629  31.272  1.00  0.00     0.167 HD
ATOM     37  C   UNL A   1      41.739  30.566  32.008  1.00  0.00     0.074 A 
ATOM     38  C   UNL A   1      41.798  31.441  30.839  1.00  0.00     0.031 C 
ATOM     39  C   UNL A   1      42.710  29.887  32.689  1.00  0.00     0.031 A 
BRANCH  26  40
ATOM     40  C   UNL A   1      45.879  31.449  28.589  1.00  0.00    -0.014 A 
ATOM     41  C   UNL A   1      44.808  32.316  28.283  1.00  0.00     0.010 A 
ATOM     42  C   UNL A   1      47.130  31.756  28.014  1.00  0.00     0.010 A 
ATOM     43  C   UNL A   1      44.961  33.371  27.372  1.00  0.00     0.020 A 
ATOM     44  C   UNL A   1      47.304  32.831  27.139  1.00  0.00     0.020 A 
ATOM     45  C   UNL A   1      46.207  33.605  26.791  1.00  0.00     0.054 A 
BRANCH  45  46
ATOM     46  S   UNL A   1      46.360  34.876  25.510  1.00  0.00     0.124 S 
ATOM     47  O   UNL A   1      47.750  34.721  25.099  1.00  0.00    -0.237 OA
ATOM     48  O   UNL A   1      45.358  34.458  24.536  1.00  0.00    -0.237 OA
ATOM     49  O   UNL A   1      46.051  36.116  26.223  1.00  0.00    -0.744 OA
ENDBRANCH  45  46
ENDBRANCH  26  40
BRANCH  27  50
ATOM     50  C   UNL A   1      37.536  30.407  29.833  1.00  0.00    -0.014 A 
ATOM     51  C   UNL A   1      36.503  30.785  30.712  1.00  0.00     0.010 A 
ATOM     52  C   UNL A   1      37.466  30.878  28.505  1.00  0.00     0.010 A 
ATOM     53  C   UNL A   1      35.468  31.642  30.290  1.00  0.00     0.020 A 
ATOM     54  C   UNL A   1      36.437  31.726  28.077  1.00  0.00     0.020 A 
ATOM     55  C   UNL A   1      35.453  32.122  28.978  1.00  0.00     0.054 A 
BRANCH  55  56
ATOM     56  S   UNL A   1      34.214  33.359  28.485  1.00  0.00     0.124 S 
ATOM     57  O   UNL A   1      33.198  32.539  27.833  1.00  0.00    -0.237 OA
ATOM     58  O   UNL A   1      33.826  33.949  29.762  1.00  0.00    -0.237 OA
ATOM     59  O   UNL A   1      34.954  34.251  27.593  1.00  0.00    -0.744 OA
ENDBRANCH  55  56
ENDBRANCH  27  50
BRANCH  39  60
ATOM     60  C   UNL A   1      42.300  28.947  33.797  1.00  0.00    -0.014 A 
ATOM     61  C   UNL A   1      41.759  27.665  33.573  1.00  0.00     0.010 A 
ATOM     62  C   UNL A   1      42.657  29.305  35.109  1.00  0.00     0.010 A 
ATOM     63  C   UNL A   1      41.575  26.771  34.639  1.00  0.00     0.020 A 
ATOM     64  C   UNL A   1      42.493  28.412  36.171  1.00  0.00     0.020 A 
ATOM     65  C   UNL A   1      41.950  27.149  35.932  1.00  0.00     0.054 A 
BRANCH  65  66
ATOM     66  S   UNL A   1      41.793  25.965  37.298  1.00  0.00     0.124 S 
ATOM     67  O   UNL A   1      42.801  26.439  38.247  1.00  0.00    -0.237 OA
ATOM     68  O   UNL A   1      40.403  26.141  37.723  1.00  0.00    -0.237 OA
ATOM     69  O   UNL A   1      42.082  24.677  36.683  1.00  0.00    -0.744 OA
ENDBRANCH  65  66
ENDBRANCH  39  60
ENDBRANCH  13  14
ENDBRANCH   6   8
ENDBRANCH   3   4
ENDBRANCH   2   3
ENDBRANCH   1   2
BRANCH   1  70
ATOM     70  C   UNL A   1      38.168  23.608  25.774  1.00  0.00     0.002 C 
BRANCH  70  71
ATOM     71  C   UNL A   1      36.645  23.648  25.890  1.00  0.00     0.021 C 
BRANCH  71  72
ATOM     72  C   UNL A   1      35.929  22.902  24.775  1.00  0.00     0.116 C 
BRANCH  72  73
ATOM     73  N   UNL A   1      35.462  23.795  23.738  1.00  0.00    -0.351 N 
ATOM     74  C   UNL A   1      34.211  24.293  23.517  1.00  0.00     0.284 C 
ATOM     75  H   UNL A   1      36.149  24.086  23.095  1.00  0.00     0.163 HD
ATOM     76  O   UNL A   1      34.067  25.005  22.510  1.00  0.00    -0.268 OA
BRANCH  74  77
ATOM     77  C   UNL A   1      32.977  23.945  24.389  1.00  0.00     0.324 C 
ATOM     78  C   UNL A   1      32.602  25.138  25.186  1.00  0.00     0.106 A 
ATOM     79  N   UNL A   1      31.804  23.373  23.697  1.00  0.00    -0.315 N 
ATOM     80  N   UNL A   1      33.418  25.890  25.981  1.00  0.00    -0.343 N 
ATOM     81  C   UNL A   1      31.396  25.786  25.172  1.00  0.00     0.074 A 
ATOM     82  C   UNL A   1      30.661  24.223  23.340  1.00  0.00     0.270 C 
ATOM     83  H   UNL A   1      31.401  23.003  24.558  1.00  0.00     0.349 HD
ATOM     84  C   UNL A   1      32.691  26.988  26.361  1.00  0.00     0.197 A 
ATOM     85  H   UNL A   1      34.348  25.685  26.233  1.00  0.00     0.167 HD
ATOM     86  N   UNL A   1      31.458  26.944  25.898  1.00  0.00    -0.241 NA
ATOM     87  C   UNL A   1      30.243  25.327  24.362  1.00  0.00     0.120 C 
BRANCH  79  88
ATOM     88  C   UNL A   1      31.997  22.161  22.908  1.00  0.00     0.303 C 
BRANCH  88  89
ATOM     89  C   UNL A   1      32.206  20.929  23.724  1.00  0.00     0.044 A 
ATOM     90  C   UNL A   1      32.517  19.618  23.248  1.00  0.00     0.051 A 
ATOM     91  C   UNL A   1      32.210  20.812  25.101  1.00  0.00     0.204 A 
ATOM     92  C   UNL A   1      32.573  18.797  24.348  1.00  0.00     0.195 A 
ATOM     93  O   UNL A   1      32.400  19.522  25.480  1.00  0.00    -0.472 OA
ENDBRANCH  88  89
ENDBRANCH  79  88
ENDBRANCH  74  77
ENDBRANCH  72  73
ENDBRANCH  71  72
ENDBRANCH  70  71
ENDBRANCH   1  70
TORSDOF 18
ENDMDL
MODEL 3
REMARK VINA RESULT:     -12.1      2.790      9.151
REMARK SMILES O=C(NCCCCCCNC(=O)[C@H]1c2[nH]cnc2CC[N@H+]1Cc1ccoc1)c1ccc(-c2c3nc(c(-c4ccc(S(=O)(=O)[O-])cc4)c4ccc([nH]4)c(-c4ccc(S(=O)(=O)[O-])cc4)c4nc(c(-c5ccc(S(=O)(=O)[O-])cc5)c5ccc2[nH]5)C=C4)C=C3)cc1
REMARK SMILES IDX 6 1 5 2 4 3 3 4 1 5 2 6 28 8 29 9 87 10 30 11 86 12 31 13
REMARK SMILES IDX 32 14 33 15 80 16 34 17 85 18 79 19 81 20 35 21 84 22 78 23
REMARK SMILES IDX 77 24 36 26 66 27 47 28 65 29 48 30 51 31 64 32 82 33 49 34
REMARK SMILES IDX 50 35 63 37 83 38 52 39 37 40 38 41 46 42 39 43 45 44 40 45
REMARK SMILES IDX 41 46 42 47 43 48 44 49 67 50 68 51 76 52 69 53 75 54 70 55
REMARK SMILES IDX 71 56 72 57 73 58 74 59 53 60 54 61 62 62 55 63 61 64 56 65
REMARK SMILES IDX 57 66 58 67 59 68 60 69 7 70 8 71 9 72 10 73 11 74 12 76
REMARK SMILES IDX 13 77 14 78 21 79 15 80 18 81 20 82 16 84 17 86 19 87 22 88
REMARK SMILES IDX 23 89 24 90 27 91 25 92 26 93
REMARK H PARENT 3 7 81 25 51 36 10 75 21 83 15 85
REMARK Flexibility Score: inf
ROOT
ATOM      1  C   UNL A   1      35.493  23.420  23.563  1.00  0.00     0.002 C 
ENDROOT
BRANCH   1   2
ATOM      2  C   UNL A   1      36.830  22.721  23.847  1.00  0.00     0.021 C 
BRANCH   2   3
ATOM      3  C   UNL A   1      37.037  22.300  25.302  1.00  0.00     0.116 C 
BRANCH   3   4
ATOM      4  N   UNL A   1      38.308  21.657  25.546  1.00  0.00    -0.352 N 
ATOM      5  O   UNL A   1      40.298  21.102  26.309  1.00  0.00    -0.269 OA
ATOM      6  C   UNL A   1      39.426  21.974  26.261  1.00  0.00     0.251 C 
ATOM      7  H   UNL A   1      38.386  20.786  25.091  1.00  0.00     0.163 HD
BRANCH   6   8
ATOM      8  C   UNL A   1      39.681  23.284  26.919  1.00  0.00     0.039 A 
ATOM      9  C   UNL A   1      38.895  24.433  26.800  1.00  0.00     0.014 A 
ATOM     10  C   UNL A   1      40.847  23.348  27.707  1.00  0.00     0.014 A 
ATOM     11  C   UNL A   1      39.303  25.631  27.380  1.00  0.00     0.010 A 
ATOM     12  C   UNL A   1      41.251  24.536  28.300  1.00  0.00     0.010 A 
ATOM     13  C   UNL A   1      40.495  25.687  28.104  1.00  0.00    -0.014 A 
BRANCH  13  14
ATOM     14  C   UNL A   1      40.847  26.942  28.761  1.00  0.00     0.031 A 
ATOM     15  C   UNL A   1      42.017  27.652  28.166  1.00  0.00     0.074 A 
ATOM     16  C   UNL A   1      40.089  27.509  29.722  1.00  0.00     0.049 A 
ATOM     17  N   UNL A   1      43.139  27.968  28.727  1.00  0.00    -0.248 NA
ATOM     18  C   UNL A   1      41.969  27.951  26.724  1.00  0.00     0.031 C 
ATOM     19  C   UNL A   1      38.766  27.087  30.191  1.00  0.00     0.029 A 
ATOM     20  N   UNL A   1      40.297  28.671  30.401  1.00  0.00    -0.354 N 
ATOM     21  C   UNL A   1      43.867  28.673  27.769  1.00  0.00     0.074 A 
ATOM     22  C   UNL A   1      43.162  28.510  26.523  1.00  0.00     0.031 C 
ATOM     23  C   UNL A   1      38.195  28.100  30.881  1.00  0.00     0.029 A 
ATOM     24  C   UNL A   1      39.161  29.177  31.022  1.00  0.00     0.049 A 
ATOM     25  H   UNL A   1      41.175  29.114  30.448  1.00  0.00     0.167 HD
ATOM     26  C   UNL A   1      44.887  29.514  28.100  1.00  0.00     0.031 A 
ATOM     27  C   UNL A   1      39.005  30.420  31.547  1.00  0.00     0.031 A 
ATOM     28  C   UNL A   1      45.360  29.285  29.437  1.00  0.00     0.049 A 
ATOM     29  C   UNL A   1      40.360  30.972  31.785  1.00  0.00     0.074 A 
ATOM     30  C   UNL A   1      45.940  28.220  30.098  1.00  0.00     0.029 A 
ATOM     31  N   UNL A   1      44.925  30.145  30.417  1.00  0.00    -0.354 N 
ATOM     32  N   UNL A   1      41.194  30.480  32.659  1.00  0.00    -0.248 NA
ATOM     33  C   UNL A   1      40.959  31.789  30.742  1.00  0.00     0.031 C 
ATOM     34  C   UNL A   1      45.384  28.259  31.409  1.00  0.00     0.029 A 
ATOM     35  C   UNL A   1      44.551  29.378  31.489  1.00  0.00     0.049 A 
ATOM     36  H   UNL A   1      44.889  31.127  30.360  1.00  0.00     0.167 HD
ATOM     37  C   UNL A   1      42.437  30.563  32.049  1.00  0.00     0.074 A 
ATOM     38  C   UNL A   1      42.242  31.458  30.910  1.00  0.00     0.031 C 
ATOM     39  C   UNL A   1      43.441  29.690  32.361  1.00  0.00     0.031 A 
BRANCH  26  40
ATOM     40  C   UNL A   1      45.190  30.797  27.361  1.00  0.00    -0.014 A 
ATOM     41  C   UNL A   1      46.517  31.051  26.951  1.00  0.00     0.010 A 
ATOM     42  C   UNL A   1      44.293  31.884  27.320  1.00  0.00     0.010 A 
ATOM     43  C   UNL A   1      46.942  32.344  26.616  1.00  0.00     0.020 A 
ATOM     44  C   UNL A   1      44.696  33.168  26.946  1.00  0.00     0.020 A 
ATOM     45  C   UNL A   1      46.029  33.398  26.637  1.00  0.00     0.054 A 
BRANCH  45  46
ATOM     46  S   UNL A   1      46.617  35.085  26.343  1.00  0.00     0.124 S 
ATOM     47  O   UNL A   1      47.391  34.923  25.119  1.00  0.00    -0.237 OA
ATOM     48  O   UNL A   1      45.369  35.830  26.215  1.00  0.00    -0.237 OA
ATOM     49  O   UNL A   1      47.397  35.387  27.544  1.00  0.00    -0.744 OA
ENDBRANCH  45  46
ENDBRANCH  26  40
BRANCH  27  50
ATOM     50  C   UNL A   1      37.787  31.273  31.509  1.00  0.00    -0.014 A 
ATOM     51  C   UNL A   1      36.754  31.125  32.454  1.00  0.00     0.010 A 
ATOM     52  C   UNL A   1      37.771  32.432  30.703  1.00  0.00     0.010 A 
ATOM     53  C   UNL A   1      35.773  32.121  32.620  1.00  0.00     0.020 A 
ATOM     54  C   UNL A   1      36.795  33.424  30.859  1.00  0.00     0.020 A 
ATOM     55  C   UNL A   1      35.811  33.275  31.832  1.00  0.00     0.054 A 
BRANCH  55  56
ATOM     56  S   UNL A   1      34.647  34.632  32.163  1.00  0.00     0.124 S 
ATOM     57  O   UNL A   1      34.275  35.059  30.817  1.00  0.00    -0.237 OA
ATOM     58  O   UNL A   1      33.595  33.971  32.930  1.00  0.00    -0.237 OA
ATOM     59  O   UNL A   1      35.447  35.596  32.918  1.00  0.00    -0.744 OA
ENDBRANCH  55  56
ENDBRANCH  27  50
BRANCH  39  60
ATOM     60  C   UNL A   1      43.280  28.799  33.570  1.00  0.00    -0.014 A 
ATOM     61  C   UNL A   1      43.526  29.223  34.891  1.00  0.00     0.010 A 
ATOM     62  C   UNL A   1      42.674  27.547  33.370  1.00  0.00     0.010 A 
ATOM     63  C   UNL A   1      43.179  28.409  35.980  1.00  0.00     0.020 A 
ATOM     64  C   UNL A   1      42.310  26.740  34.450  1.00  0.00     0.020 A 
ATOM     65  C   UNL A   1      42.566  27.173  35.751  1.00  0.00     0.054 A 
BRANCH  65  66
ATOM     66  S   UNL A   1      42.039  26.155  37.159  1.00  0.00     0.124 S 
ATOM     67  O   UNL A   1      41.972  24.816  36.574  1.00  0.00    -0.237 OA
ATOM     68  O   UNL A   1      43.115  26.361  38.130  1.00  0.00    -0.237 OA
ATOM     69  O   UNL A   1      40.755  26.726  37.544  1.00  0.00    -0.744 OA
ENDBRANCH  65  66
ENDBRANCH  39  60
ENDBRANCH  13  14
ENDBRANCH   6   8
ENDBRANCH   3   4
ENDBRANCH   2   3
ENDBRANCH   1   2
BRANCH   1  70
ATOM     70  C   UNL A   1      34.323  22.501  23.185  1.00  0.00     0.002 C 
BRANCH  70  71
ATOM     71  C   UNL A   1      33.243  23.149  22.321  1.00  0.00     0.021 C 
BRANCH  71  72
ATOM     72  C   UNL A   1      31.847  23.053  22.915  1.00  0.00     0.116 C 
BRANCH  72  73
ATOM     73  N   UNL A   1      31.089  24.269  22.718  1.00  0.00    -0.351 N 
ATOM     74  C   UNL A   1      31.217  25.483  23.328  1.00  0.00     0.284 C 
ATOM     75  H   UNL A   1      30.373  24.212  22.044  1.00  0.00     0.163 HD
ATOM     76  O   UNL A   1      30.392  26.354  23.011  1.00  0.00    -0.268 OA
BRANCH  74  77
ATOM     77  C   UNL A   1      32.259  25.785  24.436  1.00  0.00     0.324 C 
ATOM     78  C   UNL A   1      32.849  27.123  24.186  1.00  0.00     0.106 A 
ATOM     79  N   UNL A   1      31.810  25.652  25.837  1.00  0.00    -0.315 N 
ATOM     80  N   UNL A   1      33.401  27.579  23.023  1.00  0.00    -0.343 N 
ATOM     81  C   UNL A   1      32.833  28.197  25.036  1.00  0.00     0.074 A 
ATOM     82  C   UNL A   1      31.415  26.836  26.609  1.00  0.00     0.270 C 
ATOM     83  H   UNL A   1      32.762  25.597  26.200  1.00  0.00     0.349 HD
ATOM     84  C   UNL A   1      33.636  28.917  23.199  1.00  0.00     0.197 A 
ATOM     85  H   UNL A   1      33.593  27.050  22.215  1.00  0.00     0.167 HD
ATOM     86  N   UNL A   1      33.316  29.316  24.414  1.00  0.00    -0.241 NA
ATOM     87  C   UNL A   1      32.245  28.141  26.394  1.00  0.00     0.120 C 
BRANCH  79  88
ATOM     88  C   UNL A   1      31.250  24.372  26.258  1.00  0.00     0.303 C 
BRANCH  88  89
ATOM     89  C   UNL A   1      32.269  23.307  26.490  1.00  0.00     0.044 A 
ATOM     90  C   UNL A   1      33.581  23.469  27.034  1.00  0.00     0.051 A 
ATOM     91  C   UNL A   1      32.137  21.945  26.295  1.00  0.00     0.204 A 
ATOM     92  C   UNL A   1      34.173  22.230  27.021  1.00  0.00     0.195 A 
ATOM     93  O   UNL A   1      33.293  21.297  26.585  1.00  0.00    -0.472 OA
ENDBRANCH  88  89
ENDBRANCH  79  88
ENDBRANCH  74  77
ENDBRANCH  72  73
ENDBRANCH  71  72
ENDBRANCH  70  71
ENDBRANCH   1  70
TORSDOF 18
ENDMDL
