MODEL 1
REMARK VINA RESULT:      -8.5      0.000      0.000
REMARK SMILES C[C@H](C(=O)NCCCCCCNC(=O)c1ccc(-c2c3nc(c(-c4ccc(S(=O)(=O)[O-])cc4)c4ccc([nH]4)c(-c4ccc(S(=O)(=O)[O-])cc4)c4nc(c(-c5ccc(S(=O)(=O)[O-])cc5)c5ccc2[nH]5)C=C4)C=C3)cc1)c1ccc2c3cc(Cl)ccc3n(C(=O)c3ccc(Cl)cc3)c2c1
REMARK SMILES IDX 8 1 7 2 6 3 5 4 3 5 4 6 2 8 1 9 75 10 76 11 97 12 77 13
REMARK SMILES IDX 96 14 78 15 86 16 79 17 85 18 80 19 84 20 81 21 83 22 82 23
REMARK SMILES IDX 87 24 88 25 89 26 90 27 95 28 91 29 94 30 92 31 93 32 9 33
REMARK SMILES IDX 10 34 11 35 12 36 13 37 14 39 15 40 16 41 74 42 17 43 73 44
REMARK SMILES IDX 18 45 19 46 20 47 67 48 21 49 72 50 66 51 68 52 22 53 71 54
REMARK SMILES IDX 65 55 64 56 23 58 53 59 34 60 52 61 35 62 38 63 51 64 69 65
REMARK SMILES IDX 36 66 37 67 50 69 70 70 39 71 24 72 25 73 33 74 26 75 32 76
REMARK SMILES IDX 27 77 28 78 29 79 30 80 31 81 54 82 55 83 63 84 56 85 62 86
REMARK SMILES IDX 57 87 58 88 59 89 60 90 61 91 40 92 41 93 49 94 42 95 48 96
REMARK SMILES IDX 43 97 44 98 45 99 46 100 47 101
REMARK H PARENT 5 7 12 38 68 57 38 68
REMARK Flexibility Score: inf
ROOT
ATOM      1  C   UNL A   1      36.451  32.830  30.511  1.00  0.00     0.002 C 
ENDROOT
BRANCH   1   2
ATOM      2  C   UNL A   1      37.154  32.799  31.880  1.00  0.00     0.021 C 
BRANCH   2   3
ATOM      3  C   UNL A   1      36.823  31.557  32.713  1.00  0.00     0.116 C 
BRANCH   3   4
ATOM      4  N   UNL A   1      36.886  31.830  34.135  1.00  0.00    -0.356 N 
ATOM      5  C   UNL A   1      37.876  32.003  35.043  1.00  0.00     0.227 C 
ATOM      6  O   UNL A   1      37.444  32.207  36.191  1.00  0.00    -0.274 OA
ATOM      7  H   UNL A   1      35.992  31.911  34.538  1.00  0.00     0.163 HD
BRANCH   5   8
ATOM      8  C   UNL A   1      39.400  32.096  34.771  1.00  0.00     0.105 C 
ATOM      9  C   UNL A   1      39.979  33.070  35.828  1.00  0.00     0.023 C 
BRANCH   8  10
ATOM     10  C   UNL A   1      40.206  30.800  34.706  1.00  0.00    -0.034 A 
ATOM     11  C   UNL A   1      39.943  29.787  33.781  1.00  0.00     0.005 A 
ATOM     12  C   UNL A   1      41.234  30.582  35.642  1.00  0.00     0.032 A 
ATOM     13  C   UNL A   1      40.751  28.647  33.699  1.00  0.00     0.011 A 
ATOM     14  C   UNL A   1      42.147  29.518  35.464  1.00  0.00     0.057 A 
ATOM     15  C   UNL A   1      41.912  28.555  34.491  1.00  0.00     0.008 A 
ATOM     16  N   UNL A   1      43.410  29.261  36.045  1.00  0.00    -0.276 N 
ATOM     17  C   UNL A   1      42.974  27.619  34.549  1.00  0.00     0.009 A 
ATOM     18  C   UNL A   1      43.860  28.027  35.556  1.00  0.00     0.057 A 
ATOM     19  C   UNL A   1      43.225  26.438  33.820  1.00  0.00     0.031 A 
ATOM     20  C   UNL A   1      44.927  27.184  35.929  1.00  0.00     0.029 A 
ATOM     21  C   UNL A   1      44.334  25.661  34.133  1.00  0.00     0.041 A 
ATOM     22  C   UNL A   1      45.169  26.020  35.182  1.00  0.00     0.023 A 
ATOM     23  Cl  UNL A   1      44.640  24.229  33.230  1.00  0.00    -0.084 Cl
BRANCH  16  24
ATOM     24  C   UNL A   1      44.049  30.191  36.918  1.00  0.00     0.262 C 
ATOM     25  O   UNL A   1      43.753  30.072  38.110  1.00  0.00    -0.268 OA
BRANCH  24  26
ATOM     26  C   UNL A   1      44.918  31.380  36.601  1.00  0.00     0.040 A 
ATOM     27  C   UNL A   1      46.008  31.137  35.730  1.00  0.00     0.015 A 
ATOM     28  C   UNL A   1      44.818  32.660  37.150  1.00  0.00     0.015 A 
ATOM     29  C   UNL A   1      46.937  32.131  35.401  1.00  0.00     0.021 A 
ATOM     30  C   UNL A   1      45.717  33.674  36.773  1.00  0.00     0.021 A 
ATOM     31  C   UNL A   1      46.779  33.407  35.914  1.00  0.00     0.041 A 
ATOM     32  Cl  UNL A   1      47.916  34.634  35.528  1.00  0.00    -0.084 Cl
ENDBRANCH  24  26
ENDBRANCH  16  24
ENDBRANCH   8  10
ENDBRANCH   5   8
ENDBRANCH   3   4
ENDBRANCH   2   3
ENDBRANCH   1   2
BRANCH   1  33
ATOM     33  C   UNL A   1      34.914  32.819  30.545  1.00  0.00     0.002 C 
BRANCH  33  34
ATOM     34  C   UNL A   1      34.230  33.541  29.384  1.00  0.00     0.021 C 
BRANCH  34  35
ATOM     35  C   UNL A   1      34.490  32.948  28.000  1.00  0.00     0.116 C 
BRANCH  35  36
ATOM     36  N   UNL A   1      33.802  31.681  27.822  1.00  0.00    -0.352 N 
ATOM     37  C   UNL A   1      34.258  30.385  27.797  1.00  0.00     0.251 C 
ATOM     38  H   UNL A   1      32.830  31.767  27.694  1.00  0.00     0.163 HD
ATOM     39  O   UNL A   1      33.488  29.511  27.401  1.00  0.00    -0.269 OA
BRANCH  37  40
ATOM     40  C   UNL A   1      35.634  30.003  28.215  1.00  0.00     0.039 A 
ATOM     41  C   UNL A   1      36.655  30.078  27.256  1.00  0.00     0.014 A 
ATOM     42  C   UNL A   1      35.939  29.495  29.480  1.00  0.00     0.014 A 
ATOM     43  C   UNL A   1      37.965  29.698  27.575  1.00  0.00     0.010 A 
ATOM     44  C   UNL A   1      37.263  29.181  29.820  1.00  0.00     0.010 A 
ATOM     45  C   UNL A   1      38.292  29.267  28.868  1.00  0.00    -0.014 A 
BRANCH  45  46
ATOM     46  C   UNL A   1      39.690  28.869  29.206  1.00  0.00     0.031 A 
ATOM     47  C   UNL A   1      40.598  29.827  29.938  1.00  0.00     0.074 A 
ATOM     48  C   UNL A   1      40.154  27.648  28.864  1.00  0.00     0.049 A 
ATOM     49  N   UNL A   1      41.834  29.652  30.334  1.00  0.00    -0.248 NA
ATOM     50  C   UNL A   1      40.053  31.157  30.257  1.00  0.00     0.031 C 
ATOM     51  C   UNL A   1      39.398  26.623  28.141  1.00  0.00     0.029 A 
ATOM     52  N   UNL A   1      41.377  27.058  29.084  1.00  0.00    -0.354 N 
ATOM     53  C   UNL A   1      42.209  30.839  30.955  1.00  0.00     0.074 A 
ATOM     54  C   UNL A   1      41.094  31.751  30.823  1.00  0.00     0.031 C 
ATOM     55  C   UNL A   1      40.165  25.531  27.992  1.00  0.00     0.029 A 
ATOM     56  C   UNL A   1      41.474  25.778  28.588  1.00  0.00     0.049 A 
ATOM     57  H   UNL A   1      42.115  27.510  29.553  1.00  0.00     0.167 HD
ATOM     58  C   UNL A   1      43.359  31.139  31.604  1.00  0.00     0.031 A 
ATOM     59  C   UNL A   1      42.496  24.898  28.610  1.00  0.00     0.031 A 
ATOM     60  C   UNL A   1      44.473  30.239  31.747  1.00  0.00     0.049 A 
ATOM     61  C   UNL A   1      43.780  25.272  29.304  1.00  0.00     0.074 A 
ATOM     62  C   UNL A   1      45.669  30.450  32.414  1.00  0.00     0.029 A 
ATOM     63  N   UNL A   1      44.532  28.960  31.219  1.00  0.00    -0.354 N 
ATOM     64  N   UNL A   1      44.084  26.380  29.936  1.00  0.00    -0.248 NA
ATOM     65  C   UNL A   1      44.851  24.265  29.307  1.00  0.00     0.031 C 
ATOM     66  C   UNL A   1      46.471  29.318  32.245  1.00  0.00     0.029 A 
ATOM     67  C   UNL A   1      45.752  28.378  31.524  1.00  0.00     0.049 A 
ATOM     68  H   UNL A   1      43.814  28.528  30.703  1.00  0.00     0.167 HD
ATOM     69  C   UNL A   1      45.370  26.191  30.434  1.00  0.00     0.074 A 
ATOM     70  C   UNL A   1      45.774  24.854  30.053  1.00  0.00     0.031 C 
ATOM     71  C   UNL A   1      46.147  27.048  31.141  1.00  0.00     0.031 A 
BRANCH  58  72
ATOM     72  C   UNL A   1      43.470  32.505  32.233  1.00  0.00    -0.014 A 
ATOM     73  C   UNL A   1      43.124  32.706  33.582  1.00  0.00     0.010 A 
ATOM     74  C   UNL A   1      43.987  33.582  31.491  1.00  0.00     0.010 A 
ATOM     75  C   UNL A   1      43.270  33.965  34.169  1.00  0.00     0.020 A 
ATOM     76  C   UNL A   1      44.159  34.837  32.083  1.00  0.00     0.020 A 
ATOM     77  C   UNL A   1      43.788  35.022  33.417  1.00  0.00     0.054 A 
BRANCH  77  78
ATOM     78  S   UNL A   1      44.010  36.633  34.219  1.00  0.00     0.124 S 
ATOM     79  O   UNL A   1      43.095  36.531  35.357  1.00  0.00    -0.237 OA
ATOM     80  O   UNL A   1      45.433  36.625  34.561  1.00  0.00    -0.237 OA
ATOM     81  O   UNL A   1      43.623  37.592  33.194  1.00  0.00    -0.744 OA
ENDBRANCH  77  78
ENDBRANCH  58  72
BRANCH  59  82
ATOM     82  C   UNL A   1      42.362  23.568  27.948  1.00  0.00    -0.014 A 
ATOM     83  C   UNL A   1      41.684  22.510  28.580  1.00  0.00     0.010 A 
ATOM     84  C   UNL A   1      42.957  23.341  26.694  1.00  0.00     0.010 A 
ATOM     85  C   UNL A   1      41.643  21.241  27.993  1.00  0.00     0.020 A 
ATOM     86  C   UNL A   1      42.890  22.082  26.088  1.00  0.00     0.020 A 
ATOM     87  C   UNL A   1      42.252  21.034  26.752  1.00  0.00     0.054 A 
BRANCH  87  88
ATOM     88  S   UNL A   1      42.182  19.383  26.003  1.00  0.00     0.124 S 
ATOM     89  O   UNL A   1      43.081  19.531  24.862  1.00  0.00    -0.237 OA
ATOM     90  O   UNL A   1      42.664  18.525  27.083  1.00  0.00    -0.237 OA
ATOM     91  O   UNL A   1      40.769  19.220  25.671  1.00  0.00    -0.744 OA
ENDBRANCH  87  88
ENDBRANCH  59  82
BRANCH  71  92
ATOM     92  C   UNL A   1      47.505  26.556  31.576  1.00  0.00    -0.014 A 
ATOM     93  C   UNL A   1      48.652  26.797  30.799  1.00  0.00     0.010 A 
ATOM     94  C   UNL A   1      47.638  25.870  32.797  1.00  0.00     0.010 A 
ATOM     95  C   UNL A   1      49.900  26.318  31.210  1.00  0.00     0.020 A 
ATOM     96  C   UNL A   1      48.889  25.418  33.228  1.00  0.00     0.020 A 
ATOM     97  C   UNL A   1      50.009  25.628  32.421  1.00  0.00     0.054 A 
BRANCH  97  98
ATOM     98  S   UNL A   1      51.642  25.035  32.942  1.00  0.00     0.124 S 
ATOM     99  O   UNL A   1      52.515  26.112  32.486  1.00  0.00    -0.237 OA
ATOM    100  O   UNL A   1      51.494  24.917  34.391  1.00  0.00    -0.237 OA
ATOM    101  O   UNL A   1      51.793  23.767  32.232  1.00  0.00    -0.744 OA
ENDBRANCH  97  98
ENDBRANCH  71  92
ENDBRANCH  45  46
ENDBRANCH  37  40
ENDBRANCH  35  36
ENDBRANCH  34  35
ENDBRANCH  33  34
ENDBRANCH   1  33
TORSDOF 19
ENDMDL
MODEL 2
REMARK VINA RESULT:      -8.2      5.123     12.085
REMARK SMILES C[C@H](C(=O)NCCCCCCNC(=O)c1ccc(-c2c3nc(c(-c4ccc(S(=O)(=O)[O-])cc4)c4ccc([nH]4)c(-c4ccc(S(=O)(=O)[O-])cc4)c4nc(c(-c5ccc(S(=O)(=O)[O-])cc5)c5ccc2[nH]5)C=C4)C=C3)cc1)c1ccc2c3cc(Cl)ccc3n(C(=O)c3ccc(Cl)cc3)c2c1
REMARK SMILES IDX 8 1 7 2 6 3 5 4 3 5 4 6 2 8 1 9 75 10 76 11 97 12 77 13
REMARK SMILES IDX 96 14 78 15 86 16 79 17 85 18 80 19 84 20 81 21 83 22 82 23
REMARK SMILES IDX 87 24 88 25 89 26 90 27 95 28 91 29 94 30 92 31 93 32 9 33
REMARK SMILES IDX 10 34 11 35 12 36 13 37 14 39 15 40 16 41 74 42 17 43 73 44
REMARK SMILES IDX 18 45 19 46 20 47 67 48 21 49 72 50 66 51 68 52 22 53 71 54
REMARK SMILES IDX 65 55 64 56 23 58 53 59 34 60 52 61 35 62 38 63 51 64 69 65
REMARK SMILES IDX 36 66 37 67 50 69 70 70 39 71 24 72 25 73 33 74 26 75 32 76
REMARK SMILES IDX 27 77 28 78 29 79 30 80 31 81 54 82 55 83 63 84 56 85 62 86
REMARK SMILES IDX 57 87 58 88 59 89 60 90 61 91 40 92 41 93 49 94 42 95 48 96
REMARK SMILES IDX 43 97 44 98 45 99 46 100 47 101
REMARK H PARENT 5 7 12 38 68 57 38 68
REMARK Flexibility Score: inf
ROOT
ATOM      1  C   UNL A   1      32.831  29.715  25.709  1.00  0.00     0.002 C 
ENDROOT
BRANCH   1   2
ATOM      2  C   UNL A   1      32.876  28.179  25.640  1.00  0.00     0.021 C 
BRANCH   2   3
ATOM      3  C   UNL A   1      31.502  27.531  25.448  1.00  0.00     0.116 C 
BRANCH   3   4
ATOM      4  N   UNL A   1      30.947  27.823  24.141  1.00  0.00    -0.356 N 
ATOM      5  C   UNL A   1      31.268  27.510  22.863  1.00  0.00     0.227 C 
ATOM      6  O   UNL A   1      30.489  28.013  22.035  1.00  0.00    -0.274 OA
ATOM      7  H   UNL A   1      30.140  28.384  24.196  1.00  0.00     0.163 HD
BRANCH   5   8
ATOM      8  C   UNL A   1      32.372  26.535  22.379  1.00  0.00     0.105 C 
ATOM      9  C   UNL A   1      33.727  27.248  22.618  1.00  0.00     0.023 C 
BRANCH   8  10
ATOM     10  C   UNL A   1      32.384  25.114  22.941  1.00  0.00    -0.034 A 
ATOM     11  C   UNL A   1      31.250  24.298  22.965  1.00  0.00     0.005 A 
ATOM     12  C   UNL A   1      33.569  24.606  23.504  1.00  0.00     0.032 A 
ATOM     13  C   UNL A   1      31.315  22.975  23.415  1.00  0.00     0.011 A 
ATOM     14  C   UNL A   1      33.682  23.230  23.808  1.00  0.00     0.057 A 
ATOM     15  C   UNL A   1      32.560  22.413  23.759  1.00  0.00     0.008 A 
ATOM     16  N   UNL A   1      34.809  22.421  24.075  1.00  0.00    -0.276 N 
ATOM     17  C   UNL A   1      32.967  21.105  24.119  1.00  0.00     0.009 A 
ATOM     18  C   UNL A   1      34.345  21.132  24.377  1.00  0.00     0.057 A 
ATOM     19  C   UNL A   1      32.243  19.903  24.262  1.00  0.00     0.031 A 
ATOM     20  C   UNL A   1      34.978  19.991  24.908  1.00  0.00     0.029 A 
ATOM     21  C   UNL A   1      32.898  18.757  24.698  1.00  0.00     0.041 A 
ATOM     22  C   UNL A   1      34.244  18.800  25.031  1.00  0.00     0.023 A 
ATOM     23  Cl  UNL A   1      32.011  17.291  24.857  1.00  0.00    -0.084 Cl
BRANCH  16  24
ATOM     24  C   UNL A   1      36.144  22.915  23.969  1.00  0.00     0.262 C 
ATOM     25  O   UNL A   1      36.452  23.339  22.851  1.00  0.00    -0.268 OA
BRANCH  24  26
ATOM     26  C   UNL A   1      37.276  22.874  24.961  1.00  0.00     0.040 A 
ATOM     27  C   UNL A   1      37.539  24.082  25.652  1.00  0.00     0.015 A 
ATOM     28  C   UNL A   1      38.145  21.807  25.195  1.00  0.00     0.015 A 
ATOM     29  C   UNL A   1      38.601  24.209  26.554  1.00  0.00     0.021 A 
ATOM     30  C   UNL A   1      39.177  21.917  26.144  1.00  0.00     0.021 A 
ATOM     31  C   UNL A   1      39.412  23.116  26.811  1.00  0.00     0.041 A 
ATOM     32  Cl  UNL A   1      40.726  23.261  27.906  1.00  0.00    -0.084 Cl
ENDBRANCH  24  26
ENDBRANCH  16  24
ENDBRANCH   8  10
ENDBRANCH   5   8
ENDBRANCH   3   4
ENDBRANCH   2   3
ENDBRANCH   1   2
BRANCH   1  33
ATOM     33  C   UNL A   1      32.175  30.311  26.966  1.00  0.00     0.002 C 
BRANCH  33  34
ATOM     34  C   UNL A   1      31.970  31.826  26.940  1.00  0.00     0.021 C 
BRANCH  34  35
ATOM     35  C   UNL A   1      33.217  32.661  27.226  1.00  0.00     0.116 C 
BRANCH  35  36
ATOM     36  N   UNL A   1      32.886  33.904  27.901  1.00  0.00    -0.352 N 
ATOM     37  C   UNL A   1      33.306  34.440  29.094  1.00  0.00     0.251 C 
ATOM     38  H   UNL A   1      32.241  34.466  27.413  1.00  0.00     0.163 HD
ATOM     39  O   UNL A   1      32.692  35.409  29.538  1.00  0.00    -0.269 OA
BRANCH  37  40
ATOM     40  C   UNL A   1      34.454  33.894  29.868  1.00  0.00     0.039 A 
ATOM     41  C   UNL A   1      35.731  34.407  29.596  1.00  0.00     0.014 A 
ATOM     42  C   UNL A   1      34.334  32.844  30.782  1.00  0.00     0.014 A 
ATOM     43  C   UNL A   1      36.858  33.911  30.263  1.00  0.00     0.010 A 
ATOM     44  C   UNL A   1      35.452  32.396  31.500  1.00  0.00     0.010 A 
ATOM     45  C   UNL A   1      36.731  32.916  31.241  1.00  0.00    -0.014 A 
BRANCH  45  46
ATOM     46  C   UNL A   1      37.933  32.394  31.955  1.00  0.00     0.031 A 
ATOM     47  C   UNL A   1      38.891  31.463  31.253  1.00  0.00     0.074 A 
ATOM     48  C   UNL A   1      38.177  32.751  33.234  1.00  0.00     0.049 A 
ATOM     49  N   UNL A   1      39.998  30.925  31.703  1.00  0.00    -0.248 NA
ATOM     50  C   UNL A   1      38.561  31.079  29.870  1.00  0.00     0.031 C 
ATOM     51  C   UNL A   1      37.332  33.629  34.047  1.00  0.00     0.029 A 
ATOM     52  N   UNL A   1      39.213  32.422  34.077  1.00  0.00    -0.354 N 
ATOM     53  C   UNL A   1      40.497  30.149  30.660  1.00  0.00     0.074 A 
ATOM     54  C   UNL A   1      39.539  30.233  29.580  1.00  0.00     0.031 C 
ATOM     55  C   UNL A   1      37.890  33.781  35.260  1.00  0.00     0.029 A 
ATOM     56  C   UNL A   1      39.119  32.998  35.324  1.00  0.00     0.049 A 
ATOM     57  H   UNL A   1      39.953  31.829  33.813  1.00  0.00     0.167 HD
ATOM     58  C   UNL A   1      41.659  29.457  30.590  1.00  0.00     0.031 A 
ATOM     59  C   UNL A   1      39.929  32.911  36.399  1.00  0.00     0.031 A 
ATOM     60  C   UNL A   1      42.622  29.370  31.656  1.00  0.00     0.049 A 
ATOM     61  C   UNL A   1      41.196  32.101  36.308  1.00  0.00     0.074 A 
ATOM     62  C   UNL A   1      43.841  28.712  31.663  1.00  0.00     0.029 A 
ATOM     63  N   UNL A   1      42.480  29.957  32.903  1.00  0.00    -0.354 N 
ATOM     64  N   UNL A   1      41.674  31.427  35.289  1.00  0.00    -0.248 NA
ATOM     65  C   UNL A   1      42.045  32.056  37.508  1.00  0.00     0.031 C 
ATOM     66  C   UNL A   1      44.412  28.859  32.930  1.00  0.00     0.029 A 
ATOM     67  C   UNL A   1      43.578  29.658  33.694  1.00  0.00     0.049 A 
ATOM     68  H   UNL A   1      41.713  30.506  33.185  1.00  0.00     0.167 HD
ATOM     69  C   UNL A   1      42.891  30.905  35.717  1.00  0.00     0.074 A 
ATOM     70  C   UNL A   1      43.088  31.362  37.077  1.00  0.00     0.031 C 
ATOM     71  C   UNL A   1      43.766  30.116  35.047  1.00  0.00     0.031 A 
BRANCH  58  72
ATOM     72  C   UNL A   1      41.968  28.741  29.300  1.00  0.00    -0.014 A 
ATOM     73  C   UNL A   1      41.627  27.387  29.130  1.00  0.00     0.010 A 
ATOM     74  C   UNL A   1      42.541  29.443  28.224  1.00  0.00     0.010 A 
ATOM     75  C   UNL A   1      41.879  26.741  27.917  1.00  0.00     0.020 A 
ATOM     76  C   UNL A   1      42.769  28.808  27.000  1.00  0.00     0.020 A 
ATOM     77  C   UNL A   1      42.446  27.456  26.859  1.00  0.00     0.054 A 
BRANCH  77  78
ATOM     78  S   UNL A   1      42.717  26.604  25.281  1.00  0.00     0.124 S 
ATOM     79  O   UNL A   1      43.947  25.859  25.549  1.00  0.00    -0.237 OA
ATOM     80  O   UNL A   1      41.510  25.788  25.149  1.00  0.00    -0.237 OA
ATOM     81  O   UNL A   1      42.844  27.686  24.316  1.00  0.00    -0.744 OA
ENDBRANCH  77  78
ENDBRANCH  58  72
BRANCH  59  82
ATOM     82  C   UNL A   1      39.575  33.605  37.671  1.00  0.00    -0.014 A 
ATOM     83  C   UNL A   1      39.937  34.947  37.888  1.00  0.00     0.010 A 
ATOM     84  C   UNL A   1      38.908  32.907  38.694  1.00  0.00     0.010 A 
ATOM     85  C   UNL A   1      39.681  35.561  39.119  1.00  0.00     0.020 A 
ATOM     86  C   UNL A   1      38.621  33.527  39.914  1.00  0.00     0.020 A 
ATOM     87  C   UNL A   1      39.029  34.844  40.126  1.00  0.00     0.054 A 
BRANCH  87  88
ATOM     88  S   UNL A   1      38.700  35.661  41.713  1.00  0.00     0.124 S 
ATOM     89  O   UNL A   1      37.333  35.233  41.994  1.00  0.00    -0.237 OA
ATOM     90  O   UNL A   1      39.732  35.096  42.580  1.00  0.00    -0.237 OA
ATOM     91  O   UNL A   1      38.862  37.080  41.406  1.00  0.00    -0.744 OA
ENDBRANCH  87  88
ENDBRANCH  59  82
BRANCH  71  92
ATOM     92  C   UNL A   1      45.032  29.718  35.762  1.00  0.00    -0.014 A 
ATOM     93  C   UNL A   1      45.103  28.535  36.518  1.00  0.00     0.010 A 
ATOM     94  C   UNL A   1      46.178  30.527  35.649  1.00  0.00     0.010 A 
ATOM     95  C   UNL A   1      46.281  28.192  37.189  1.00  0.00     0.020 A 
ATOM     96  C   UNL A   1      47.368  30.171  36.291  1.00  0.00     0.020 A 
ATOM     97  C   UNL A   1      47.405  29.015  37.074  1.00  0.00     0.054 A 
BRANCH  97  98
ATOM     98  S   UNL A   1      48.927  28.538  37.937  1.00  0.00     0.124 S 
ATOM     99  O   UNL A   1      48.518  28.611  39.336  1.00  0.00    -0.237 OA
ATOM    100  O   UNL A   1      49.178  27.193  37.425  1.00  0.00    -0.237 OA
ATOM    101  O   UNL A   1      49.896  29.548  37.517  1.00  0.00    -0.744 OA
ENDBRANCH  97  98
ENDBRANCH  71  92
ENDBRANCH  45  46
ENDBRANCH  37  40
ENDBRANCH  35  36
ENDBRANCH  34  35
ENDBRANCH  33  34
ENDBRANCH   1  33
TORSDOF 19
ENDMDL
MODEL 3
REMARK VINA RESULT:      -7.9      4.962      9.769
REMARK SMILES C[C@H](C(=O)NCCCCCCNC(=O)c1ccc(-c2c3nc(c(-c4ccc(S(=O)(=O)[O-])cc4)c4ccc([nH]4)c(-c4ccc(S(=O)(=O)[O-])cc4)c4nc(c(-c5ccc(S(=O)(=O)[O-])cc5)c5ccc2[nH]5)C=C4)C=C3)cc1)c1ccc2c3cc(Cl)ccc3n(C(=O)c3ccc(Cl)cc3)c2c1
REMARK SMILES IDX 8 1 7 2 6 3 5 4 3 5 4 6 2 8 1 9 75 10 76 11 97 12 77 13
REMARK SMILES IDX 96 14 78 15 86 16 79 17 85 18 80 19 84 20 81 21 83 22 82 23
REMARK SMILES IDX 87 24 88 25 89 26 90 27 95 28 91 29 94 30 92 31 93 32 9 33
REMARK SMILES IDX 10 34 11 35 12 36 13 37 14 39 15 40 16 41 74 42 17 43 73 44
REMARK SMILES IDX 18 45 19 46 20 47 67 48 21 49 72 50 66 51 68 52 22 53 71 54
REMARK SMILES IDX 65 55 64 56 23 58 53 59 34 60 52 61 35 62 38 63 51 64 69 65
REMARK SMILES IDX 36 66 37 67 50 69 70 70 39 71 24 72 25 73 33 74 26 75 32 76
REMARK SMILES IDX 27 77 28 78 29 79 30 80 31 81 54 82 55 83 63 84 56 85 62 86
REMARK SMILES IDX 57 87 58 88 59 89 60 90 61 91 40 92 41 93 49 94 42 95 48 96
REMARK SMILES IDX 43 97 44 98 45 99 46 100 47 101
REMARK H PARENT 5 7 12 38 68 57 38 68
REMARK Flexibility Score: inf
ROOT
ATOM      1  C   UNL A   1      31.019  29.659  24.869  1.00  0.00     0.002 C 
ENDROOT
BRANCH   1   2
ATOM      2  C   UNL A   1      31.453  29.300  23.437  1.00  0.00     0.021 C 
BRANCH   2   3
ATOM      3  C   UNL A   1      32.911  28.843  23.332  1.00  0.00     0.116 C 
BRANCH   3   4
ATOM      4  N   UNL A   1      33.038  27.623  22.561  1.00  0.00    -0.356 N 
ATOM      5  C   UNL A   1      32.829  26.305  22.795  1.00  0.00     0.227 C 
ATOM      6  O   UNL A   1      33.096  25.594  21.812  1.00  0.00    -0.274 OA
ATOM      7  H   UNL A   1      33.353  27.793  21.644  1.00  0.00     0.163 HD
BRANCH   5   8
ATOM      8  C   UNL A   1      32.200  25.660  24.058  1.00  0.00     0.105 C 
ATOM      9  C   UNL A   1      30.683  25.974  24.006  1.00  0.00     0.023 C 
BRANCH   8  10
ATOM     10  C   UNL A   1      32.452  24.176  24.318  1.00  0.00    -0.034 A 
ATOM     11  C   UNL A   1      31.427  23.228  24.366  1.00  0.00     0.005 A 
ATOM     12  C   UNL A   1      33.765  23.735  24.568  1.00  0.00     0.032 A 
ATOM     13  C   UNL A   1      31.701  21.866  24.529  1.00  0.00     0.011 A 
ATOM     14  C   UNL A   1      34.064  22.353  24.572  1.00  0.00     0.057 A 
ATOM     15  C   UNL A   1      33.037  21.419  24.546  1.00  0.00     0.008 A 
ATOM     16  N   UNL A   1      35.294  21.662  24.485  1.00  0.00    -0.276 N 
ATOM     17  C   UNL A   1      33.628  20.132  24.570  1.00  0.00     0.009 A 
ATOM     18  C   UNL A   1      35.021  20.292  24.598  1.00  0.00     0.057 A 
ATOM     19  C   UNL A   1      33.063  18.839  24.590  1.00  0.00     0.031 A 
ATOM     20  C   UNL A   1      35.848  19.166  24.784  1.00  0.00     0.029 A 
ATOM     21  C   UNL A   1      33.894  17.729  24.678  1.00  0.00     0.041 A 
ATOM     22  C   UNL A   1      35.268  17.887  24.787  1.00  0.00     0.023 A 
ATOM     23  Cl  UNL A   1      33.197  16.156  24.687  1.00  0.00    -0.084 Cl
BRANCH  16  24
ATOM     24  C   UNL A   1      36.532  22.336  24.261  1.00  0.00     0.262 C 
ATOM     25  O   UNL A   1      36.749  22.645  23.086  1.00  0.00    -0.268 OA
BRANCH  24  26
ATOM     26  C   UNL A   1      37.675  22.607  25.205  1.00  0.00     0.040 A 
ATOM     27  C   UNL A   1      38.543  21.516  25.455  1.00  0.00     0.015 A 
ATOM     28  C   UNL A   1      37.905  23.780  25.925  1.00  0.00     0.015 A 
ATOM     29  C   UNL A   1      39.607  21.602  26.360  1.00  0.00     0.021 A 
ATOM     30  C   UNL A   1      39.009  23.885  26.791  1.00  0.00     0.021 A 
ATOM     31  C   UNL A   1      39.847  22.797  27.017  1.00  0.00     0.041 A 
ATOM     32  Cl  UNL A   1      41.142  22.914  28.138  1.00  0.00    -0.084 Cl
ENDBRANCH  24  26
ENDBRANCH  16  24
ENDBRANCH   8  10
ENDBRANCH   5   8
ENDBRANCH   3   4
ENDBRANCH   2   3
ENDBRANCH   1   2
BRANCH   1  33
ATOM     33  C   UNL A   1      32.157  29.888  25.877  1.00  0.00     0.002 C 
BRANCH  33  34
ATOM     34  C   UNL A   1      31.971  31.084  26.811  1.00  0.00     0.021 C 
BRANCH  34  35
ATOM     35  C   UNL A   1      33.256  31.802  27.220  1.00  0.00     0.116 C 
BRANCH  35  36
ATOM     36  N   UNL A   1      32.988  33.142  27.713  1.00  0.00    -0.352 N 
ATOM     37  C   UNL A   1      33.520  33.858  28.757  1.00  0.00     0.251 C 
ATOM     38  H   UNL A   1      32.296  33.625  27.205  1.00  0.00     0.163 HD
ATOM     39  O   UNL A   1      32.947  34.894  29.096  1.00  0.00    -0.269 OA
BRANCH  37  40
ATOM     40  C   UNL A   1      34.739  33.431  29.494  1.00  0.00     0.039 A 
ATOM     41  C   UNL A   1      35.960  34.024  29.141  1.00  0.00     0.014 A 
ATOM     42  C   UNL A   1      34.740  32.415  30.454  1.00  0.00     0.014 A 
ATOM     43  C   UNL A   1      37.151  33.640  29.771  1.00  0.00     0.010 A 
ATOM     44  C   UNL A   1      35.920  32.080  31.133  1.00  0.00     0.010 A 
ATOM     45  C   UNL A   1      37.144  32.680  30.793  1.00  0.00    -0.014 A 
BRANCH  45  46
ATOM     46  C   UNL A   1      38.413  32.278  31.467  1.00  0.00     0.031 A 
ATOM     47  C   UNL A   1      38.791  32.879  32.799  1.00  0.00     0.074 A 
ATOM     48  C   UNL A   1      39.233  31.371  30.894  1.00  0.00     0.049 A 
ATOM     49  N   UNL A   1      39.841  32.638  33.544  1.00  0.00    -0.248 NA
ATOM     50  C   UNL A   1      37.878  33.887  33.363  1.00  0.00     0.031 C 
ATOM     51  C   UNL A   1      39.008  30.718  29.602  1.00  0.00     0.029 A 
ATOM     52  N   UNL A   1      40.424  30.837  31.327  1.00  0.00    -0.354 N 
ATOM     53  C   UNL A   1      39.711  33.454  34.664  1.00  0.00     0.074 A 
ATOM     54  C   UNL A   1      38.516  34.245  34.468  1.00  0.00     0.031 C 
ATOM     55  C   UNL A   1      40.014  29.863  29.357  1.00  0.00     0.029 A 
ATOM     56  C   UNL A   1      40.970  29.918  30.459  1.00  0.00     0.049 A 
ATOM     57  H   UNL A   1      40.847  31.088  32.180  1.00  0.00     0.167 HD
ATOM     58  C   UNL A   1      40.490  33.519  35.769  1.00  0.00     0.031 A 
ATOM     59  C   UNL A   1      42.107  29.196  30.538  1.00  0.00     0.031 A 
ATOM     60  C   UNL A   1      41.678  32.734  35.977  1.00  0.00     0.049 A 
ATOM     61  C   UNL A   1      42.977  29.318  31.762  1.00  0.00     0.074 A 
ATOM     62  C   UNL A   1      42.515  32.716  37.081  1.00  0.00     0.029 A 
ATOM     63  N   UNL A   1      42.199  31.827  35.069  1.00  0.00    -0.354 N 
ATOM     64  N   UNL A   1      42.797  30.053  32.833  1.00  0.00    -0.248 NA
ATOM     65  C   UNL A   1      44.196  28.496  31.795  1.00  0.00     0.031 C 
ATOM     66  C   UNL A   1      43.570  31.837  36.818  1.00  0.00     0.029 A 
ATOM     67  C   UNL A   1      43.358  31.262  35.576  1.00  0.00     0.049 A 
ATOM     68  H   UNL A   1      41.804  31.616  34.192  1.00  0.00     0.167 HD
ATOM     69  C   UNL A   1      43.864  29.759  33.678  1.00  0.00     0.074 A 
ATOM     70  C   UNL A   1      44.668  28.761  33.005  1.00  0.00     0.031 C 
ATOM     71  C   UNL A   1      44.153  30.270  34.899  1.00  0.00     0.031 A 
BRANCH  58  72
ATOM     72  C   UNL A   1      40.074  34.472  36.861  1.00  0.00    -0.014 A 
ATOM     73  C   UNL A   1      39.280  34.030  37.935  1.00  0.00     0.010 A 
ATOM     74  C   UNL A   1      40.534  35.801  36.851  1.00  0.00     0.010 A 
ATOM     75  C   UNL A   1      38.932  34.908  38.965  1.00  0.00     0.020 A 
ATOM     76  C   UNL A   1      40.211  36.674  37.894  1.00  0.00     0.020 A 
ATOM     77  C   UNL A   1      39.402  36.224  38.939  1.00  0.00     0.054 A 
BRANCH  77  78
ATOM     78  S   UNL A   1      38.974  37.327  40.314  1.00  0.00     0.124 S 
ATOM     79  O   UNL A   1      38.254  38.398  39.626  1.00  0.00    -0.237 OA
ATOM     80  O   UNL A   1      38.150  36.468  41.165  1.00  0.00    -0.237 OA
ATOM     81  O   UNL A   1      40.263  37.704  40.875  1.00  0.00    -0.744 OA
ENDBRANCH  77  78
ENDBRANCH  58  72
BRANCH  59  82
ATOM     82  C   UNL A   1      42.505  28.289  29.423  1.00  0.00    -0.014 A 
ATOM     83  C   UNL A   1      43.355  28.736  28.395  1.00  0.00     0.010 A 
ATOM     84  C   UNL A   1      41.994  26.980  29.362  1.00  0.00     0.010 A 
ATOM     85  C   UNL A   1      43.648  27.908  27.307  1.00  0.00     0.020 A 
ATOM     86  C   UNL A   1      42.311  26.138  28.292  1.00  0.00     0.020 A 
ATOM     87  C   UNL A   1      43.119  26.615  27.260  1.00  0.00     0.054 A 
BRANCH  87  88
ATOM     88  S   UNL A   1      43.518  25.553  25.843  1.00  0.00     0.124 S 
ATOM     89  O   UNL A   1      42.199  25.315  25.265  1.00  0.00    -0.237 OA
ATOM     90  O   UNL A   1      44.412  26.398  25.056  1.00  0.00    -0.237 OA
ATOM     91  O   UNL A   1      44.153  24.390  26.458  1.00  0.00    -0.744 OA
ENDBRANCH  87  88
ENDBRANCH  59  82
BRANCH  71  92
ATOM     92  C   UNL A   1      45.376  29.739  35.603  1.00  0.00    -0.014 A 
ATOM     93  C   UNL A   1      46.631  30.355  35.452  1.00  0.00     0.010 A 
ATOM     94  C   UNL A   1      45.260  28.624  36.454  1.00  0.00     0.010 A 
ATOM     95  C   UNL A   1      47.757  29.837  36.099  1.00  0.00     0.020 A 
ATOM     96  C   UNL A   1      46.378  28.122  37.129  1.00  0.00     0.020 A 
ATOM     97  C   UNL A   1      47.623  28.721  36.931  1.00  0.00     0.054 A 
BRANCH  97  98
ATOM     98  S   UNL A   1      49.095  28.081  37.775  1.00  0.00     0.124 S 
ATOM     99  O   UNL A   1      48.652  28.036  39.165  1.00  0.00    -0.237 OA
ATOM    100  O   UNL A   1      49.293  26.782  37.136  1.00  0.00    -0.237 OA
ATOM    101  O   UNL A   1      50.124  29.076  37.480  1.00  0.00    -0.744 OA
ENDBRANCH  97  98
ENDBRANCH  71  92
ENDBRANCH  45  46
ENDBRANCH  37  40
ENDBRANCH  35  36
ENDBRANCH  34  35
ENDBRANCH  33  34
ENDBRANCH   1  33
TORSDOF 19
ENDMDL
