MODEL 1
REMARK VINA RESULT:     -11.3      0.000      0.000
REMARK SMILES N#C/C(=C/c1cccc(OCC(=O)NCCCCCCNC(=O)c2ccc(-c3c4nc(c(-c5ccc(S(=O)(=O)[O-])cc5)c5ccc([nH]5)c(-c5ccc(S(=O)(=O)[O-])cc5)c5nc(c(-c6ccc(S(=O)(=O)[O-])cc6)c6ccc3[nH]6)C=C5)C=C4)cc2)c1)c1nc2ccccc2[nH]1
REMARK SMILES IDX 17 1 16 2 15 3 14 4 12 5 13 6 11 8 10 9 9 10 5 11 6 12 84 13
REMARK SMILES IDX 7 14 8 15 4 16 3 17 2 18 1 19 85 20 86 21 93 22 87 23 92 24
REMARK SMILES IDX 88 26 91 27 89 28 90 29 18 30 19 31 20 32 21 33 22 34 23 36
REMARK SMILES IDX 24 37 25 38 83 39 26 40 82 41 27 42 28 43 29 44 76 45 30 46
REMARK SMILES IDX 81 47 75 48 77 49 31 50 80 51 74 52 73 53 32 55 62 56 43 57
REMARK SMILES IDX 61 58 44 59 47 60 60 61 78 62 45 63 46 64 59 66 79 67 48 68
REMARK SMILES IDX 33 69 34 70 42 71 35 72 41 73 36 74 37 75 38 76 39 77 40 78
REMARK SMILES IDX 63 79 64 80 72 81 65 82 71 83 66 84 67 85 68 86 69 87 70 88
REMARK SMILES IDX 49 89 50 90 58 91 51 92 57 93 52 94 53 95 54 96 55 97 56 98
REMARK H PARENT 14 7 93 25 21 35 77 54 47 65
REMARK Flexibility Score: inf
ROOT
ATOM      1  C   UNL A   1      35.276  30.648  27.298  1.00  0.00     0.002 C 
ENDROOT
BRANCH   1   2
ATOM      2  C   UNL A   1      34.511  29.372  27.664  1.00  0.00     0.021 C 
BRANCH   2   3
ATOM      3  C   UNL A   1      33.955  28.559  26.495  1.00  0.00     0.116 C 
BRANCH   3   4
ATOM      4  N   UNL A   1      33.031  29.292  25.647  1.00  0.00    -0.353 N 
ATOM      5  C   UNL A   1      31.744  28.958  25.325  1.00  0.00     0.257 C 
ATOM      6  O   UNL A   1      31.009  29.785  24.779  1.00  0.00    -0.271 OA
ATOM      7  H   UNL A   1      33.370  30.131  25.260  1.00  0.00     0.163 HD
BRANCH   5   8
ATOM      8  C   UNL A   1      31.215  27.564  25.679  1.00  0.00     0.329 C 
BRANCH   8   9
ATOM      9  O   UNL A   1      31.695  26.486  24.893  1.00  0.00    -0.484 OA
BRANCH   9  10
ATOM     10  C   UNL A   1      32.252  25.414  25.535  1.00  0.00     0.120 A 
ATOM     11  C   UNL A   1      34.036  23.899  26.198  1.00  0.00    -0.021 A 
ATOM     12  C   UNL A   1      33.139  23.206  27.016  1.00  0.00     0.008 A 
ATOM     13  C   UNL A   1      33.579  24.989  25.439  1.00  0.00     0.054 A 
ATOM     14  C   UNL A   1      31.808  23.611  27.094  1.00  0.00     0.004 A 
ATOM     15  C   UNL A   1      31.370  24.713  26.360  1.00  0.00     0.046 A 
BRANCH  11  16
ATOM     16  C   UNL A   1      35.440  23.464  26.131  1.00  0.00     0.031 C 
ATOM     17  C   UNL A   1      35.881  22.284  25.655  1.00  0.00     0.095 C 
BRANCH  17  18
ATOM     18  C   UNL A   1      37.368  21.969  25.656  1.00  0.00     0.103 C 
ATOM     19  N   UNL A   1      38.601  21.707  25.656  1.00  0.00    -0.192 NA
ENDBRANCH  17  18
BRANCH  17  20
ATOM     20  C   UNL A   1      35.020  21.314  25.072  1.00  0.00     0.149 A 
ATOM     21  N   UNL A   1      33.951  21.454  24.311  1.00  0.00    -0.228 NA
ATOM     22  N   UNL A   1      35.304  19.979  25.261  1.00  0.00    -0.337 N 
ATOM     23  C   UNL A   1      33.527  20.179  24.023  1.00  0.00     0.089 A 
ATOM     24  C   UNL A   1      34.354  19.234  24.612  1.00  0.00     0.066 A 
ATOM     25  H   UNL A   1      36.063  19.621  25.777  1.00  0.00     0.168 HD
ATOM     26  C   UNL A   1      32.430  19.744  23.268  1.00  0.00     0.030 A 
ATOM     27  C   UNL A   1      34.140  17.857  24.522  1.00  0.00     0.028 A 
ATOM     28  C   UNL A   1      32.177  18.368  23.178  1.00  0.00     0.002 A 
ATOM     29  C   UNL A   1      33.016  17.443  23.800  1.00  0.00     0.002 A 
ENDBRANCH  17  20
ENDBRANCH  11  16
ENDBRANCH   9  10
ENDBRANCH   8   9
ENDBRANCH   5   8
ENDBRANCH   3   4
ENDBRANCH   2   3
ENDBRANCH   1   2
BRANCH   1  30
ATOM     30  C   UNL A   1      34.855  31.935  28.011  1.00  0.00     0.002 C 
BRANCH  30  31
ATOM     31  C   UNL A   1      35.973  32.947  28.249  1.00  0.00     0.021 C 
BRANCH  31  32
ATOM     32  C   UNL A   1      36.964  32.565  29.343  1.00  0.00     0.116 C 
BRANCH  32  33
ATOM     33  N   UNL A   1      36.359  31.847  30.458  1.00  0.00    -0.352 N 
ATOM     34  C   UNL A   1      36.766  30.657  31.019  1.00  0.00     0.251 C 
ATOM     35  H   UNL A   1      35.562  32.263  30.858  1.00  0.00     0.163 HD
ATOM     36  O   UNL A   1      36.111  30.121  31.906  1.00  0.00    -0.269 OA
BRANCH  34  37
ATOM     37  C   UNL A   1      37.988  30.016  30.495  1.00  0.00     0.039 A 
ATOM     38  C   UNL A   1      38.187  29.956  29.113  1.00  0.00     0.014 A 
ATOM     39  C   UNL A   1      38.975  29.570  31.377  1.00  0.00     0.014 A 
ATOM     40  C   UNL A   1      39.420  29.528  28.617  1.00  0.00     0.010 A 
ATOM     41  C   UNL A   1      40.226  29.219  30.883  1.00  0.00     0.010 A 
ATOM     42  C   UNL A   1      40.464  29.202  29.499  1.00  0.00    -0.014 A 
BRANCH  42  43
ATOM     43  C   UNL A   1      41.818  28.849  29.004  1.00  0.00     0.031 A 
ATOM     44  C   UNL A   1      42.885  29.906  28.926  1.00  0.00     0.074 A 
ATOM     45  C   UNL A   1      42.061  27.604  28.547  1.00  0.00     0.049 A 
ATOM     46  N   UNL A   1      44.098  29.820  28.445  1.00  0.00    -0.248 NA
ATOM     47  C   UNL A   1      42.529  31.247  29.422  1.00  0.00     0.031 C 
ATOM     48  C   UNL A   1      41.092  26.505  28.515  1.00  0.00     0.029 A 
ATOM     49  N   UNL A   1      43.199  27.054  28.010  1.00  0.00    -0.354 N 
ATOM     50  C   UNL A   1      44.638  31.096  28.553  1.00  0.00     0.074 A 
ATOM     51  C   UNL A   1      43.604  31.949  29.097  1.00  0.00     0.031 C 
ATOM     52  C   UNL A   1      41.685  25.408  28.017  1.00  0.00     0.029 A 
ATOM     53  C   UNL A   1      43.063  25.731  27.660  1.00  0.00     0.049 A 
ATOM     54  H   UNL A   1      44.034  27.561  27.887  1.00  0.00     0.167 HD
ATOM     55  C   UNL A   1      45.887  31.517  28.247  1.00  0.00     0.031 A 
ATOM     56  C   UNL A   1      43.948  24.874  27.114  1.00  0.00     0.031 A 
ATOM     57  C   UNL A   1      46.921  30.659  27.736  1.00  0.00     0.049 A 
ATOM     58  C   UNL A   1      45.340  25.357  26.813  1.00  0.00     0.074 A 
ATOM     59  C   UNL A   1      48.241  30.971  27.460  1.00  0.00     0.029 A 
ATOM     60  N   UNL A   1      46.753  29.317  27.430  1.00  0.00    -0.354 N 
ATOM     61  N   UNL A   1      45.851  26.553  26.984  1.00  0.00    -0.248 NA
ATOM     62  C   UNL A   1      46.277  24.372  26.256  1.00  0.00     0.031 C 
ATOM     63  C   UNL A   1      48.862  29.825  26.954  1.00  0.00     0.029 A 
ATOM     64  C   UNL A   1      47.941  28.788  26.957  1.00  0.00     0.049 A 
ATOM     65  H   UNL A   1      45.914  28.814  27.536  1.00  0.00     0.167 HD
ATOM     66  C   UNL A   1      47.179  26.457  26.582  1.00  0.00     0.074 A 
ATOM     67  C   UNL A   1      47.393  25.085  26.170  1.00  0.00     0.031 C 
ATOM     68  C   UNL A   1      48.134  27.418  26.557  1.00  0.00     0.031 A 
BRANCH  55  69
ATOM     69  C   UNL A   1      46.198  32.974  28.462  1.00  0.00    -0.014 A 
ATOM     70  C   UNL A   1      46.704  33.433  29.692  1.00  0.00     0.010 A 
ATOM     71  C   UNL A   1      46.001  33.894  27.417  1.00  0.00     0.010 A 
ATOM     72  C   UNL A   1      46.960  34.792  29.890  1.00  0.00     0.020 A 
ATOM     73  C   UNL A   1      46.283  35.251  27.601  1.00  0.00     0.020 A 
ATOM     74  C   UNL A   1      46.741  35.694  28.844  1.00  0.00     0.054 A 
BRANCH  74  75
ATOM     75  S   UNL A   1      47.094  37.451  29.124  1.00  0.00     0.124 S 
ATOM     76  O   UNL A   1      47.173  37.962  27.758  1.00  0.00    -0.237 OA
ATOM     77  O   UNL A   1      45.934  37.894  29.894  1.00  0.00    -0.237 OA
ATOM     78  O   UNL A   1      48.357  37.437  29.858  1.00  0.00    -0.744 OA
ENDBRANCH  74  75
ENDBRANCH  55  69
BRANCH  56  79
ATOM     79  C   UNL A   1      43.554  23.465  26.849  1.00  0.00    -0.014 A 
ATOM     80  C   UNL A   1      43.082  22.651  27.895  1.00  0.00     0.010 A 
ATOM     81  C   UNL A   1      43.637  22.929  25.552  1.00  0.00     0.010 A 
ATOM     82  C   UNL A   1      42.718  21.324  27.653  1.00  0.00     0.020 A 
ATOM     83  C   UNL A   1      43.250  21.608  25.300  1.00  0.00     0.020 A 
ATOM     84  C   UNL A   1      42.803  20.810  26.356  1.00  0.00     0.054 A 
BRANCH  84  85
ATOM     85  S   UNL A   1      42.274  19.101  26.052  1.00  0.00     0.124 S 
ATOM     86  O   UNL A   1      40.839  19.261  25.842  1.00  0.00    -0.237 OA
ATOM     87  O   UNL A   1      43.051  18.734  24.870  1.00  0.00    -0.237 OA
ATOM     88  O   UNL A   1      42.655  18.404  27.278  1.00  0.00    -0.744 OA
ENDBRANCH  84  85
ENDBRANCH  56  79
BRANCH  68  89
ATOM     89  C   UNL A   1      49.509  27.014  26.099  1.00  0.00    -0.014 A 
ATOM     90  C   UNL A   1      50.426  26.427  26.987  1.00  0.00     0.010 A 
ATOM     91  C   UNL A   1      49.862  27.171  24.747  1.00  0.00     0.010 A 
ATOM     92  C   UNL A   1      51.686  26.026  26.534  1.00  0.00     0.020 A 
ATOM     93  C   UNL A   1      51.112  26.749  24.286  1.00  0.00     0.020 A 
ATOM     94  C   UNL A   1      52.020  26.190  25.187  1.00  0.00     0.054 A 
BRANCH  94  95
ATOM     95  S   UNL A   1      53.642  25.615  24.611  1.00  0.00     0.124 S 
ATOM     96  O   UNL A   1      53.623  26.011  23.206  1.00  0.00    -0.237 OA
ATOM     97  O   UNL A   1      54.567  26.359  25.463  1.00  0.00    -0.237 OA
ATOM     98  O   UNL A   1      53.603  24.175  24.854  1.00  0.00    -0.744 OA
ENDBRANCH  94  95
ENDBRANCH  68  89
ENDBRANCH  42  43
ENDBRANCH  34  37
ENDBRANCH  32  33
ENDBRANCH  31  32
ENDBRANCH  30  31
ENDBRANCH   1  30
TORSDOF 21
ENDMDL
MODEL 2
REMARK VINA RESULT:     -11.1      1.120      8.203
REMARK SMILES N#C/C(=C/c1cccc(OCC(=O)NCCCCCCNC(=O)c2ccc(-c3c4nc(c(-c5ccc(S(=O)(=O)[O-])cc5)c5ccc([nH]5)c(-c5ccc(S(=O)(=O)[O-])cc5)c5nc(c(-c6ccc(S(=O)(=O)[O-])cc6)c6ccc3[nH]6)C=C5)C=C4)cc2)c1)c1nc2ccccc2[nH]1
REMARK SMILES IDX 17 1 16 2 15 3 14 4 12 5 13 6 11 8 10 9 9 10 5 11 6 12 84 13
REMARK SMILES IDX 7 14 8 15 4 16 3 17 2 18 1 19 85 20 86 21 93 22 87 23 92 24
REMARK SMILES IDX 88 26 91 27 89 28 90 29 18 30 19 31 20 32 21 33 22 34 23 36
REMARK SMILES IDX 24 37 25 38 83 39 26 40 82 41 27 42 28 43 29 44 76 45 30 46
REMARK SMILES IDX 81 47 75 48 77 49 31 50 80 51 74 52 73 53 32 55 62 56 43 57
REMARK SMILES IDX 61 58 44 59 47 60 60 61 78 62 45 63 46 64 59 66 79 67 48 68
REMARK SMILES IDX 33 69 34 70 42 71 35 72 41 73 36 74 37 75 38 76 39 77 40 78
REMARK SMILES IDX 63 79 64 80 72 81 65 82 71 83 66 84 67 85 68 86 69 87 70 88
REMARK SMILES IDX 49 89 50 90 58 91 51 92 57 93 52 94 53 95 54 96 55 97 56 98
REMARK H PARENT 14 7 93 25 21 35 77 54 47 65
REMARK Flexibility Score: inf
ROOT
ATOM      1  C   UNL A   1      35.010  30.408  27.302  1.00  0.00     0.002 C 
ENDROOT
BRANCH   1   2
ATOM      2  C   UNL A   1      33.989  29.267  27.339  1.00  0.00     0.021 C 
BRANCH   2   3
ATOM      3  C   UNL A   1      32.742  29.448  26.475  1.00  0.00     0.116 C 
BRANCH   3   4
ATOM      4  N   UNL A   1      31.667  28.519  26.780  1.00  0.00    -0.353 N 
ATOM      5  C   UNL A   1      31.522  27.232  26.341  1.00  0.00     0.257 C 
ATOM      6  O   UNL A   1      30.680  26.494  26.860  1.00  0.00    -0.271 OA
ATOM      7  H   UNL A   1      30.960  28.856  27.376  1.00  0.00     0.163 HD
BRANCH   5   8
ATOM      8  C   UNL A   1      32.435  26.706  25.229  1.00  0.00     0.329 C 
BRANCH   8   9
ATOM      9  O   UNL A   1      31.797  26.250  24.048  1.00  0.00    -0.484 OA
BRANCH   9  10
ATOM     10  C   UNL A   1      32.183  25.044  23.528  1.00  0.00     0.120 A 
ATOM     11  C   UNL A   1      32.415  22.624  23.458  1.00  0.00    -0.021 A 
ATOM     12  C   UNL A   1      33.022  22.722  22.203  1.00  0.00     0.008 A 
ATOM     13  C   UNL A   1      32.021  23.794  24.128  1.00  0.00     0.054 A 
ATOM     14  C   UNL A   1      33.211  23.971  21.612  1.00  0.00     0.004 A 
ATOM     15  C   UNL A   1      32.788  25.125  22.272  1.00  0.00     0.046 A 
BRANCH  11  16
ATOM     16  C   UNL A   1      32.218  21.299  24.065  1.00  0.00     0.031 C 
ATOM     17  C   UNL A   1      33.149  20.581  24.719  1.00  0.00     0.095 C 
BRANCH  17  18
ATOM     18  C   UNL A   1      32.800  19.216  25.290  1.00  0.00     0.103 C 
ATOM     19  N   UNL A   1      32.510  18.084  25.763  1.00  0.00    -0.192 NA
ENDBRANCH  17  18
BRANCH  17  20
ATOM     20  C   UNL A   1      34.461  21.066  24.976  1.00  0.00     0.149 A 
ATOM     21  N   UNL A   1      35.640  20.499  24.807  1.00  0.00    -0.228 NA
ATOM     22  N   UNL A   1      34.609  22.350  25.454  1.00  0.00    -0.337 N 
ATOM     23  C   UNL A   1      36.566  21.433  25.205  1.00  0.00     0.089 A 
ATOM     24  C   UNL A   1      35.946  22.602  25.623  1.00  0.00     0.066 A 
ATOM     25  H   UNL A   1      33.876  22.980  25.643  1.00  0.00     0.168 HD
ATOM     26  C   UNL A   1      37.963  21.354  25.250  1.00  0.00     0.030 A 
ATOM     27  C   UNL A   1      36.638  23.708  26.119  1.00  0.00     0.028 A 
ATOM     28  C   UNL A   1      38.685  22.441  25.765  1.00  0.00     0.002 A 
ATOM     29  C   UNL A   1      38.029  23.595  26.197  1.00  0.00     0.002 A 
ENDBRANCH  17  20
ENDBRANCH  11  16
ENDBRANCH   9  10
ENDBRANCH   8   9
ENDBRANCH   5   8
ENDBRANCH   3   4
ENDBRANCH   2   3
ENDBRANCH   1   2
BRANCH   1  30
ATOM     30  C   UNL A   1      34.641  31.692  28.050  1.00  0.00     0.002 C 
BRANCH  30  31
ATOM     31  C   UNL A   1      35.741  32.748  28.120  1.00  0.00     0.021 C 
BRANCH  31  32
ATOM     32  C   UNL A   1      36.743  32.559  29.254  1.00  0.00     0.116 C 
BRANCH  32  33
ATOM     33  N   UNL A   1      36.210  31.817  30.390  1.00  0.00    -0.352 N 
ATOM     34  C   UNL A   1      36.693  30.651  30.941  1.00  0.00     0.251 C 
ATOM     35  H   UNL A   1      35.407  32.195  30.815  1.00  0.00     0.163 HD
ATOM     36  O   UNL A   1      36.093  30.087  31.850  1.00  0.00    -0.269 OA
BRANCH  34  37
ATOM     37  C   UNL A   1      37.927  30.067  30.379  1.00  0.00     0.039 A 
ATOM     38  C   UNL A   1      38.073  29.989  28.992  1.00  0.00     0.014 A 
ATOM     39  C   UNL A   1      38.972  29.697  31.228  1.00  0.00     0.014 A 
ATOM     40  C   UNL A   1      39.307  29.620  28.453  1.00  0.00     0.010 A 
ATOM     41  C   UNL A   1      40.220  29.406  30.689  1.00  0.00     0.010 A 
ATOM     42  C   UNL A   1      40.403  29.372  29.298  1.00  0.00    -0.014 A 
BRANCH  42  43
ATOM     43  C   UNL A   1      41.754  29.085  28.754  1.00  0.00     0.031 A 
ATOM     44  C   UNL A   1      42.089  27.697  28.280  1.00  0.00     0.074 A 
ATOM     45  C   UNL A   1      42.700  30.046  28.766  1.00  0.00     0.049 A 
ATOM     46  N   UNL A   1      43.232  27.225  27.854  1.00  0.00    -0.248 NA
ATOM     47  C   UNL A   1      41.007  26.699  28.325  1.00  0.00     0.031 C 
ATOM     48  C   UNL A   1      42.515  31.415  29.253  1.00  0.00     0.029 A 
ATOM     49  N   UNL A   1      44.012  30.014  28.363  1.00  0.00    -0.354 N 
ATOM     50  C   UNL A   1      43.014  25.874  27.610  1.00  0.00     0.074 A 
ATOM     51  C   UNL A   1      41.645  25.591  27.982  1.00  0.00     0.031 C 
ATOM     52  C   UNL A   1      43.659  32.099  29.093  1.00  0.00     0.029 A 
ATOM     53  C   UNL A   1      44.670  31.212  28.526  1.00  0.00     0.049 A 
ATOM     54  H   UNL A   1      44.442  29.209  27.993  1.00  0.00     0.167 HD
ATOM     55  C   UNL A   1      43.868  24.956  27.101  1.00  0.00     0.031 A 
ATOM     56  C   UNL A   1      45.943  31.555  28.249  1.00  0.00     0.031 A 
ATOM     57  C   UNL A   1      45.218  25.248  26.702  1.00  0.00     0.049 A 
ATOM     58  C   UNL A   1      46.864  30.526  27.654  1.00  0.00     0.074 A 
ATOM     59  C   UNL A   1      46.143  24.407  26.110  1.00  0.00     0.029 A 
ATOM     60  N   UNL A   1      45.834  26.482  26.848  1.00  0.00    -0.354 N 
ATOM     61  N   UNL A   1      46.619  29.269  27.368  1.00  0.00    -0.248 NA
ATOM     62  C   UNL A   1      48.229  30.964  27.334  1.00  0.00     0.031 C 
ATOM     63  C   UNL A   1      47.331  25.122  25.930  1.00  0.00     0.029 A 
ATOM     64  C   UNL A   1      47.131  26.422  26.370  1.00  0.00     0.049 A 
ATOM     65  H   UNL A   1      45.411  27.283  27.234  1.00  0.00     0.167 HD
ATOM     66  C   UNL A   1      47.790  28.773  26.808  1.00  0.00     0.074 A 
ATOM     67  C   UNL A   1      48.739  29.868  26.786  1.00  0.00     0.031 C 
ATOM     68  C   UNL A   1      48.058  27.525  26.352  1.00  0.00     0.031 A 
BRANCH  55  69
ATOM     69  C   UNL A   1      43.359  23.548  26.947  1.00  0.00    -0.014 A 
ATOM     70  C   UNL A   1      43.222  22.701  28.062  1.00  0.00     0.010 A 
ATOM     71  C   UNL A   1      42.993  23.070  25.676  1.00  0.00     0.010 A 
ATOM     72  C   UNL A   1      42.777  21.386  27.902  1.00  0.00     0.020 A 
ATOM     73  C   UNL A   1      42.520  21.765  25.515  1.00  0.00     0.020 A 
ATOM     74  C   UNL A   1      42.435  20.924  26.627  1.00  0.00     0.054 A 
BRANCH  74  75
ATOM     75  S   UNL A   1      41.848  19.217  26.449  1.00  0.00     0.124 S 
ATOM     76  O   UNL A   1      42.557  18.780  25.250  1.00  0.00    -0.237 OA
ATOM     77  O   UNL A   1      42.282  18.596  27.698  1.00  0.00    -0.237 OA
ATOM     78  O   UNL A   1      40.402  19.363  26.300  1.00  0.00    -0.744 OA
ENDBRANCH  74  75
ENDBRANCH  55  69
BRANCH  56  79
ATOM     79  C   UNL A   1      46.411  32.944  28.500  1.00  0.00    -0.014 A 
ATOM     80  C   UNL A   1      46.219  33.944  27.529  1.00  0.00     0.010 A 
ATOM     81  C   UNL A   1      47.040  33.282  29.711  1.00  0.00     0.010 A 
ATOM     82  C   UNL A   1      46.662  35.249  27.756  1.00  0.00     0.020 A 
ATOM     83  C   UNL A   1      47.464  34.593  29.953  1.00  0.00     0.020 A 
ATOM     84  C   UNL A   1      47.283  35.566  28.968  1.00  0.00     0.054 A 
BRANCH  84  85
ATOM     85  S   UNL A   1      47.803  37.279  29.265  1.00  0.00     0.124 S 
ATOM     86  O   UNL A   1      47.904  37.317  30.721  1.00  0.00    -0.237 OA
ATOM     87  O   UNL A   1      49.070  37.356  28.540  1.00  0.00    -0.237 OA
ATOM     88  O   UNL A   1      46.718  38.070  28.691  1.00  0.00    -0.744 OA
ENDBRANCH  84  85
ENDBRANCH  56  79
BRANCH  68  89
ATOM     89  C   UNL A   1      49.418  27.281  25.760  1.00  0.00    -0.014 A 
ATOM     90  C   UNL A   1      50.487  26.834  26.554  1.00  0.00     0.010 A 
ATOM     91  C   UNL A   1      49.609  27.443  24.376  1.00  0.00     0.010 A 
ATOM     92  C   UNL A   1      51.734  26.579  25.978  1.00  0.00     0.020 A 
ATOM     93  C   UNL A   1      50.848  27.166  23.792  1.00  0.00     0.020 A 
ATOM     94  C   UNL A   1      51.905  26.746  24.600  1.00  0.00     0.054 A 
BRANCH  94  95
ATOM     95  S   UNL A   1      53.519  26.359  23.867  1.00  0.00     0.124 S 
ATOM     96  O   UNL A   1      54.391  27.330  24.522  1.00  0.00    -0.237 OA
ATOM     97  O   UNL A   1      53.724  24.966  24.257  1.00  0.00    -0.237 OA
ATOM     98  O   UNL A   1      53.309  26.575  22.437  1.00  0.00    -0.744 OA
ENDBRANCH  94  95
ENDBRANCH  68  89
ENDBRANCH  42  43
ENDBRANCH  34  37
ENDBRANCH  32  33
ENDBRANCH  31  32
ENDBRANCH  30  31
ENDBRANCH   1  30
TORSDOF 21
ENDMDL
MODEL 3
REMARK VINA RESULT:     -11.1      6.029      8.247
REMARK SMILES N#C/C(=C/c1cccc(OCC(=O)NCCCCCCNC(=O)c2ccc(-c3c4nc(c(-c5ccc(S(=O)(=O)[O-])cc5)c5ccc([nH]5)c(-c5ccc(S(=O)(=O)[O-])cc5)c5nc(c(-c6ccc(S(=O)(=O)[O-])cc6)c6ccc3[nH]6)C=C5)C=C4)cc2)c1)c1nc2ccccc2[nH]1
REMARK SMILES IDX 17 1 16 2 15 3 14 4 12 5 13 6 11 8 10 9 9 10 5 11 6 12 84 13
REMARK SMILES IDX 7 14 8 15 4 16 3 17 2 18 1 19 85 20 86 21 93 22 87 23 92 24
REMARK SMILES IDX 88 26 91 27 89 28 90 29 18 30 19 31 20 32 21 33 22 34 23 36
REMARK SMILES IDX 24 37 25 38 83 39 26 40 82 41 27 42 28 43 29 44 76 45 30 46
REMARK SMILES IDX 81 47 75 48 77 49 31 50 80 51 74 52 73 53 32 55 62 56 43 57
REMARK SMILES IDX 61 58 44 59 47 60 60 61 78 62 45 63 46 64 59 66 79 67 48 68
REMARK SMILES IDX 33 69 34 70 42 71 35 72 41 73 36 74 37 75 38 76 39 77 40 78
REMARK SMILES IDX 63 79 64 80 72 81 65 82 71 83 66 84 67 85 68 86 69 87 70 88
REMARK SMILES IDX 49 89 50 90 58 91 51 92 57 93 52 94 53 95 54 96 55 97 56 98
REMARK H PARENT 14 7 93 25 21 35 77 54 47 65
REMARK Flexibility Score: inf
ROOT
ATOM      1  C   UNL A   1      35.611  31.035  28.576  1.00  0.00     0.002 C 
ENDROOT
BRANCH   1   2
ATOM      2  C   UNL A   1      35.989  29.932  27.582  1.00  0.00     0.021 C 
BRANCH   2   3
ATOM      3  C   UNL A   1      34.889  28.931  27.233  1.00  0.00     0.116 C 
BRANCH   3   4
ATOM      4  N   UNL A   1      33.975  29.389  26.200  1.00  0.00    -0.353 N 
ATOM      5  C   UNL A   1      32.800  28.812  25.805  1.00  0.00     0.257 C 
ATOM      6  O   UNL A   1      32.022  29.431  25.074  1.00  0.00    -0.271 OA
ATOM      7  H   UNL A   1      34.233  30.214  25.729  1.00  0.00     0.163 HD
BRANCH   5   8
ATOM      8  C   UNL A   1      32.441  27.409  26.306  1.00  0.00     0.329 C 
BRANCH   8   9
ATOM      9  O   UNL A   1      31.961  26.493  25.336  1.00  0.00    -0.484 OA
BRANCH   9  10
ATOM     10  C   UNL A   1      32.868  25.693  24.696  1.00  0.00     0.120 A 
ATOM     11  C   UNL A   1      34.923  24.415  24.449  1.00  0.00    -0.021 A 
ATOM     12  C   UNL A   1      34.508  24.000  23.181  1.00  0.00     0.008 A 
ATOM     13  C   UNL A   1      34.108  25.285  25.192  1.00  0.00     0.054 A 
ATOM     14  C   UNL A   1      33.284  24.427  22.670  1.00  0.00     0.004 A 
ATOM     15  C   UNL A   1      32.468  25.266  23.428  1.00  0.00     0.046 A 
BRANCH  11  16
ATOM     16  C   UNL A   1      36.216  23.950  24.977  1.00  0.00     0.031 C 
ATOM     17  C   UNL A   1      36.501  22.700  25.384  1.00  0.00     0.095 C 
BRANCH  17  18
ATOM     18  C   UNL A   1      37.886  22.367  25.915  1.00  0.00     0.103 C 
ATOM     19  N   UNL A   1      39.035  22.091  26.356  1.00  0.00    -0.192 NA
ENDBRANCH  17  18
BRANCH  17  20
ATOM     20  C   UNL A   1      35.579  21.622  25.280  1.00  0.00     0.149 A 
ATOM     21  N   UNL A   1      34.287  21.563  25.538  1.00  0.00    -0.228 NA
ATOM     22  N   UNL A   1      36.030  20.410  24.804  1.00  0.00    -0.337 N 
ATOM     23  C   UNL A   1      33.903  20.277  25.242  1.00  0.00     0.089 A 
ATOM     24  C   UNL A   1      34.980  19.530  24.786  1.00  0.00     0.066 A 
ATOM     25  H   UNL A   1      36.953  20.211  24.525  1.00  0.00     0.168 HD
ATOM     26  C   UNL A   1      32.649  19.665  25.347  1.00  0.00     0.030 A 
ATOM     27  C   UNL A   1      34.893  18.177  24.448  1.00  0.00     0.028 A 
ATOM     28  C   UNL A   1      32.535  18.302  25.036  1.00  0.00     0.002 A 
ATOM     29  C   UNL A   1      33.642  17.572  24.600  1.00  0.00     0.002 A 
ENDBRANCH  17  20
ENDBRANCH  11  16
ENDBRANCH   9  10
ENDBRANCH   8   9
ENDBRANCH   5   8
ENDBRANCH   3   4
ENDBRANCH   2   3
ENDBRANCH   1   2
BRANCH   1  30
ATOM     30  C   UNL A   1      35.728  32.480  28.084  1.00  0.00     0.002 C 
BRANCH  30  31
ATOM     31  C   UNL A   1      34.414  33.252  28.005  1.00  0.00     0.021 C 
BRANCH  31  32
ATOM     32  C   UNL A   1      34.496  34.709  28.448  1.00  0.00     0.116 C 
BRANCH  32  33
ATOM     33  N   UNL A   1      33.382  35.131  29.289  1.00  0.00    -0.352 N 
ATOM     34  C   UNL A   1      33.253  34.998  30.653  1.00  0.00     0.251 C 
ATOM     35  H   UNL A   1      32.630  35.564  28.824  1.00  0.00     0.163 HD
ATOM     36  O   UNL A   1      32.219  35.326  31.224  1.00  0.00    -0.269 OA
BRANCH  34  37
ATOM     37  C   UNL A   1      34.374  34.406  31.410  1.00  0.00     0.039 A 
ATOM     38  C   UNL A   1      34.377  33.031  31.659  1.00  0.00     0.014 A 
ATOM     39  C   UNL A   1      35.463  35.199  31.777  1.00  0.00     0.014 A 
ATOM     40  C   UNL A   1      35.518  32.436  32.200  1.00  0.00     0.010 A 
ATOM     41  C   UNL A   1      36.624  34.593  32.243  1.00  0.00     0.010 A 
ATOM     42  C   UNL A   1      36.666  33.205  32.452  1.00  0.00    -0.014 A 
BRANCH  42  43
ATOM     43  C   UNL A   1      37.929  32.584  32.924  1.00  0.00     0.031 A 
ATOM     44  C   UNL A   1      38.416  32.852  34.322  1.00  0.00     0.074 A 
ATOM     45  C   UNL A   1      38.677  31.853  32.072  1.00  0.00     0.049 A 
ATOM     46  N   UNL A   1      39.531  32.476  34.893  1.00  0.00    -0.248 NA
ATOM     47  C   UNL A   1      37.553  33.682  35.179  1.00  0.00     0.031 C 
ATOM     48  C   UNL A   1      38.341  31.570  30.675  1.00  0.00     0.029 A 
ATOM     49  N   UNL A   1      39.882  31.221  32.256  1.00  0.00    -0.354 N 
ATOM     50  C   UNL A   1      39.517  33.045  36.160  1.00  0.00     0.074 A 
ATOM     51  C   UNL A   1      38.307  33.833  36.257  1.00  0.00     0.031 C 
ATOM     52  C   UNL A   1      39.299  30.797  30.139  1.00  0.00     0.029 A 
ATOM     53  C   UNL A   1      40.335  30.558  31.139  1.00  0.00     0.049 A 
ATOM     54  H   UNL A   1      40.375  31.242  33.108  1.00  0.00     0.167 HD
ATOM     55  C   UNL A   1      40.417  32.909  37.162  1.00  0.00     0.031 A 
ATOM     56  C   UNL A   1      41.457  29.839  30.944  1.00  0.00     0.031 A 
ATOM     57  C   UNL A   1      41.601  32.099  37.073  1.00  0.00     0.049 A 
ATOM     58  C   UNL A   1      42.427  29.675  32.082  1.00  0.00     0.074 A 
ATOM     59  C   UNL A   1      42.541  31.837  38.053  1.00  0.00     0.029 A 
ATOM     60  N   UNL A   1      42.005  31.414  35.937  1.00  0.00    -0.354 N 
ATOM     61  N   UNL A   1      42.361  30.168  33.296  1.00  0.00    -0.248 NA
ATOM     62  C   UNL A   1      43.614  28.848  31.828  1.00  0.00     0.031 C 
ATOM     63  C   UNL A   1      43.533  31.021  37.500  1.00  0.00     0.029 A 
ATOM     64  C   UNL A   1      43.186  30.739  36.187  1.00  0.00     0.049 A 
ATOM     65  H   UNL A   1      41.521  31.407  35.079  1.00  0.00     0.167 HD
ATOM     66  C   UNL A   1      43.485  29.689  33.959  1.00  0.00     0.074 A 
ATOM     67  C   UNL A   1      44.206  28.858  33.016  1.00  0.00     0.031 C 
ATOM     68  C   UNL A   1      43.885  29.914  35.235  1.00  0.00     0.031 A 
BRANCH  55  69
ATOM     69  C   UNL A   1      40.146  33.654  38.441  1.00  0.00    -0.014 A 
ATOM     70  C   UNL A   1      40.515  35.004  38.586  1.00  0.00     0.010 A 
ATOM     71  C   UNL A   1      39.497  33.004  39.507  1.00  0.00     0.010 A 
ATOM     72  C   UNL A   1      40.285  35.676  39.789  1.00  0.00     0.020 A 
ATOM     73  C   UNL A   1      39.240  33.681  40.703  1.00  0.00     0.020 A 
ATOM     74  C   UNL A   1      39.655  35.007  40.843  1.00  0.00     0.054 A 
BRANCH  74  75
ATOM     75  S   UNL A   1      39.358  35.906  42.390  1.00  0.00     0.124 S 
ATOM     76  O   UNL A   1      39.610  37.287  41.986  1.00  0.00    -0.237 OA
ATOM     77  O   UNL A   1      37.965  35.583  42.689  1.00  0.00    -0.237 OA
ATOM     78  O   UNL A   1      40.338  35.338  43.313  1.00  0.00    -0.744 OA
ENDBRANCH  74  75
ENDBRANCH  55  69
BRANCH  56  79
ATOM     79  C   UNL A   1      41.709  29.193  29.628  1.00  0.00    -0.014 A 
ATOM     80  C   UNL A   1      41.189  27.914  29.355  1.00  0.00     0.010 A 
ATOM     81  C   UNL A   1      42.456  29.852  28.636  1.00  0.00     0.010 A 
ATOM     82  C   UNL A   1      41.427  27.300  28.123  1.00  0.00     0.020 A 
ATOM     83  C   UNL A   1      42.677  29.250  27.392  1.00  0.00     0.020 A 
ATOM     84  C   UNL A   1      42.170  27.971  27.148  1.00  0.00     0.054 A 
BRANCH  84  85
ATOM     85  S   UNL A   1      42.423  27.178  25.536  1.00  0.00     0.124 S 
ATOM     86  O   UNL A   1      41.250  26.315  25.435  1.00  0.00    -0.237 OA
ATOM     87  O   UNL A   1      42.450  28.319  24.622  1.00  0.00    -0.237 OA
ATOM     88  O   UNL A   1      43.700  26.487  25.693  1.00  0.00    -0.744 OA
ENDBRANCH  84  85
ENDBRANCH  56  79
BRANCH  68  89
ATOM     89  C   UNL A   1      45.140  29.228  35.698  1.00  0.00    -0.014 A 
ATOM     90  C   UNL A   1      45.100  27.939  36.255  1.00  0.00     0.010 A 
ATOM     91  C   UNL A   1      46.382  29.861  35.515  1.00  0.00     0.010 A 
ATOM     92  C   UNL A   1      46.282  27.304  36.647  1.00  0.00     0.020 A 
ATOM     93  C   UNL A   1      47.568  29.220  35.882  1.00  0.00     0.020 A 
ATOM     94  C   UNL A   1      47.508  27.949  36.457  1.00  0.00     0.054 A 
BRANCH  94  95
ATOM     95  S   UNL A   1      49.033  27.084  36.925  1.00  0.00     0.124 S 
ATOM     96  O   UNL A   1      49.774  28.132  37.622  1.00  0.00    -0.237 OA
ATOM     97  O   UNL A   1      48.539  25.996  37.767  1.00  0.00    -0.237 OA
ATOM     98  O   UNL A   1      49.599  26.665  35.645  1.00  0.00    -0.744 OA
ENDBRANCH  94  95
ENDBRANCH  68  89
ENDBRANCH  42  43
ENDBRANCH  34  37
ENDBRANCH  32  33
ENDBRANCH  31  32
ENDBRANCH  30  31
ENDBRANCH   1  30
TORSDOF 21
ENDMDL
