MODEL 1
REMARK VINA RESULT:      -8.8      0.000      0.000
REMARK SMILES CCN(CC)c1ccc([C@@H]2c3[nH]c4ccccc4c3C[C@@H](C(=O)NCCCCCCNC(=O)c3ccc(-c4c5nc(c(-c6ccc(S(=O)(=O)[O-])cc6)c6ccc([nH]6)c(-c6ccc(S(=O)(=O)[O-])cc6)c6nc(c(-c7ccc(S(=O)(=O)[O-])cc7)c7ccc4[nH]7)C=C6)C=C5)cc3)N2C(C)=O)cc1
REMARK SMILES IDX 27 1 26 2 25 3 24 4 22 5 23 6 21 8 10 9 11 10 94 11 12 12
REMARK SMILES IDX 19 13 13 14 18 16 20 17 14 18 17 19 15 20 16 21 9 22 6 23
REMARK SMILES IDX 7 24 99 25 8 26 98 27 3 28 2 29 1 30 4 31 5 32 95 33 96 34
REMARK SMILES IDX 97 35 28 36 29 37 30 38 31 39 32 40 33 42 34 43 35 44 93 45
REMARK SMILES IDX 36 46 92 47 37 48 38 49 39 50 86 51 40 52 91 53 85 54 87 55
REMARK SMILES IDX 41 56 90 57 84 58 83 59 42 61 72 62 53 63 71 64 54 65 57 66
REMARK SMILES IDX 70 67 88 68 55 69 56 70 69 72 89 73 58 74 43 75 44 76 52 77
REMARK SMILES IDX 45 78 51 79 46 80 47 81 48 82 49 83 50 84 73 85 74 86 82 87
REMARK SMILES IDX 75 88 81 89 76 90 77 91 78 92 79 93 80 94 59 95 60 96 68 97
REMARK SMILES IDX 61 98 67 99 62 100 63 101 64 102 65 103 66 104
REMARK H PARENT 24 7 12 15 31 41 87 60 57 71
REMARK Flexibility Score: inf
ROOT
ATOM      1  C   UNL A   1      41.622  28.933  26.823  1.00  0.00     0.002 C 
ENDROOT
BRANCH   1   2
ATOM      2  C   UNL A   1      42.524  29.784  27.740  1.00  0.00     0.021 C 
BRANCH   2   3
ATOM      3  C   UNL A   1      44.003  30.042  27.362  1.00  0.00     0.116 C 
BRANCH   3   4
ATOM      4  N   UNL A   1      44.249  31.164  26.395  1.00  0.00    -0.354 N 
ATOM      5  C   UNL A   1      45.105  32.225  26.184  1.00  0.00     0.243 C 
ATOM      6  O   UNL A   1      44.965  32.768  25.075  1.00  0.00    -0.273 OA
ATOM      7  H   UNL A   1      43.578  31.132  25.674  1.00  0.00     0.163 HD
BRANCH   5   8
ATOM      8  C   UNL A   1      46.055  32.946  27.239  1.00  0.00     0.179 C 
ATOM      9  C   UNL A   1      44.139  34.269  27.971  1.00  0.00     0.163 C 
ATOM     10  C   UNL A   1      44.191  33.395  29.219  1.00  0.00     0.047 A 
ATOM     11  N   UNL A   1      45.563  34.320  27.660  1.00  0.00    -0.318 N 
ATOM     12  N   UNL A   1      43.398  33.436  30.328  1.00  0.00    -0.356 N 
ATOM     13  C   UNL A   1      45.172  32.426  29.463  1.00  0.00    -0.014 A 
ATOM     14  C   UNL A   1      44.039  32.794  31.363  1.00  0.00     0.046 A 
ATOM     15  H   UNL A   1      42.510  33.858  30.380  1.00  0.00     0.166 HD
ATOM     16  C   UNL A   1      45.108  32.083  30.824  1.00  0.00     0.003 A 
ATOM     17  C   UNL A   1      46.240  32.069  28.477  1.00  0.00     0.073 C 
ATOM     18  C   UNL A   1      43.775  32.821  32.728  1.00  0.00     0.026 A 
ATOM     19  C   UNL A   1      45.933  31.315  31.658  1.00  0.00     0.010 A 
ATOM     20  C   UNL A   1      44.657  32.118  33.555  1.00  0.00     0.002 A 
ATOM     21  C   UNL A   1      45.708  31.365  33.031  1.00  0.00     0.001 A 
BRANCH   9  22
ATOM     22  C   UNL A   1      43.365  35.564  27.894  1.00  0.00    -0.019 A 
ATOM     23  C   UNL A   1      42.343  38.227  27.761  1.00  0.00     0.037 A 
ATOM     24  C   UNL A   1      42.573  37.453  26.627  1.00  0.00     0.026 A 
ATOM     25  C   UNL A   1      42.488  37.563  28.985  1.00  0.00     0.026 A 
ATOM     26  C   UNL A   1      43.024  36.145  26.687  1.00  0.00     0.008 A 
ATOM     27  C   UNL A   1      43.005  36.259  29.060  1.00  0.00     0.008 A 
BRANCH  23  28
ATOM     28  N   UNL A   1      42.014  39.572  27.665  1.00  0.00    -0.372 N 
BRANCH  28  29
ATOM     29  C   UNL A   1      42.731  40.535  28.511  1.00  0.00     0.113 C 
ATOM     30  C   UNL A   1      41.989  40.862  29.799  1.00  0.00     0.027 C 
ENDBRANCH  28  29
BRANCH  28  31
ATOM     31  C   UNL A   1      41.274  40.097  26.503  1.00  0.00     0.113 C 
ATOM     32  C   UNL A   1      42.005  41.185  25.717  1.00  0.00     0.027 C 
ENDBRANCH  28  31
ENDBRANCH  23  28
ENDBRANCH   9  22
BRANCH  11  33
ATOM     33  C   UNL A   1      46.270  35.227  28.483  1.00  0.00     0.220 C 
ATOM     34  C   UNL A   1      47.702  35.593  28.210  1.00  0.00     0.114 C 
ATOM     35  O   UNL A   1      45.781  35.741  29.497  1.00  0.00    -0.275 OA
ENDBRANCH  11  33
ENDBRANCH   5   8
ENDBRANCH   3   4
ENDBRANCH   2   3
ENDBRANCH   1   2
BRANCH   1  36
ATOM     36  C   UNL A   1      42.219  28.378  25.519  1.00  0.00     0.002 C 
BRANCH  36  37
ATOM     37  C   UNL A   1      41.923  26.919  25.129  1.00  0.00     0.021 C 
BRANCH  37  38
ATOM     38  C   UNL A   1      43.066  25.896  25.211  1.00  0.00     0.116 C 
BRANCH  38  39
ATOM     39  N   UNL A   1      42.682  24.645  25.852  1.00  0.00    -0.352 N 
ATOM     40  C   UNL A   1      42.311  24.347  27.143  1.00  0.00     0.251 C 
ATOM     41  H   UNL A   1      42.690  23.868  25.248  1.00  0.00     0.163 HD
ATOM     42  O   UNL A   1      42.195  23.163  27.458  1.00  0.00    -0.269 OA
BRANCH  40  43
ATOM     43  C   UNL A   1      42.047  25.390  28.168  1.00  0.00     0.039 A 
ATOM     44  C   UNL A   1      43.140  26.040  28.757  1.00  0.00     0.014 A 
ATOM     45  C   UNL A   1      40.761  25.668  28.636  1.00  0.00     0.014 A 
ATOM     46  C   UNL A   1      42.944  26.991  29.767  1.00  0.00     0.010 A 
ATOM     47  C   UNL A   1      40.561  26.660  29.605  1.00  0.00     0.010 A 
ATOM     48  C   UNL A   1      41.649  27.332  30.186  1.00  0.00    -0.014 A 
BRANCH  48  49
ATOM     49  C   UNL A   1      41.425  28.383  31.222  1.00  0.00     0.031 A 
ATOM     50  C   UNL A   1      42.254  28.413  32.483  1.00  0.00     0.074 A 
ATOM     51  C   UNL A   1      40.442  29.291  31.053  1.00  0.00     0.049 A 
ATOM     52  N   UNL A   1      42.173  29.228  33.506  1.00  0.00    -0.248 NA
ATOM     53  C   UNL A   1      43.296  27.384  32.620  1.00  0.00     0.031 C 
ATOM     54  C   UNL A   1      39.547  29.360  29.895  1.00  0.00     0.029 A 
ATOM     55  N   UNL A   1      40.025  30.328  31.853  1.00  0.00    -0.354 N 
ATOM     56  C   UNL A   1      43.139  28.800  34.411  1.00  0.00     0.074 A 
ATOM     57  C   UNL A   1      43.760  27.627  33.837  1.00  0.00     0.031 C 
ATOM     58  C   UNL A   1      38.706  30.396  30.049  1.00  0.00     0.029 A 
ATOM     59  C   UNL A   1      38.970  31.041  31.332  1.00  0.00     0.049 A 
ATOM     60  H   UNL A   1      40.443  30.539  32.719  1.00  0.00     0.167 HD
ATOM     61  C   UNL A   1      43.489  29.343  35.605  1.00  0.00     0.031 A 
ATOM     62  C   UNL A   1      38.285  32.091  31.827  1.00  0.00     0.031 A 
ATOM     63  C   UNL A   1      42.872  30.513  36.174  1.00  0.00     0.049 A 
ATOM     64  C   UNL A   1      38.679  32.664  33.162  1.00  0.00     0.074 A 
ATOM     65  C   UNL A   1      43.191  31.166  37.353  1.00  0.00     0.029 A 
ATOM     66  N   UNL A   1      41.810  31.205  35.612  1.00  0.00    -0.354 N 
ATOM     67  N   UNL A   1      39.635  32.281  33.973  1.00  0.00    -0.248 NA
ATOM     68  C   UNL A   1      37.910  33.822  33.641  1.00  0.00     0.031 C 
ATOM     69  C   UNL A   1      42.284  32.216  37.532  1.00  0.00     0.029 A 
ATOM     70  C   UNL A   1      41.446  32.261  36.430  1.00  0.00     0.049 A 
ATOM     71  H   UNL A   1      41.379  30.978  34.755  1.00  0.00     0.167 HD
ATOM     72  C   UNL A   1      39.605  33.170  35.042  1.00  0.00     0.074 A 
ATOM     73  C   UNL A   1      38.544  34.118  34.768  1.00  0.00     0.031 C 
ATOM     74  C   UNL A   1      40.389  33.202  36.148  1.00  0.00     0.031 A 
BRANCH  61  75
ATOM     75  C   UNL A   1      44.589  28.666  36.387  1.00  0.00    -0.014 A 
ATOM     76  C   UNL A   1      45.930  29.073  36.262  1.00  0.00     0.010 A 
ATOM     77  C   UNL A   1      44.271  27.641  37.298  1.00  0.00     0.010 A 
ATOM     78  C   UNL A   1      46.936  28.439  36.996  1.00  0.00     0.020 A 
ATOM     79  C   UNL A   1      45.271  27.026  38.058  1.00  0.00     0.020 A 
ATOM     80  C   UNL A   1      46.600  27.416  37.888  1.00  0.00     0.054 A 
BRANCH  80  81
ATOM     81  S   UNL A   1      47.927  26.625  38.839  1.00  0.00     0.124 S 
ATOM     82  O   UNL A   1      49.111  27.311  38.333  1.00  0.00    -0.237 OA
ATOM     83  O   UNL A   1      47.562  26.932  40.217  1.00  0.00    -0.237 OA
ATOM     84  O   UNL A   1      47.823  25.211  38.469  1.00  0.00    -0.744 OA
ENDBRANCH  80  81
ENDBRANCH  61  75
BRANCH  62  85
ATOM     85  C   UNL A   1      37.158  32.679  31.048  1.00  0.00    -0.014 A 
ATOM     86  C   UNL A   1      37.403  33.611  30.025  1.00  0.00     0.010 A 
ATOM     87  C   UNL A   1      35.830  32.299  31.320  1.00  0.00     0.010 A 
ATOM     88  C   UNL A   1      36.343  34.166  29.299  1.00  0.00     0.020 A 
ATOM     89  C   UNL A   1      34.770  32.826  30.576  1.00  0.00     0.020 A 
ATOM     90  C   UNL A   1      35.033  33.766  29.579  1.00  0.00     0.054 A 
BRANCH  90  91
ATOM     91  S   UNL A   1      33.678  34.459  28.590  1.00  0.00     0.124 S 
ATOM     92  O   UNL A   1      34.323  35.598  27.947  1.00  0.00    -0.237 OA
ATOM     93  O   UNL A   1      33.329  33.347  27.710  1.00  0.00    -0.237 OA
ATOM     94  O   UNL A   1      32.664  34.795  29.589  1.00  0.00    -0.744 OA
ENDBRANCH  90  91
ENDBRANCH  62  85
BRANCH  74  95
ATOM     95  C   UNL A   1      40.165  34.322  37.131  1.00  0.00    -0.014 A 
ATOM     96  C   UNL A   1      40.878  35.531  37.044  1.00  0.00     0.010 A 
ATOM     97  C   UNL A   1      39.180  34.179  38.127  1.00  0.00     0.010 A 
ATOM     98  C   UNL A   1      40.633  36.562  37.956  1.00  0.00     0.020 A 
ATOM     99  C   UNL A   1      38.911  35.218  39.021  1.00  0.00     0.020 A 
ATOM    100  C   UNL A   1      39.651  36.399  38.937  1.00  0.00     0.054 A 
BRANCH 100 101
ATOM    101  S   UNL A   1      39.322  37.770  40.081  1.00  0.00     0.124 S 
ATOM    102  O   UNL A   1      40.551  38.551  39.981  1.00  0.00    -0.237 OA
ATOM    103  O   UNL A   1      38.133  38.391  39.502  1.00  0.00    -0.237 OA
ATOM    104  O   UNL A   1      39.108  37.107  41.365  1.00  0.00    -0.744 OA
ENDBRANCH 100 101
ENDBRANCH  74  95
ENDBRANCH  48  49
ENDBRANCH  40  43
ENDBRANCH  38  39
ENDBRANCH  37  38
ENDBRANCH  36  37
ENDBRANCH   1  36
TORSDOF 21
ENDMDL
MODEL 2
REMARK VINA RESULT:      -8.3      5.572     11.784
REMARK SMILES CCN(CC)c1ccc([C@@H]2c3[nH]c4ccccc4c3C[C@@H](C(=O)NCCCCCCNC(=O)c3ccc(-c4c5nc(c(-c6ccc(S(=O)(=O)[O-])cc6)c6ccc([nH]6)c(-c6ccc(S(=O)(=O)[O-])cc6)c6nc(c(-c7ccc(S(=O)(=O)[O-])cc7)c7ccc4[nH]7)C=C6)C=C5)cc3)N2C(C)=O)cc1
REMARK SMILES IDX 27 1 26 2 25 3 24 4 22 5 23 6 21 8 10 9 11 10 94 11 12 12
REMARK SMILES IDX 19 13 13 14 18 16 20 17 14 18 17 19 15 20 16 21 9 22 6 23
REMARK SMILES IDX 7 24 99 25 8 26 98 27 3 28 2 29 1 30 4 31 5 32 95 33 96 34
REMARK SMILES IDX 97 35 28 36 29 37 30 38 31 39 32 40 33 42 34 43 35 44 93 45
REMARK SMILES IDX 36 46 92 47 37 48 38 49 39 50 86 51 40 52 91 53 85 54 87 55
REMARK SMILES IDX 41 56 90 57 84 58 83 59 42 61 72 62 53 63 71 64 54 65 57 66
REMARK SMILES IDX 70 67 88 68 55 69 56 70 69 72 89 73 58 74 43 75 44 76 52 77
REMARK SMILES IDX 45 78 51 79 46 80 47 81 48 82 49 83 50 84 73 85 74 86 82 87
REMARK SMILES IDX 75 88 81 89 76 90 77 91 78 92 79 93 80 94 59 95 60 96 68 97
REMARK SMILES IDX 61 98 67 99 62 100 63 101 64 102 65 103 66 104
REMARK H PARENT 24 7 12 15 31 41 87 60 57 71
REMARK Flexibility Score: inf
ROOT
ATOM      1  C   UNL A   1      46.872  41.528  31.946  1.00  0.00     0.002 C 
ENDROOT
BRANCH   1   2
ATOM      2  C   UNL A   1      45.606  42.001  32.690  1.00  0.00     0.021 C 
BRANCH   2   3
ATOM      3  C   UNL A   1      44.262  42.144  31.934  1.00  0.00     0.116 C 
BRANCH   3   4
ATOM      4  N   UNL A   1      44.075  43.416  31.159  1.00  0.00    -0.354 N 
ATOM      5  C   UNL A   1      44.486  44.026  29.992  1.00  0.00     0.243 C 
ATOM      6  O   UNL A   1      43.860  45.067  29.724  1.00  0.00    -0.273 OA
ATOM      7  H   UNL A   1      43.455  44.010  31.642  1.00  0.00     0.163 HD
BRANCH   5   8
ATOM      8  C   UNL A   1      45.764  43.691  29.105  1.00  0.00     0.179 C 
ATOM      9  C   UNL A   1      44.518  41.837  28.119  1.00  0.00     0.163 C 
ATOM     10  C   UNL A   1      44.463  42.719  26.877  1.00  0.00     0.047 A 
ATOM     11  N   UNL A   1      45.818  42.245  28.640  1.00  0.00    -0.318 N 
ATOM     12  N   UNL A   1      43.900  42.456  25.663  1.00  0.00    -0.356 N 
ATOM     13  C   UNL A   1      45.096  43.964  26.764  1.00  0.00    -0.014 A 
ATOM     14  C   UNL A   1      44.439  43.305  24.723  1.00  0.00     0.046 A 
ATOM     15  H   UNL A   1      43.218  41.768  25.486  1.00  0.00     0.166 HD
ATOM     16  C   UNL A   1      45.124  44.310  25.403  1.00  0.00     0.003 A 
ATOM     17  C   UNL A   1      45.830  44.619  27.892  1.00  0.00     0.073 C 
ATOM     18  C   UNL A   1      44.402  43.237  23.335  1.00  0.00     0.026 A 
ATOM     19  C   UNL A   1      45.763  45.332  24.687  1.00  0.00     0.010 A 
ATOM     20  C   UNL A   1      45.116  44.216  22.636  1.00  0.00     0.002 A 
ATOM     21  C   UNL A   1      45.772  45.254  23.297  1.00  0.00     0.001 A 
BRANCH   9  22
ATOM     22  C   UNL A   1      44.210  40.358  28.103  1.00  0.00    -0.019 A 
ATOM     23  C   UNL A   1      43.158  37.704  28.057  1.00  0.00     0.037 A 
ATOM     24  C   UNL A   1      43.568  38.369  26.905  1.00  0.00     0.026 A 
ATOM     25  C   UNL A   1      43.444  38.353  29.264  1.00  0.00     0.026 A 
ATOM     26  C   UNL A   1      44.122  39.638  26.926  1.00  0.00     0.008 A 
ATOM     27  C   UNL A   1      43.947  39.664  29.295  1.00  0.00     0.008 A 
BRANCH  23  28
ATOM     28  N   UNL A   1      42.490  36.489  27.992  1.00  0.00    -0.372 N 
BRANCH  28  29
ATOM     29  C   UNL A   1      41.451  36.201  28.988  1.00  0.00     0.113 C 
ATOM     30  C   UNL A   1      41.290  34.714  29.267  1.00  0.00     0.027 C 
ENDBRANCH  28  29
BRANCH  28  31
ATOM     31  C   UNL A   1      42.511  35.670  26.766  1.00  0.00     0.113 C 
ATOM     32  C   UNL A   1      43.742  34.776  26.614  1.00  0.00     0.027 C 
ENDBRANCH  28  31
ENDBRANCH  23  28
ENDBRANCH   9  22
BRANCH  11  33
ATOM     33  C   UNL A   1      46.897  41.646  27.948  1.00  0.00     0.220 C 
ATOM     34  C   UNL A   1      48.243  42.308  27.858  1.00  0.00     0.114 C 
ATOM     35  O   UNL A   1      46.797  40.574  27.340  1.00  0.00    -0.275 OA
ENDBRANCH  11  33
ENDBRANCH   5   8
ENDBRANCH   3   4
ENDBRANCH   2   3
ENDBRANCH   1   2
BRANCH   1  36
ATOM     36  C   UNL A   1      47.372  40.095  32.191  1.00  0.00     0.002 C 
BRANCH  36  37
ATOM     37  C   UNL A   1      46.468  38.915  31.789  1.00  0.00     0.021 C 
BRANCH  37  38
ATOM     38  C   UNL A   1      47.132  37.582  31.414  1.00  0.00     0.116 C 
BRANCH  38  39
ATOM     39  N   UNL A   1      48.218  37.724  30.453  1.00  0.00    -0.352 N 
ATOM     40  C   UNL A   1      48.774  36.843  29.554  1.00  0.00     0.251 C 
ATOM     41  H   UNL A   1      48.631  38.618  30.446  1.00  0.00     0.163 HD
ATOM     42  O   UNL A   1      49.804  37.178  28.970  1.00  0.00    -0.269 OA
BRANCH  40  43
ATOM     43  C   UNL A   1      48.186  35.510  29.262  1.00  0.00     0.039 A 
ATOM     44  C   UNL A   1      48.332  34.492  30.214  1.00  0.00     0.014 A 
ATOM     45  C   UNL A   1      47.590  35.210  28.035  1.00  0.00     0.014 A 
ATOM     46  C   UNL A   1      47.842  33.204  29.961  1.00  0.00     0.010 A 
ATOM     47  C   UNL A   1      47.050  33.937  27.805  1.00  0.00     0.010 A 
ATOM     48  C   UNL A   1      47.172  32.917  28.762  1.00  0.00    -0.014 A 
BRANCH  48  49
ATOM     49  C   UNL A   1      46.598  31.563  28.503  1.00  0.00     0.031 A 
ATOM     50  C   UNL A   1      47.429  30.485  27.851  1.00  0.00     0.074 A 
ATOM     51  C   UNL A   1      45.311  31.311  28.816  1.00  0.00     0.049 A 
ATOM     52  N   UNL A   1      47.085  29.266  27.517  1.00  0.00    -0.248 NA
ATOM     53  C   UNL A   1      48.819  30.828  27.514  1.00  0.00     0.031 C 
ATOM     54  C   UNL A   1      44.386  32.270  29.425  1.00  0.00     0.029 A 
ATOM     55  N   UNL A   1      44.552  30.175  28.662  1.00  0.00    -0.354 N 
ATOM     56  C   UNL A   1      48.208  28.703  26.917  1.00  0.00     0.074 A 
ATOM     57  C   UNL A   1      49.227  29.730  26.893  1.00  0.00     0.031 C 
ATOM     58  C   UNL A   1      43.196  31.676  29.614  1.00  0.00     0.029 A 
ATOM     59  C   UNL A   1      43.256  30.310  29.104  1.00  0.00     0.049 A 
ATOM     60  H   UNL A   1      44.904  29.343  28.271  1.00  0.00     0.167 HD
ATOM     61  C   UNL A   1      48.382  27.444  26.445  1.00  0.00     0.031 A 
ATOM     62  C   UNL A   1      42.227  29.440  29.097  1.00  0.00     0.031 A 
ATOM     63  C   UNL A   1      47.368  26.421  26.473  1.00  0.00     0.049 A 
ATOM     64  C   UNL A   1      42.438  28.053  28.550  1.00  0.00     0.074 A 
ATOM     65  C   UNL A   1      47.465  25.102  26.064  1.00  0.00     0.029 A 
ATOM     66  N   UNL A   1      46.071  26.600  26.932  1.00  0.00    -0.354 N 
ATOM     67  N   UNL A   1      43.526  27.525  28.044  1.00  0.00    -0.248 NA
ATOM     68  C   UNL A   1      41.286  27.141  28.589  1.00  0.00     0.031 C 
ATOM     69  C   UNL A   1      46.212  24.500  26.220  1.00  0.00     0.029 A 
ATOM     70  C   UNL A   1      45.353  25.424  26.793  1.00  0.00     0.049 A 
ATOM     71  H   UNL A   1      45.715  27.440  27.303  1.00  0.00     0.167 HD
ATOM     72  C   UNL A   1      43.198  26.208  27.734  1.00  0.00     0.074 A 
ATOM     73  C   UNL A   1      41.816  26.018  28.122  1.00  0.00     0.031 C 
ATOM     74  C   UNL A   1      43.976  25.243  27.184  1.00  0.00     0.031 A 
BRANCH  61  75
ATOM     75  C   UNL A   1      49.723  27.100  25.842  1.00  0.00    -0.014 A 
ATOM     76  C   UNL A   1      50.746  26.525  26.618  1.00  0.00     0.010 A 
ATOM     77  C   UNL A   1      49.946  27.308  24.468  1.00  0.00     0.010 A 
ATOM     78  C   UNL A   1      51.980  26.209  26.045  1.00  0.00     0.020 A 
ATOM     79  C   UNL A   1      51.169  26.963  23.883  1.00  0.00     0.020 A 
ATOM     80  C   UNL A   1      52.186  26.433  24.680  1.00  0.00     0.054 A 
BRANCH  80  81
ATOM     81  S   UNL A   1      53.793  25.995  23.962  1.00  0.00     0.124 S 
ATOM     82  O   UNL A   1      53.538  26.153  22.534  1.00  0.00    -0.237 OA
ATOM     83  O   UNL A   1      54.689  26.981  24.555  1.00  0.00    -0.237 OA
ATOM     84  O   UNL A   1      54.006  24.615  24.406  1.00  0.00    -0.744 OA
ENDBRANCH  80  81
ENDBRANCH  61  75
BRANCH  62  85
ATOM     85  C   UNL A   1      40.900  29.851  29.638  1.00  0.00    -0.014 A 
ATOM     86  C   UNL A   1      39.872  30.270  28.775  1.00  0.00     0.010 A 
ATOM     87  C   UNL A   1      40.654  29.816  31.023  1.00  0.00     0.010 A 
ATOM     88  C   UNL A   1      38.630  30.662  29.286  1.00  0.00     0.020 A 
ATOM     89  C   UNL A   1      39.404  30.176  31.536  1.00  0.00     0.020 A 
ATOM     90  C   UNL A   1      38.404  30.608  30.665  1.00  0.00     0.054 A 
BRANCH  90  91
ATOM     91  S   UNL A   1      36.768  31.071  31.301  1.00  0.00     0.124 S 
ATOM     92  O   UNL A   1      37.091  32.181  32.191  1.00  0.00    -0.237 OA
ATOM     93  O   UNL A   1      36.045  31.425  30.082  1.00  0.00    -0.237 OA
ATOM     94  O   UNL A   1      36.302  29.853  31.961  1.00  0.00    -0.744 OA
ENDBRANCH  90  91
ENDBRANCH  62  85
BRANCH  74  95
ATOM     95  C   UNL A   1      43.369  23.875  27.005  1.00  0.00    -0.014 A 
ATOM     96  C   UNL A   1      42.954  23.413  25.744  1.00  0.00     0.010 A 
ATOM     97  C   UNL A   1      43.266  23.016  28.117  1.00  0.00     0.010 A 
ATOM     98  C   UNL A   1      42.415  22.131  25.604  1.00  0.00     0.020 A 
ATOM     99  C   UNL A   1      42.757  21.723  27.975  1.00  0.00     0.020 A 
ATOM    100  C   UNL A   1      42.322  21.294  26.720  1.00  0.00     0.054 A 
BRANCH 100 101
ATOM    101  S   UNL A   1      41.660  19.618  26.502  1.00  0.00     0.124 S 
ATOM    102  O   UNL A   1      42.112  18.952  27.720  1.00  0.00    -0.237 OA
ATOM    103  O   UNL A   1      40.220  19.853  26.411  1.00  0.00    -0.237 OA
ATOM    104  O   UNL A   1      42.288  19.155  25.267  1.00  0.00    -0.744 OA
ENDBRANCH 100 101
ENDBRANCH  74  95
ENDBRANCH  48  49
ENDBRANCH  40  43
ENDBRANCH  38  39
ENDBRANCH  37  38
ENDBRANCH  36  37
ENDBRANCH   1  36
TORSDOF 21
ENDMDL
MODEL 3
REMARK VINA RESULT:      -8.0      0.644      7.702
REMARK SMILES CCN(CC)c1ccc([C@@H]2c3[nH]c4ccccc4c3C[C@@H](C(=O)NCCCCCCNC(=O)c3ccc(-c4c5nc(c(-c6ccc(S(=O)(=O)[O-])cc6)c6ccc([nH]6)c(-c6ccc(S(=O)(=O)[O-])cc6)c6nc(c(-c7ccc(S(=O)(=O)[O-])cc7)c7ccc4[nH]7)C=C6)C=C5)cc3)N2C(C)=O)cc1
REMARK SMILES IDX 27 1 26 2 25 3 24 4 22 5 23 6 21 8 10 9 11 10 94 11 12 12
REMARK SMILES IDX 19 13 13 14 18 16 20 17 14 18 17 19 15 20 16 21 9 22 6 23
REMARK SMILES IDX 7 24 99 25 8 26 98 27 3 28 2 29 1 30 4 31 5 32 95 33 96 34
REMARK SMILES IDX 97 35 28 36 29 37 30 38 31 39 32 40 33 42 34 43 35 44 93 45
REMARK SMILES IDX 36 46 92 47 37 48 38 49 39 50 86 51 40 52 91 53 85 54 87 55
REMARK SMILES IDX 41 56 90 57 84 58 83 59 42 61 72 62 53 63 71 64 54 65 57 66
REMARK SMILES IDX 70 67 88 68 55 69 56 70 69 72 89 73 58 74 43 75 44 76 52 77
REMARK SMILES IDX 45 78 51 79 46 80 47 81 48 82 49 83 50 84 73 85 74 86 82 87
REMARK SMILES IDX 75 88 81 89 76 90 77 91 78 92 79 93 80 94 59 95 60 96 68 97
REMARK SMILES IDX 61 98 67 99 62 100 63 101 64 102 65 103 66 104
REMARK H PARENT 24 7 12 15 31 41 87 60 57 71
REMARK Flexibility Score: inf
ROOT
ATOM      1  C   UNL A   1      41.861  28.800  26.761  1.00  0.00     0.002 C 
ENDROOT
BRANCH   1   2
ATOM      2  C   UNL A   1      42.753  29.812  27.509  1.00  0.00     0.021 C 
BRANCH   2   3
ATOM      3  C   UNL A   1      44.155  30.176  26.960  1.00  0.00     0.116 C 
BRANCH   3   4
ATOM      4  N   UNL A   1      44.257  31.488  26.236  1.00  0.00    -0.354 N 
ATOM      5  C   UNL A   1      45.064  32.604  26.156  1.00  0.00     0.243 C 
ATOM      6  O   UNL A   1      44.774  33.365  25.216  1.00  0.00    -0.273 OA
ATOM      7  H   UNL A   1      43.499  31.582  25.614  1.00  0.00     0.163 HD
BRANCH   5   8
ATOM      8  C   UNL A   1      46.134  33.121  27.215  1.00  0.00     0.179 C 
ATOM      9  C   UNL A   1      44.424  34.608  28.125  1.00  0.00     0.163 C 
ATOM     10  C   UNL A   1      44.411  33.642  29.304  1.00  0.00     0.047 A 
ATOM     11  N   UNL A   1      45.831  34.509  27.755  1.00  0.00    -0.318 N 
ATOM     12  N   UNL A   1      43.670  33.695  30.447  1.00  0.00    -0.356 N 
ATOM     13  C   UNL A   1      45.273  32.545  29.434  1.00  0.00    -0.014 A 
ATOM     14  C   UNL A   1      44.262  32.903  31.404  1.00  0.00     0.046 A 
ATOM     15  H   UNL A   1      42.843  34.217  30.569  1.00  0.00     0.166 HD
ATOM     16  C   UNL A   1      45.215  32.110  30.769  1.00  0.00     0.003 A 
ATOM     17  C   UNL A   1      46.252  32.137  28.378  1.00  0.00     0.073 C 
ATOM     18  C   UNL A   1      44.053  32.858  32.779  1.00  0.00     0.026 A 
ATOM     19  C   UNL A   1      45.967  31.186  31.508  1.00  0.00     0.010 A 
ATOM     20  C   UNL A   1      44.869  31.993  33.513  1.00  0.00     0.002 A 
ATOM     21  C   UNL A   1      45.799  31.159  32.891  1.00  0.00     0.001 A 
BRANCH   9  22
ATOM     22  C   UNL A   1      43.815  35.990  28.174  1.00  0.00    -0.019 A 
ATOM     23  C   UNL A   1      43.063  38.739  28.018  1.00  0.00     0.037 A 
ATOM     24  C   UNL A   1      42.622  37.788  27.103  1.00  0.00     0.026 A 
ATOM     25  C   UNL A   1      43.767  38.239  29.120  1.00  0.00     0.026 A 
ATOM     26  C   UNL A   1      42.946  36.445  27.200  1.00  0.00     0.008 A 
ATOM     27  C   UNL A   1      44.154  36.890  29.196  1.00  0.00     0.008 A 
BRANCH  23  28
ATOM     28  N   UNL A   1      42.828  40.093  27.824  1.00  0.00    -0.372 N 
BRANCH  28  29
ATOM     29  C   UNL A   1      43.906  40.923  27.269  1.00  0.00     0.113 C 
ATOM     30  C   UNL A   1      43.484  41.693  26.027  1.00  0.00     0.027 C 
ENDBRANCH  28  29
BRANCH  28  31
ATOM     31  C   UNL A   1      41.457  40.634  27.785  1.00  0.00     0.113 C 
ATOM     32  C   UNL A   1      40.821  40.865  29.155  1.00  0.00     0.027 C 
ENDBRANCH  28  31
ENDBRANCH  23  28
ENDBRANCH   9  22
BRANCH  11  33
ATOM     33  C   UNL A   1      46.675  35.259  28.608  1.00  0.00     0.220 C 
ATOM     34  C   UNL A   1      47.602  36.314  28.075  1.00  0.00     0.114 C 
ATOM     35  O   UNL A   1      46.740  35.070  29.828  1.00  0.00    -0.275 OA
ENDBRANCH  11  33
ENDBRANCH   5   8
ENDBRANCH   3   4
ENDBRANCH   2   3
ENDBRANCH   1   2
BRANCH   1  36
ATOM     36  C   UNL A   1      42.317  28.305  25.378  1.00  0.00     0.002 C 
BRANCH  36  37
ATOM     37  C   UNL A   1      42.064  26.835  24.996  1.00  0.00     0.021 C 
BRANCH  37  38
ATOM     38  C   UNL A   1      43.203  25.824  25.193  1.00  0.00     0.116 C 
BRANCH  38  39
ATOM     39  N   UNL A   1      42.764  24.561  25.772  1.00  0.00    -0.352 N 
ATOM     40  C   UNL A   1      42.379  24.215  27.047  1.00  0.00     0.251 C 
ATOM     41  H   UNL A   1      42.739  23.815  25.130  1.00  0.00     0.163 HD
ATOM     42  O   UNL A   1      42.212  23.023  27.304  1.00  0.00    -0.269 OA
BRANCH  40  43
ATOM     43  C   UNL A   1      42.160  25.217  28.123  1.00  0.00     0.039 A 
ATOM     44  C   UNL A   1      40.843  25.569  28.449  1.00  0.00     0.014 A 
ATOM     45  C   UNL A   1      43.215  25.893  28.741  1.00  0.00     0.014 A 
ATOM     46  C   UNL A   1      40.586  26.549  29.418  1.00  0.00     0.010 A 
ATOM     47  C   UNL A   1      42.958  26.830  29.750  1.00  0.00     0.010 A 
ATOM     48  C   UNL A   1      41.642  27.174  30.100  1.00  0.00    -0.014 A 
BRANCH  48  49
ATOM     49  C   UNL A   1      41.381  28.179  31.172  1.00  0.00     0.031 A 
ATOM     50  C   UNL A   1      40.272  29.192  31.026  1.00  0.00     0.074 A 
ATOM     51  C   UNL A   1      42.170  28.212  32.265  1.00  0.00     0.049 A 
ATOM     52  N   UNL A   1      39.926  30.161  31.837  1.00  0.00    -0.248 NA
ATOM     53  C   UNL A   1      39.460  29.119  29.802  1.00  0.00     0.031 C 
ATOM     54  C   UNL A   1      43.296  27.310  32.521  1.00  0.00     0.029 A 
ATOM     55  N   UNL A   1      42.154  29.038  33.364  1.00  0.00    -0.354 N 
ATOM     56  C   UNL A   1      38.870  30.820  31.216  1.00  0.00     0.074 A 
ATOM     57  C   UNL A   1      38.663  30.170  29.941  1.00  0.00     0.031 C 
ATOM     58  C   UNL A   1      43.843  27.614  33.709  1.00  0.00     0.029 A 
ATOM     59  C   UNL A   1      43.139  28.758  34.282  1.00  0.00     0.049 A 
ATOM     60  H   UNL A   1      41.497  29.762  33.482  1.00  0.00     0.167 HD
ATOM     61  C   UNL A   1      38.128  31.861  31.671  1.00  0.00     0.031 A 
ATOM     62  C   UNL A   1      43.451  29.354  35.450  1.00  0.00     0.031 A 
ATOM     63  C   UNL A   1      38.332  32.506  32.943  1.00  0.00     0.049 A 
ATOM     64  C   UNL A   1      42.626  30.519  35.926  1.00  0.00     0.074 A 
ATOM     65  C   UNL A   1      37.601  33.535  33.513  1.00  0.00     0.029 A 
ATOM     66  N   UNL A   1      39.340  32.189  33.842  1.00  0.00    -0.354 N 
ATOM     67  N   UNL A   1      41.594  31.087  35.350  1.00  0.00    -0.248 NA
ATOM     68  C   UNL A   1      42.999  31.114  37.218  1.00  0.00     0.031 C 
ATOM     69  C   UNL A   1      38.202  33.880  34.728  1.00  0.00     0.029 A 
ATOM     70  C   UNL A   1      39.265  33.018  34.949  1.00  0.00     0.049 A 
ATOM     71  H   UNL A   1      40.009  31.479  33.712  1.00  0.00     0.167 HD
ATOM     72  C   UNL A   1      41.174  32.084  36.224  1.00  0.00     0.074 A 
ATOM     73  C   UNL A   1      42.055  32.034  37.373  1.00  0.00     0.031 C 
ATOM     74  C   UNL A   1      40.146  32.959  36.089  1.00  0.00     0.031 A 
BRANCH  61  75
ATOM     75  C   UNL A   1      37.027  32.381  30.778  1.00  0.00    -0.014 A 
ATOM     76  C   UNL A   1      35.702  31.927  30.915  1.00  0.00     0.010 A 
ATOM     77  C   UNL A   1      37.311  33.373  29.822  1.00  0.00     0.010 A 
ATOM     78  C   UNL A   1      34.693  32.420  30.084  1.00  0.00     0.020 A 
ATOM     79  C   UNL A   1      36.298  33.893  29.010  1.00  0.00     0.020 A 
ATOM     80  C   UNL A   1      34.998  33.399  29.133  1.00  0.00     0.054 A 
BRANCH  80  81
ATOM     81  S   UNL A   1      33.662  34.032  28.082  1.00  0.00     0.124 S 
ATOM     82  O   UNL A   1      32.809  34.710  29.053  1.00  0.00    -0.237 OA
ATOM     83  O   UNL A   1      34.371  34.901  27.150  1.00  0.00    -0.237 OA
ATOM     84  O   UNL A   1      33.087  32.822  27.488  1.00  0.00    -0.744 OA
ENDBRANCH  80  81
ENDBRANCH  61  75
BRANCH  62  85
ATOM     85  C   UNL A   1      44.595  28.849  36.261  1.00  0.00    -0.014 A 
ATOM     86  C   UNL A   1      44.413  27.807  37.188  1.00  0.00     0.010 A 
ATOM     87  C   UNL A   1      45.880  29.402  36.102  1.00  0.00     0.010 A 
ATOM     88  C   UNL A   1      45.488  27.339  37.952  1.00  0.00     0.020 A 
ATOM     89  C   UNL A   1      46.963  28.916  36.841  1.00  0.00     0.020 A 
ATOM     90  C   UNL A   1      46.757  27.896  37.770  1.00  0.00     0.054 A 
BRANCH  90  91
ATOM     91  S   UNL A   1      48.147  27.238  38.735  1.00  0.00     0.124 S 
ATOM     92  O   UNL A   1      47.643  25.931  39.142  1.00  0.00    -0.237 OA
ATOM     93  O   UNL A   1      49.231  27.224  37.756  1.00  0.00    -0.237 OA
ATOM     94  O   UNL A   1      48.305  28.212  39.813  1.00  0.00    -0.744 OA
ENDBRANCH  90  91
ENDBRANCH  62  85
BRANCH  74  95
ATOM     95  C   UNL A   1      39.884  33.909  37.230  1.00  0.00    -0.014 A 
ATOM     96  C   UNL A   1      39.145  33.517  38.360  1.00  0.00     0.010 A 
ATOM     97  C   UNL A   1      40.438  35.203  37.190  1.00  0.00     0.010 A 
ATOM     98  C   UNL A   1      38.936  34.412  39.413  1.00  0.00     0.020 A 
ATOM     99  C   UNL A   1      40.258  36.090  38.254  1.00  0.00     0.020 A 
ATOM    100  C   UNL A   1      39.496  35.692  39.354  1.00  0.00     0.054 A 
BRANCH 100 101
ATOM    101  S   UNL A   1      39.247  36.820  40.754  1.00  0.00     0.124 S 
ATOM    102  O   UNL A   1      40.618  37.093  41.172  1.00  0.00    -0.237 OA
ATOM    103  O   UNL A   1      38.542  37.942  40.139  1.00  0.00    -0.237 OA
ATOM    104  O   UNL A   1      38.452  36.034  41.695  1.00  0.00    -0.744 OA
ENDBRANCH 100 101
ENDBRANCH  74  95
ENDBRANCH  48  49
ENDBRANCH  40  43
ENDBRANCH  38  39
ENDBRANCH  37  38
ENDBRANCH  36  37
ENDBRANCH   1  36
TORSDOF 21
ENDMDL
