MODEL 1
REMARK VINA RESULT:     -10.4      0.000      0.000
REMARK SMILES O=C(NCCCCCCNC(=O)[C@]1(CCc2ccccc2)C[C@H]2CC[C@@H]1O2)c1ccc(-c2c3nc(c(-c4ccc(S(=O)(=O)[O-])cc4)c4ccc([nH]4)c(-c4ccc(S(=O)(=O)[O-])cc4)c4nc(c(-c5ccc(S(=O)(=O)[O-])cc5)c5ccc2[nH]5)C=C4)C=C3)cc1
REMARK SMILES IDX 6 1 5 2 4 3 3 4 1 5 2 6 28 8 29 9 87 10 30 11 86 12 31 13
REMARK SMILES IDX 32 14 33 15 80 16 34 17 85 18 79 19 81 20 35 21 84 22 78 23
REMARK SMILES IDX 77 24 36 26 66 27 47 28 65 29 48 30 51 31 64 32 82 33 49 34
REMARK SMILES IDX 50 35 63 37 83 38 52 39 37 40 38 41 46 42 39 43 45 44 40 45
REMARK SMILES IDX 41 46 42 47 43 48 44 49 67 50 68 51 76 52 69 53 75 54 70 55
REMARK SMILES IDX 71 56 72 57 73 58 74 59 53 60 54 61 62 62 55 63 61 64 56 65
REMARK SMILES IDX 57 66 58 67 59 68 60 69 7 70 8 71 9 72 10 73 11 74 12 76
REMARK SMILES IDX 13 77 22 78 26 79 23 80 25 81 27 82 24 83 14 84 15 85 16 86
REMARK SMILES IDX 17 87 21 88 18 89 20 90 19 91
REMARK H PARENT 3 7 81 25 51 36 10 75
REMARK Flexibility Score: inf
ROOT
ATOM      1  C   UNL A   1      31.463  28.283  25.687  1.00  0.00     0.002 C 
ENDROOT
BRANCH   1   2
ATOM      2  C   UNL A   1      32.980  28.199  25.689  1.00  0.00     0.021 C 
BRANCH   2   3
ATOM      3  C   UNL A   1      33.653  28.465  27.019  1.00  0.00     0.116 C 
BRANCH   3   4
ATOM      4  N   UNL A   1      33.564  29.842  27.482  1.00  0.00    -0.352 N 
ATOM      5  O   UNL A   1      34.327  31.750  28.440  1.00  0.00    -0.269 OA
ATOM      6  C   UNL A   1      34.556  30.610  28.064  1.00  0.00     0.251 C 
ATOM      7  H   UNL A   1      32.691  30.281  27.367  1.00  0.00     0.163 HD
BRANCH   6   8
ATOM      8  C   UNL A   1      35.889  30.000  28.273  1.00  0.00     0.039 A 
ATOM      9  C   UNL A   1      36.204  29.415  29.499  1.00  0.00     0.014 A 
ATOM     10  C   UNL A   1      36.863  30.116  27.278  1.00  0.00     0.014 A 
ATOM     11  C   UNL A   1      37.531  29.161  29.810  1.00  0.00     0.010 A 
ATOM     12  C   UNL A   1      38.181  29.731  27.551  1.00  0.00     0.010 A 
ATOM     13  C   UNL A   1      38.538  29.299  28.838  1.00  0.00    -0.014 A 
BRANCH  13  14
ATOM     14  C   UNL A   1      39.933  28.936  29.201  1.00  0.00     0.031 A 
ATOM     15  C   UNL A   1      40.783  29.826  30.071  1.00  0.00     0.074 A 
ATOM     16  C   UNL A   1      40.407  27.744  28.787  1.00  0.00     0.049 A 
ATOM     17  N   UNL A   1      42.000  29.621  30.510  1.00  0.00    -0.248 NA
ATOM     18  C   UNL A   1      40.203  31.109  30.501  1.00  0.00     0.031 C 
ATOM     19  C   UNL A   1      39.673  26.795  27.941  1.00  0.00     0.029 A 
ATOM     20  N   UNL A   1      41.586  27.100  29.055  1.00  0.00    -0.354 N 
ATOM     21  C   UNL A   1      42.349  30.763  31.224  1.00  0.00     0.074 A 
ATOM     22  C   UNL A   1      41.216  31.660  31.158  1.00  0.00     0.031 C 
ATOM     23  C   UNL A   1      40.374  25.659  27.844  1.00  0.00     0.029 A 
ATOM     24  C   UNL A   1      41.645  25.829  28.534  1.00  0.00     0.049 A 
ATOM     25  H   UNL A   1      42.320  27.508  29.570  1.00  0.00     0.167 HD
ATOM     26  C   UNL A   1      43.511  31.039  31.867  1.00  0.00     0.031 A 
ATOM     27  C   UNL A   1      42.618  24.901  28.588  1.00  0.00     0.031 A 
ATOM     28  C   UNL A   1      44.628  30.130  31.942  1.00  0.00     0.049 A 
ATOM     29  C   UNL A   1      43.891  25.233  29.304  1.00  0.00     0.074 A 
ATOM     30  C   UNL A   1      45.839  30.305  32.590  1.00  0.00     0.029 A 
ATOM     31  N   UNL A   1      44.671  28.876  31.351  1.00  0.00    -0.354 N 
ATOM     32  N   UNL A   1      44.200  26.321  29.967  1.00  0.00    -0.248 NA
ATOM     33  C   UNL A   1      44.950  24.219  29.267  1.00  0.00     0.031 C 
ATOM     34  C   UNL A   1      46.630  29.175  32.355  1.00  0.00     0.029 A 
ATOM     35  C   UNL A   1      45.893  28.274  31.602  1.00  0.00     0.049 A 
ATOM     36  H   UNL A   1      43.939  28.473  30.830  1.00  0.00     0.167 HD
ATOM     37  C   UNL A   1      45.493  26.123  30.430  1.00  0.00     0.074 A 
ATOM     38  C   UNL A   1      45.895  24.798  29.995  1.00  0.00     0.031 C 
ATOM     39  C   UNL A   1      46.279  26.962  31.146  1.00  0.00     0.031 A 
BRANCH  26  40
ATOM     40  C   UNL A   1      43.654  32.398  32.505  1.00  0.00    -0.014 A 
ATOM     41  C   UNL A   1      44.097  33.514  31.774  1.00  0.00     0.010 A 
ATOM     42  C   UNL A   1      43.297  32.566  33.857  1.00  0.00     0.010 A 
ATOM     43  C   UNL A   1      44.226  34.762  32.393  1.00  0.00     0.020 A 
ATOM     44  C   UNL A   1      43.401  33.818  34.474  1.00  0.00     0.020 A 
ATOM     45  C   UNL A   1      43.885  34.903  33.742  1.00  0.00     0.054 A 
BRANCH  45  46
ATOM     46  S   UNL A   1      44.055  36.533  34.522  1.00  0.00     0.124 S 
ATOM     47  O   UNL A   1      44.115  36.181  35.939  1.00  0.00    -0.237 OA
ATOM     48  O   UNL A   1      45.301  37.037  33.949  1.00  0.00    -0.237 OA
ATOM     49  O   UNL A   1      42.849  37.245  34.107  1.00  0.00    -0.744 OA
ENDBRANCH  45  46
ENDBRANCH  26  40
BRANCH  27  50
ATOM     50  C   UNL A   1      42.415  23.585  27.926  1.00  0.00    -0.014 A 
ATOM     51  C   UNL A   1      42.898  23.359  26.627  1.00  0.00     0.010 A 
ATOM     52  C   UNL A   1      41.786  22.533  28.618  1.00  0.00     0.010 A 
ATOM     53  C   UNL A   1      42.757  22.102  26.031  1.00  0.00     0.020 A 
ATOM     54  C   UNL A   1      41.670  21.269  28.038  1.00  0.00     0.020 A 
ATOM     55  C   UNL A   1      42.149  21.064  26.744  1.00  0.00     0.054 A 
BRANCH  55  56
ATOM     56  S   UNL A   1      42.047  19.418  25.986  1.00  0.00     0.124 S 
ATOM     57  O   UNL A   1      40.619  19.303  25.704  1.00  0.00    -0.237 OA
ATOM     58  O   UNL A   1      42.916  19.552  24.818  1.00  0.00    -0.237 OA
ATOM     59  O   UNL A   1      42.556  18.532  27.031  1.00  0.00    -0.744 OA
ENDBRANCH  55  56
ENDBRANCH  27  50
BRANCH  39  60
ATOM     60  C   UNL A   1      47.646  26.457  31.516  1.00  0.00    -0.014 A 
ATOM     61  C   UNL A   1      47.857  25.752  32.715  1.00  0.00     0.010 A 
ATOM     62  C   UNL A   1      48.728  26.681  30.648  1.00  0.00     0.010 A 
ATOM     63  C   UNL A   1      49.139  25.316  33.058  1.00  0.00     0.020 A 
ATOM     64  C   UNL A   1      50.006  26.226  30.976  1.00  0.00     0.020 A 
ATOM     65  C   UNL A   1      50.207  25.562  32.188  1.00  0.00     0.054 A 
BRANCH  65  66
ATOM     66  S   UNL A   1      51.860  24.972  32.643  1.00  0.00     0.124 S 
ATOM     67  O   UNL A   1      52.720  25.816  31.818  1.00  0.00    -0.237 OA
ATOM     68  O   UNL A   1      51.913  25.235  34.079  1.00  0.00    -0.237 OA
ATOM     69  O   UNL A   1      51.835  23.558  32.276  1.00  0.00    -0.744 OA
ENDBRANCH  65  66
ENDBRANCH  39  60
ENDBRANCH  13  14
ENDBRANCH   6   8
ENDBRANCH   3   4
ENDBRANCH   2   3
ENDBRANCH   1   2
BRANCH   1  70
ATOM     70  C   UNL A   1      30.691  27.114  25.075  1.00  0.00     0.002 C 
BRANCH  70  71
ATOM     71  C   UNL A   1      31.265  26.492  23.797  1.00  0.00     0.021 C 
BRANCH  71  72
ATOM     72  C   UNL A   1      30.777  25.091  23.414  1.00  0.00     0.116 C 
BRANCH  72  73
ATOM     73  N   UNL A   1      30.234  24.338  24.537  1.00  0.00    -0.356 N 
ATOM     74  C   UNL A   1      30.802  23.506  25.466  1.00  0.00     0.228 C 
ATOM     75  H   UNL A   1      29.263  24.447  24.649  1.00  0.00     0.163 HD
ATOM     76  O   UNL A   1      30.060  23.144  26.384  1.00  0.00    -0.274 OA
BRANCH  74  77
ATOM     77  C   UNL A   1      32.277  23.072  25.403  1.00  0.00     0.078 C 
ATOM     78  C   UNL A   1      32.576  22.442  24.009  1.00  0.00     0.051 C 
ATOM     79  C   UNL A   1      32.439  21.766  26.260  1.00  0.00     0.134 C 
ATOM     80  C   UNL A   1      32.657  20.932  24.279  1.00  0.00     0.120 C 
ATOM     81  C   UNL A   1      33.878  21.198  26.268  1.00  0.00     0.036 C 
ATOM     82  O   UNL A   1      31.791  20.779  25.417  1.00  0.00    -0.374 OA
ATOM     83  C   UNL A   1      33.998  20.567  24.883  1.00  0.00     0.035 C 
BRANCH  77  84
ATOM     84  C   UNL A   1      33.302  24.121  25.941  1.00  0.00     0.024 C 
BRANCH  84  85
ATOM     85  C   UNL A   1      34.468  24.697  25.122  1.00  0.00     0.037 C 
BRANCH  85  86
ATOM     86  C   UNL A   1      35.756  23.907  24.993  1.00  0.00    -0.048 A 
ATOM     87  C   UNL A   1      36.037  23.148  23.852  1.00  0.00     0.004 A 
ATOM     88  C   UNL A   1      36.634  23.787  26.076  1.00  0.00     0.004 A 
ATOM     89  C   UNL A   1      37.103  22.250  23.800  1.00  0.00     0.000 A 
ATOM     90  C   UNL A   1      37.715  22.896  26.029  1.00  0.00     0.000 A 
ATOM     91  C   UNL A   1      37.939  22.115  24.897  1.00  0.00     0.000 A 
ENDBRANCH  85  86
ENDBRANCH  84  85
ENDBRANCH  77  84
ENDBRANCH  74  77
ENDBRANCH  72  73
ENDBRANCH  71  72
ENDBRANCH  70  71
ENDBRANCH   1  70
TORSDOF 19
ENDMDL
MODEL 2
REMARK VINA RESULT:     -10.4      1.107      8.202
REMARK SMILES O=C(NCCCCCCNC(=O)[C@]1(CCc2ccccc2)C[C@H]2CC[C@@H]1O2)c1ccc(-c2c3nc(c(-c4ccc(S(=O)(=O)[O-])cc4)c4ccc([nH]4)c(-c4ccc(S(=O)(=O)[O-])cc4)c4nc(c(-c5ccc(S(=O)(=O)[O-])cc5)c5ccc2[nH]5)C=C4)C=C3)cc1
REMARK SMILES IDX 6 1 5 2 4 3 3 4 1 5 2 6 28 8 29 9 87 10 30 11 86 12 31 13
REMARK SMILES IDX 32 14 33 15 80 16 34 17 85 18 79 19 81 20 35 21 84 22 78 23
REMARK SMILES IDX 77 24 36 26 66 27 47 28 65 29 48 30 51 31 64 32 82 33 49 34
REMARK SMILES IDX 50 35 63 37 83 38 52 39 37 40 38 41 46 42 39 43 45 44 40 45
REMARK SMILES IDX 41 46 42 47 43 48 44 49 67 50 68 51 76 52 69 53 75 54 70 55
REMARK SMILES IDX 71 56 72 57 73 58 74 59 53 60 54 61 62 62 55 63 61 64 56 65
REMARK SMILES IDX 57 66 58 67 59 68 60 69 7 70 8 71 9 72 10 73 11 74 12 76
REMARK SMILES IDX 13 77 22 78 26 79 23 80 25 81 27 82 24 83 14 84 15 85 16 86
REMARK SMILES IDX 17 87 21 88 18 89 20 90 19 91
REMARK H PARENT 3 7 81 25 51 36 10 75
REMARK Flexibility Score: inf
ROOT
ATOM      1  C   UNL A   1      31.826  29.233  25.384  1.00  0.00     0.002 C 
ENDROOT
BRANCH   1   2
ATOM      2  C   UNL A   1      33.065  28.438  25.754  1.00  0.00     0.021 C 
BRANCH   2   3
ATOM      3  C   UNL A   1      33.567  28.620  27.171  1.00  0.00     0.116 C 
BRANCH   3   4
ATOM      4  N   UNL A   1      33.465  29.978  27.684  1.00  0.00    -0.352 N 
ATOM      5  O   UNL A   1      34.219  31.868  28.683  1.00  0.00    -0.269 OA
ATOM      6  C   UNL A   1      34.459  30.747  28.261  1.00  0.00     0.251 C 
ATOM      7  H   UNL A   1      32.580  30.402  27.611  1.00  0.00     0.163 HD
BRANCH   6   8
ATOM      8  C   UNL A   1      35.810  30.157  28.408  1.00  0.00     0.039 A 
ATOM      9  C   UNL A   1      36.228  29.673  29.647  1.00  0.00     0.014 A 
ATOM     10  C   UNL A   1      36.699  30.196  27.331  1.00  0.00     0.014 A 
ATOM     11  C   UNL A   1      37.578  29.447  29.868  1.00  0.00     0.010 A 
ATOM     12  C   UNL A   1      38.038  29.836  27.525  1.00  0.00     0.010 A 
ATOM     13  C   UNL A   1      38.502  29.510  28.809  1.00  0.00    -0.014 A 
BRANCH  13  14
ATOM     14  C   UNL A   1      39.925  29.180  29.084  1.00  0.00     0.031 A 
ATOM     15  C   UNL A   1      40.528  27.864  28.668  1.00  0.00     0.074 A 
ATOM     16  C   UNL A   1      40.696  30.123  29.662  1.00  0.00     0.049 A 
ATOM     17  N   UNL A   1      41.765  27.451  28.798  1.00  0.00    -0.248 NA
ATOM     18  C   UNL A   1      39.637  26.880  28.031  1.00  0.00     0.031 C 
ATOM     19  C   UNL A   1      40.222  31.439  30.107  1.00  0.00     0.029 A 
ATOM     20  N   UNL A   1      42.038  30.151  29.929  1.00  0.00    -0.354 N 
ATOM     21  C   UNL A   1      41.791  26.150  28.306  1.00  0.00     0.074 A 
ATOM     22  C   UNL A   1      40.445  25.839  27.876  1.00  0.00     0.031 C 
ATOM     23  C   UNL A   1      41.269  32.176  30.497  1.00  0.00     0.029 A 
ATOM     24  C   UNL A   1      42.473  31.359  30.423  1.00  0.00     0.049 A 
ATOM     25  H   UNL A   1      42.635  29.381  29.783  1.00  0.00     0.167 HD
ATOM     26  C   UNL A   1      42.840  25.294  28.228  1.00  0.00     0.031 A 
ATOM     27  C   UNL A   1      43.700  31.767  30.795  1.00  0.00     0.031 A 
ATOM     28  C   UNL A   1      44.182  25.620  28.643  1.00  0.00     0.049 A 
ATOM     29  C   UNL A   1      44.840  30.800  30.699  1.00  0.00     0.074 A 
ATOM     30  C   UNL A   1      45.319  24.833  28.581  1.00  0.00     0.029 A 
ATOM     31  N   UNL A   1      44.568  26.834  29.193  1.00  0.00    -0.354 N 
ATOM     32  N   UNL A   1      44.840  29.574  30.236  1.00  0.00    -0.248 NA
ATOM     33  C   UNL A   1      46.141  31.267  31.189  1.00  0.00     0.031 C 
ATOM     34  C   UNL A   1      46.383  25.554  29.135  1.00  0.00     0.029 A 
ATOM     35  C   UNL A   1      45.920  26.810  29.494  1.00  0.00     0.049 A 
ATOM     36  H   UNL A   1      43.969  27.600  29.346  1.00  0.00     0.167 HD
ATOM     37  C   UNL A   1      46.143  29.119  30.376  1.00  0.00     0.074 A 
ATOM     38  C   UNL A   1      46.909  30.215  30.942  1.00  0.00     0.031 C 
ATOM     39  C   UNL A   1      46.660  27.905  30.071  1.00  0.00     0.031 A 
BRANCH  26  40
ATOM     40  C   UNL A   1      42.571  23.901  27.716  1.00  0.00    -0.014 A 
ATOM     41  C   UNL A   1      42.531  23.617  26.339  1.00  0.00     0.010 A 
ATOM     42  C   UNL A   1      42.394  22.850  28.635  1.00  0.00     0.010 A 
ATOM     43  C   UNL A   1      42.273  22.316  25.892  1.00  0.00     0.020 A 
ATOM     44  C   UNL A   1      42.161  21.544  28.192  1.00  0.00     0.020 A 
ATOM     45  C   UNL A   1      42.082  21.290  26.822  1.00  0.00     0.054 A 
BRANCH  45  46
ATOM     46  S   UNL A   1      41.753  19.610  26.217  1.00  0.00     0.124 S 
ATOM     47  O   UNL A   1      40.316  19.662  25.957  1.00  0.00    -0.237 OA
ATOM     48  O   UNL A   1      42.601  19.522  25.032  1.00  0.00    -0.237 OA
ATOM     49  O   UNL A   1      42.155  18.755  27.332  1.00  0.00    -0.744 OA
ENDBRANCH  45  46
ENDBRANCH  26  40
BRANCH  27  50
ATOM     50  C   UNL A   1      43.891  33.151  31.302  1.00  0.00    -0.014 A 
ATOM     51  C   UNL A   1      44.179  34.202  30.417  1.00  0.00     0.010 A 
ATOM     52  C   UNL A   1      43.726  33.433  32.672  1.00  0.00     0.010 A 
ATOM     53  C   UNL A   1      44.299  35.512  30.891  1.00  0.00     0.020 A 
ATOM     54  C   UNL A   1      43.816  34.742  33.144  1.00  0.00     0.020 A 
ATOM     55  C   UNL A   1      44.111  35.773  32.252  1.00  0.00     0.054 A 
BRANCH  55  56
ATOM     56  S   UNL A   1      44.191  37.490  32.836  1.00  0.00     0.124 S 
ATOM     57  O   UNL A   1      43.091  37.534  33.794  1.00  0.00    -0.237 OA
ATOM     58  O   UNL A   1      45.534  37.568  33.408  1.00  0.00    -0.237 OA
ATOM     59  O   UNL A   1      43.997  38.272  31.617  1.00  0.00    -0.744 OA
ENDBRANCH  55  56
ENDBRANCH  27  50
BRANCH  39  60
ATOM     60  C   UNL A   1      48.128  27.711  30.327  1.00  0.00    -0.014 A 
ATOM     61  C   UNL A   1      48.589  27.228  31.565  1.00  0.00     0.010 A 
ATOM     62  C   UNL A   1      49.055  28.008  29.314  1.00  0.00     0.010 A 
ATOM     63  C   UNL A   1      49.959  27.084  31.797  1.00  0.00     0.020 A 
ATOM     64  C   UNL A   1      50.424  27.842  29.535  1.00  0.00     0.020 A 
ATOM     65  C   UNL A   1      50.868  27.398  30.782  1.00  0.00     0.054 A 
BRANCH  65  66
ATOM     66  S   UNL A   1      52.641  27.187  31.097  1.00  0.00     0.124 S 
ATOM     67  O   UNL A   1      52.862  28.103  32.212  1.00  0.00    -0.237 OA
ATOM     68  O   UNL A   1      52.745  25.766  31.421  1.00  0.00    -0.237 OA
ATOM     69  O   UNL A   1      53.264  27.578  29.835  1.00  0.00    -0.744 OA
ENDBRANCH  65  66
ENDBRANCH  39  60
ENDBRANCH  13  14
ENDBRANCH   6   8
ENDBRANCH   3   4
ENDBRANCH   2   3
ENDBRANCH   1   2
BRANCH   1  70
ATOM     70  C   UNL A   1      31.225  29.003  23.998  1.00  0.00     0.002 C 
BRANCH  70  71
ATOM     71  C   UNL A   1      30.296  27.795  23.832  1.00  0.00     0.021 C 
BRANCH  71  72
ATOM     72  C   UNL A   1      30.902  26.404  24.050  1.00  0.00     0.116 C 
BRANCH  72  73
ATOM     73  N   UNL A   1      30.266  25.654  25.124  1.00  0.00    -0.356 N 
ATOM     74  C   UNL A   1      30.687  24.623  25.921  1.00  0.00     0.228 C 
ATOM     75  H   UNL A   1      29.345  25.947  25.315  1.00  0.00     0.163 HD
ATOM     76  O   UNL A   1      29.929  24.318  26.846  1.00  0.00    -0.274 OA
BRANCH  74  77
ATOM     77  C   UNL A   1      32.033  23.905  25.710  1.00  0.00     0.078 C 
ATOM     78  C   UNL A   1      32.029  23.185  24.328  1.00  0.00     0.051 C 
ATOM     79  C   UNL A   1      32.049  22.621  26.614  1.00  0.00     0.134 C 
ATOM     80  C   UNL A   1      31.853  21.699  24.671  1.00  0.00     0.120 C 
ATOM     81  C   UNL A   1      33.342  21.782  26.486  1.00  0.00     0.036 C 
ATOM     82  O   UNL A   1      31.124  21.754  25.909  1.00  0.00    -0.374 OA
ATOM     83  C   UNL A   1      33.165  21.096  25.134  1.00  0.00     0.035 C 
BRANCH  77  84
ATOM     84  C   UNL A   1      33.298  24.750  26.066  1.00  0.00     0.024 C 
BRANCH  84  85
ATOM     85  C   UNL A   1      34.417  25.100  25.073  1.00  0.00     0.037 C 
BRANCH  85  86
ATOM     86  C   UNL A   1      35.587  24.153  24.895  1.00  0.00    -0.048 A 
ATOM     87  C   UNL A   1      35.777  23.440  23.707  1.00  0.00     0.004 A 
ATOM     88  C   UNL A   1      36.427  23.842  25.972  1.00  0.00     0.004 A 
ATOM     89  C   UNL A   1      36.712  22.410  23.599  1.00  0.00     0.000 A 
ATOM     90  C   UNL A   1      37.377  22.817  25.868  1.00  0.00     0.000 A 
ATOM     91  C   UNL A   1      37.507  22.090  24.687  1.00  0.00     0.000 A 
ENDBRANCH  85  86
ENDBRANCH  84  85
ENDBRANCH  77  84
ENDBRANCH  74  77
ENDBRANCH  72  73
ENDBRANCH  71  72
ENDBRANCH  70  71
ENDBRANCH   1  70
TORSDOF 19
ENDMDL
MODEL 3
REMARK VINA RESULT:     -10.3      1.408      2.773
REMARK SMILES O=C(NCCCCCCNC(=O)[C@]1(CCc2ccccc2)C[C@H]2CC[C@@H]1O2)c1ccc(-c2c3nc(c(-c4ccc(S(=O)(=O)[O-])cc4)c4ccc([nH]4)c(-c4ccc(S(=O)(=O)[O-])cc4)c4nc(c(-c5ccc(S(=O)(=O)[O-])cc5)c5ccc2[nH]5)C=C4)C=C3)cc1
REMARK SMILES IDX 6 1 5 2 4 3 3 4 1 5 2 6 28 8 29 9 87 10 30 11 86 12 31 13
REMARK SMILES IDX 32 14 33 15 80 16 34 17 85 18 79 19 81 20 35 21 84 22 78 23
REMARK SMILES IDX 77 24 36 26 66 27 47 28 65 29 48 30 51 31 64 32 82 33 49 34
REMARK SMILES IDX 50 35 63 37 83 38 52 39 37 40 38 41 46 42 39 43 45 44 40 45
REMARK SMILES IDX 41 46 42 47 43 48 44 49 67 50 68 51 76 52 69 53 75 54 70 55
REMARK SMILES IDX 71 56 72 57 73 58 74 59 53 60 54 61 62 62 55 63 61 64 56 65
REMARK SMILES IDX 57 66 58 67 59 68 60 69 7 70 8 71 9 72 10 73 11 74 12 76
REMARK SMILES IDX 13 77 22 78 26 79 23 80 25 81 27 82 24 83 14 84 15 85 16 86
REMARK SMILES IDX 17 87 21 88 18 89 20 90 19 91
REMARK H PARENT 3 7 81 25 51 36 10 75
REMARK Flexibility Score: inf
ROOT
ATOM      1  C   UNL A   1      33.022  25.594  25.703  1.00  0.00     0.002 C 
ENDROOT
BRANCH   1   2
ATOM      2  C   UNL A   1      33.686  26.918  25.365  1.00  0.00     0.021 C 
BRANCH   2   3
ATOM      3  C   UNL A   1      34.298  27.665  26.531  1.00  0.00     0.116 C 
BRANCH   3   4
ATOM      4  N   UNL A   1      33.612  28.897  26.894  1.00  0.00    -0.352 N 
ATOM      5  O   UNL A   1      33.415  30.947  27.840  1.00  0.00    -0.269 OA
ATOM      6  C   UNL A   1      34.123  29.988  27.571  1.00  0.00     0.251 C 
ATOM      7  H   UNL A   1      32.667  28.960  26.624  1.00  0.00     0.163 HD
BRANCH   6   8
ATOM      8  C   UNL A   1      35.536  29.946  28.012  1.00  0.00     0.039 A 
ATOM      9  C   UNL A   1      36.557  30.253  27.113  1.00  0.00     0.014 A 
ATOM     10  C   UNL A   1      35.843  29.486  29.295  1.00  0.00     0.014 A 
ATOM     11  C   UNL A   1      37.860  29.887  27.413  1.00  0.00     0.010 A 
ATOM     12  C   UNL A   1      37.178  29.244  29.643  1.00  0.00     0.010 A 
ATOM     13  C   UNL A   1      38.194  29.391  28.686  1.00  0.00    -0.014 A 
BRANCH  13  14
ATOM     14  C   UNL A   1      39.619  29.089  28.981  1.00  0.00     0.031 A 
ATOM     15  C   UNL A   1      40.487  30.045  29.759  1.00  0.00     0.074 A 
ATOM     16  C   UNL A   1      40.109  27.895  28.594  1.00  0.00     0.049 A 
ATOM     17  N   UNL A   1      41.734  29.899  30.134  1.00  0.00    -0.248 NA
ATOM     18  C   UNL A   1      39.890  31.327  30.165  1.00  0.00     0.031 C 
ATOM     19  C   UNL A   1      39.361  26.885  27.836  1.00  0.00     0.029 A 
ATOM     20  N   UNL A   1      41.323  27.302  28.819  1.00  0.00    -0.354 N 
ATOM     21  C   UNL A   1      42.084  31.083  30.774  1.00  0.00     0.074 A 
ATOM     22  C   UNL A   1      40.919  31.940  30.736  1.00  0.00     0.031 C 
ATOM     23  C   UNL A   1      40.093  25.768  27.747  1.00  0.00     0.029 A 
ATOM     24  C   UNL A   1      41.395  26.010  28.353  1.00  0.00     0.049 A 
ATOM     25  H   UNL A   1      42.071  27.756  29.271  1.00  0.00     0.167 HD
ATOM     26  C   UNL A   1      43.271  31.425  31.335  1.00  0.00     0.031 A 
ATOM     27  C   UNL A   1      42.401  25.116  28.390  1.00  0.00     0.031 A 
ATOM     28  C   UNL A   1      44.421  30.557  31.384  1.00  0.00     0.049 A 
ATOM     29  C   UNL A   1      43.701  25.521  29.015  1.00  0.00     0.074 A 
ATOM     30  C   UNL A   1      45.661  30.800  31.951  1.00  0.00     0.029 A 
ATOM     31  N   UNL A   1      44.473  29.278  30.848  1.00  0.00    -0.354 N 
ATOM     32  N   UNL A   1      44.011  26.648  29.609  1.00  0.00    -0.248 NA
ATOM     33  C   UNL A   1      44.791  24.541  28.960  1.00  0.00     0.031 C 
ATOM     34  C   UNL A   1      46.475  29.685  31.720  1.00  0.00     0.029 A 
ATOM     35  C   UNL A   1      45.727  28.728  31.053  1.00  0.00     0.049 A 
ATOM     36  H   UNL A   1      43.726  28.828  30.389  1.00  0.00     0.167 HD
ATOM     37  C   UNL A   1      45.334  26.513  30.003  1.00  0.00     0.074 A 
ATOM     38  C   UNL A   1      45.755  25.183  29.604  1.00  0.00     0.031 C 
ATOM     39  C   UNL A   1      46.131  27.409  30.634  1.00  0.00     0.031 A 
BRANCH  26  40
ATOM     40  C   UNL A   1      43.404  32.816  31.902  1.00  0.00    -0.014 A 
ATOM     41  C   UNL A   1      43.148  33.088  33.258  1.00  0.00     0.010 A 
ATOM     42  C   UNL A   1      43.830  33.865  31.065  1.00  0.00     0.010 A 
ATOM     43  C   UNL A   1      43.273  34.390  33.755  1.00  0.00     0.020 A 
ATOM     44  C   UNL A   1      43.980  35.163  31.564  1.00  0.00     0.020 A 
ATOM     45  C   UNL A   1      43.680  35.420  32.903  1.00  0.00     0.054 A 
BRANCH  45  46
ATOM     46  S   UNL A   1      43.839  37.100  33.573  1.00  0.00     0.124 S 
ATOM     47  O   UNL A   1      43.937  37.900  32.353  1.00  0.00    -0.237 OA
ATOM     48  O   UNL A   1      42.602  37.264  34.331  1.00  0.00    -0.237 OA
ATOM     49  O   UNL A   1      45.057  37.039  34.378  1.00  0.00    -0.744 OA
ENDBRANCH  45  46
ENDBRANCH  26  40
BRANCH  27  50
ATOM     50  C   UNL A   1      42.205  23.766  27.801  1.00  0.00    -0.014 A 
ATOM     51  C   UNL A   1      42.575  23.508  26.471  1.00  0.00     0.010 A 
ATOM     52  C   UNL A   1      41.700  22.715  28.589  1.00  0.00     0.010 A 
ATOM     53  C   UNL A   1      42.444  22.222  25.939  1.00  0.00     0.020 A 
ATOM     54  C   UNL A   1      41.596  21.424  28.071  1.00  0.00     0.020 A 
ATOM     55  C   UNL A   1      41.960  21.187  26.746  1.00  0.00     0.054 A 
BRANCH  55  56
ATOM     56  S   UNL A   1      41.874  19.508  26.062  1.00  0.00     0.124 S 
ATOM     57  O   UNL A   1      42.739  19.613  24.892  1.00  0.00    -0.237 OA
ATOM     58  O   UNL A   1      42.387  18.691  27.160  1.00  0.00    -0.237 OA
ATOM     59  O   UNL A   1      40.451  19.331  25.779  1.00  0.00    -0.744 OA
ENDBRANCH  55  56
ENDBRANCH  27  50
BRANCH  39  60
ATOM     60  C   UNL A   1      47.533  26.964  30.944  1.00  0.00    -0.014 A 
ATOM     61  C   UNL A   1      48.597  27.268  30.077  1.00  0.00     0.010 A 
ATOM     62  C   UNL A   1      47.788  26.243  32.123  1.00  0.00     0.010 A 
ATOM     63  C   UNL A   1      49.889  26.821  30.365  1.00  0.00     0.020 A 
ATOM     64  C   UNL A   1      49.082  25.815  32.426  1.00  0.00     0.020 A 
ATOM     65  C   UNL A   1      50.122  26.091  31.535  1.00  0.00     0.054 A 
BRANCH  65  66
ATOM     66  S   UNL A   1      51.808  25.535  31.901  1.00  0.00     0.124 S 
ATOM     67  O   UNL A   1      51.610  24.109  32.146  1.00  0.00    -0.237 OA
ATOM     68  O   UNL A   1      52.530  25.867  30.675  1.00  0.00    -0.237 OA
ATOM     69  O   UNL A   1      52.186  26.324  33.071  1.00  0.00    -0.744 OA
ENDBRANCH  65  66
ENDBRANCH  39  60
ENDBRANCH  13  14
ENDBRANCH   6   8
ENDBRANCH   3   4
ENDBRANCH   2   3
ENDBRANCH   1   2
BRANCH   1  70
ATOM     70  C   UNL A   1      31.552  25.422  25.322  1.00  0.00     0.002 C 
BRANCH  70  71
ATOM     71  C   UNL A   1      30.796  24.256  25.967  1.00  0.00     0.021 C 
BRANCH  71  72
ATOM     72  C   UNL A   1      31.147  22.841  25.496  1.00  0.00     0.116 C 
BRANCH  72  73
ATOM     73  N   UNL A   1      32.002  22.114  26.424  1.00  0.00    -0.356 N 
ATOM     74  C   UNL A   1      33.252  21.564  26.308  1.00  0.00     0.228 C 
ATOM     75  H   UNL A   1      31.601  21.992  27.315  1.00  0.00     0.163 HD
ATOM     76  O   UNL A   1      33.749  21.140  27.356  1.00  0.00    -0.274 OA
BRANCH  74  77
ATOM     77  C   UNL A   1      34.014  21.504  24.972  1.00  0.00     0.078 C 
ATOM     78  C   UNL A   1      35.360  20.744  25.173  1.00  0.00     0.051 C 
ATOM     79  C   UNL A   1      34.617  22.925  24.689  1.00  0.00     0.134 C 
ATOM     80  C   UNL A   1      36.428  21.847  25.165  1.00  0.00     0.120 C 
ATOM     81  C   UNL A   1      35.437  23.008  23.379  1.00  0.00     0.036 C 
ATOM     82  O   UNL A   1      35.696  22.984  25.656  1.00  0.00    -0.374 OA
ATOM     83  C   UNL A   1      36.732  22.289  23.747  1.00  0.00     0.035 C 
BRANCH  77  84
ATOM     84  C   UNL A   1      33.151  21.101  23.733  1.00  0.00     0.024 C 
BRANCH  84  85
ATOM     85  C   UNL A   1      32.195  19.898  23.693  1.00  0.00     0.037 C 
BRANCH  85  86
ATOM     86  C   UNL A   1      32.716  18.513  24.023  1.00  0.00    -0.048 A 
ATOM     87  C   UNL A   1      32.676  18.008  25.327  1.00  0.00     0.004 A 
ATOM     88  C   UNL A   1      33.399  17.757  23.062  1.00  0.00     0.004 A 
ATOM     89  C   UNL A   1      33.340  16.836  25.691  1.00  0.00     0.000 A 
ATOM     90  C   UNL A   1      34.058  16.572  23.416  1.00  0.00     0.000 A 
ATOM     91  C   UNL A   1      34.043  16.122  24.735  1.00  0.00     0.000 A 
ENDBRANCH  85  86
ENDBRANCH  84  85
ENDBRANCH  77  84
ENDBRANCH  74  77
ENDBRANCH  72  73
ENDBRANCH  71  72
ENDBRANCH  70  71
ENDBRANCH   1  70
TORSDOF 19
ENDMDL
