MODEL 1
REMARK VINA RESULT:     -11.0      0.000      0.000
REMARK SMILES COc1ccc(F)cc1-c1ccc(C[C@]2(C(=O)NCCCCCCNC(=O)c3ccc(-c4c5nc(c(-c6ccc(S(=O)(=O)[O-])cc6)c6ccc([nH]6)c(-c6ccc(S(=O)(=O)[O-])cc6)c6nc(c(-c7ccc(S(=O)(=O)[O-])cc7)c7ccc4[nH]7)C=C6)C=C5)cc3)CCCO2)cc1
REMARK SMILES IDX 21 1 20 2 19 3 18 4 16 5 17 6 15 8 88 9 91 10 89 11 90 12
REMARK SMILES IDX 14 13 13 14 10 15 11 16 93 17 12 18 92 19 9 20 3 21 4 22
REMARK SMILES IDX 5 23 8 24 6 25 7 26 2 27 1 28 22 29 23 30 24 31 25 32 26 33
REMARK SMILES IDX 27 35 28 36 29 37 87 38 30 39 86 40 31 41 32 42 33 43 80 44
REMARK SMILES IDX 34 45 85 46 79 47 81 48 35 49 84 50 78 51 77 52 36 54 66 55
REMARK SMILES IDX 47 56 65 57 48 58 51 59 64 60 82 61 49 62 50 63 63 65 83 66
REMARK SMILES IDX 52 67 37 68 38 69 46 70 39 71 45 72 40 73 41 74 42 75 43 76
REMARK SMILES IDX 44 77 67 78 68 79 76 80 69 81 75 82 70 83 71 84 72 85 73 86
REMARK SMILES IDX 74 87 53 88 54 89 62 90 55 91 61 92 56 93 57 94 58 95 59 96
REMARK SMILES IDX 60 97
REMARK H PARENT 18 7 25 34 81 53 51 64
REMARK Flexibility Score: inf
ROOT
ATOM      1  C   UNL A   1      34.764  31.696  28.655  1.00  0.00     0.002 C 
ENDROOT
BRANCH   1   2
ATOM      2  C   UNL A   1      34.656  30.559  27.636  1.00  0.00     0.021 C 
BRANCH   2   3
ATOM      3  C   UNL A   1      33.271  30.444  26.998  1.00  0.00     0.116 C 
BRANCH   3   4
ATOM      4  N   UNL A   1      32.524  29.351  27.581  1.00  0.00    -0.354 N 
ATOM      5  C   UNL A   1      31.943  28.264  26.993  1.00  0.00     0.252 C 
ATOM      6  O   UNL A   1      31.286  27.530  27.740  1.00  0.00    -0.272 OA
ATOM      7  H   UNL A   1      32.418  29.398  28.558  1.00  0.00     0.163 HD
BRANCH   5   8
ATOM      8  C   UNL A   1      32.070  27.986  25.460  1.00  0.00     0.150 C 
ATOM      9  C   UNL A   1      30.983  27.019  24.983  1.00  0.00     0.048 C 
ATOM     10  O   UNL A   1      31.901  29.215  24.731  1.00  0.00    -0.365 OA
ATOM     11  C   UNL A   1      30.263  27.730  23.859  1.00  0.00     0.032 C 
ATOM     12  C   UNL A   1      31.079  28.973  23.585  1.00  0.00     0.162 C 
BRANCH   8  13
ATOM     13  C   UNL A   1      33.512  27.441  25.219  1.00  0.00     0.081 C 
BRANCH  13  14
ATOM     14  C   UNL A   1      33.676  25.941  25.082  1.00  0.00    -0.045 A 
ATOM     15  C   UNL A   1      33.906  23.140  24.769  1.00  0.00    -0.015 A 
ATOM     16  C   UNL A   1      33.553  23.698  26.004  1.00  0.00     0.009 A 
ATOM     17  C   UNL A   1      34.174  24.003  23.699  1.00  0.00     0.009 A 
ATOM     18  C   UNL A   1      33.464  25.081  26.164  1.00  0.00     0.004 A 
ATOM     19  C   UNL A   1      34.050  25.388  23.850  1.00  0.00     0.004 A 
BRANCH  15  20
ATOM     20  C   UNL A   1      33.970  21.683  24.614  1.00  0.00     0.027 A 
ATOM     21  C   UNL A   1      35.086  20.927  25.023  1.00  0.00     0.126 A 
ATOM     22  C   UNL A   1      35.087  19.531  24.913  1.00  0.00     0.050 A 
ATOM     23  C   UNL A   1      33.985  18.877  24.363  1.00  0.00     0.043 A 
ATOM     24  C   UNL A   1      32.872  21.003  24.059  1.00  0.00     0.051 A 
ATOM     25  C   UNL A   1      32.891  19.619  23.939  1.00  0.00     0.124 A 
ATOM     26  F   UNL A   1      31.828  18.987  23.423  1.00  0.00    -0.207 F 
BRANCH  21  27
ATOM     27  O   UNL A   1      36.133  21.569  25.636  1.00  0.00    -0.496 OA
ATOM     28  C   UNL A   1      37.307  21.564  24.826  1.00  0.00     0.278 C 
ENDBRANCH  21  27
ENDBRANCH  15  20
ENDBRANCH  13  14
ENDBRANCH   8  13
ENDBRANCH   5   8
ENDBRANCH   3   4
ENDBRANCH   2   3
ENDBRANCH   1   2
BRANCH   1  29
ATOM     29  C   UNL A   1      34.747  33.098  28.041  1.00  0.00     0.002 C 
BRANCH  29  30
ATOM     30  C   UNL A   1      33.461  33.890  28.294  1.00  0.00     0.021 C 
BRANCH  30  31
ATOM     31  C   UNL A   1      33.697  35.307  28.809  1.00  0.00     0.116 C 
BRANCH  31  32
ATOM     32  N   UNL A   1      32.949  35.557  30.033  1.00  0.00    -0.352 N 
ATOM     33  C   UNL A   1      33.139  35.028  31.285  1.00  0.00     0.251 C 
ATOM     34  H   UNL A   1      32.204  36.196  29.951  1.00  0.00     0.163 HD
ATOM     35  O   UNL A   1      32.267  35.127  32.140  1.00  0.00    -0.269 OA
BRANCH  33  36
ATOM     36  C   UNL A   1      34.405  34.329  31.585  1.00  0.00     0.039 A 
ATOM     37  C   UNL A   1      35.612  35.018  31.456  1.00  0.00     0.014 A 
ATOM     38  C   UNL A   1      34.387  32.999  32.013  1.00  0.00     0.014 A 
ATOM     39  C   UNL A   1      36.803  34.390  31.828  1.00  0.00     0.010 A 
ATOM     40  C   UNL A   1      35.564  32.402  32.451  1.00  0.00     0.010 A 
ATOM     41  C   UNL A   1      36.782  33.094  32.368  1.00  0.00    -0.014 A 
BRANCH  41  42
ATOM     42  C   UNL A   1      38.016  32.452  32.887  1.00  0.00     0.031 A 
ATOM     43  C   UNL A   1      38.509  32.766  34.272  1.00  0.00     0.074 A 
ATOM     44  C   UNL A   1      38.738  31.657  32.074  1.00  0.00     0.049 A 
ATOM     45  N   UNL A   1      39.609  32.375  34.863  1.00  0.00    -0.248 NA
ATOM     46  C   UNL A   1      37.669  33.655  35.089  1.00  0.00     0.031 C 
ATOM     47  C   UNL A   1      38.386  31.313  30.694  1.00  0.00     0.029 A 
ATOM     48  N   UNL A   1      39.929  31.007  32.283  1.00  0.00    -0.354 N 
ATOM     49  C   UNL A   1      39.601  32.980  36.114  1.00  0.00     0.074 A 
ATOM     50  C   UNL A   1      38.414  33.804  36.176  1.00  0.00     0.031 C 
ATOM     51  C   UNL A   1      39.330  30.506  30.186  1.00  0.00     0.029 A 
ATOM     52  C   UNL A   1      40.380  30.315  31.182  1.00  0.00     0.049 A 
ATOM     53  H   UNL A   1      40.416  31.033  33.139  1.00  0.00     0.167 HD
ATOM     54  C   UNL A   1      40.494  32.848  37.124  1.00  0.00     0.031 A 
ATOM     55  C   UNL A   1      41.519  29.623  30.986  1.00  0.00     0.031 A 
ATOM     56  C   UNL A   1      41.677  32.032  37.049  1.00  0.00     0.049 A 
ATOM     57  C   UNL A   1      42.512  29.515  32.110  1.00  0.00     0.074 A 
ATOM     58  C   UNL A   1      42.617  31.789  38.035  1.00  0.00     0.029 A 
ATOM     59  N   UNL A   1      42.092  31.338  35.921  1.00  0.00    -0.354 N 
ATOM     60  N   UNL A   1      42.448  30.029  33.315  1.00  0.00    -0.248 NA
ATOM     61  C   UNL A   1      43.726  28.728  31.851  1.00  0.00     0.031 C 
ATOM     62  C   UNL A   1      43.635  31.004  37.483  1.00  0.00     0.029 A 
ATOM     63  C   UNL A   1      43.294  30.699  36.175  1.00  0.00     0.049 A 
ATOM     64  H   UNL A   1      41.606  31.307  35.067  1.00  0.00     0.167 HD
ATOM     65  C   UNL A   1      43.604  29.612  33.965  1.00  0.00     0.074 A 
ATOM     66  C   UNL A   1      44.339  28.788  33.026  1.00  0.00     0.031 C 
ATOM     67  C   UNL A   1      44.019  29.887  35.227  1.00  0.00     0.031 A 
BRANCH  54  68
ATOM     68  C   UNL A   1      40.230  33.623  38.390  1.00  0.00    -0.014 A 
ATOM     69  C   UNL A   1      40.691  34.944  38.548  1.00  0.00     0.010 A 
ATOM     70  C   UNL A   1      39.488  33.032  39.429  1.00  0.00     0.010 A 
ATOM     71  C   UNL A   1      40.464  35.637  39.740  1.00  0.00     0.020 A 
ATOM     72  C   UNL A   1      39.230  33.733  40.611  1.00  0.00     0.020 A 
ATOM     73  C   UNL A   1      39.739  35.024  40.767  1.00  0.00     0.054 A 
BRANCH  73  74
ATOM     74  S   UNL A   1      39.460  35.947  42.302  1.00  0.00     0.124 S 
ATOM     75  O   UNL A   1      40.591  35.518  43.120  1.00  0.00    -0.237 OA
ATOM     76  O   UNL A   1      39.503  37.336  41.852  1.00  0.00    -0.237 OA
ATOM     77  O   UNL A   1      38.152  35.482  42.755  1.00  0.00    -0.744 OA
ENDBRANCH  73  74
ENDBRANCH  54  68
BRANCH  55  78
ATOM     78  C   UNL A   1      41.777  28.991  29.663  1.00  0.00    -0.014 A 
ATOM     79  C   UNL A   1      41.168  27.773  29.316  1.00  0.00     0.010 A 
ATOM     80  C   UNL A   1      42.611  29.630  28.725  1.00  0.00     0.010 A 
ATOM     81  C   UNL A   1      41.396  27.201  28.059  1.00  0.00     0.020 A 
ATOM     82  C   UNL A   1      42.816  29.077  27.458  1.00  0.00     0.020 A 
ATOM     83  C   UNL A   1      42.213  27.860  27.136  1.00  0.00     0.054 A 
BRANCH  83  84
ATOM     84  S   UNL A   1      42.436  27.134  25.489  1.00  0.00     0.124 S 
ATOM     85  O   UNL A   1      42.417  28.314  24.631  1.00  0.00    -0.237 OA
ATOM     86  O   UNL A   1      43.727  26.463  25.615  1.00  0.00    -0.237 OA
ATOM     87  O   UNL A   1      41.288  26.239  25.351  1.00  0.00    -0.744 OA
ENDBRANCH  83  84
ENDBRANCH  55  78
BRANCH  67  88
ATOM     88  C   UNL A   1      45.320  29.280  35.681  1.00  0.00    -0.014 A 
ATOM     89  C   UNL A   1      46.504  30.038  35.719  1.00  0.00     0.010 A 
ATOM     90  C   UNL A   1      45.340  27.953  36.149  1.00  0.00     0.010 A 
ATOM     91  C   UNL A   1      47.689  29.472  36.200  1.00  0.00     0.020 A 
ATOM     92  C   UNL A   1      46.515  27.394  36.659  1.00  0.00     0.020 A 
ATOM     93  C   UNL A   1      47.685  28.156  36.673  1.00  0.00     0.054 A 
BRANCH  93  94
ATOM     94  S   UNL A   1      49.220  27.472  37.355  1.00  0.00     0.124 S 
ATOM     95  O   UNL A   1      50.000  28.678  37.620  1.00  0.00    -0.237 OA
ATOM     96  O   UNL A   1      48.751  26.754  38.538  1.00  0.00    -0.237 OA
ATOM     97  O   UNL A   1      49.730  26.624  36.280  1.00  0.00    -0.744 OA
ENDBRANCH  93  94
ENDBRANCH  67  88
ENDBRANCH  41  42
ENDBRANCH  33  36
ENDBRANCH  31  32
ENDBRANCH  30  31
ENDBRANCH  29  30
ENDBRANCH   1  29
TORSDOF 20
ENDMDL
MODEL 2
REMARK VINA RESULT:     -10.7      5.971      7.914
REMARK SMILES COc1ccc(F)cc1-c1ccc(C[C@]2(C(=O)NCCCCCCNC(=O)c3ccc(-c4c5nc(c(-c6ccc(S(=O)(=O)[O-])cc6)c6ccc([nH]6)c(-c6ccc(S(=O)(=O)[O-])cc6)c6nc(c(-c7ccc(S(=O)(=O)[O-])cc7)c7ccc4[nH]7)C=C6)C=C5)cc3)CCCO2)cc1
REMARK SMILES IDX 21 1 20 2 19 3 18 4 16 5 17 6 15 8 88 9 91 10 89 11 90 12
REMARK SMILES IDX 14 13 13 14 10 15 11 16 93 17 12 18 92 19 9 20 3 21 4 22
REMARK SMILES IDX 5 23 8 24 6 25 7 26 2 27 1 28 22 29 23 30 24 31 25 32 26 33
REMARK SMILES IDX 27 35 28 36 29 37 87 38 30 39 86 40 31 41 32 42 33 43 80 44
REMARK SMILES IDX 34 45 85 46 79 47 81 48 35 49 84 50 78 51 77 52 36 54 66 55
REMARK SMILES IDX 47 56 65 57 48 58 51 59 64 60 82 61 49 62 50 63 63 65 83 66
REMARK SMILES IDX 52 67 37 68 38 69 46 70 39 71 45 72 40 73 41 74 42 75 43 76
REMARK SMILES IDX 44 77 67 78 68 79 76 80 69 81 75 82 70 83 71 84 72 85 73 86
REMARK SMILES IDX 74 87 53 88 54 89 62 90 55 91 61 92 56 93 57 94 58 95 59 96
REMARK SMILES IDX 60 97
REMARK H PARENT 18 7 25 34 81 53 51 64
REMARK Flexibility Score: inf
ROOT
ATOM      1  C   UNL A   1      34.222  29.352  26.852  1.00  0.00     0.002 C 
ENDROOT
BRANCH   1   2
ATOM      2  C   UNL A   1      33.339  28.351  27.601  1.00  0.00     0.021 C 
BRANCH   2   3
ATOM      3  C   UNL A   1      31.844  28.645  27.474  1.00  0.00     0.116 C 
BRANCH   3   4
ATOM      4  N   UNL A   1      31.092  27.422  27.301  1.00  0.00    -0.354 N 
ATOM      5  C   UNL A   1      30.716  26.768  26.163  1.00  0.00     0.252 C 
ATOM      6  O   UNL A   1      29.992  25.778  26.321  1.00  0.00    -0.272 OA
ATOM      7  H   UNL A   1      30.805  26.991  28.139  1.00  0.00     0.163 HD
BRANCH   5   8
ATOM      8  C   UNL A   1      31.143  27.265  24.744  1.00  0.00     0.150 C 
ATOM      9  C   UNL A   1      30.172  26.766  23.670  1.00  0.00     0.048 C 
ATOM     10  O   UNL A   1      31.118  28.703  24.709  1.00  0.00    -0.365 OA
ATOM     11  C   UNL A   1      29.687  28.001  22.946  1.00  0.00     0.032 C 
ATOM     12  C   UNL A   1      30.538  29.134  23.474  1.00  0.00     0.162 C 
BRANCH   8  13
ATOM     13  C   UNL A   1      32.605  26.771  24.515  1.00  0.00     0.081 C 
BRANCH  13  14
ATOM     14  C   UNL A   1      32.842  25.275  24.510  1.00  0.00    -0.045 A 
ATOM     15  C   UNL A   1      33.377  22.498  24.518  1.00  0.00    -0.015 A 
ATOM     16  C   UNL A   1      32.994  23.152  23.340  1.00  0.00     0.009 A 
ATOM     17  C   UNL A   1      33.459  23.244  25.700  1.00  0.00     0.009 A 
ATOM     18  C   UNL A   1      32.706  24.517  23.342  1.00  0.00     0.004 A 
ATOM     19  C   UNL A   1      33.204  24.620  25.695  1.00  0.00     0.004 A 
BRANCH  15  20
ATOM     20  C   UNL A   1      33.700  21.068  24.490  1.00  0.00     0.027 A 
ATOM     21  C   UNL A   1      34.987  20.578  24.784  1.00  0.00     0.126 A 
ATOM     22  C   UNL A   1      35.244  19.201  24.804  1.00  0.00     0.050 A 
ATOM     23  C   UNL A   1      34.226  18.300  24.498  1.00  0.00     0.043 A 
ATOM     24  C   UNL A   1      32.690  20.141  24.180  1.00  0.00     0.051 A 
ATOM     25  C   UNL A   1      32.960  18.778  24.187  1.00  0.00     0.124 A 
ATOM     26  F   UNL A   1      31.979  17.910  23.905  1.00  0.00    -0.207 F 
BRANCH  21  27
ATOM     27  O   UNL A   1      35.964  21.464  25.162  1.00  0.00    -0.496 OA
ATOM     28  C   UNL A   1      37.271  20.963  24.889  1.00  0.00     0.278 C 
ENDBRANCH  21  27
ENDBRANCH  15  20
ENDBRANCH  13  14
ENDBRANCH   8  13
ENDBRANCH   5   8
ENDBRANCH   3   4
ENDBRANCH   2   3
ENDBRANCH   1   2
BRANCH   1  29
ATOM     29  C   UNL A   1      33.658  30.774  26.795  1.00  0.00     0.002 C 
BRANCH  29  30
ATOM     30  C   UNL A   1      34.065  31.670  27.967  1.00  0.00     0.021 C 
BRANCH  30  31
ATOM     31  C   UNL A   1      35.417  31.313  28.580  1.00  0.00     0.116 C 
BRANCH  31  32
ATOM     32  N   UNL A   1      35.398  31.465  30.028  1.00  0.00    -0.352 N 
ATOM     33  C   UNL A   1      36.253  30.936  30.963  1.00  0.00     0.251 C 
ATOM     34  H   UNL A   1      34.673  32.027  30.386  1.00  0.00     0.163 HD
ATOM     35  O   UNL A   1      35.949  30.931  32.149  1.00  0.00    -0.269 OA
BRANCH  33  36
ATOM     36  C   UNL A   1      37.540  30.364  30.517  1.00  0.00     0.039 A 
ATOM     37  C   UNL A   1      37.811  30.277  29.150  1.00  0.00     0.014 A 
ATOM     38  C   UNL A   1      38.481  29.937  31.458  1.00  0.00     0.014 A 
ATOM     39  C   UNL A   1      39.064  29.825  28.729  1.00  0.00     0.010 A 
ATOM     40  C   UNL A   1      39.750  29.557  31.037  1.00  0.00     0.010 A 
ATOM     41  C   UNL A   1      40.056  29.503  29.669  1.00  0.00    -0.014 A 
BRANCH  41  42
ATOM     42  C   UNL A   1      41.432  29.140  29.248  1.00  0.00     0.031 A 
ATOM     43  C   UNL A   1      42.503  30.192  29.171  1.00  0.00     0.074 A 
ATOM     44  C   UNL A   1      41.690  27.879  28.849  1.00  0.00     0.049 A 
ATOM     45  N   UNL A   1      43.734  30.084  28.742  1.00  0.00    -0.248 NA
ATOM     46  C   UNL A   1      42.135  31.547  29.611  1.00  0.00     0.031 C 
ATOM     47  C   UNL A   1      40.720  26.781  28.836  1.00  0.00     0.029 A 
ATOM     48  N   UNL A   1      42.840  27.311  28.360  1.00  0.00    -0.354 N 
ATOM     49  C   UNL A   1      44.283  31.356  28.845  1.00  0.00     0.074 A 
ATOM     50  C   UNL A   1      43.236  32.230  29.329  1.00  0.00     0.031 C 
ATOM     51  C   UNL A   1      41.319  25.671  28.377  1.00  0.00     0.029 A 
ATOM     52  C   UNL A   1      42.697  25.988  28.016  1.00  0.00     0.049 A 
ATOM     53  H   UNL A   1      43.687  27.805  28.264  1.00  0.00     0.167 HD
ATOM     54  C   UNL A   1      45.549  31.757  28.577  1.00  0.00     0.031 A 
ATOM     55  C   UNL A   1      43.568  25.128  27.451  1.00  0.00     0.031 A 
ATOM     56  C   UNL A   1      46.581  30.882  28.087  1.00  0.00     0.049 A 
ATOM     57  C   UNL A   1      44.959  25.601  27.131  1.00  0.00     0.074 A 
ATOM     58  C   UNL A   1      47.910  31.178  27.835  1.00  0.00     0.029 A 
ATOM     59  N   UNL A   1      46.401  29.545  27.761  1.00  0.00    -0.354 N 
ATOM     60  N   UNL A   1      45.485  26.790  27.312  1.00  0.00    -0.248 NA
ATOM     61  C   UNL A   1      45.876  24.618  26.540  1.00  0.00     0.031 C 
ATOM     62  C   UNL A   1      48.514  30.039  27.292  1.00  0.00     0.029 A 
ATOM     63  C   UNL A   1      47.582  29.013  27.274  1.00  0.00     0.049 A 
ATOM     64  H   UNL A   1      45.557  29.050  27.860  1.00  0.00     0.167 HD
ATOM     65  C   UNL A   1      46.800  26.692  26.873  1.00  0.00     0.074 A 
ATOM     66  C   UNL A   1      46.995  25.323  26.437  1.00  0.00     0.031 C 
ATOM     67  C   UNL A   1      47.760  27.649  26.836  1.00  0.00     0.031 A 
BRANCH  54  68
ATOM     68  C   UNL A   1      45.877  33.212  28.790  1.00  0.00    -0.014 A 
ATOM     69  C   UNL A   1      46.510  33.655  29.967  1.00  0.00     0.010 A 
ATOM     70  C   UNL A   1      45.569  34.152  27.789  1.00  0.00     0.010 A 
ATOM     71  C   UNL A   1      46.779  35.011  30.161  1.00  0.00     0.020 A 
ATOM     72  C   UNL A   1      45.866  35.507  27.965  1.00  0.00     0.020 A 
ATOM     73  C   UNL A   1      46.449  35.931  29.161  1.00  0.00     0.054 A 
BRANCH  73  74
ATOM     74  S   UNL A   1      46.810  37.685  29.441  1.00  0.00     0.124 S 
ATOM     75  O   UNL A   1      48.248  37.660  29.694  1.00  0.00    -0.237 OA
ATOM     76  O   UNL A   1      46.405  38.301  28.180  1.00  0.00    -0.237 OA
ATOM     77  O   UNL A   1      45.982  38.031  30.594  1.00  0.00    -0.744 OA
ENDBRANCH  73  74
ENDBRANCH  54  68
BRANCH  55  78
ATOM     78  C   UNL A   1      43.136  23.737  27.145  1.00  0.00    -0.014 A 
ATOM     79  C   UNL A   1      42.706  23.384  25.854  1.00  0.00     0.010 A 
ATOM     80  C   UNL A   1      43.188  22.745  28.143  1.00  0.00     0.010 A 
ATOM     81  C   UNL A   1      42.327  22.068  25.570  1.00  0.00     0.020 A 
ATOM     82  C   UNL A   1      42.840  21.423  27.854  1.00  0.00     0.020 A 
ATOM     83  C   UNL A   1      42.403  21.094  26.570  1.00  0.00     0.054 A 
BRANCH  83  84
ATOM     84  S   UNL A   1      41.973  19.381  26.157  1.00  0.00     0.124 S 
ATOM     85  O   UNL A   1      42.777  19.145  24.962  1.00  0.00    -0.237 OA
ATOM     86  O   UNL A   1      42.391  18.656  27.354  1.00  0.00    -0.237 OA
ATOM     87  O   UNL A   1      40.529  19.432  25.942  1.00  0.00    -0.744 OA
ENDBRANCH  83  84
ENDBRANCH  55  78
BRANCH  67  88
ATOM     88  C   UNL A   1      49.120  27.254  26.323  1.00  0.00    -0.014 A 
ATOM     89  C   UNL A   1      50.144  26.858  27.201  1.00  0.00     0.010 A 
ATOM     90  C   UNL A   1      49.349  27.203  24.935  1.00  0.00     0.010 A 
ATOM     91  C   UNL A   1      51.379  26.437  26.701  1.00  0.00     0.020 A 
ATOM     92  C   UNL A   1      50.572  26.753  24.431  1.00  0.00     0.020 A 
ATOM     93  C   UNL A   1      51.583  26.381  25.319  1.00  0.00     0.054 A 
BRANCH  93  94
ATOM     94  S   UNL A   1      53.172  25.765  24.697  1.00  0.00     0.124 S 
ATOM     95  O   UNL A   1      53.111  26.134  23.286  1.00  0.00    -0.237 OA
ATOM     96  O   UNL A   1      54.138  26.509  25.501  1.00  0.00    -0.237 OA
ATOM     97  O   UNL A   1      53.118  24.330  24.969  1.00  0.00    -0.744 OA
ENDBRANCH  93  94
ENDBRANCH  67  88
ENDBRANCH  41  42
ENDBRANCH  33  36
ENDBRANCH  31  32
ENDBRANCH  30  31
ENDBRANCH  29  30
ENDBRANCH   1  29
TORSDOF 20
ENDMDL
MODEL 3
REMARK VINA RESULT:     -10.6      6.169     10.102
REMARK SMILES COc1ccc(F)cc1-c1ccc(C[C@]2(C(=O)NCCCCCCNC(=O)c3ccc(-c4c5nc(c(-c6ccc(S(=O)(=O)[O-])cc6)c6ccc([nH]6)c(-c6ccc(S(=O)(=O)[O-])cc6)c6nc(c(-c7ccc(S(=O)(=O)[O-])cc7)c7ccc4[nH]7)C=C6)C=C5)cc3)CCCO2)cc1
REMARK SMILES IDX 21 1 20 2 19 3 18 4 16 5 17 6 15 8 88 9 91 10 89 11 90 12
REMARK SMILES IDX 14 13 13 14 10 15 11 16 93 17 12 18 92 19 9 20 3 21 4 22
REMARK SMILES IDX 5 23 8 24 6 25 7 26 2 27 1 28 22 29 23 30 24 31 25 32 26 33
REMARK SMILES IDX 27 35 28 36 29 37 87 38 30 39 86 40 31 41 32 42 33 43 80 44
REMARK SMILES IDX 34 45 85 46 79 47 81 48 35 49 84 50 78 51 77 52 36 54 66 55
REMARK SMILES IDX 47 56 65 57 48 58 51 59 64 60 82 61 49 62 50 63 63 65 83 66
REMARK SMILES IDX 52 67 37 68 38 69 46 70 39 71 45 72 40 73 41 74 42 75 43 76
REMARK SMILES IDX 44 77 67 78 68 79 76 80 69 81 75 82 70 83 71 84 72 85 73 86
REMARK SMILES IDX 74 87 53 88 54 89 62 90 55 91 61 92 56 93 57 94 58 95 59 96
REMARK SMILES IDX 60 97
REMARK H PARENT 18 7 25 34 81 53 51 64
REMARK Flexibility Score: inf
ROOT
ATOM      1  C   UNL A   1      34.398  29.495  27.061  1.00  0.00     0.002 C 
ENDROOT
BRANCH   1   2
ATOM      2  C   UNL A   1      33.439  28.439  27.615  1.00  0.00     0.021 C 
BRANCH   2   3
ATOM      3  C   UNL A   1      31.982  28.670  27.214  1.00  0.00     0.116 C 
BRANCH   3   4
ATOM      4  N   UNL A   1      31.346  27.426  26.840  1.00  0.00    -0.354 N 
ATOM      5  C   UNL A   1      30.941  26.972  25.618  1.00  0.00     0.252 C 
ATOM      6  O   UNL A   1      30.339  25.893  25.612  1.00  0.00    -0.272 OA
ATOM      7  H   UNL A   1      31.179  26.807  27.586  1.00  0.00     0.163 HD
BRANCH   5   8
ATOM      8  C   UNL A   1      31.190  27.790  24.308  1.00  0.00     0.150 C 
ATOM      9  C   UNL A   1      30.340  27.253  23.153  1.00  0.00     0.048 C 
ATOM     10  O   UNL A   1      30.811  29.162  24.516  1.00  0.00    -0.365 OA
ATOM     11  C   UNL A   1      29.544  28.433  22.643  1.00  0.00     0.032 C 
ATOM     12  C   UNL A   1      30.107  29.636  23.365  1.00  0.00     0.162 C 
BRANCH   8  13
ATOM     13  C   UNL A   1      32.721  27.718  24.017  1.00  0.00     0.081 C 
BRANCH  13  14
ATOM     14  C   UNL A   1      33.397  26.370  24.167  1.00  0.00    -0.045 A 
ATOM     15  C   UNL A   1      34.572  23.815  24.453  1.00  0.00    -0.015 A 
ATOM     16  C   UNL A   1      34.680  24.772  25.469  1.00  0.00     0.009 A 
ATOM     17  C   UNL A   1      33.895  24.162  23.277  1.00  0.00     0.009 A 
ATOM     18  C   UNL A   1      34.121  26.041  25.318  1.00  0.00     0.004 A 
ATOM     19  C   UNL A   1      33.304  25.423  23.140  1.00  0.00     0.004 A 
BRANCH  15  20
ATOM     20  C   UNL A   1      35.144  22.477  24.642  1.00  0.00     0.027 A 
ATOM     21  C   UNL A   1      34.349  21.316  24.700  1.00  0.00     0.126 A 
ATOM     22  C   UNL A   1      34.935  20.050  24.823  1.00  0.00     0.050 A 
ATOM     23  C   UNL A   1      36.320  19.933  24.923  1.00  0.00     0.043 A 
ATOM     24  C   UNL A   1      36.539  22.335  24.748  1.00  0.00     0.051 A 
ATOM     25  C   UNL A   1      37.108  21.076  24.887  1.00  0.00     0.124 A 
ATOM     26  F   UNL A   1      38.440  20.960  24.971  1.00  0.00    -0.207 F 
BRANCH  21  27
ATOM     27  O   UNL A   1      32.993  21.432  24.522  1.00  0.00    -0.496 OA
ATOM     28  C   UNL A   1      32.420  20.227  24.017  1.00  0.00     0.278 C 
ENDBRANCH  21  27
ENDBRANCH  15  20
ENDBRANCH  13  14
ENDBRANCH   8  13
ENDBRANCH   5   8
ENDBRANCH   3   4
ENDBRANCH   2   3
ENDBRANCH   1   2
BRANCH   1  29
ATOM     29  C   UNL A   1      33.861  30.928  27.119  1.00  0.00     0.002 C 
BRANCH  29  30
ATOM     30  C   UNL A   1      34.418  31.772  28.269  1.00  0.00     0.021 C 
BRANCH  30  31
ATOM     31  C   UNL A   1      35.778  31.303  28.780  1.00  0.00     0.116 C 
BRANCH  31  32
ATOM     32  N   UNL A   1      35.725  30.972  30.197  1.00  0.00    -0.352 N 
ATOM     33  C   UNL A   1      36.535  30.131  30.919  1.00  0.00     0.251 C 
ATOM     34  H   UNL A   1      35.010  31.415  30.710  1.00  0.00     0.163 HD
ATOM     35  O   UNL A   1      36.199  29.750  32.033  1.00  0.00    -0.269 OA
BRANCH  33  36
ATOM     36  C   UNL A   1      37.813  29.684  30.328  1.00  0.00     0.039 A 
ATOM     37  C   UNL A   1      38.000  29.785  28.949  1.00  0.00     0.014 A 
ATOM     38  C   UNL A   1      38.829  29.186  31.150  1.00  0.00     0.014 A 
ATOM     39  C   UNL A   1      39.241  29.452  28.400  1.00  0.00     0.010 A 
ATOM     40  C   UNL A   1      40.083  28.925  30.610  1.00  0.00     0.010 A 
ATOM     41  C   UNL A   1      40.303  29.061  29.231  1.00  0.00    -0.014 A 
BRANCH  41  42
ATOM     42  C   UNL A   1      41.663  28.823  28.687  1.00  0.00     0.031 A 
ATOM     43  C   UNL A   1      42.064  27.450  28.224  1.00  0.00     0.074 A 
ATOM     44  C   UNL A   1      42.564  29.825  28.697  1.00  0.00     0.049 A 
ATOM     45  N   UNL A   1      43.229  27.030  27.806  1.00  0.00    -0.248 NA
ATOM     46  C   UNL A   1      41.025  26.408  28.261  1.00  0.00     0.031 C 
ATOM     47  C   UNL A   1      42.306  31.189  29.163  1.00  0.00     0.029 A 
ATOM     48  N   UNL A   1      43.883  29.847  28.319  1.00  0.00    -0.354 N 
ATOM     49  C   UNL A   1      43.071  25.674  27.542  1.00  0.00     0.074 A 
ATOM     50  C   UNL A   1      41.710  25.333  27.897  1.00  0.00     0.031 C 
ATOM     51  C   UNL A   1      43.425  31.918  29.032  1.00  0.00     0.029 A 
ATOM     52  C   UNL A   1      44.493  31.064  28.521  1.00  0.00     0.049 A 
ATOM     53  H   UNL A   1      44.350  29.067  27.941  1.00  0.00     0.167 HD
ATOM     54  C   UNL A   1      43.971  24.798  27.035  1.00  0.00     0.031 A 
ATOM     55  C   UNL A   1      45.772  31.447  28.337  1.00  0.00     0.031 A 
ATOM     56  C   UNL A   1      45.325  25.146  26.693  1.00  0.00     0.049 A 
ATOM     57  C   UNL A   1      46.763  30.450  27.803  1.00  0.00     0.074 A 
ATOM     58  C   UNL A   1      46.300  24.346  26.124  1.00  0.00     0.029 A 
ATOM     59  N   UNL A   1      45.902  26.392  26.901  1.00  0.00    -0.354 N 
ATOM     60  N   UNL A   1      46.574  29.192  27.484  1.00  0.00    -0.248 NA
ATOM     61  C   UNL A   1      48.138  30.926  27.599  1.00  0.00     0.031 C 
ATOM     62  C   UNL A   1      47.484  25.087  26.050  1.00  0.00     0.029 A 
ATOM     63  C   UNL A   1      47.229  26.370  26.508  1.00  0.00     0.049 A 
ATOM     64  H   UNL A   1      45.436  27.173  27.275  1.00  0.00     0.167 HD
ATOM     65  C   UNL A   1      47.801  28.730  27.022  1.00  0.00     0.074 A 
ATOM     66  C   UNL A   1      48.720  29.849  27.086  1.00  0.00     0.031 C 
ATOM     67  C   UNL A   1      48.135  27.491  26.584  1.00  0.00     0.031 A 
BRANCH  54  68
ATOM     68  C   UNL A   1      43.521  23.373  26.841  1.00  0.00    -0.014 A 
ATOM     69  C   UNL A   1      43.212  22.548  27.940  1.00  0.00     0.010 A 
ATOM     70  C   UNL A   1      43.380  22.855  25.541  1.00  0.00     0.010 A 
ATOM     71  C   UNL A   1      42.825  21.220  27.743  1.00  0.00     0.020 A 
ATOM     72  C   UNL A   1      42.962  21.537  25.338  1.00  0.00     0.020 A 
ATOM     73  C   UNL A   1      42.708  20.721  26.443  1.00  0.00     0.054 A 
BRANCH  73  74
ATOM     74  S   UNL A   1      42.205  18.994  26.218  1.00  0.00     0.124 S 
ATOM     75  O   UNL A   1      43.168  18.527  25.225  1.00  0.00    -0.237 OA
ATOM     76  O   UNL A   1      42.366  18.437  27.559  1.00  0.00    -0.237 OA
ATOM     77  O   UNL A   1      40.825  19.091  25.749  1.00  0.00    -0.744 OA
ENDBRANCH  73  74
ENDBRANCH  54  68
BRANCH  55  78
ATOM     78  C   UNL A   1      46.179  32.838  28.675  1.00  0.00    -0.014 A 
ATOM     79  C   UNL A   1      46.677  33.152  29.952  1.00  0.00     0.010 A 
ATOM     80  C   UNL A   1      46.105  33.853  27.702  1.00  0.00     0.010 A 
ATOM     81  C   UNL A   1      47.083  34.456  30.251  1.00  0.00     0.020 A 
ATOM     82  C   UNL A   1      46.539  35.149  27.989  1.00  0.00     0.020 A 
ATOM     83  C   UNL A   1      47.018  35.445  29.266  1.00  0.00     0.054 A 
BRANCH  83  84
ATOM     84  S   UNL A   1      47.615  37.113  29.658  1.00  0.00     0.124 S 
ATOM     85  O   UNL A   1      46.832  37.939  28.744  1.00  0.00    -0.237 OA
ATOM     86  O   UNL A   1      47.281  37.241  31.073  1.00  0.00    -0.237 OA
ATOM     87  O   UNL A   1      49.046  37.041  29.367  1.00  0.00    -0.744 OA
ENDBRANCH  83  84
ENDBRANCH  55  78
BRANCH  67  88
ATOM     88  C   UNL A   1      49.552  27.275  26.119  1.00  0.00    -0.014 A 
ATOM     89  C   UNL A   1      49.916  27.472  24.776  1.00  0.00     0.010 A 
ATOM     90  C   UNL A   1      50.547  26.945  27.058  1.00  0.00     0.010 A 
ATOM     91  C   UNL A   1      51.248  27.324  24.376  1.00  0.00     0.020 A 
ATOM     92  C   UNL A   1      51.884  26.827  26.669  1.00  0.00     0.020 A 
ATOM     93  C   UNL A   1      52.224  27.009  25.327  1.00  0.00     0.054 A 
BRANCH  93  94
ATOM     94  S   UNL A   1      53.954  26.892  24.793  1.00  0.00     0.124 S 
ATOM     95  O   UNL A   1      54.112  28.112  24.005  1.00  0.00    -0.237 OA
ATOM     96  O   UNL A   1      54.677  26.864  26.061  1.00  0.00    -0.237 OA
ATOM     97  O   UNL A   1      53.997  25.647  24.029  1.00  0.00    -0.744 OA
ENDBRANCH  93  94
ENDBRANCH  67  88
ENDBRANCH  41  42
ENDBRANCH  33  36
ENDBRANCH  31  32
ENDBRANCH  30  31
ENDBRANCH  29  30
ENDBRANCH   1  29
TORSDOF 20
ENDMDL
