MODEL 1
REMARK VINA RESULT:     -11.8      0.000      0.000
REMARK SMILES Cc1cc2c(c(C)c1Cl)C=C(C(=O)NCCCCCCNC(=O)c1ccc(-c3c4nc(c(-c5ccc(S(=O)(=O)[O-])cc5)c5ccc([nH]5)c(-c5ccc(S(=O)(=O)[O-])cc5)c5nc(c(-c6ccc(S(=O)(=O)[O-])cc6)c6ccc3[nH]6)C=C5)C=C4)cc1)[C@@H](C(F)(F)F)O2
REMARK SMILES IDX 18 1 17 2 16 3 15 4 14 5 12 6 13 7 11 9 1 10 2 11 3 12 8 13
REMARK SMILES IDX 4 14 6 15 9 16 5 17 89 18 7 19 10 20 84 21 85 22 86 23 87 24
REMARK SMILES IDX 88 25 19 26 20 27 21 28 22 29 23 31 24 32 25 33 83 34 26 35
REMARK SMILES IDX 82 36 27 37 28 38 29 39 76 40 30 41 81 42 75 43 77 44 31 45
REMARK SMILES IDX 80 46 74 47 73 48 32 50 62 51 43 52 61 53 44 54 47 55 60 56
REMARK SMILES IDX 78 57 45 58 46 59 59 61 79 62 48 63 33 64 34 65 42 66 35 67
REMARK SMILES IDX 41 68 36 69 37 70 38 71 39 72 40 73 63 74 64 75 72 76 65 77
REMARK SMILES IDX 71 78 66 79 67 80 68 81 69 82 70 83 49 84 50 85 58 86 51 87
REMARK SMILES IDX 57 88 52 89 53 90 54 91 55 92 56 93
REMARK H PARENT 14 8 21 30 77 49 47 60
REMARK Flexibility Score: inf
ROOT
ATOM      1  C   UNL A   1      37.544  23.986  26.121  1.00  0.00     0.002 C 
ENDROOT
BRANCH   1   2
ATOM      2  C   UNL A   1      36.251  23.301  25.661  1.00  0.00     0.002 C 
BRANCH   2   3
ATOM      3  C   UNL A   1      34.993  23.708  26.433  1.00  0.00     0.021 C 
BRANCH   3   4
ATOM      4  C   UNL A   1      33.708  23.546  25.629  1.00  0.00     0.116 C 
BRANCH   4   5
ATOM      5  N   UNL A   1      33.894  23.918  24.238  1.00  0.00    -0.352 N 
ATOM      6  C   UNL A   1      33.631  24.990  23.456  1.00  0.00     0.251 C 
ATOM      7  O   UNL A   1      33.988  24.883  22.279  1.00  0.00    -0.270 OA
ATOM      8  H   UNL A   1      34.330  23.197  23.728  1.00  0.00     0.163 HD
BRANCH   6   9
ATOM      9  C   UNL A   1      32.963  26.246  23.914  1.00  0.00     0.067 C 
ATOM     10  C   UNL A   1      31.175  31.926  26.542  1.00  0.00     0.046 C 
ATOM     11  C   UNL A   1      31.886  30.673  26.113  1.00  0.00    -0.028 A 
ATOM     12  C   UNL A   1      31.285  29.872  25.142  1.00  0.00     0.052 A 
ATOM     13  C   UNL A   1      33.120  30.266  26.660  1.00  0.00     0.047 A 
ATOM     14  C   UNL A   1      31.889  28.691  24.727  1.00  0.00     0.128 A 
ATOM     15  C   UNL A   1      33.755  29.072  26.234  1.00  0.00    -0.021 A 
ATOM     16  Cl  UNL A   1      33.851  31.273  27.875  1.00  0.00    -0.084 Cl
ATOM     17  C   UNL A   1      33.118  28.278  25.249  1.00  0.00     0.022 A 
ATOM     18  O   UNL A   1      31.213  28.014  23.759  1.00  0.00    -0.475 OA
ATOM     19  C   UNL A   1      35.080  28.624  26.805  1.00  0.00     0.047 C 
ATOM     20  C   UNL A   1      33.698  27.043  24.713  1.00  0.00     0.026 C 
ATOM     21  C   UNL A   1      31.553  26.620  23.569  1.00  0.00     0.314 C 
BRANCH  21  22
ATOM     22  C   UNL A   1      30.508  25.743  24.281  1.00  0.00     0.429 C 
ATOM     23  F   UNL A   1      30.953  25.376  25.508  1.00  0.00    -0.167 F 
ATOM     24  F   UNL A   1      29.333  26.386  24.478  1.00  0.00    -0.167 F 
ATOM     25  F   UNL A   1      30.226  24.613  23.593  1.00  0.00    -0.167 F 
ENDBRANCH  21  22
ENDBRANCH   6   9
ENDBRANCH   4   5
ENDBRANCH   3   4
ENDBRANCH   2   3
ENDBRANCH   1   2
BRANCH   1  26
ATOM     26  C   UNL A   1      38.698  23.038  26.460  1.00  0.00     0.021 C 
BRANCH  26  27
ATOM     27  C   UNL A   1      39.911  23.722  27.080  1.00  0.00     0.116 C 
BRANCH  27  28
ATOM     28  N   UNL A   1      40.741  24.361  26.071  1.00  0.00    -0.352 N 
ATOM     29  C   UNL A   1      41.120  25.673  25.971  1.00  0.00     0.251 C 
ATOM     30  H   UNL A   1      41.076  23.767  25.361  1.00  0.00     0.163 HD
ATOM     31  O   UNL A   1      41.627  26.091  24.933  1.00  0.00    -0.269 OA
BRANCH  29  32
ATOM     32  C   UNL A   1      40.907  26.580  27.115  1.00  0.00     0.039 A 
ATOM     33  C   UNL A   1      39.913  26.276  28.047  1.00  0.00     0.014 A 
ATOM     34  C   UNL A   1      41.689  27.730  27.264  1.00  0.00     0.014 A 
ATOM     35  C   UNL A   1      39.732  27.104  29.155  1.00  0.00     0.010 A 
ATOM     36  C   UNL A   1      41.558  28.513  28.406  1.00  0.00     0.010 A 
ATOM     37  C   UNL A   1      40.569  28.215  29.355  1.00  0.00    -0.014 A 
BRANCH  37  38
ATOM     38  C   UNL A   1      40.405  29.091  30.540  1.00  0.00     0.031 A 
ATOM     39  C   UNL A   1      41.288  28.900  31.741  1.00  0.00     0.074 A 
ATOM     40  C   UNL A   1      39.445  30.036  30.543  1.00  0.00     0.049 A 
ATOM     41  N   UNL A   1      41.285  29.549  32.876  1.00  0.00    -0.248 NA
ATOM     42  C   UNL A   1      42.297  27.828  31.666  1.00  0.00     0.031 C 
ATOM     43  C   UNL A   1      38.513  30.301  29.444  1.00  0.00     0.029 A 
ATOM     44  N   UNL A   1      39.096  30.955  31.501  1.00  0.00    -0.354 N 
ATOM     45  C   UNL A   1      42.284  28.967  33.647  1.00  0.00     0.074 A 
ATOM     46  C   UNL A   1      42.831  27.872  32.877  1.00  0.00     0.031 C 
ATOM     47  C   UNL A   1      37.728  31.340  29.773  1.00  0.00     0.029 A 
ATOM     48  C   UNL A   1      38.070  31.787  31.121  1.00  0.00     0.049 A 
ATOM     49  H   UNL A   1      39.539  31.013  32.378  1.00  0.00     0.167 HD
ATOM     50  C   UNL A   1      42.726  29.328  34.874  1.00  0.00     0.031 A 
ATOM     51  C   UNL A   1      37.472  32.798  31.781  1.00  0.00     0.031 A 
ATOM     52  C   UNL A   1      42.181  30.420  35.635  1.00  0.00     0.049 A 
ATOM     53  C   UNL A   1      37.951  33.151  33.163  1.00  0.00     0.074 A 
ATOM     54  C   UNL A   1      42.580  30.887  36.874  1.00  0.00     0.029 A 
ATOM     55  N   UNL A   1      41.123  31.218  35.226  1.00  0.00    -0.354 N 
ATOM     56  N   UNL A   1      38.927  32.616  33.857  1.00  0.00    -0.248 NA
ATOM     57  C   UNL A   1      37.251  34.246  33.849  1.00  0.00     0.031 C 
ATOM     58  C   UNL A   1      41.726  31.932  37.242  1.00  0.00     0.029 A 
ATOM     59  C   UNL A   1      40.836  32.156  36.203  1.00  0.00     0.049 A 
ATOM     60  H   UNL A   1      40.645  31.129  34.370  1.00  0.00     0.167 HD
ATOM     61  C   UNL A   1      38.973  33.325  35.052  1.00  0.00     0.074 A 
ATOM     62  C   UNL A   1      37.938  34.337  34.979  1.00  0.00     0.031 C 
ATOM     63  C   UNL A   1      39.798  33.154  36.116  1.00  0.00     0.031 A 
BRANCH  50  64
ATOM     64  C   UNL A   1      43.860  28.536  35.469  1.00  0.00    -0.014 A 
ATOM     65  C   UNL A   1      43.610  27.402  36.263  1.00  0.00     0.010 A 
ATOM     66  C   UNL A   1      45.192  28.895  35.189  1.00  0.00     0.010 A 
ATOM     67  C   UNL A   1      44.669  26.661  36.792  1.00  0.00     0.020 A 
ATOM     68  C   UNL A   1      46.254  28.138  35.693  1.00  0.00     0.020 A 
ATOM     69  C   UNL A   1      45.984  27.033  36.503  1.00  0.00     0.054 A 
BRANCH  69  70
ATOM     70  S   UNL A   1      47.336  26.030  37.178  1.00  0.00     0.124 S 
ATOM     71  O   UNL A   1      46.808  25.654  38.487  1.00  0.00    -0.237 OA
ATOM     72  O   UNL A   1      47.440  24.943  36.208  1.00  0.00    -0.237 OA
ATOM     73  O   UNL A   1      48.471  26.949  37.206  1.00  0.00    -0.744 OA
ENDBRANCH  69  70
ENDBRANCH  50  64
BRANCH  51  74
ATOM     74  C   UNL A   1      36.373  33.562  31.130  1.00  0.00    -0.014 A 
ATOM     75  C   UNL A   1      36.433  33.867  29.760  1.00  0.00     0.010 A 
ATOM     76  C   UNL A   1      35.246  33.966  31.870  1.00  0.00     0.010 A 
ATOM     77  C   UNL A   1      35.393  34.569  29.142  1.00  0.00     0.020 A 
ATOM     78  C   UNL A   1      34.191  34.643  31.250  1.00  0.00     0.020 A 
ATOM     79  C   UNL A   1      34.275  34.947  29.891  1.00  0.00     0.054 A 
BRANCH  79  80
ATOM     80  S   UNL A   1      32.914  35.804  29.052  1.00  0.00     0.124 S 
ATOM     81  O   UNL A   1      32.050  36.171  30.169  1.00  0.00    -0.237 OA
ATOM     82  O   UNL A   1      33.601  36.911  28.391  1.00  0.00    -0.237 OA
ATOM     83  O   UNL A   1      32.374  34.789  28.150  1.00  0.00    -0.744 OA
ENDBRANCH  79  80
ENDBRANCH  51  74
BRANCH  63  84
ATOM     84  C   UNL A   1      39.631  34.085  37.287  1.00  0.00    -0.014 A 
ATOM     85  C   UNL A   1      38.918  33.689  38.431  1.00  0.00     0.010 A 
ATOM     86  C   UNL A   1      40.267  35.340  37.273  1.00  0.00     0.010 A 
ATOM     87  C   UNL A   1      38.827  34.541  39.535  1.00  0.00     0.020 A 
ATOM     88  C   UNL A   1      40.203  36.182  38.386  1.00  0.00     0.020 A 
ATOM     89  C   UNL A   1      39.475  35.780  39.507  1.00  0.00     0.054 A 
BRANCH  89  90
ATOM     90  S   UNL A   1      39.389  36.837  40.977  1.00  0.00     0.124 S 
ATOM     91  O   UNL A   1      38.724  38.029  40.457  1.00  0.00    -0.237 OA
ATOM     92  O   UNL A   1      38.597  36.031  41.903  1.00  0.00    -0.237 OA
ATOM     93  O   UNL A   1      40.788  37.022  41.357  1.00  0.00    -0.744 OA
ENDBRANCH  89  90
ENDBRANCH  63  84
ENDBRANCH  37  38
ENDBRANCH  29  32
ENDBRANCH  27  28
ENDBRANCH  26  27
ENDBRANCH   1  26
TORSDOF 17
ENDMDL
MODEL 2
REMARK VINA RESULT:     -11.8      6.447     12.068
REMARK SMILES Cc1cc2c(c(C)c1Cl)C=C(C(=O)NCCCCCCNC(=O)c1ccc(-c3c4nc(c(-c5ccc(S(=O)(=O)[O-])cc5)c5ccc([nH]5)c(-c5ccc(S(=O)(=O)[O-])cc5)c5nc(c(-c6ccc(S(=O)(=O)[O-])cc6)c6ccc3[nH]6)C=C5)C=C4)cc1)[C@@H](C(F)(F)F)O2
REMARK SMILES IDX 18 1 17 2 16 3 15 4 14 5 12 6 13 7 11 9 1 10 2 11 3 12 8 13
REMARK SMILES IDX 4 14 6 15 9 16 5 17 89 18 7 19 10 20 84 21 85 22 86 23 87 24
REMARK SMILES IDX 88 25 19 26 20 27 21 28 22 29 23 31 24 32 25 33 83 34 26 35
REMARK SMILES IDX 82 36 27 37 28 38 29 39 76 40 30 41 81 42 75 43 77 44 31 45
REMARK SMILES IDX 80 46 74 47 73 48 32 50 62 51 43 52 61 53 44 54 47 55 60 56
REMARK SMILES IDX 78 57 45 58 46 59 59 61 79 62 48 63 33 64 34 65 42 66 35 67
REMARK SMILES IDX 41 68 36 69 37 70 38 71 39 72 40 73 63 74 64 75 72 76 65 77
REMARK SMILES IDX 71 78 66 79 67 80 68 81 69 82 70 83 49 84 50 85 58 86 51 87
REMARK SMILES IDX 57 88 52 89 53 90 54 91 55 92 56 93
REMARK H PARENT 14 8 21 30 77 49 47 60
REMARK Flexibility Score: inf
ROOT
ATOM      1  C   UNL A   1      33.408  28.951  27.135  1.00  0.00     0.002 C 
ENDROOT
BRANCH   1   2
ATOM      2  C   UNL A   1      32.852  29.012  25.706  1.00  0.00     0.002 C 
BRANCH   2   3
ATOM      3  C   UNL A   1      33.714  28.321  24.647  1.00  0.00     0.021 C 
BRANCH   3   4
ATOM      4  C   UNL A   1      33.185  26.952  24.231  1.00  0.00     0.116 C 
BRANCH   4   5
ATOM      5  N   UNL A   1      32.367  26.355  25.272  1.00  0.00    -0.352 N 
ATOM      6  C   UNL A   1      32.266  25.154  25.884  1.00  0.00     0.251 C 
ATOM      7  O   UNL A   1      31.403  25.083  26.765  1.00  0.00    -0.270 OA
ATOM      8  H   UNL A   1      31.710  26.998  25.626  1.00  0.00     0.163 HD
BRANCH   6   9
ATOM      9  C   UNL A   1      33.103  23.955  25.573  1.00  0.00     0.067 C 
ATOM     10  C   UNL A   1      37.708  19.424  24.778  1.00  0.00     0.046 C 
ATOM     11  C   UNL A   1      36.908  20.654  25.106  1.00  0.00    -0.028 A 
ATOM     12  C   UNL A   1      35.526  20.614  24.914  1.00  0.00     0.052 A 
ATOM     13  C   UNL A   1      37.493  21.845  25.582  1.00  0.00     0.047 A 
ATOM     14  C   UNL A   1      34.744  21.732  25.181  1.00  0.00     0.128 A 
ATOM     15  C   UNL A   1      36.704  22.987  25.873  1.00  0.00    -0.021 A 
ATOM     16  Cl  UNL A   1      39.217  21.878  25.808  1.00  0.00    -0.084 Cl
ATOM     17  C   UNL A   1      35.305  22.917  25.664  1.00  0.00     0.022 A 
ATOM     18  O   UNL A   1      33.410  21.556  24.974  1.00  0.00    -0.475 OA
ATOM     19  C   UNL A   1      37.314  24.269  26.389  1.00  0.00     0.047 C 
ATOM     20  C   UNL A   1      34.391  24.024  25.960  1.00  0.00     0.026 C 
ATOM     21  C   UNL A   1      32.600  22.748  24.841  1.00  0.00     0.314 C 
BRANCH  21  22
ATOM     22  C   UNL A   1      32.338  23.017  23.348  1.00  0.00     0.429 C 
ATOM     23  F   UNL A   1      32.539  21.892  22.620  1.00  0.00    -0.167 F 
ATOM     24  F   UNL A   1      31.065  23.408  23.104  1.00  0.00    -0.167 F 
ATOM     25  F   UNL A   1      33.147  23.978  22.848  1.00  0.00    -0.167 F 
ENDBRANCH  21  22
ENDBRANCH   6   9
ENDBRANCH   4   5
ENDBRANCH   3   4
ENDBRANCH   2   3
ENDBRANCH   1   2
BRANCH   1  26
ATOM     26  C   UNL A   1      34.935  28.922  27.240  1.00  0.00     0.021 C 
BRANCH  26  27
ATOM     27  C   UNL A   1      35.552  30.205  27.783  1.00  0.00     0.116 C 
BRANCH  27  28
ATOM     28  N   UNL A   1      35.449  30.278  29.232  1.00  0.00    -0.352 N 
ATOM     29  C   UNL A   1      36.363  29.904  30.181  1.00  0.00     0.251 C 
ATOM     30  H   UNL A   1      34.605  30.648  29.578  1.00  0.00     0.163 HD
ATOM     31  O   UNL A   1      36.026  29.815  31.359  1.00  0.00    -0.269 OA
BRANCH  29  32
ATOM     32  C   UNL A   1      37.748  29.601  29.776  1.00  0.00     0.039 A 
ATOM     33  C   UNL A   1      38.638  29.095  30.725  1.00  0.00     0.014 A 
ATOM     34  C   UNL A   1      38.166  29.818  28.458  1.00  0.00     0.014 A 
ATOM     35  C   UNL A   1      39.938  28.765  30.341  1.00  0.00     0.010 A 
ATOM     36  C   UNL A   1      39.437  29.419  28.061  1.00  0.00     0.010 A 
ATOM     37  C   UNL A   1      40.340  28.901  29.001  1.00  0.00    -0.014 A 
BRANCH  37  38
ATOM     38  C   UNL A   1      41.711  28.532  28.574  1.00  0.00     0.031 A 
ATOM     39  C   UNL A   1      42.796  29.572  28.557  1.00  0.00     0.074 A 
ATOM     40  C   UNL A   1      41.968  27.271  28.177  1.00  0.00     0.049 A 
ATOM     41  N   UNL A   1      44.047  29.450  28.197  1.00  0.00    -0.248 NA
ATOM     42  C   UNL A   1      42.425  30.933  28.982  1.00  0.00     0.031 C 
ATOM     43  C   UNL A   1      40.991  26.181  28.130  1.00  0.00     0.029 A 
ATOM     44  N   UNL A   1      43.133  26.689  27.742  1.00  0.00    -0.354 N 
ATOM     45  C   UNL A   1      44.610  30.711  28.352  1.00  0.00     0.074 A 
ATOM     46  C   UNL A   1      43.551  31.599  28.777  1.00  0.00     0.031 C 
ATOM     47  C   UNL A   1      41.606  25.055  27.731  1.00  0.00     0.029 A 
ATOM     48  C   UNL A   1      43.009  25.351  27.453  1.00  0.00     0.049 A 
ATOM     49  H   UNL A   1      43.979  27.184  27.647  1.00  0.00     0.167 HD
ATOM     50  C   UNL A   1      45.898  31.091  28.182  1.00  0.00     0.031 A 
ATOM     51  C   UNL A   1      43.921  24.461  27.016  1.00  0.00     0.031 A 
ATOM     52  C   UNL A   1      46.948  30.202  27.763  1.00  0.00     0.049 A 
ATOM     53  C   UNL A   1      45.336  24.918  26.791  1.00  0.00     0.074 A 
ATOM     54  C   UNL A   1      48.292  30.482  27.592  1.00  0.00     0.029 A 
ATOM     55  N   UNL A   1      46.774  28.862  27.452  1.00  0.00    -0.354 N 
ATOM     56  N   UNL A   1      45.859  26.106  26.985  1.00  0.00    -0.248 NA
ATOM     57  C   UNL A   1      46.287  23.915  26.292  1.00  0.00     0.031 C 
ATOM     58  C   UNL A   1      48.921  29.324  27.123  1.00  0.00     0.029 A 
ATOM     59  C   UNL A   1      47.981  28.308  27.062  1.00  0.00     0.049 A 
ATOM     60  H   UNL A   1      45.919  28.377  27.499  1.00  0.00     0.167 HD
ATOM     61  C   UNL A   1      47.204  25.986  26.654  1.00  0.00     0.074 A 
ATOM     62  C   UNL A   1      47.418  24.607  26.264  1.00  0.00     0.031 C 
ATOM     63  C   UNL A   1      48.175  26.933  26.671  1.00  0.00     0.031 A 
BRANCH  50  64
ATOM     64  C   UNL A   1      46.243  32.530  28.457  1.00  0.00    -0.014 A 
ATOM     65  C   UNL A   1      46.046  33.519  27.476  1.00  0.00     0.010 A 
ATOM     66  C   UNL A   1      46.719  32.910  29.725  1.00  0.00     0.010 A 
ATOM     67  C   UNL A   1      46.349  34.855  27.747  1.00  0.00     0.020 A 
ATOM     68  C   UNL A   1      46.996  34.251  30.010  1.00  0.00     0.020 A 
ATOM     69  C   UNL A   1      46.821  35.213  29.013  1.00  0.00     0.054 A 
BRANCH  69  70
ATOM     70  S   UNL A   1      47.173  36.961  29.343  1.00  0.00     0.124 S 
ATOM     71  O   UNL A   1      48.629  36.958  29.465  1.00  0.00    -0.237 OA
ATOM     72  O   UNL A   1      46.644  37.622  28.153  1.00  0.00    -0.237 OA
ATOM     73  O   UNL A   1      46.446  37.235  30.580  1.00  0.00    -0.744 OA
ENDBRANCH  69  70
ENDBRANCH  50  64
BRANCH  51  74
ATOM     74  C   UNL A   1      43.526  23.044  26.788  1.00  0.00    -0.014 A 
ATOM     75  C   UNL A   1      43.801  22.418  25.561  1.00  0.00     0.010 A 
ATOM     76  C   UNL A   1      42.897  22.304  27.806  1.00  0.00     0.010 A 
ATOM     77  C   UNL A   1      43.447  21.082  25.350  1.00  0.00     0.020 A 
ATOM     78  C   UNL A   1      42.567  20.959  27.610  1.00  0.00     0.020 A 
ATOM     79  C   UNL A   1      42.837  20.359  26.379  1.00  0.00     0.054 A 
BRANCH  79  80
ATOM     80  S   UNL A   1      42.443  18.610  26.101  1.00  0.00     0.124 S 
ATOM     81  O   UNL A   1      41.031  18.670  25.734  1.00  0.00    -0.237 OA
ATOM     82  O   UNL A   1      43.362  18.250  25.024  1.00  0.00    -0.237 OA
ATOM     83  O   UNL A   1      42.729  17.985  27.390  1.00  0.00    -0.744 OA
ENDBRANCH  79  80
ENDBRANCH  51  74
BRANCH  63  84
ATOM     84  C   UNL A   1      49.564  26.516  26.270  1.00  0.00    -0.014 A 
ATOM     85  C   UNL A   1      50.044  26.752  24.970  1.00  0.00     0.010 A 
ATOM     86  C   UNL A   1      50.428  25.957  27.231  1.00  0.00     0.010 A 
ATOM     87  C   UNL A   1      51.358  26.417  24.632  1.00  0.00     0.020 A 
ATOM     88  C   UNL A   1      51.750  25.649  26.904  1.00  0.00     0.020 A 
ATOM     89  C   UNL A   1      52.205  25.873  25.603  1.00  0.00     0.054 A 
BRANCH  89  90
ATOM     90  S   UNL A   1      53.921  25.505  25.151  1.00  0.00     0.124 S 
ATOM     91  O   UNL A   1      54.670  26.301  26.121  1.00  0.00    -0.237 OA
ATOM     92  O   UNL A   1      53.995  24.057  25.337  1.00  0.00    -0.237 OA
ATOM     93  O   UNL A   1      54.022  25.957  23.766  1.00  0.00    -0.744 OA
ENDBRANCH  89  90
ENDBRANCH  63  84
ENDBRANCH  37  38
ENDBRANCH  29  32
ENDBRANCH  27  28
ENDBRANCH  26  27
ENDBRANCH   1  26
TORSDOF 17
ENDMDL
MODEL 3
REMARK VINA RESULT:     -11.6      4.745     10.550
REMARK SMILES Cc1cc2c(c(C)c1Cl)C=C(C(=O)NCCCCCCNC(=O)c1ccc(-c3c4nc(c(-c5ccc(S(=O)(=O)[O-])cc5)c5ccc([nH]5)c(-c5ccc(S(=O)(=O)[O-])cc5)c5nc(c(-c6ccc(S(=O)(=O)[O-])cc6)c6ccc3[nH]6)C=C5)C=C4)cc1)[C@@H](C(F)(F)F)O2
REMARK SMILES IDX 18 1 17 2 16 3 15 4 14 5 12 6 13 7 11 9 1 10 2 11 3 12 8 13
REMARK SMILES IDX 4 14 6 15 9 16 5 17 89 18 7 19 10 20 84 21 85 22 86 23 87 24
REMARK SMILES IDX 88 25 19 26 20 27 21 28 22 29 23 31 24 32 25 33 83 34 26 35
REMARK SMILES IDX 82 36 27 37 28 38 29 39 76 40 30 41 81 42 75 43 77 44 31 45
REMARK SMILES IDX 80 46 74 47 73 48 32 50 62 51 43 52 61 53 44 54 47 55 60 56
REMARK SMILES IDX 78 57 45 58 46 59 59 61 79 62 48 63 33 64 34 65 42 66 35 67
REMARK SMILES IDX 41 68 36 69 37 70 38 71 39 72 40 73 63 74 64 75 72 76 65 77
REMARK SMILES IDX 71 78 66 79 67 80 68 81 69 82 70 83 49 84 50 85 58 86 51 87
REMARK SMILES IDX 57 88 52 89 53 90 54 91 55 92 56 93
REMARK H PARENT 14 8 21 30 77 49 47 60
REMARK Flexibility Score: inf
ROOT
ATOM      1  C   UNL A   1      32.666  27.627  24.310  1.00  0.00     0.002 C 
ENDROOT
BRANCH   1   2
ATOM      2  C   UNL A   1      32.030  26.832  25.457  1.00  0.00     0.002 C 
BRANCH   2   3
ATOM      3  C   UNL A   1      32.167  25.312  25.344  1.00  0.00     0.021 C 
BRANCH   3   4
ATOM      4  C   UNL A   1      33.490  24.779  25.883  1.00  0.00     0.116 C 
BRANCH   4   5
ATOM      5  N   UNL A   1      34.392  24.401  24.810  1.00  0.00    -0.352 N 
ATOM      6  C   UNL A   1      34.681  23.282  24.107  1.00  0.00     0.251 C 
ATOM      7  O   UNL A   1      35.545  23.416  23.234  1.00  0.00    -0.270 OA
ATOM      8  H   UNL A   1      34.940  25.164  24.515  1.00  0.00     0.163 HD
BRANCH   6   9
ATOM      9  C   UNL A   1      34.042  21.946  24.313  1.00  0.00     0.067 C 
ATOM     10  C   UNL A   1      32.487  15.718  25.387  1.00  0.00     0.046 C 
ATOM     11  C   UNL A   1      33.175  17.039  25.182  1.00  0.00    -0.028 A 
ATOM     12  C   UNL A   1      32.386  18.185  25.073  1.00  0.00     0.052 A 
ATOM     13  C   UNL A   1      34.575  17.166  25.079  1.00  0.00     0.047 A 
ATOM     14  C   UNL A   1      32.972  19.427  24.859  1.00  0.00     0.128 A 
ATOM     15  C   UNL A   1      35.186  18.429  24.877  1.00  0.00    -0.021 A 
ATOM     16  Cl  UNL A   1      35.541  15.726  25.210  1.00  0.00    -0.084 Cl
ATOM     17  C   UNL A   1      34.359  19.574  24.767  1.00  0.00     0.022 A 
ATOM     18  O   UNL A   1      32.096  20.467  24.794  1.00  0.00    -0.475 OA
ATOM     19  C   UNL A   1      36.685  18.585  24.770  1.00  0.00     0.047 C 
ATOM     20  C   UNL A   1      34.883  20.932  24.589  1.00  0.00     0.026 C 
ATOM     21  C   UNL A   1      32.570  21.693  24.189  1.00  0.00     0.314 C 
BRANCH  21  22
ATOM     22  C   UNL A   1      32.069  21.767  22.736  1.00  0.00     0.429 C 
ATOM     23  F   UNL A   1      31.826  20.523  22.253  1.00  0.00    -0.167 F 
ATOM     24  F   UNL A   1      30.910  22.456  22.618  1.00  0.00    -0.167 F 
ATOM     25  F   UNL A   1      32.963  22.358  21.911  1.00  0.00    -0.167 F 
ENDBRANCH  21  22
ENDBRANCH   6   9
ENDBRANCH   4   5
ENDBRANCH   3   4
ENDBRANCH   2   3
ENDBRANCH   1   2
BRANCH   1  26
ATOM     26  C   UNL A   1      33.976  28.341  24.658  1.00  0.00     0.021 C 
BRANCH  26  27
ATOM     27  C   UNL A   1      34.257  28.445  26.153  1.00  0.00     0.116 C 
BRANCH  27  28
ATOM     28  N   UNL A   1      33.913  29.758  26.673  1.00  0.00    -0.352 N 
ATOM     29  C   UNL A   1      34.561  30.506  27.620  1.00  0.00     0.251 C 
ATOM     30  H   UNL A   1      33.102  30.166  26.292  1.00  0.00     0.163 HD
ATOM     31  O   UNL A   1      34.010  31.488  28.113  1.00  0.00    -0.269 OA
BRANCH  29  32
ATOM     32  C   UNL A   1      35.918  30.119  28.049  1.00  0.00     0.039 A 
ATOM     33  C   UNL A   1      36.107  29.621  29.339  1.00  0.00     0.014 A 
ATOM     34  C   UNL A   1      37.003  30.249  27.174  1.00  0.00     0.014 A 
ATOM     35  C   UNL A   1      37.379  29.212  29.739  1.00  0.00     0.010 A 
ATOM     36  C   UNL A   1      38.254  29.772  27.548  1.00  0.00     0.010 A 
ATOM     37  C   UNL A   1      38.457  29.262  28.839  1.00  0.00    -0.014 A 
BRANCH  37  38
ATOM     38  C   UNL A   1      39.810  28.808  29.242  1.00  0.00     0.031 A 
ATOM     39  C   UNL A   1      40.696  29.717  30.048  1.00  0.00     0.074 A 
ATOM     40  C   UNL A   1      40.248  27.593  28.859  1.00  0.00     0.049 A 
ATOM     41  N   UNL A   1      41.913  29.510  30.477  1.00  0.00    -0.248 NA
ATOM     42  C   UNL A   1      40.151  31.039  30.404  1.00  0.00     0.031 C 
ATOM     43  C   UNL A   1      39.487  26.632  28.058  1.00  0.00     0.029 A 
ATOM     44  N   UNL A   1      41.438  26.954  29.099  1.00  0.00    -0.354 N 
ATOM     45  C   UNL A   1      42.279  30.670  31.150  1.00  0.00     0.074 A 
ATOM     46  C   UNL A   1      41.180  31.601  31.019  1.00  0.00     0.031 C 
ATOM     47  C   UNL A   1      40.212  25.512  27.907  1.00  0.00     0.029 A 
ATOM     48  C   UNL A   1      41.504  25.690  28.563  1.00  0.00     0.049 A 
ATOM     49  H   UNL A   1      42.176  27.363  29.606  1.00  0.00     0.167 HD
ATOM     50  C   UNL A   1      43.414  30.928  31.839  1.00  0.00     0.031 A 
ATOM     51  C   UNL A   1      42.493  24.774  28.599  1.00  0.00     0.031 A 
ATOM     52  C   UNL A   1      44.503  29.997  31.970  1.00  0.00     0.049 A 
ATOM     53  C   UNL A   1      43.765  25.102  29.332  1.00  0.00     0.074 A 
ATOM     54  C   UNL A   1      45.684  30.150  32.674  1.00  0.00     0.029 A 
ATOM     55  N   UNL A   1      44.542  28.739  31.387  1.00  0.00    -0.354 N 
ATOM     56  N   UNL A   1      44.073  26.188  30.000  1.00  0.00    -0.248 NA
ATOM     57  C   UNL A   1      44.820  24.079  29.321  1.00  0.00     0.031 C 
ATOM     58  C   UNL A   1      46.463  29.006  32.470  1.00  0.00     0.029 A 
ATOM     59  C   UNL A   1      45.740  28.115  31.692  1.00  0.00     0.049 A 
ATOM     60  H   UNL A   1      43.826  28.347  30.837  1.00  0.00     0.167 HD
ATOM     61  C   UNL A   1      45.349  25.970  30.508  1.00  0.00     0.074 A 
ATOM     62  C   UNL A   1      45.747  24.642  30.084  1.00  0.00     0.031 C 
ATOM     63  C   UNL A   1      46.122  26.795  31.257  1.00  0.00     0.031 A 
BRANCH  50  64
ATOM     64  C   UNL A   1      43.535  32.270  32.511  1.00  0.00    -0.014 A 
ATOM     65  C   UNL A   1      44.210  33.333  31.883  1.00  0.00     0.010 A 
ATOM     66  C   UNL A   1      42.922  32.490  33.758  1.00  0.00     0.010 A 
ATOM     67  C   UNL A   1      44.297  34.581  32.504  1.00  0.00     0.020 A 
ATOM     68  C   UNL A   1      42.983  33.746  34.369  1.00  0.00     0.020 A 
ATOM     69  C   UNL A   1      43.682  34.780  33.743  1.00  0.00     0.054 A 
BRANCH  69  70
ATOM     70  S   UNL A   1      43.786  36.422  34.506  1.00  0.00     0.124 S 
ATOM     71  O   UNL A   1      44.045  36.088  35.905  1.00  0.00    -0.237 OA
ATOM     72  O   UNL A   1      44.902  37.035  33.790  1.00  0.00    -0.237 OA
ATOM     73  O   UNL A   1      42.477  37.013  34.240  1.00  0.00    -0.744 OA
ENDBRANCH  69  70
ENDBRANCH  50  64
BRANCH  51  74
ATOM     74  C   UNL A   1      42.305  23.454  27.938  1.00  0.00    -0.014 A 
ATOM     75  C   UNL A   1      42.829  23.218  26.656  1.00  0.00     0.010 A 
ATOM     76  C   UNL A   1      41.626  22.413  28.599  1.00  0.00     0.010 A 
ATOM     77  C   UNL A   1      42.670  21.973  26.041  1.00  0.00     0.020 A 
ATOM     78  C   UNL A   1      41.488  21.157  27.999  1.00  0.00     0.020 A 
ATOM     79  C   UNL A   1      42.005  20.948  26.720  1.00  0.00     0.054 A 
BRANCH  79  80
ATOM     80  S   UNL A   1      41.865  19.324  25.924  1.00  0.00     0.124 S 
ATOM     81  O   UNL A   1      42.784  19.455  24.798  1.00  0.00    -0.237 OA
ATOM     82  O   UNL A   1      42.291  18.416  26.987  1.00  0.00    -0.237 OA
ATOM     83  O   UNL A   1      40.450  19.236  25.571  1.00  0.00    -0.744 OA
ENDBRANCH  79  80
ENDBRANCH  51  74
BRANCH  63  84
ATOM     84  C   UNL A   1      47.475  26.288  31.683  1.00  0.00    -0.014 A 
ATOM     85  C   UNL A   1      47.662  25.697  32.944  1.00  0.00     0.010 A 
ATOM     86  C   UNL A   1      48.550  26.330  30.776  1.00  0.00     0.010 A 
ATOM     87  C   UNL A   1      48.909  25.174  33.299  1.00  0.00     0.020 A 
ATOM     88  C   UNL A   1      49.789  25.782  31.116  1.00  0.00     0.020 A 
ATOM     89  C   UNL A   1      49.963  25.214  32.380  1.00  0.00     0.054 A 
BRANCH  89  90
ATOM     90  S   UNL A   1      51.550  24.474  32.846  1.00  0.00     0.124 S 
ATOM     91  O   UNL A   1      51.478  24.490  34.305  1.00  0.00    -0.237 OA
ATOM     92  O   UNL A   1      51.477  23.151  32.229  1.00  0.00    -0.237 OA
ATOM     93  O   UNL A   1      52.541  25.375  32.263  1.00  0.00    -0.744 OA
ENDBRANCH  89  90
ENDBRANCH  63  84
ENDBRANCH  37  38
ENDBRANCH  29  32
ENDBRANCH  27  28
ENDBRANCH  26  27
ENDBRANCH   1  26
TORSDOF 17
ENDMDL
