MODEL 1
REMARK VINA RESULT:     -12.4      0.000      0.000
REMARK SMILES O=C(NCCCCCCNC(=O)[C@H]1CC=CC[C@@H]1C(=O)Nc1ccccc1C(=O)NCc1ccco1)c1ccc(-c2c3nc(c(-c4ccc(S(=O)(=O)[O-])cc4)c4ccc([nH]4)c(-c4ccc(S(=O)(=O)[O-])cc4)c4nc(c(-c5ccc(S(=O)(=O)[O-])cc5)c5ccc2[nH]5)C=C4)C=C3)cc1
REMARK SMILES IDX 7 1 6 2 5 3 4 4 3 5 1 6 2 7 37 9 38 10 96 11 39 12 95 13
REMARK SMILES IDX 40 14 41 15 42 16 89 17 43 18 94 19 88 20 90 21 44 22 93 23
REMARK SMILES IDX 87 24 86 25 45 27 75 28 56 29 74 30 57 31 60 32 73 33 91 34
REMARK SMILES IDX 58 35 59 36 72 38 92 39 61 40 46 41 47 42 55 43 48 44 54 45
REMARK SMILES IDX 49 46 50 47 51 48 52 49 53 50 76 51 77 52 85 53 78 54 84 55
REMARK SMILES IDX 79 56 80 57 81 58 82 59 83 60 62 61 63 62 71 63 64 64 70 65
REMARK SMILES IDX 65 66 66 67 67 68 68 69 69 70 8 71 9 72 10 73 11 74 12 76
REMARK SMILES IDX 13 77 14 78 18 79 15 80 17 81 16 82 19 83 20 84 21 85 22 87
REMARK SMILES IDX 23 88 27 89 24 90 26 91 25 92 28 93 29 94 30 95 31 97 32 98
REMARK SMILES IDX 33 99 36 100 34 101 35 102
REMARK H PARENT 3 8 90 26 60 37 10 75 21 86 30 96
REMARK Flexibility Score: inf
ROOT
ATOM      1  C   UNL A   1      32.182  29.307  25.444  1.00  0.00     0.002 C 
ENDROOT
BRANCH   1   2
ATOM      2  C   UNL A   1      33.673  29.295  25.801  1.00  0.00     0.002 C 
BRANCH   2   3
ATOM      3  C   UNL A   1      33.972  29.012  27.273  1.00  0.00     0.021 C 
BRANCH   3   4
ATOM      4  C   UNL A   1      35.340  29.495  27.732  1.00  0.00     0.116 C 
BRANCH   4   5
ATOM      5  N   UNL A   1      35.354  29.839  29.149  1.00  0.00    -0.352 N 
ATOM      6  O   UNL A   1      36.145  29.839  31.265  1.00  0.00    -0.269 OA
ATOM      7  C   UNL A   1      36.363  29.680  30.065  1.00  0.00     0.251 C 
ATOM      8  H   UNL A   1      34.525  30.242  29.496  1.00  0.00     0.163 HD
BRANCH   7   9
ATOM      9  C   UNL A   1      37.708  29.297  29.593  1.00  0.00     0.039 A 
ATOM     10  C   UNL A   1      38.595  28.661  30.465  1.00  0.00     0.014 A 
ATOM     11  C   UNL A   1      38.098  29.605  28.288  1.00  0.00     0.014 A 
ATOM     12  C   UNL A   1      39.919  28.490  30.089  1.00  0.00     0.010 A 
ATOM     13  C   UNL A   1      39.405  29.330  27.877  1.00  0.00     0.010 A 
ATOM     14  C   UNL A   1      40.338  28.805  28.786  1.00  0.00    -0.014 A 
BRANCH  14  15
ATOM     15  C   UNL A   1      41.741  28.520  28.395  1.00  0.00     0.031 A 
ATOM     16  C   UNL A   1      42.807  29.580  28.475  1.00  0.00     0.074 A 
ATOM     17  C   UNL A   1      42.055  27.270  28.005  1.00  0.00     0.049 A 
ATOM     18  N   UNL A   1      44.088  29.474  28.224  1.00  0.00    -0.248 NA
ATOM     19  C   UNL A   1      42.387  30.930  28.879  1.00  0.00     0.031 C 
ATOM     20  C   UNL A   1      41.103  26.160  27.889  1.00  0.00     0.029 A 
ATOM     21  N   UNL A   1      43.258  26.707  27.665  1.00  0.00    -0.354 N 
ATOM     22  C   UNL A   1      44.621  30.746  28.410  1.00  0.00     0.074 A 
ATOM     23  C   UNL A   1      43.520  31.611  28.773  1.00  0.00     0.031 C 
ATOM     24  C   UNL A   1      41.768  25.039  27.577  1.00  0.00     0.029 A 
ATOM     25  C   UNL A   1      43.177  25.363  27.392  1.00  0.00     0.049 A 
ATOM     26  H   UNL A   1      44.099  27.218  27.622  1.00  0.00     0.167 HD
ATOM     27  C   UNL A   1      45.909  31.150  28.288  1.00  0.00     0.031 A 
ATOM     28  C   UNL A   1      44.126  24.484  27.020  1.00  0.00     0.031 A 
ATOM     29  C   UNL A   1      46.998  30.277  27.924  1.00  0.00     0.049 A 
ATOM     30  C   UNL A   1      45.537  24.968  26.863  1.00  0.00     0.074 A 
ATOM     31  C   UNL A   1      48.344  30.581  27.814  1.00  0.00     0.029 A 
ATOM     32  N   UNL A   1      46.866  28.934  27.604  1.00  0.00    -0.354 N 
ATOM     33  N   UNL A   1      46.027  26.165  27.081  1.00  0.00    -0.248 NA
ATOM     34  C   UNL A   1      46.525  23.980  26.411  1.00  0.00     0.031 C 
ATOM     35  C   UNL A   1      49.016  29.439  27.364  1.00  0.00     0.029 A 
ATOM     36  C   UNL A   1      48.100  28.403  27.264  1.00  0.00     0.049 A 
ATOM     37  H   UNL A   1      46.020  28.431  27.616  1.00  0.00     0.167 HD
ATOM     38  C   UNL A   1      47.387  26.068  26.819  1.00  0.00     0.074 A 
ATOM     39  C   UNL A   1      47.644  24.692  26.444  1.00  0.00     0.031 C 
ATOM     40  C   UNL A   1      48.339  27.032  26.885  1.00  0.00     0.031 A 
BRANCH  27  41
ATOM     41  C   UNL A   1      46.210  32.612  28.505  1.00  0.00    -0.014 A 
ATOM     42  C   UNL A   1      46.123  33.549  27.459  1.00  0.00     0.010 A 
ATOM     43  C   UNL A   1      46.550  33.065  29.795  1.00  0.00     0.010 A 
ATOM     44  C   UNL A   1      46.414  34.898  27.687  1.00  0.00     0.020 A 
ATOM     45  C   UNL A   1      46.811  34.417  30.034  1.00  0.00     0.020 A 
ATOM     46  C   UNL A   1      46.760  35.323  28.973  1.00  0.00     0.054 A 
BRANCH  46  47
ATOM     47  S   UNL A   1      47.125  37.080  29.242  1.00  0.00     0.124 S 
ATOM     48  O   UNL A   1      48.534  37.039  29.623  1.00  0.00    -0.237 OA
ATOM     49  O   UNL A   1      46.845  37.667  27.934  1.00  0.00    -0.237 OA
ATOM     50  O   UNL A   1      46.202  37.469  30.306  1.00  0.00    -0.744 OA
ENDBRANCH  46  47
ENDBRANCH  27  41
BRANCH  28  51
ATOM     51  C   UNL A   1      43.762  23.063  26.773  1.00  0.00    -0.014 A 
ATOM     52  C   UNL A   1      42.758  22.440  27.535  1.00  0.00     0.010 A 
ATOM     53  C   UNL A   1      44.402  22.331  25.755  1.00  0.00     0.010 A 
ATOM     54  C   UNL A   1      42.413  21.107  27.295  1.00  0.00     0.020 A 
ATOM     55  C   UNL A   1      44.035  21.010  25.489  1.00  0.00     0.020 A 
ATOM     56  C   UNL A   1      43.052  20.403  26.270  1.00  0.00     0.054 A 
BRANCH  56  57
ATOM     57  S   UNL A   1      42.551  18.690  25.944  1.00  0.00     0.124 S 
ATOM     58  O   UNL A   1      42.898  18.029  27.197  1.00  0.00    -0.237 OA
ATOM     59  O   UNL A   1      41.122  18.827  25.673  1.00  0.00    -0.237 OA
ATOM     60  O   UNL A   1      43.361  18.310  24.789  1.00  0.00    -0.744 OA
ENDBRANCH  56  57
ENDBRANCH  28  51
BRANCH  40  61
ATOM     61  C   UNL A   1      49.756  26.617  26.585  1.00  0.00    -0.014 A 
ATOM     62  C   UNL A   1      50.638  26.216  27.605  1.00  0.00     0.010 A 
ATOM     63  C   UNL A   1      50.202  26.606  25.250  1.00  0.00     0.010 A 
ATOM     64  C   UNL A   1      51.952  25.857  27.300  1.00  0.00     0.020 A 
ATOM     65  C   UNL A   1      51.506  26.215  24.938  1.00  0.00     0.020 A 
ATOM     66  C   UNL A   1      52.379  25.861  25.968  1.00  0.00     0.054 A 
BRANCH  66  67
ATOM     67  S   UNL A   1      54.083  25.366  25.595  1.00  0.00     0.124 S 
ATOM     68  O   UNL A   1      54.677  26.629  25.163  1.00  0.00    -0.237 OA
ATOM     69  O   UNL A   1      54.556  24.854  26.878  1.00  0.00    -0.237 OA
ATOM     70  O   UNL A   1      53.930  24.360  24.546  1.00  0.00    -0.744 OA
ENDBRANCH  66  67
ENDBRANCH  40  61
ENDBRANCH  14  15
ENDBRANCH   7   9
ENDBRANCH   4   5
ENDBRANCH   3   4
ENDBRANCH   2   3
ENDBRANCH   1   2
BRANCH   1  71
ATOM     71  C   UNL A   1      31.883  29.535  23.958  1.00  0.00     0.021 C 
BRANCH  71  72
ATOM     72  C   UNL A   1      32.940  28.943  23.032  1.00  0.00     0.116 C 
BRANCH  72  73
ATOM     73  N   UNL A   1      32.338  28.089  22.023  1.00  0.00    -0.356 N 
ATOM     74  C   UNL A   1      31.814  26.836  22.151  1.00  0.00     0.224 C 
ATOM     75  H   UNL A   1      32.303  28.470  21.116  1.00  0.00     0.163 HD
ATOM     76  O   UNL A   1      31.452  26.257  21.126  1.00  0.00    -0.275 OA
BRANCH  74  77
ATOM     77  C   UNL A   1      31.707  26.213  23.546  1.00  0.00     0.095 C 
ATOM     78  C   UNL A   1      30.382  25.420  23.640  1.00  0.00     0.041 C 
ATOM     79  C   UNL A   1      32.978  25.417  23.891  1.00  0.00     0.095 C 
ATOM     80  C   UNL A   1      30.493  23.935  23.550  1.00  0.00    -0.030 C 
ATOM     81  C   UNL A   1      32.950  24.036  23.176  1.00  0.00     0.041 C 
ATOM     82  C   UNL A   1      31.649  23.305  23.327  1.00  0.00    -0.030 C 
BRANCH  79  83
ATOM     83  C   UNL A   1      33.396  25.210  25.362  1.00  0.00     0.228 C 
ATOM     84  O   UNL A   1      32.946  25.959  26.245  1.00  0.00    -0.274 OA
ATOM     85  N   UNL A   1      34.059  24.148  25.888  1.00  0.00    -0.325 N 
ATOM     86  H   UNL A   1      33.917  24.095  26.861  1.00  0.00     0.169 HD
BRANCH  85  87
ATOM     87  C   UNL A   1      34.887  23.106  25.450  1.00  0.00     0.054 A 
ATOM     88  C   UNL A   1      35.798  23.506  24.443  1.00  0.00     0.027 A 
ATOM     89  C   UNL A   1      34.860  21.754  25.803  1.00  0.00     0.063 A 
ATOM     90  C   UNL A   1      36.797  22.655  23.967  1.00  0.00     0.002 A 
ATOM     91  C   UNL A   1      35.941  20.934  25.388  1.00  0.00     0.016 A 
ATOM     92  C   UNL A   1      36.912  21.383  24.496  1.00  0.00     0.001 A 
BRANCH  89  93
ATOM     93  C   UNL A   1      33.762  20.960  26.437  1.00  0.00     0.253 C 
ATOM     94  O   UNL A   1      33.625  21.032  27.663  1.00  0.00    -0.269 OA
ATOM     95  N   UNL A   1      32.919  20.096  25.805  1.00  0.00    -0.345 N 
ATOM     96  H   UNL A   1      32.365  19.575  26.430  1.00  0.00     0.164 HD
BRANCH  95  97
ATOM     97  C   UNL A   1      32.659  19.775  24.420  1.00  0.00     0.191 C 
BRANCH  97  98
ATOM     98  C   UNL A   1      33.215  18.441  24.101  1.00  0.00     0.122 A 
ATOM     99  C   UNL A   1      33.415  17.756  22.918  1.00  0.00     0.047 A 
ATOM    100  O   UNL A   1      33.695  17.715  25.149  1.00  0.00    -0.467 OA
ATOM    101  C   UNL A   1      34.023  16.529  23.270  1.00  0.00     0.042 A 
ATOM    102  C   UNL A   1      34.180  16.557  24.635  1.00  0.00     0.195 A 
ENDBRANCH  97  98
ENDBRANCH  95  97
ENDBRANCH  89  93
ENDBRANCH  85  87
ENDBRANCH  79  83
ENDBRANCH  74  77
ENDBRANCH  72  73
ENDBRANCH  71  72
ENDBRANCH   1  71
TORSDOF 21
ENDMDL
MODEL 2
REMARK VINA RESULT:     -12.3      6.248      9.940
REMARK SMILES O=C(NCCCCCCNC(=O)[C@H]1CC=CC[C@@H]1C(=O)Nc1ccccc1C(=O)NCc1ccco1)c1ccc(-c2c3nc(c(-c4ccc(S(=O)(=O)[O-])cc4)c4ccc([nH]4)c(-c4ccc(S(=O)(=O)[O-])cc4)c4nc(c(-c5ccc(S(=O)(=O)[O-])cc5)c5ccc2[nH]5)C=C4)C=C3)cc1
REMARK SMILES IDX 7 1 6 2 5 3 4 4 3 5 1 6 2 7 37 9 38 10 96 11 39 12 95 13
REMARK SMILES IDX 40 14 41 15 42 16 89 17 43 18 94 19 88 20 90 21 44 22 93 23
REMARK SMILES IDX 87 24 86 25 45 27 75 28 56 29 74 30 57 31 60 32 73 33 91 34
REMARK SMILES IDX 58 35 59 36 72 38 92 39 61 40 46 41 47 42 55 43 48 44 54 45
REMARK SMILES IDX 49 46 50 47 51 48 52 49 53 50 76 51 77 52 85 53 78 54 84 55
REMARK SMILES IDX 79 56 80 57 81 58 82 59 83 60 62 61 63 62 71 63 64 64 70 65
REMARK SMILES IDX 65 66 66 67 67 68 68 69 69 70 8 71 9 72 10 73 11 74 12 76
REMARK SMILES IDX 13 77 14 78 18 79 15 80 17 81 16 82 19 83 20 84 21 85 22 87
REMARK SMILES IDX 23 88 27 89 24 90 26 91 25 92 28 93 29 94 30 95 31 97 32 98
REMARK SMILES IDX 33 99 36 100 34 101 35 102
REMARK H PARENT 3 8 90 26 60 37 10 75 21 86 30 96
REMARK Flexibility Score: inf
ROOT
ATOM      1  C   UNL A   1      35.071  29.939  27.285  1.00  0.00     0.002 C 
ENDROOT
BRANCH   1   2
ATOM      2  C   UNL A   1      35.198  31.303  27.974  1.00  0.00     0.002 C 
BRANCH   2   3
ATOM      3  C   UNL A   1      33.906  32.118  28.013  1.00  0.00     0.021 C 
BRANCH   3   4
ATOM      4  C   UNL A   1      34.104  33.606  27.762  1.00  0.00     0.116 C 
BRANCH   4   5
ATOM      5  N   UNL A   1      33.276  34.426  28.638  1.00  0.00    -0.352 N 
ATOM      6  O   UNL A   1      32.464  35.167  30.611  1.00  0.00    -0.269 OA
ATOM      7  C   UNL A   1      33.363  34.596  29.997  1.00  0.00     0.251 C 
ATOM      8  H   UNL A   1      32.555  34.928  28.193  1.00  0.00     0.163 HD
BRANCH   7   9
ATOM      9  C   UNL A   1      34.540  34.067  30.713  1.00  0.00     0.039 A 
ATOM     10  C   UNL A   1      35.776  34.704  30.582  1.00  0.00     0.014 A 
ATOM     11  C   UNL A   1      34.419  32.912  31.487  1.00  0.00     0.014 A 
ATOM     12  C   UNL A   1      36.917  34.094  31.082  1.00  0.00     0.010 A 
ATOM     13  C   UNL A   1      35.556  32.358  32.082  1.00  0.00     0.010 A 
ATOM     14  C   UNL A   1      36.821  32.924  31.853  1.00  0.00    -0.014 A 
BRANCH  14  15
ATOM     15  C   UNL A   1      38.056  32.353  32.448  1.00  0.00     0.031 A 
ATOM     16  C   UNL A   1      39.003  31.514  31.632  1.00  0.00     0.074 A 
ATOM     17  C   UNL A   1      38.338  32.641  33.733  1.00  0.00     0.049 A 
ATOM     18  N   UNL A   1      40.149  30.991  31.989  1.00  0.00    -0.248 NA
ATOM     19  C   UNL A   1      38.616  31.215  30.246  1.00  0.00     0.031 C 
ATOM     20  C   UNL A   1      37.493  33.445  34.622  1.00  0.00     0.029 A 
ATOM     21  N   UNL A   1      39.422  32.323  34.511  1.00  0.00    -0.354 N 
ATOM     22  C   UNL A   1      40.606  30.279  30.886  1.00  0.00     0.074 A 
ATOM     23  C   UNL A   1      39.601  30.418  29.854  1.00  0.00     0.031 C 
ATOM     24  C   UNL A   1      38.121  33.617  35.793  1.00  0.00     0.029 A 
ATOM     25  C   UNL A   1      39.373  32.872  35.770  1.00  0.00     0.049 A 
ATOM     26  H   UNL A   1      40.163  31.757  34.196  1.00  0.00     0.167 HD
ATOM     27  C   UNL A   1      41.756  29.575  30.748  1.00  0.00     0.031 A 
ATOM     28  C   UNL A   1      40.232  32.779  36.801  1.00  0.00     0.031 A 
ATOM     29  C   UNL A   1      42.749  29.443  31.785  1.00  0.00     0.049 A 
ATOM     30  C   UNL A   1      41.482  31.966  36.630  1.00  0.00     0.074 A 
ATOM     31  C   UNL A   1      43.967  28.786  31.732  1.00  0.00     0.029 A 
ATOM     32  N   UNL A   1      42.638  29.970  33.064  1.00  0.00    -0.354 N 
ATOM     33  N   UNL A   1      41.913  31.333  35.566  1.00  0.00    -0.248 NA
ATOM     34  C   UNL A   1      42.362  31.859  37.800  1.00  0.00     0.031 C 
ATOM     35  C   UNL A   1      44.561  28.859  32.996  1.00  0.00     0.029 A 
ATOM     36  C   UNL A   1      43.749  29.625  33.818  1.00  0.00     0.049 A 
ATOM     37  H   UNL A   1      41.882  30.509  33.388  1.00  0.00     0.167 HD
ATOM     38  C   UNL A   1      43.131  30.773  35.929  1.00  0.00     0.074 A 
ATOM     39  C   UNL A   1      43.374  31.159  37.305  1.00  0.00     0.031 C 
ATOM     40  C   UNL A   1      43.974  30.010  35.189  1.00  0.00     0.031 A 
BRANCH  27  41
ATOM     41  C   UNL A   1      41.986  28.852  29.444  1.00  0.00    -0.014 A 
ATOM     42  C   UNL A   1      41.664  27.491  29.287  1.00  0.00     0.010 A 
ATOM     43  C   UNL A   1      42.500  29.560  28.341  1.00  0.00     0.010 A 
ATOM     44  C   UNL A   1      41.894  26.844  28.068  1.00  0.00     0.020 A 
ATOM     45  C   UNL A   1      42.702  28.925  27.112  1.00  0.00     0.020 A 
ATOM     46  C   UNL A   1      42.416  27.564  26.990  1.00  0.00     0.054 A 
BRANCH  46  47
ATOM     47  S   UNL A   1      42.696  26.701  25.418  1.00  0.00     0.124 S 
ATOM     48  O   UNL A   1      42.802  27.814  24.479  1.00  0.00    -0.237 OA
ATOM     49  O   UNL A   1      43.938  25.974  25.672  1.00  0.00    -0.237 OA
ATOM     50  O   UNL A   1      41.509  25.865  25.263  1.00  0.00    -0.744 OA
ENDBRANCH  46  47
ENDBRANCH  27  41
BRANCH  28  51
ATOM     51  C   UNL A   1      39.930  33.475  38.080  1.00  0.00    -0.014 A 
ATOM     52  C   UNL A   1      40.576  34.680  38.408  1.00  0.00     0.010 A 
ATOM     53  C   UNL A   1      38.973  32.948  38.968  1.00  0.00     0.010 A 
ATOM     54  C   UNL A   1      40.283  35.336  39.606  1.00  0.00     0.020 A 
ATOM     55  C   UNL A   1      38.653  33.619  40.151  1.00  0.00     0.020 A 
ATOM     56  C   UNL A   1      39.320  34.802  40.468  1.00  0.00     0.054 A 
BRANCH  56  57
ATOM     57  S   UNL A   1      38.920  35.698  41.994  1.00  0.00     0.124 S 
ATOM     58  O   UNL A   1      38.997  37.089  41.557  1.00  0.00    -0.237 OA
ATOM     59  O   UNL A   1      37.582  35.204  42.306  1.00  0.00    -0.237 OA
ATOM     60  O   UNL A   1      39.965  35.275  42.924  1.00  0.00    -0.744 OA
ENDBRANCH  56  57
ENDBRANCH  28  51
BRANCH  40  61
ATOM     61  C   UNL A   1      45.259  29.578  35.845  1.00  0.00    -0.014 A 
ATOM     62  C   UNL A   1      46.446  30.318  35.697  1.00  0.00     0.010 A 
ATOM     63  C   UNL A   1      45.270  28.418  36.643  1.00  0.00     0.010 A 
ATOM     64  C   UNL A   1      47.629  29.883  36.299  1.00  0.00     0.020 A 
ATOM     65  C   UNL A   1      46.443  27.998  37.274  1.00  0.00     0.020 A 
ATOM     66  C   UNL A   1      47.620  28.724  37.081  1.00  0.00     0.054 A 
BRANCH  66  67
ATOM     67  S   UNL A   1      49.163  28.192  37.872  1.00  0.00     0.124 S 
ATOM     68  O   UNL A   1      49.757  27.346  36.840  1.00  0.00    -0.237 OA
ATOM     69  O   UNL A   1      49.849  29.458  38.120  1.00  0.00    -0.237 OA
ATOM     70  O   UNL A   1      48.713  27.487  39.071  1.00  0.00    -0.744 OA
ENDBRANCH  66  67
ENDBRANCH  40  61
ENDBRANCH  14  15
ENDBRANCH   7   9
ENDBRANCH   4   5
ENDBRANCH   3   4
ENDBRANCH   2   3
ENDBRANCH   1   2
BRANCH   1  71
ATOM     71  C   UNL A   1      33.664  29.332  27.325  1.00  0.00     0.021 C 
BRANCH  71  72
ATOM     72  C   UNL A   1      32.835  29.649  26.084  1.00  0.00     0.116 C 
BRANCH  72  73
ATOM     73  N   UNL A   1      33.607  29.448  24.870  1.00  0.00    -0.356 N 
ATOM     74  C   UNL A   1      33.548  28.430  23.965  1.00  0.00     0.224 C 
ATOM     75  H   UNL A   1      34.269  30.149  24.672  1.00  0.00     0.163 HD
ATOM     76  O   UNL A   1      34.382  28.416  23.059  1.00  0.00    -0.275 OA
BRANCH  74  77
ATOM     77  C   UNL A   1      32.462  27.361  24.118  1.00  0.00     0.095 C 
ATOM     78  C   UNL A   1      31.197  27.819  23.355  1.00  0.00     0.041 C 
ATOM     79  C   UNL A   1      32.999  25.973  23.730  1.00  0.00     0.095 C 
ATOM     80  C   UNL A   1      30.939  27.155  22.044  1.00  0.00    -0.030 C 
ATOM     81  C   UNL A   1      33.042  25.833  22.181  1.00  0.00     0.041 C 
ATOM     82  C   UNL A   1      31.776  26.267  21.502  1.00  0.00    -0.030 C 
BRANCH  79  83
ATOM     83  C   UNL A   1      32.374  24.696  24.330  1.00  0.00     0.228 C 
ATOM     84  O   UNL A   1      31.151  24.647  24.545  1.00  0.00    -0.274 OA
ATOM     85  N   UNL A   1      32.962  23.480  24.474  1.00  0.00    -0.325 N 
ATOM     86  H   UNL A   1      32.283  22.772  24.565  1.00  0.00     0.169 HD
BRANCH  85  87
ATOM     87  C   UNL A   1      34.253  22.939  24.533  1.00  0.00     0.054 A 
ATOM     88  C   UNL A   1      35.026  23.217  23.380  1.00  0.00     0.027 A 
ATOM     89  C   UNL A   1      34.816  22.111  25.509  1.00  0.00     0.063 A 
ATOM     90  C   UNL A   1      36.378  22.883  23.295  1.00  0.00     0.002 A 
ATOM     91  C   UNL A   1      36.214  21.870  25.453  1.00  0.00     0.016 A 
ATOM     92  C   UNL A   1      36.992  22.268  24.370  1.00  0.00     0.001 A 
BRANCH  89  93
ATOM     93  C   UNL A   1      34.141  21.279  26.552  1.00  0.00     0.253 C 
ATOM     94  O   UNL A   1      34.375  21.530  27.738  1.00  0.00    -0.269 OA
ATOM     95  N   UNL A   1      33.329  20.207  26.331  1.00  0.00    -0.345 N 
ATOM     96  H   UNL A   1      33.104  19.720  27.156  1.00  0.00     0.164 HD
BRANCH  95  97
ATOM     97  C   UNL A   1      32.723  19.628  25.153  1.00  0.00     0.191 C 
BRANCH  97  98
ATOM     98  C   UNL A   1      33.228  18.250  24.955  1.00  0.00     0.122 A 
ATOM     99  C   UNL A   1      34.140  17.691  24.081  1.00  0.00     0.047 A 
ATOM    100  O   UNL A   1      32.771  17.305  25.823  1.00  0.00    -0.467 OA
ATOM    101  C   UNL A   1      34.220  16.321  24.417  1.00  0.00     0.042 A 
ATOM    102  C   UNL A   1      33.377  16.138  25.487  1.00  0.00     0.195 A 
ENDBRANCH  97  98
ENDBRANCH  95  97
ENDBRANCH  89  93
ENDBRANCH  85  87
ENDBRANCH  79  83
ENDBRANCH  74  77
ENDBRANCH  72  73
ENDBRANCH  71  72
ENDBRANCH   1  71
TORSDOF 21
ENDMDL
MODEL 3
REMARK VINA RESULT:     -12.3      0.569      7.795
REMARK SMILES O=C(NCCCCCCNC(=O)[C@H]1CC=CC[C@@H]1C(=O)Nc1ccccc1C(=O)NCc1ccco1)c1ccc(-c2c3nc(c(-c4ccc(S(=O)(=O)[O-])cc4)c4ccc([nH]4)c(-c4ccc(S(=O)(=O)[O-])cc4)c4nc(c(-c5ccc(S(=O)(=O)[O-])cc5)c5ccc2[nH]5)C=C4)C=C3)cc1
REMARK SMILES IDX 7 1 6 2 5 3 4 4 3 5 1 6 2 7 37 9 38 10 96 11 39 12 95 13
REMARK SMILES IDX 40 14 41 15 42 16 89 17 43 18 94 19 88 20 90 21 44 22 93 23
REMARK SMILES IDX 87 24 86 25 45 27 75 28 56 29 74 30 57 31 60 32 73 33 91 34
REMARK SMILES IDX 58 35 59 36 72 38 92 39 61 40 46 41 47 42 55 43 48 44 54 45
REMARK SMILES IDX 49 46 50 47 51 48 52 49 53 50 76 51 77 52 85 53 78 54 84 55
REMARK SMILES IDX 79 56 80 57 81 58 82 59 83 60 62 61 63 62 71 63 64 64 70 65
REMARK SMILES IDX 65 66 66 67 67 68 68 69 69 70 8 71 9 72 10 73 11 74 12 76
REMARK SMILES IDX 13 77 14 78 18 79 15 80 17 81 16 82 19 83 20 84 21 85 22 87
REMARK SMILES IDX 23 88 27 89 24 90 26 91 25 92 28 93 29 94 30 95 31 97 32 98
REMARK SMILES IDX 33 99 36 100 34 101 35 102
REMARK H PARENT 3 8 90 26 60 37 10 75 21 86 30 96
REMARK Flexibility Score: inf
ROOT
ATOM      1  C   UNL A   1      32.068  29.549  25.531  1.00  0.00     0.002 C 
ENDROOT
BRANCH   1   2
ATOM      2  C   UNL A   1      33.565  29.261  25.698  1.00  0.00     0.002 C 
BRANCH   2   3
ATOM      3  C   UNL A   1      33.985  28.885  27.118  1.00  0.00     0.021 C 
BRANCH   3   4
ATOM      4  C   UNL A   1      35.303  29.505  27.560  1.00  0.00     0.116 C 
BRANCH   4   5
ATOM      5  N   UNL A   1      35.287  29.884  28.968  1.00  0.00    -0.352 N 
ATOM      6  O   UNL A   1      36.030  29.932  31.100  1.00  0.00    -0.269 OA
ATOM      7  C   UNL A   1      36.275  29.742  29.910  1.00  0.00     0.251 C 
ATOM      8  H   UNL A   1      34.453  30.299  29.286  1.00  0.00     0.163 HD
BRANCH   7   9
ATOM      9  C   UNL A   1      37.628  29.342  29.478  1.00  0.00     0.039 A 
ATOM     10  C   UNL A   1      38.493  28.726  30.385  1.00  0.00     0.014 A 
ATOM     11  C   UNL A   1      38.048  29.614  28.174  1.00  0.00     0.014 A 
ATOM     12  C   UNL A   1      39.824  28.540  30.043  1.00  0.00     0.010 A 
ATOM     13  C   UNL A   1      39.362  29.323  27.799  1.00  0.00     0.010 A 
ATOM     14  C   UNL A   1      40.272  28.819  28.742  1.00  0.00    -0.014 A 
BRANCH  14  15
ATOM     15  C   UNL A   1      41.683  28.518  28.390  1.00  0.00     0.031 A 
ATOM     16  C   UNL A   1      42.103  27.143  27.945  1.00  0.00     0.074 A 
ATOM     17  C   UNL A   1      42.581  29.522  28.434  1.00  0.00     0.049 A 
ATOM     18  N   UNL A   1      43.283  26.735  27.550  1.00  0.00    -0.248 NA
ATOM     19  C   UNL A   1      41.078  26.089  27.951  1.00  0.00     0.031 C 
ATOM     20  C   UNL A   1      42.287  30.898  28.850  1.00  0.00     0.029 A 
ATOM     21  N   UNL A   1      43.909  29.557  28.098  1.00  0.00    -0.354 N 
ATOM     22  C   UNL A   1      43.151  25.375  27.290  1.00  0.00     0.074 A 
ATOM     23  C   UNL A   1      41.780  25.023  27.593  1.00  0.00     0.031 C 
ATOM     24  C   UNL A   1      43.379  31.654  28.676  1.00  0.00     0.029 A 
ATOM     25  C   UNL A   1      44.471  30.807  28.215  1.00  0.00     0.049 A 
ATOM     26  H   UNL A   1      44.412  28.765  27.802  1.00  0.00     0.167 HD
ATOM     27  C   UNL A   1      44.086  24.504  26.839  1.00  0.00     0.031 A 
ATOM     28  C   UNL A   1      45.729  31.227  27.988  1.00  0.00     0.031 A 
ATOM     29  C   UNL A   1      45.450  24.867  26.541  1.00  0.00     0.049 A 
ATOM     30  C   UNL A   1      46.750  30.233  27.520  1.00  0.00     0.074 A 
ATOM     31  C   UNL A   1      46.463  24.068  26.041  1.00  0.00     0.029 A 
ATOM     32  N   UNL A   1      45.993  26.131  26.722  1.00  0.00    -0.354 N 
ATOM     33  N   UNL A   1      46.595  28.961  27.243  1.00  0.00    -0.248 NA
ATOM     34  C   UNL A   1      48.117  30.734  27.333  1.00  0.00     0.031 C 
ATOM     35  C   UNL A   1      47.635  24.831  25.982  1.00  0.00     0.029 A 
ATOM     36  C   UNL A   1      47.335  26.125  26.376  1.00  0.00     0.049 A 
ATOM     37  H   UNL A   1      45.499  26.916  27.049  1.00  0.00     0.167 HD
ATOM     38  C   UNL A   1      47.840  28.514  26.821  1.00  0.00     0.074 A 
ATOM     39  C   UNL A   1      48.731  29.656  26.863  1.00  0.00     0.031 C 
ATOM     40  C   UNL A   1      48.212  27.269  26.430  1.00  0.00     0.031 A 
BRANCH  27  41
ATOM     41  C   UNL A   1      43.684  23.058  26.682  1.00  0.00    -0.014 A 
ATOM     42  C   UNL A   1      42.938  22.388  27.669  1.00  0.00     0.010 A 
ATOM     43  C   UNL A   1      44.025  22.369  25.503  1.00  0.00     0.010 A 
ATOM     44  C   UNL A   1      42.583  21.045  27.501  1.00  0.00     0.020 A 
ATOM     45  C   UNL A   1      43.646  21.036  25.317  1.00  0.00     0.020 A 
ATOM     46  C   UNL A   1      42.943  20.377  26.327  1.00  0.00     0.054 A 
BRANCH  46  47
ATOM     47  S   UNL A   1      42.463  18.638  26.131  1.00  0.00     0.124 S 
ATOM     48  O   UNL A   1      42.715  18.104  27.467  1.00  0.00    -0.237 OA
ATOM     49  O   UNL A   1      41.055  18.737  25.751  1.00  0.00    -0.237 OA
ATOM     50  O   UNL A   1      43.354  18.145  25.084  1.00  0.00    -0.744 OA
ENDBRANCH  46  47
ENDBRANCH  27  41
BRANCH  28  51
ATOM     51  C   UNL A   1      46.080  32.656  28.205  1.00  0.00    -0.014 A 
ATOM     52  C   UNL A   1      46.132  33.552  27.122  1.00  0.00     0.010 A 
ATOM     53  C   UNL A   1      46.341  33.136  29.503  1.00  0.00     0.010 A 
ATOM     54  C   UNL A   1      46.454  34.896  27.331  1.00  0.00     0.020 A 
ATOM     55  C   UNL A   1      46.629  34.485  29.719  1.00  0.00     0.020 A 
ATOM     56  C   UNL A   1      46.698  35.354  28.629  1.00  0.00     0.054 A 
BRANCH  56  57
ATOM     57  S   UNL A   1      47.064  37.112  28.881  1.00  0.00     0.124 S 
ATOM     58  O   UNL A   1      48.510  37.150  28.690  1.00  0.00    -0.237 OA
ATOM     59  O   UNL A   1      46.269  37.751  27.835  1.00  0.00    -0.237 OA
ATOM     60  O   UNL A   1      46.604  37.367  30.244  1.00  0.00    -0.744 OA
ENDBRANCH  56  57
ENDBRANCH  28  51
BRANCH  40  61
ATOM     61  C   UNL A   1      49.637  27.091  25.977  1.00  0.00    -0.014 A 
ATOM     62  C   UNL A   1      50.026  27.347  24.650  1.00  0.00     0.010 A 
ATOM     63  C   UNL A   1      50.610  26.681  26.909  1.00  0.00     0.010 A 
ATOM     64  C   UNL A   1      51.350  27.153  24.253  1.00  0.00     0.020 A 
ATOM     65  C   UNL A   1      51.942  26.518  26.523  1.00  0.00     0.020 A 
ATOM     66  C   UNL A   1      52.300  26.737  25.191  1.00  0.00     0.054 A 
BRANCH  66  67
ATOM     67  S   UNL A   1      54.018  26.516  24.657  1.00  0.00     0.124 S 
ATOM     68  O   UNL A   1      54.529  27.884  24.703  1.00  0.00    -0.237 OA
ATOM     69  O   UNL A   1      54.555  25.611  25.670  1.00  0.00    -0.237 OA
ATOM     70  O   UNL A   1      53.895  25.943  23.318  1.00  0.00    -0.744 OA
ENDBRANCH  66  67
ENDBRANCH  40  61
ENDBRANCH  14  15
ENDBRANCH   7   9
ENDBRANCH   4   5
ENDBRANCH   3   4
ENDBRANCH   2   3
ENDBRANCH   1   2
BRANCH   1  71
ATOM     71  C   UNL A   1      31.562  29.482  24.086  1.00  0.00     0.021 C 
BRANCH  71  72
ATOM     72  C   UNL A   1      32.647  29.102  23.083  1.00  0.00     0.116 C 
BRANCH  72  73
ATOM     73  N   UNL A   1      32.126  28.221  22.052  1.00  0.00    -0.356 N 
ATOM     74  C   UNL A   1      31.657  26.945  22.160  1.00  0.00     0.224 C 
ATOM     75  H   UNL A   1      32.108  28.601  21.144  1.00  0.00     0.163 HD
ATOM     76  O   UNL A   1      31.364  26.350  21.123  1.00  0.00    -0.275 OA
BRANCH  74  77
ATOM     77  C   UNL A   1      31.525  26.316  23.551  1.00  0.00     0.095 C 
ATOM     78  C   UNL A   1      30.191  25.536  23.623  1.00  0.00     0.041 C 
ATOM     79  C   UNL A   1      32.783  25.507  23.909  1.00  0.00     0.095 C 
ATOM     80  C   UNL A   1      30.290  24.050  23.528  1.00  0.00    -0.030 C 
ATOM     81  C   UNL A   1      32.752  24.129  23.187  1.00  0.00     0.041 C 
ATOM     82  C   UNL A   1      31.442  23.410  23.317  1.00  0.00    -0.030 C 
BRANCH  79  83
ATOM     83  C   UNL A   1      33.179  25.288  25.384  1.00  0.00     0.228 C 
ATOM     84  O   UNL A   1      32.678  25.999  26.273  1.00  0.00    -0.274 OA
ATOM     85  N   UNL A   1      33.877  24.245  25.905  1.00  0.00    -0.325 N 
ATOM     86  H   UNL A   1      33.718  24.167  26.873  1.00  0.00     0.169 HD
BRANCH  85  87
ATOM     87  C   UNL A   1      34.759  23.249  25.465  1.00  0.00     0.054 A 
ATOM     88  C   UNL A   1      35.620  23.687  24.430  1.00  0.00     0.027 A 
ATOM     89  C   UNL A   1      34.824  21.904  25.841  1.00  0.00     0.063 A 
ATOM     90  C   UNL A   1      36.660  22.891  23.945  1.00  0.00     0.002 A 
ATOM     91  C   UNL A   1      35.946  21.147  25.414  1.00  0.00     0.016 A 
ATOM     92  C   UNL A   1      36.866  21.639  24.492  1.00  0.00     0.001 A 
BRANCH  89  93
ATOM     93  C   UNL A   1      33.794  21.056  26.514  1.00  0.00     0.253 C 
ATOM     94  O   UNL A   1      33.729  21.086  27.747  1.00  0.00    -0.269 OA
ATOM     95  N   UNL A   1      32.942  20.183  25.906  1.00  0.00    -0.345 N 
ATOM     96  H   UNL A   1      32.443  19.625  26.546  1.00  0.00     0.164 HD
BRANCH  95  97
ATOM     97  C   UNL A   1      32.609  19.895  24.530  1.00  0.00     0.191 C 
BRANCH  97  98
ATOM     98  C   UNL A   1      33.268  18.638  24.106  1.00  0.00     0.122 A 
ATOM     99  C   UNL A   1      34.225  17.828  24.685  1.00  0.00     0.047 A 
ATOM    100  O   UNL A   1      32.841  18.094  22.932  1.00  0.00    -0.467 OA
ATOM    101  C   UNL A   1      34.414  16.744  23.798  1.00  0.00     0.042 A 
ATOM    102  C   UNL A   1      33.544  16.947  22.753  1.00  0.00     0.195 A 
ENDBRANCH  97  98
ENDBRANCH  95  97
ENDBRANCH  89  93
ENDBRANCH  85  87
ENDBRANCH  79  83
ENDBRANCH  74  77
ENDBRANCH  72  73
ENDBRANCH  71  72
ENDBRANCH   1  71
TORSDOF 21
ENDMDL
