MODEL 1
REMARK VINA RESULT:      -9.1      0.000      0.000
REMARK SMILES CC[C@H](C)C[C@@H](CC)[N@@H+]1CCO[C@H](CC(=O)NCCCCCCNC(=O)c2ccc(-c3c4nc(c(-c5ccc(S(=O)(=O)[O-])cc5)c5ccc([nH]5)c(-c5ccc(S(=O)(=O)[O-])cc5)c5nc(c(-c6ccc(S(=O)(=O)[O-])cc6)c6ccc3[nH]6)C=C5)C=C4)cc2)C1
REMARK SMILES IDX 19 1 18 2 17 3 15 4 16 5 14 7 13 8 9 9 10 10 87 11 11 13
REMARK SMILES IDX 12 14 6 15 5 16 3 17 4 18 2 19 1 20 7 21 8 22 20 23 21 24
REMARK SMILES IDX 22 25 23 26 24 27 25 28 26 30 27 31 28 32 86 33 29 34 85 35
REMARK SMILES IDX 30 36 31 37 32 38 79 39 33 40 84 41 78 42 80 43 34 44 83 45
REMARK SMILES IDX 77 46 76 47 35 49 65 50 46 51 64 52 47 53 50 54 63 55 81 56
REMARK SMILES IDX 48 57 49 58 62 60 82 61 51 62 36 63 37 64 45 65 38 66 44 67
REMARK SMILES IDX 39 68 40 69 41 70 42 71 43 72 66 73 67 74 75 75 68 76 74 77
REMARK SMILES IDX 69 78 70 79 71 80 72 81 73 82 52 83 53 84 61 85 54 86 60 87
REMARK SMILES IDX 55 88 56 89 57 90 58 91 59 92
REMARK H PARENT 17 6 9 12 24 29 80 48 50 59
REMARK Flexibility Score: inf
ROOT
ATOM      1  C   UNL A   1      34.245  31.049  27.294  1.00  0.00     0.021 C 
ENDROOT
BRANCH   1   2
ATOM      2  C   UNL A   1      34.222  29.513  27.160  1.00  0.00     0.116 C 
BRANCH   2   3
ATOM      3  N   UNL A   1      33.000  28.937  27.710  1.00  0.00    -0.356 N 
ATOM      4  C   UNL A   1      32.031  28.118  27.214  1.00  0.00     0.222 C 
ATOM      5  O   UNL A   1      31.106  27.845  27.990  1.00  0.00    -0.275 OA
ATOM      6  H   UNL A   1      32.841  29.198  28.646  1.00  0.00     0.163 HD
BRANCH   4   7
ATOM      7  C   UNL A   1      32.098  27.417  25.867  1.00  0.00     0.138 C 
BRANCH   7   8
ATOM      8  C   UNL A   1      30.847  27.046  25.047  1.00  0.00     0.182 C 
ATOM      9  N   UNL A   1      31.351  24.651  24.281  1.00  0.00    -0.328 N 
ATOM     10  C   UNL A   1      31.508  25.231  22.935  1.00  0.00     0.291 C 
ATOM     11  C   UNL A   1      30.455  25.550  25.042  1.00  0.00     0.295 C 
ATOM     12  H   UNL A   1      30.939  23.729  24.137  1.00  0.00     0.348 HD
ATOM     13  C   UNL A   1      31.447  26.777  22.752  1.00  0.00     0.222 C 
ATOM     14  O   UNL A   1      30.757  27.552  23.724  1.00  0.00    -0.366 OA
BRANCH   9  15
ATOM     15  C   UNL A   1      32.532  24.149  25.027  1.00  0.00     0.184 C 
BRANCH  15  16
ATOM     16  C   UNL A   1      32.282  22.702  25.543  1.00  0.00     0.068 C 
BRANCH  16  17
ATOM     17  C   UNL A   1      33.066  21.558  24.855  1.00  0.00    -0.009 C 
ATOM     18  C   UNL A   1      33.405  20.388  25.789  1.00  0.00     0.008 C 
BRANCH  17  19
ATOM     19  C   UNL A   1      32.293  21.028  23.620  1.00  0.00    -0.000 C 
ATOM     20  C   UNL A   1      32.426  19.529  23.356  1.00  0.00     0.004 C 
ENDBRANCH  17  19
ENDBRANCH  16  17
ENDBRANCH  15  16
BRANCH  15  21
ATOM     21  C   UNL A   1      33.926  24.244  24.359  1.00  0.00     0.061 C 
ATOM     22  C   UNL A   1      35.119  24.463  25.267  1.00  0.00     0.010 C 
ENDBRANCH  15  21
ENDBRANCH   9  15
ENDBRANCH   7   8
ENDBRANCH   4   7
ENDBRANCH   2   3
ENDBRANCH   1   2
BRANCH   1  23
ATOM     23  C   UNL A   1      35.211  31.634  28.322  1.00  0.00     0.002 C 
BRANCH  23  24
ATOM     24  C   UNL A   1      35.112  33.143  28.559  1.00  0.00     0.002 C 
BRANCH  24  25
ATOM     25  C   UNL A   1      33.711  33.765  28.629  1.00  0.00     0.021 C 
BRANCH  25  26
ATOM     26  C   UNL A   1      33.596  35.222  29.073  1.00  0.00     0.116 C 
BRANCH  26  27
ATOM     27  N   UNL A   1      32.843  35.386  30.298  1.00  0.00    -0.352 N 
ATOM     28  C   UNL A   1      33.089  34.978  31.584  1.00  0.00     0.251 C 
ATOM     29  H   UNL A   1      32.000  35.883  30.189  1.00  0.00     0.163 HD
ATOM     30  O   UNL A   1      32.202  35.135  32.422  1.00  0.00    -0.269 OA
BRANCH  28  31
ATOM     31  C   UNL A   1      34.368  34.342  31.989  1.00  0.00     0.039 A 
ATOM     32  C   UNL A   1      35.513  35.148  32.016  1.00  0.00     0.014 A 
ATOM     33  C   UNL A   1      34.489  32.976  32.260  1.00  0.00     0.014 A 
ATOM     34  C   UNL A   1      36.755  34.600  32.347  1.00  0.00     0.010 A 
ATOM     35  C   UNL A   1      35.720  32.441  32.657  1.00  0.00     0.010 A 
ATOM     36  C   UNL A   1      36.869  33.245  32.696  1.00  0.00    -0.014 A 
BRANCH  36  37
ATOM     37  C   UNL A   1      38.187  32.687  33.106  1.00  0.00     0.031 A 
ATOM     38  C   UNL A   1      38.743  32.936  34.484  1.00  0.00     0.074 A 
ATOM     39  C   UNL A   1      38.892  31.950  32.225  1.00  0.00     0.049 A 
ATOM     40  N   UNL A   1      39.844  32.477  35.024  1.00  0.00    -0.248 NA
ATOM     41  C   UNL A   1      37.974  33.830  35.365  1.00  0.00     0.031 C 
ATOM     42  C   UNL A   1      38.491  31.673  30.843  1.00  0.00     0.029 A 
ATOM     43  N   UNL A   1      40.088  31.289  32.360  1.00  0.00    -0.354 N 
ATOM     44  C   UNL A   1      39.905  33.027  36.299  1.00  0.00     0.074 A 
ATOM     45  C   UNL A   1      38.754  33.893  36.436  1.00  0.00     0.031 C 
ATOM     46  C   UNL A   1      39.404  30.871  30.272  1.00  0.00     0.029 A 
ATOM     47  C   UNL A   1      40.468  30.599  31.233  1.00  0.00     0.049 A 
ATOM     48  H   UNL A   1      40.624  31.307  33.186  1.00  0.00     0.167 HD
ATOM     49  C   UNL A   1      40.823  32.819  37.275  1.00  0.00     0.031 A 
ATOM     50  C   UNL A   1      41.546  29.827  30.995  1.00  0.00     0.031 A 
ATOM     51  C   UNL A   1      41.967  31.954  37.140  1.00  0.00     0.049 A 
ATOM     52  C   UNL A   1      42.542  29.599  32.098  1.00  0.00     0.074 A 
ATOM     53  C   UNL A   1      42.922  31.634  38.090  1.00  0.00     0.029 A 
ATOM     54  N   UNL A   1      42.315  31.272  35.983  1.00  0.00    -0.354 N 
ATOM     55  N   UNL A   1      42.540  30.071  33.322  1.00  0.00    -0.248 NA
ATOM     56  C   UNL A   1      43.677  28.717  31.791  1.00  0.00     0.031 C 
ATOM     57  C   UNL A   1      43.875  30.800  37.493  1.00  0.00     0.029 A 
ATOM     58  C   UNL A   1      43.482  30.554  36.187  1.00  0.00     0.049 A 
ATOM     59  H   UNL A   1      41.806  31.296  35.140  1.00  0.00     0.167 HD
ATOM     60  C   UNL A   1      43.662  29.529  33.938  1.00  0.00     0.074 A 
ATOM     61  C   UNL A   1      44.304  28.674  32.960  1.00  0.00     0.031 C 
ATOM     62  C   UNL A   1      44.122  29.722  35.200  1.00  0.00     0.031 A 
BRANCH  49  63
ATOM     63  C   UNL A   1      40.633  33.549  38.580  1.00  0.00    -0.014 A 
ATOM     64  C   UNL A   1      41.199  34.819  38.792  1.00  0.00     0.010 A 
ATOM     65  C   UNL A   1      39.838  32.980  39.592  1.00  0.00     0.010 A 
ATOM     66  C   UNL A   1      41.008  35.489  40.004  1.00  0.00     0.020 A 
ATOM     67  C   UNL A   1      39.622  33.658  40.796  1.00  0.00     0.020 A 
ATOM     68  C   UNL A   1      40.222  34.901  41.001  1.00  0.00     0.054 A 
BRANCH  68  69
ATOM     69  S   UNL A   1      39.973  35.803  42.555  1.00  0.00     0.124 S 
ATOM     70  O   UNL A   1      40.785  36.999  42.343  1.00  0.00    -0.237 OA
ATOM     71  O   UNL A   1      38.530  36.018  42.575  1.00  0.00    -0.237 OA
ATOM     72  O   UNL A   1      40.476  34.882  43.574  1.00  0.00    -0.744 OA
ENDBRANCH  68  69
ENDBRANCH  49  63
BRANCH  50  73
ATOM     73  C   UNL A   1      41.724  29.192  29.660  1.00  0.00    -0.014 A 
ATOM     74  C   UNL A   1      42.378  29.877  28.622  1.00  0.00     0.010 A 
ATOM     75  C   UNL A   1      41.251  27.888  29.429  1.00  0.00     0.010 A 
ATOM     76  C   UNL A   1      42.539  29.277  27.369  1.00  0.00     0.020 A 
ATOM     77  C   UNL A   1      41.435  27.274  28.187  1.00  0.00     0.020 A 
ATOM     78  C   UNL A   1      42.069  27.978  27.161  1.00  0.00     0.054 A 
BRANCH  78  79
ATOM     79  S   UNL A   1      42.339  27.194  25.546  1.00  0.00     0.124 S 
ATOM     80  O   UNL A   1      42.334  28.344  24.647  1.00  0.00    -0.237 OA
ATOM     81  O   UNL A   1      43.630  26.536  25.726  1.00  0.00    -0.237 OA
ATOM     82  O   UNL A   1      41.201  26.288  25.412  1.00  0.00    -0.744 OA
ENDBRANCH  78  79
ENDBRANCH  50  73
BRANCH  62  83
ATOM     83  C   UNL A   1      45.371  28.979  35.594  1.00  0.00    -0.014 A 
ATOM     84  C   UNL A   1      45.307  27.690  36.153  1.00  0.00     0.010 A 
ATOM     85  C   UNL A   1      46.629  29.577  35.395  1.00  0.00     0.010 A 
ATOM     86  C   UNL A   1      46.473  27.036  36.558  1.00  0.00     0.020 A 
ATOM     87  C   UNL A   1      47.800  28.914  35.771  1.00  0.00     0.020 A 
ATOM     88  C   UNL A   1      47.712  27.656  36.371  1.00  0.00     0.054 A 
BRANCH  88  89
ATOM     89  S   UNL A   1      49.213  26.789  36.904  1.00  0.00     0.124 S 
ATOM     90  O   UNL A   1      49.668  27.623  38.014  1.00  0.00    -0.237 OA
ATOM     91  O   UNL A   1      48.709  25.469  37.276  1.00  0.00    -0.237 OA
ATOM     92  O   UNL A   1      50.065  26.812  35.717  1.00  0.00    -0.744 OA
ENDBRANCH  88  89
ENDBRANCH  62  83
ENDBRANCH  36  37
ENDBRANCH  28  31
ENDBRANCH  26  27
ENDBRANCH  25  26
ENDBRANCH  24  25
ENDBRANCH  23  24
ENDBRANCH   1  23
TORSDOF 22
ENDMDL
MODEL 2
REMARK VINA RESULT:      -8.9      2.749      9.064
REMARK SMILES CC[C@H](C)C[C@@H](CC)[N@@H+]1CCO[C@H](CC(=O)NCCCCCCNC(=O)c2ccc(-c3c4nc(c(-c5ccc(S(=O)(=O)[O-])cc5)c5ccc([nH]5)c(-c5ccc(S(=O)(=O)[O-])cc5)c5nc(c(-c6ccc(S(=O)(=O)[O-])cc6)c6ccc3[nH]6)C=C5)C=C4)cc2)C1
REMARK SMILES IDX 19 1 18 2 17 3 15 4 16 5 14 7 13 8 9 9 10 10 87 11 11 13
REMARK SMILES IDX 12 14 6 15 5 16 3 17 4 18 2 19 1 20 7 21 8 22 20 23 21 24
REMARK SMILES IDX 22 25 23 26 24 27 25 28 26 30 27 31 28 32 86 33 29 34 85 35
REMARK SMILES IDX 30 36 31 37 32 38 79 39 33 40 84 41 78 42 80 43 34 44 83 45
REMARK SMILES IDX 77 46 76 47 35 49 65 50 46 51 64 52 47 53 50 54 63 55 81 56
REMARK SMILES IDX 48 57 49 58 62 60 82 61 51 62 36 63 37 64 45 65 38 66 44 67
REMARK SMILES IDX 39 68 40 69 41 70 42 71 43 72 66 73 67 74 75 75 68 76 74 77
REMARK SMILES IDX 69 78 70 79 71 80 72 81 73 82 52 83 53 84 61 85 54 86 60 87
REMARK SMILES IDX 55 88 56 89 57 90 58 91 59 92
REMARK H PARENT 17 6 9 12 24 29 80 48 50 59
REMARK Flexibility Score: inf
ROOT
ATOM      1  C   UNL A   1      36.804  22.021  24.528  1.00  0.00     0.021 C 
ENDROOT
BRANCH   1   2
ATOM      2  C   UNL A   1      35.933  23.082  23.826  1.00  0.00     0.116 C 
BRANCH   2   3
ATOM      3  N   UNL A   1      35.164  23.872  24.779  1.00  0.00    -0.356 N 
ATOM      4  C   UNL A   1      34.373  24.978  24.676  1.00  0.00     0.222 C 
ATOM      5  O   UNL A   1      33.882  25.390  25.734  1.00  0.00    -0.275 OA
ATOM      6  H   UNL A   1      35.229  23.531  25.700  1.00  0.00     0.163 HD
BRANCH   4   7
ATOM      7  C   UNL A   1      33.947  25.615  23.364  1.00  0.00     0.138 C 
BRANCH   7   8
ATOM      8  C   UNL A   1      33.068  24.895  22.323  1.00  0.00     0.182 C 
ATOM      9  N   UNL A   1      30.687  25.450  23.100  1.00  0.00    -0.328 N 
ATOM     10  C   UNL A   1      30.600  24.030  23.489  1.00  0.00     0.291 C 
ATOM     11  C   UNL A   1      31.697  25.547  22.023  1.00  0.00     0.295 C 
ATOM     12  H   UNL A   1      29.753  25.704  22.776  1.00  0.00     0.348 HD
ATOM     13  C   UNL A   1      31.864  23.125  23.381  1.00  0.00     0.222 C 
ATOM     14  O   UNL A   1      32.892  23.494  22.470  1.00  0.00    -0.366 OA
BRANCH   9  15
ATOM     15  C   UNL A   1      30.757  26.512  24.135  1.00  0.00     0.184 C 
BRANCH  15  16
ATOM     16  C   UNL A   1      29.788  27.679  23.790  1.00  0.00     0.068 C 
BRANCH  16  17
ATOM     17  C   UNL A   1      30.415  29.074  23.551  1.00  0.00    -0.009 C 
ATOM     18  C   UNL A   1      29.390  30.167  23.216  1.00  0.00     0.008 C 
BRANCH  17  19
ATOM     19  C   UNL A   1      31.259  29.514  24.775  1.00  0.00    -0.000 C 
ATOM     20  C   UNL A   1      32.765  29.281  24.652  1.00  0.00     0.004 C 
ENDBRANCH  17  19
ENDBRANCH  16  17
ENDBRANCH  15  16
BRANCH  15  21
ATOM     21  C   UNL A   1      30.599  26.108  25.622  1.00  0.00     0.061 C 
ATOM     22  C   UNL A   1      29.424  25.220  25.981  1.00  0.00     0.010 C 
ENDBRANCH  15  21
ENDBRANCH   9  15
ENDBRANCH   7   8
ENDBRANCH   4   7
ENDBRANCH   2   3
ENDBRANCH   1   2
BRANCH   1  23
ATOM     23  C   UNL A   1      38.087  22.515  25.192  1.00  0.00     0.002 C 
BRANCH  23  24
ATOM     24  C   UNL A   1      38.654  21.633  26.307  1.00  0.00     0.002 C 
BRANCH  24  25
ATOM     25  C   UNL A   1      40.127  21.827  26.692  1.00  0.00     0.021 C 
BRANCH  25  26
ATOM     26  C   UNL A   1      40.567  23.212  27.161  1.00  0.00     0.116 C 
BRANCH  26  27
ATOM     27  N   UNL A   1      41.155  24.011  26.106  1.00  0.00    -0.352 N 
ATOM     28  C   UNL A   1      41.444  25.348  26.026  1.00  0.00     0.251 C 
ATOM     29  H   UNL A   1      41.391  23.499  25.299  1.00  0.00     0.163 HD
ATOM     30  O   UNL A   1      41.822  25.796  24.943  1.00  0.00    -0.269 OA
BRANCH  28  31
ATOM     31  C   UNL A   1      41.300  26.268  27.182  1.00  0.00     0.039 A 
ATOM     32  C   UNL A   1      40.229  26.047  28.056  1.00  0.00     0.014 A 
ATOM     33  C   UNL A   1      42.127  27.378  27.382  1.00  0.00     0.014 A 
ATOM     34  C   UNL A   1      40.013  26.904  29.140  1.00  0.00     0.010 A 
ATOM     35  C   UNL A   1      41.951  28.196  28.504  1.00  0.00     0.010 A 
ATOM     36  C   UNL A   1      40.886  27.974  29.391  1.00  0.00    -0.014 A 
BRANCH  36  37
ATOM     37  C   UNL A   1      40.682  28.842  30.582  1.00  0.00     0.031 A 
ATOM     38  C   UNL A   1      41.545  28.697  31.809  1.00  0.00     0.074 A 
ATOM     39  C   UNL A   1      39.704  29.770  30.560  1.00  0.00     0.049 A 
ATOM     40  N   UNL A   1      41.540  29.409  32.908  1.00  0.00    -0.248 NA
ATOM     41  C   UNL A   1      42.527  27.602  31.811  1.00  0.00     0.031 C 
ATOM     42  C   UNL A   1      38.766  29.982  29.454  1.00  0.00     0.029 A 
ATOM     43  N   UNL A   1      39.340  30.716  31.486  1.00  0.00    -0.354 N 
ATOM     44  C   UNL A   1      42.509  28.848  33.732  1.00  0.00     0.074 A 
ATOM     45  C   UNL A   1      43.048  27.706  33.026  1.00  0.00     0.031 C 
ATOM     46  C   UNL A   1      37.962  31.016  29.750  1.00  0.00     0.029 A 
ATOM     47  C   UNL A   1      38.305  31.522  31.075  1.00  0.00     0.049 A 
ATOM     48  H   UNL A   1      39.780  30.809  32.363  1.00  0.00     0.167 HD
ATOM     49  C   UNL A   1      42.926  29.254  34.957  1.00  0.00     0.031 A 
ATOM     50  C   UNL A   1      37.700  32.558  31.689  1.00  0.00     0.031 A 
ATOM     51  C   UNL A   1      42.391  30.392  35.658  1.00  0.00     0.049 A 
ATOM     52  C   UNL A   1      38.190  32.999  33.040  1.00  0.00     0.074 A 
ATOM     53  C   UNL A   1      42.786  30.916  36.878  1.00  0.00     0.029 A 
ATOM     54  N   UNL A   1      41.345  31.183  35.208  1.00  0.00    -0.354 N 
ATOM     55  N   UNL A   1      39.159  32.498  33.769  1.00  0.00    -0.248 NA
ATOM     56  C   UNL A   1      37.516  34.157  33.641  1.00  0.00     0.031 C 
ATOM     57  C   UNL A   1      41.946  31.992  37.188  1.00  0.00     0.029 A 
ATOM     58  C   UNL A   1      41.064  32.175  36.135  1.00  0.00     0.049 A 
ATOM     59  H   UNL A   1      40.870  31.058  34.354  1.00  0.00     0.167 HD
ATOM     60  C   UNL A   1      39.224  33.292  34.908  1.00  0.00     0.074 A 
ATOM     61  C   UNL A   1      38.214  34.321  34.758  1.00  0.00     0.031 C 
ATOM     62  C   UNL A   1      40.044  33.180  35.983  1.00  0.00     0.031 A 
BRANCH  49  63
ATOM     63  C   UNL A   1      44.014  28.452  35.626  1.00  0.00    -0.014 A 
ATOM     64  C   UNL A   1      45.372  28.734  35.391  1.00  0.00     0.010 A 
ATOM     65  C   UNL A   1      43.676  27.436  36.538  1.00  0.00     0.010 A 
ATOM     66  C   UNL A   1      46.372  27.988  36.024  1.00  0.00     0.020 A 
ATOM     67  C   UNL A   1      44.672  26.705  37.193  1.00  0.00     0.020 A 
ATOM     68  C   UNL A   1      46.014  26.975  36.919  1.00  0.00     0.054 A 
BRANCH  68  69
ATOM     69  S   UNL A   1      47.332  26.039  37.743  1.00  0.00     0.124 S 
ATOM     70  O   UNL A   1      48.257  27.099  38.132  1.00  0.00    -0.237 OA
ATOM     71  O   UNL A   1      46.625  25.386  38.840  1.00  0.00    -0.237 OA
ATOM     72  O   UNL A   1      47.821  25.138  36.699  1.00  0.00    -0.744 OA
ENDBRANCH  68  69
ENDBRANCH  49  63
BRANCH  50  73
ATOM     73  C   UNL A   1      36.577  33.266  31.015  1.00  0.00    -0.014 A 
ATOM     74  C   UNL A   1      35.353  33.463  31.676  1.00  0.00     0.010 A 
ATOM     75  C   UNL A   1      36.735  33.759  29.707  1.00  0.00     0.010 A 
ATOM     76  C   UNL A   1      34.300  34.125  31.037  1.00  0.00     0.020 A 
ATOM     77  C   UNL A   1      35.696  34.447  29.075  1.00  0.00     0.020 A 
ATOM     78  C   UNL A   1      34.480  34.615  29.741  1.00  0.00     0.054 A 
BRANCH  78  79
ATOM     79  S   UNL A   1      33.122  35.522  28.949  1.00  0.00     0.124 S 
ATOM     80  O   UNL A   1      33.838  36.569  28.227  1.00  0.00    -0.237 OA
ATOM     81  O   UNL A   1      32.496  34.495  28.121  1.00  0.00    -0.237 OA
ATOM     82  O   UNL A   1      32.313  35.979  30.077  1.00  0.00    -0.744 OA
ENDBRANCH  78  79
ENDBRANCH  50  73
BRANCH  62  83
ATOM     83  C   UNL A   1      39.889  34.210  37.072  1.00  0.00    -0.014 A 
ATOM     84  C   UNL A   1      39.053  33.980  38.179  1.00  0.00     0.010 A 
ATOM     85  C   UNL A   1      40.595  35.423  36.988  1.00  0.00     0.010 A 
ATOM     86  C   UNL A   1      38.883  34.966  39.154  1.00  0.00     0.020 A 
ATOM     87  C   UNL A   1      40.451  36.400  37.976  1.00  0.00     0.020 A 
ATOM     88  C   UNL A   1      39.578  36.174  39.041  1.00  0.00     0.054 A 
BRANCH  88  89
ATOM     89  S   UNL A   1      39.343  37.440  40.318  1.00  0.00     0.124 S 
ATOM     90  O   UNL A   1      40.719  37.827  40.620  1.00  0.00    -0.237 OA
ATOM     91  O   UNL A   1      38.543  38.450  39.628  1.00  0.00    -0.237 OA
ATOM     92  O   UNL A   1      38.647  36.728  41.388  1.00  0.00    -0.744 OA
ENDBRANCH  88  89
ENDBRANCH  62  83
ENDBRANCH  36  37
ENDBRANCH  28  31
ENDBRANCH  26  27
ENDBRANCH  25  26
ENDBRANCH  24  25
ENDBRANCH  23  24
ENDBRANCH   1  23
TORSDOF 22
ENDMDL
MODEL 3
REMARK VINA RESULT:      -8.8      7.037     11.218
REMARK SMILES CC[C@H](C)C[C@@H](CC)[N@@H+]1CCO[C@H](CC(=O)NCCCCCCNC(=O)c2ccc(-c3c4nc(c(-c5ccc(S(=O)(=O)[O-])cc5)c5ccc([nH]5)c(-c5ccc(S(=O)(=O)[O-])cc5)c5nc(c(-c6ccc(S(=O)(=O)[O-])cc6)c6ccc3[nH]6)C=C5)C=C4)cc2)C1
REMARK SMILES IDX 19 1 18 2 17 3 15 4 16 5 14 7 13 8 9 9 10 10 87 11 11 13
REMARK SMILES IDX 12 14 6 15 5 16 3 17 4 18 2 19 1 20 7 21 8 22 20 23 21 24
REMARK SMILES IDX 22 25 23 26 24 27 25 28 26 30 27 31 28 32 86 33 29 34 85 35
REMARK SMILES IDX 30 36 31 37 32 38 79 39 33 40 84 41 78 42 80 43 34 44 83 45
REMARK SMILES IDX 77 46 76 47 35 49 65 50 46 51 64 52 47 53 50 54 63 55 81 56
REMARK SMILES IDX 48 57 49 58 62 60 82 61 51 62 36 63 37 64 45 65 38 66 44 67
REMARK SMILES IDX 39 68 40 69 41 70 42 71 43 72 66 73 67 74 75 75 68 76 74 77
REMARK SMILES IDX 69 78 70 79 71 80 72 81 73 82 52 83 53 84 61 85 54 86 60 87
REMARK SMILES IDX 55 88 56 89 57 90 58 91 59 92
REMARK H PARENT 17 6 9 12 24 29 80 48 50 59
REMARK Flexibility Score: inf
ROOT
ATOM      1  C   UNL A   1      39.916  23.968  26.960  1.00  0.00     0.021 C 
ENDROOT
BRANCH   1   2
ATOM      2  C   UNL A   1      38.411  23.635  26.904  1.00  0.00     0.116 C 
BRANCH   2   3
ATOM      3  N   UNL A   1      37.913  23.595  25.534  1.00  0.00    -0.356 N 
ATOM      4  C   UNL A   1      36.678  23.446  24.977  1.00  0.00     0.222 C 
ATOM      5  O   UNL A   1      36.641  23.445  23.740  1.00  0.00    -0.275 OA
ATOM      6  H   UNL A   1      38.627  23.699  24.864  1.00  0.00     0.163 HD
BRANCH   4   7
ATOM      7  C   UNL A   1      35.373  23.442  25.756  1.00  0.00     0.138 C 
BRANCH   7   8
ATOM      8  C   UNL A   1      34.081  22.787  25.233  1.00  0.00     0.182 C 
ATOM      9  N   UNL A   1      32.373  24.696  25.369  1.00  0.00    -0.328 N 
ATOM     10  C   UNL A   1      31.773  23.933  26.479  1.00  0.00     0.291 C 
ATOM     11  C   UNL A   1      33.087  23.726  24.509  1.00  0.00     0.295 C 
ATOM     12  H   UNL A   1      31.591  25.137  24.885  1.00  0.00     0.348 HD
ATOM     13  C   UNL A   1      32.482  22.647  27.001  1.00  0.00     0.222 C 
ATOM     14  O   UNL A   1      33.361  21.951  26.126  1.00  0.00    -0.366 OA
BRANCH   9  15
ATOM     15  C   UNL A   1      33.095  25.966  25.631  1.00  0.00     0.184 C 
BRANCH  15  16
ATOM     16  C   UNL A   1      33.967  26.365  24.406  1.00  0.00     0.068 C 
BRANCH  16  17
ATOM     17  C   UNL A   1      33.305  27.250  23.322  1.00  0.00    -0.009 C 
ATOM     18  C   UNL A   1      34.030  28.581  23.080  1.00  0.00     0.008 C 
BRANCH  17  19
ATOM     19  C   UNL A   1      33.179  26.478  21.984  1.00  0.00    -0.000 C 
ATOM     20  C   UNL A   1      31.780  25.956  21.656  1.00  0.00     0.004 C 
ENDBRANCH  17  19
ENDBRANCH  16  17
ENDBRANCH  15  16
BRANCH  15  21
ATOM     21  C   UNL A   1      32.287  27.188  26.132  1.00  0.00     0.061 C 
ATOM     22  C   UNL A   1      33.009  28.185  27.016  1.00  0.00     0.010 C 
ENDBRANCH  15  21
ENDBRANCH   9  15
ENDBRANCH   7   8
ENDBRANCH   4   7
ENDBRANCH   2   3
ENDBRANCH   1   2
BRANCH   1  23
ATOM     23  C   UNL A   1      40.881  22.841  26.602  1.00  0.00     0.002 C 
BRANCH  23  24
ATOM     24  C   UNL A   1      41.204  21.847  27.720  1.00  0.00     0.002 C 
BRANCH  24  25
ATOM     25  C   UNL A   1      41.379  20.371  27.335  1.00  0.00     0.021 C 
BRANCH  25  26
ATOM     26  C   UNL A   1      41.342  20.009  25.851  1.00  0.00     0.116 C 
BRANCH  26  27
ATOM     27  N   UNL A   1      42.572  19.411  25.379  1.00  0.00    -0.352 N 
ATOM     28  C   UNL A   1      43.818  19.938  25.156  1.00  0.00     0.251 C 
ATOM     29  H   UNL A   1      42.502  18.448  25.184  1.00  0.00     0.163 HD
ATOM     30  O   UNL A   1      44.661  19.223  24.615  1.00  0.00    -0.269 OA
BRANCH  28  31
ATOM     31  C   UNL A   1      44.174  21.331  25.523  1.00  0.00     0.039 A 
ATOM     32  C   UNL A   1      43.949  22.330  24.567  1.00  0.00     0.014 A 
ATOM     33  C   UNL A   1      44.791  21.669  26.731  1.00  0.00     0.014 A 
ATOM     34  C   UNL A   1      44.303  23.656  24.835  1.00  0.00     0.010 A 
ATOM     35  C   UNL A   1      45.083  23.006  27.025  1.00  0.00     0.010 A 
ATOM     36  C   UNL A   1      44.851  24.013  26.077  1.00  0.00    -0.014 A 
BRANCH  36  37
ATOM     37  C   UNL A   1      45.167  25.438  26.373  1.00  0.00     0.031 A 
ATOM     38  C   UNL A   1      44.115  26.373  26.910  1.00  0.00     0.074 A 
ATOM     39  C   UNL A   1      46.416  25.894  26.151  1.00  0.00     0.049 A 
ATOM     40  N   UNL A   1      44.235  27.625  27.277  1.00  0.00    -0.248 NA
ATOM     41  C   UNL A   1      42.748  25.842  27.035  1.00  0.00     0.031 C 
ATOM     42  C   UNL A   1      47.516  25.107  25.589  1.00  0.00     0.029 A 
ATOM     43  N   UNL A   1      46.976  27.126  26.381  1.00  0.00    -0.354 N 
ATOM     44  C   UNL A   1      42.965  28.032  27.669  1.00  0.00     0.074 A 
ATOM     45  C   UNL A   1      42.079  26.909  27.450  1.00  0.00     0.031 C 
ATOM     46  C   UNL A   1      48.626  25.862  25.553  1.00  0.00     0.029 A 
ATOM     47  C   UNL A   1      48.312  27.194  26.061  1.00  0.00     0.049 A 
ATOM     48  H   UNL A   1      46.470  27.890  26.742  1.00  0.00     0.167 HD
ATOM     49  C   UNL A   1      42.572  29.225  28.181  1.00  0.00     0.031 A 
ATOM     50  C   UNL A   1      49.192  28.208  26.168  1.00  0.00     0.031 A 
ATOM     51  C   UNL A   1      43.455  30.341  28.402  1.00  0.00     0.049 A 
ATOM     52  C   UNL A   1      48.737  29.516  26.753  1.00  0.00     0.074 A 
ATOM     53  C   UNL A   1      43.164  31.571  28.968  1.00  0.00     0.029 A 
ATOM     54  N   UNL A   1      44.801  30.369  28.066  1.00  0.00    -0.354 N 
ATOM     55  N   UNL A   1      47.547  29.855  27.187  1.00  0.00    -0.248 NA
ATOM     56  C   UNL A   1      49.751  30.572  26.880  1.00  0.00     0.031 C 
ATOM     57  C   UNL A   1      44.320  32.360  28.927  1.00  0.00     0.029 A 
ATOM     58  C   UNL A   1      45.347  31.601  28.389  1.00  0.00     0.049 A 
ATOM     59  H   UNL A   1      45.295  29.622  27.657  1.00  0.00     0.167 HD
ATOM     60  C   UNL A   1      47.672  31.158  27.656  1.00  0.00     0.074 A 
ATOM     61  C   UNL A   1      49.060  31.534  27.476  1.00  0.00     0.031 C 
ATOM     62  C   UNL A   1      46.724  31.970  28.187  1.00  0.00     0.031 A 
BRANCH  49  63
ATOM     63  C   UNL A   1      41.116  29.389  28.533  1.00  0.00    -0.014 A 
ATOM     64  C   UNL A   1      40.706  29.569  29.866  1.00  0.00     0.010 A 
ATOM     65  C   UNL A   1      40.146  29.412  27.513  1.00  0.00     0.010 A 
ATOM     66  C   UNL A   1      39.351  29.728  30.178  1.00  0.00     0.020 A 
ATOM     67  C   UNL A   1      38.794  29.597  27.817  1.00  0.00     0.020 A 
ATOM     68  C   UNL A   1      38.404  29.738  29.150  1.00  0.00     0.054 A 
BRANCH  68  69
ATOM     69  S   UNL A   1      36.657  29.968  29.582  1.00  0.00     0.124 S 
ATOM     70  O   UNL A   1      36.549  31.423  29.635  1.00  0.00    -0.237 OA
ATOM     71  O   UNL A   1      35.963  29.326  28.469  1.00  0.00    -0.237 OA
ATOM     72  O   UNL A   1      36.525  29.287  30.869  1.00  0.00    -0.744 OA
ENDBRANCH  68  69
ENDBRANCH  49  63
BRANCH  50  73
ATOM     73  C   UNL A   1      50.603  28.015  25.732  1.00  0.00    -0.014 A 
ATOM     74  C   UNL A   1      50.971  28.204  24.389  1.00  0.00     0.010 A 
ATOM     75  C   UNL A   1      51.589  27.655  26.668  1.00  0.00     0.010 A 
ATOM     76  C   UNL A   1      52.296  28.018  23.985  1.00  0.00     0.020 A 
ATOM     77  C   UNL A   1      52.920  27.495  26.274  1.00  0.00     0.020 A 
ATOM     78  C   UNL A   1      53.263  27.667  24.931  1.00  0.00     0.054 A 
BRANCH  78  79
ATOM     79  S   UNL A   1      54.989  27.486  24.399  1.00  0.00     0.124 S 
ATOM     80  O   UNL A   1      55.281  28.812  23.863  1.00  0.00    -0.237 OA
ATOM     81  O   UNL A   1      55.670  27.142  25.644  1.00  0.00    -0.237 OA
ATOM     82  O   UNL A   1      54.931  26.410  23.413  1.00  0.00    -0.744 OA
ENDBRANCH  78  79
ENDBRANCH  50  73
BRANCH  62  83
ATOM     83  C   UNL A   1      47.167  33.342  28.625  1.00  0.00    -0.014 A 
ATOM     84  C   UNL A   1      47.639  33.573  29.930  1.00  0.00     0.010 A 
ATOM     85  C   UNL A   1      47.116  34.414  27.716  1.00  0.00     0.010 A 
ATOM     86  C   UNL A   1      47.999  34.862  30.334  1.00  0.00     0.020 A 
ATOM     87  C   UNL A   1      47.503  35.698  28.107  1.00  0.00     0.020 A 
ATOM     88  C   UNL A   1      47.920  35.917  29.421  1.00  0.00     0.054 A 
BRANCH  88  89
ATOM     89  S   UNL A   1      48.392  37.582  29.966  1.00  0.00     0.124 S 
ATOM     90  O   UNL A   1      47.116  38.290  29.919  1.00  0.00    -0.237 OA
ATOM     91  O   UNL A   1      48.929  37.343  31.304  1.00  0.00    -0.237 OA
ATOM     92  O   UNL A   1      49.378  38.005  28.973  1.00  0.00    -0.744 OA
ENDBRANCH  88  89
ENDBRANCH  62  83
ENDBRANCH  36  37
ENDBRANCH  28  31
ENDBRANCH  26  27
ENDBRANCH  25  26
ENDBRANCH  24  25
ENDBRANCH  23  24
ENDBRANCH   1  23
TORSDOF 22
ENDMDL
