MODEL 1
REMARK VINA RESULT:     -10.2      0.000      0.000
REMARK SMILES CC(C)C[C@H](NC(=O)Cc1ccccc1)C(=O)NCCCCCCNC(=O)c1ccc(-c2c3nc(c(-c4ccc(S(=O)(=O)[O-])cc4)c4ccc([nH]4)c(-c4ccc(S(=O)(=O)[O-])cc4)c4nc(c(-c5ccc(S(=O)(=O)[O-])cc5)c5ccc2[nH]5)C=C4)C=C3)cc1
REMARK SMILES IDX 21 1 20 2 19 3 18 4 16 5 17 6 5 8 4 9 2 10 1 11 3 12 6 13
REMARK SMILES IDX 7 14 8 16 9 17 10 18 11 19 15 20 12 21 14 22 13 23 22 24
REMARK SMILES IDX 23 25 24 26 25 27 26 28 27 30 28 31 29 32 87 33 30 34 86 35
REMARK SMILES IDX 31 36 32 37 33 38 80 39 34 40 85 41 79 42 81 43 35 44 84 45
REMARK SMILES IDX 78 46 77 47 36 49 66 50 47 51 65 52 48 53 51 54 64 55 82 56
REMARK SMILES IDX 49 57 50 58 63 60 83 61 52 62 37 63 38 64 46 65 39 66 45 67
REMARK SMILES IDX 40 68 41 69 42 70 43 71 44 72 67 73 68 74 76 75 69 76 75 77
REMARK SMILES IDX 70 78 71 79 72 80 73 81 74 82 53 83 54 84 62 85 55 86 61 87
REMARK SMILES IDX 56 88 57 89 58 90 59 91 60 92
REMARK H PARENT 18 7 6 15 25 29 81 48 51 59
REMARK Flexibility Score: inf
ROOT
ATOM      1  C   UNL A   1      36.057  21.451  25.485  1.00  0.00     0.002 C 
ENDROOT
BRANCH   1   2
ATOM      2  C   UNL A   1      34.874  20.581  25.055  1.00  0.00     0.021 C 
BRANCH   2   3
ATOM      3  C   UNL A   1      33.656  21.388  24.632  1.00  0.00     0.116 C 
BRANCH   3   4
ATOM      4  N   UNL A   1      34.049  22.643  24.009  1.00  0.00    -0.354 N 
ATOM      5  C   UNL A   1      33.271  23.691  23.604  1.00  0.00     0.242 C 
ATOM      6  O   UNL A   1      33.828  24.693  23.150  1.00  0.00    -0.273 OA
ATOM      7  H   UNL A   1      35.016  22.753  23.857  1.00  0.00     0.163 HD
BRANCH   5   8
ATOM      8  C   UNL A   1      31.740  23.631  23.786  1.00  0.00     0.171 C 
BRANCH   8   9
ATOM      9  C   UNL A   1      31.046  24.683  22.912  1.00  0.00     0.038 C 
BRANCH   9  10
ATOM     10  C   UNL A   1      30.829  26.105  23.471  1.00  0.00    -0.015 C 
ATOM     11  C   UNL A   1      31.154  27.207  22.470  1.00  0.00     0.007 C 
ATOM     12  C   UNL A   1      29.375  26.237  23.942  1.00  0.00     0.007 C 
ENDBRANCH   9  10
ENDBRANCH   8   9
BRANCH   8  13
ATOM     13  N   UNL A   1      31.507  23.729  25.247  1.00  0.00    -0.344 N 
ATOM     14  C   UNL A   1      32.132  24.303  26.307  1.00  0.00     0.225 C 
ATOM     15  H   UNL A   1      30.687  23.256  25.519  1.00  0.00     0.164 HD
ATOM     16  O   UNL A   1      31.657  24.060  27.422  1.00  0.00    -0.275 OA
BRANCH  14  17
ATOM     17  C   UNL A   1      33.346  25.199  26.168  1.00  0.00     0.135 C 
BRANCH  17  18
ATOM     18  C   UNL A   1      33.065  26.682  26.071  1.00  0.00    -0.039 A 
ATOM     19  C   UNL A   1      33.809  27.542  25.248  1.00  0.00     0.004 A 
ATOM     20  C   UNL A   1      31.991  27.217  26.803  1.00  0.00     0.004 A 
ATOM     21  C   UNL A   1      33.414  28.871  25.073  1.00  0.00     0.000 A 
ATOM     22  C   UNL A   1      31.600  28.545  26.628  1.00  0.00     0.000 A 
ATOM     23  C   UNL A   1      32.299  29.366  25.748  1.00  0.00     0.000 A 
ENDBRANCH  17  18
ENDBRANCH  14  17
ENDBRANCH   8  13
ENDBRANCH   5   8
ENDBRANCH   3   4
ENDBRANCH   2   3
ENDBRANCH   1   2
BRANCH   1  24
ATOM     24  C   UNL A   1      37.309  21.299  24.613  1.00  0.00     0.002 C 
BRANCH  24  25
ATOM     25  C   UNL A   1      38.206  20.113  24.978  1.00  0.00     0.021 C 
BRANCH  25  26
ATOM     26  C   UNL A   1      39.381  20.465  25.884  1.00  0.00     0.116 C 
BRANCH  26  27
ATOM     27  N   UNL A   1      40.329  19.369  26.000  1.00  0.00    -0.352 N 
ATOM     28  C   UNL A   1      41.694  19.417  26.138  1.00  0.00     0.251 C 
ATOM     29  H   UNL A   1      39.938  18.465  25.974  1.00  0.00     0.163 HD
ATOM     30  O   UNL A   1      42.361  18.395  26.031  1.00  0.00    -0.269 OA
BRANCH  28  31
ATOM     31  C   UNL A   1      42.349  20.717  26.395  1.00  0.00     0.039 A 
ATOM     32  C   UNL A   1      42.824  21.458  25.312  1.00  0.00     0.014 A 
ATOM     33  C   UNL A   1      42.480  21.204  27.698  1.00  0.00     0.014 A 
ATOM     34  C   UNL A   1      43.381  22.718  25.533  1.00  0.00     0.010 A 
ATOM     35  C   UNL A   1      42.966  22.490  27.908  1.00  0.00     0.010 A 
ATOM     36  C   UNL A   1      43.426  23.259  26.829  1.00  0.00    -0.014 A 
BRANCH  36  37
ATOM     37  C   UNL A   1      43.951  24.627  27.072  1.00  0.00     0.031 A 
ATOM     38  C   UNL A   1      43.020  25.728  27.501  1.00  0.00     0.074 A 
ATOM     39  C   UNL A   1      45.255  24.887  26.853  1.00  0.00     0.049 A 
ATOM     40  N   UNL A   1      43.284  26.992  27.715  1.00  0.00    -0.248 NA
ATOM     41  C   UNL A   1      41.605  25.371  27.693  1.00  0.00     0.031 C 
ATOM     42  C   UNL A   1      46.250  23.912  26.398  1.00  0.00     0.029 A 
ATOM     43  N   UNL A   1      45.970  26.053  26.979  1.00  0.00    -0.354 N 
ATOM     44  C   UNL A   1      42.071  27.580  28.054  1.00  0.00     0.074 A 
ATOM     45  C   UNL A   1      41.061  26.548  27.965  1.00  0.00     0.031 C 
ATOM     46  C   UNL A   1      47.449  24.513  26.314  1.00  0.00     0.029 A 
ATOM     47  C   UNL A   1      47.301  25.922  26.661  1.00  0.00     0.049 A 
ATOM     48  H   UNL A   1      45.567  26.902  27.271  1.00  0.00     0.167 HD
ATOM     49  C   UNL A   1      41.823  28.858  28.427  1.00  0.00     0.031 A 
ATOM     50  C   UNL A   1      48.292  26.836  26.640  1.00  0.00     0.031 A 
ATOM     51  C   UNL A   1      42.832  29.880  28.520  1.00  0.00     0.049 A 
ATOM     52  C   UNL A   1      47.984  28.255  27.036  1.00  0.00     0.074 A 
ATOM     53  C   UNL A   1      42.689  31.192  28.936  1.00  0.00     0.029 A 
ATOM     54  N   UNL A   1      44.168  29.707  28.190  1.00  0.00    -0.354 N 
ATOM     55  N   UNL A   1      46.843  28.775  27.419  1.00  0.00    -0.248 NA
ATOM     56  C   UNL A   1      49.102  29.208  27.007  1.00  0.00     0.031 C 
ATOM     57  C   UNL A   1      43.927  31.829  28.800  1.00  0.00     0.029 A 
ATOM     58  C   UNL A   1      44.855  30.895  28.366  1.00  0.00     0.049 A 
ATOM     59  H   UNL A   1      44.568  28.863  27.876  1.00  0.00     0.167 HD
ATOM     60  C   UNL A   1      47.112  30.109  27.705  1.00  0.00     0.074 A 
ATOM     61  C   UNL A   1      48.527  30.310  27.468  1.00  0.00     0.031 C 
ATOM     62  C   UNL A   1      46.265  31.080  28.127  1.00  0.00     0.031 A 
BRANCH  49  63
ATOM     63  C   UNL A   1      40.399  29.227  28.758  1.00  0.00    -0.014 A 
ATOM     64  C   UNL A   1      39.978  29.380  30.092  1.00  0.00     0.010 A 
ATOM     65  C   UNL A   1      39.482  29.479  27.721  1.00  0.00     0.010 A 
ATOM     66  C   UNL A   1      38.660  29.740  30.382  1.00  0.00     0.020 A 
ATOM     67  C   UNL A   1      38.171  29.870  28.006  1.00  0.00     0.020 A 
ATOM     68  C   UNL A   1      37.765  29.984  29.337  1.00  0.00     0.054 A 
BRANCH  68  69
ATOM     69  S   UNL A   1      36.071  30.487  29.746  1.00  0.00     0.124 S 
ATOM     70  O   UNL A   1      35.917  29.953  31.097  1.00  0.00    -0.237 OA
ATOM     71  O   UNL A   1      36.137  31.942  29.650  1.00  0.00    -0.237 OA
ATOM     72  O   UNL A   1      35.257  29.833  28.723  1.00  0.00    -0.744 OA
ENDBRANCH  68  69
ENDBRANCH  49  63
BRANCH  50  73
ATOM     73  C   UNL A   1      49.668  26.435  26.237  1.00  0.00    -0.014 A 
ATOM     74  C   UNL A   1      50.504  25.742  27.130  1.00  0.00     0.010 A 
ATOM     75  C   UNL A   1      50.152  26.749  24.954  1.00  0.00     0.010 A 
ATOM     76  C   UNL A   1      51.806  25.392  26.757  1.00  0.00     0.020 A 
ATOM     77  C   UNL A   1      51.441  26.373  24.566  1.00  0.00     0.020 A 
ATOM     78  C   UNL A   1      52.266  25.709  25.475  1.00  0.00     0.054 A 
BRANCH  78  79
ATOM     79  S   UNL A   1      53.944  25.210  24.999  1.00  0.00     0.124 S 
ATOM     80  O   UNL A   1      54.735  25.694  26.127  1.00  0.00    -0.237 OA
ATOM     81  O   UNL A   1      53.821  23.760  24.888  1.00  0.00    -0.237 OA
ATOM     82  O   UNL A   1      54.162  25.909  23.735  1.00  0.00    -0.744 OA
ENDBRANCH  78  79
ENDBRANCH  50  73
BRANCH  62  83
ATOM     83  C   UNL A   1      46.849  32.442  28.399  1.00  0.00    -0.014 A 
ATOM     84  C   UNL A   1      47.387  32.771  29.655  1.00  0.00     0.010 A 
ATOM     85  C   UNL A   1      46.908  33.389  27.358  1.00  0.00     0.010 A 
ATOM     86  C   UNL A   1      47.943  34.035  29.875  1.00  0.00     0.020 A 
ATOM     87  C   UNL A   1      47.493  34.640  27.566  1.00  0.00     0.020 A 
ATOM     88  C   UNL A   1      47.994  34.961  28.828  1.00  0.00     0.054 A 
BRANCH  88  89
ATOM     89  S   UNL A   1      48.761  36.577  29.129  1.00  0.00     0.124 S 
ATOM     90  O   UNL A   1      48.393  37.317  27.926  1.00  0.00    -0.237 OA
ATOM     91  O   UNL A   1      48.107  37.015  30.361  1.00  0.00    -0.237 OA
ATOM     92  O   UNL A   1      50.182  36.267  29.261  1.00  0.00    -0.744 OA
ENDBRANCH  88  89
ENDBRANCH  62  83
ENDBRANCH  36  37
ENDBRANCH  28  31
ENDBRANCH  26  27
ENDBRANCH  25  26
ENDBRANCH  24  25
ENDBRANCH   1  24
TORSDOF 21
ENDMDL
MODEL 2
REMARK VINA RESULT:      -9.8      6.067     10.828
REMARK SMILES CC(C)C[C@H](NC(=O)Cc1ccccc1)C(=O)NCCCCCCNC(=O)c1ccc(-c2c3nc(c(-c4ccc(S(=O)(=O)[O-])cc4)c4ccc([nH]4)c(-c4ccc(S(=O)(=O)[O-])cc4)c4nc(c(-c5ccc(S(=O)(=O)[O-])cc5)c5ccc2[nH]5)C=C4)C=C3)cc1
REMARK SMILES IDX 21 1 20 2 19 3 18 4 16 5 17 6 5 8 4 9 2 10 1 11 3 12 6 13
REMARK SMILES IDX 7 14 8 16 9 17 10 18 11 19 15 20 12 21 14 22 13 23 22 24
REMARK SMILES IDX 23 25 24 26 25 27 26 28 27 30 28 31 29 32 87 33 30 34 86 35
REMARK SMILES IDX 31 36 32 37 33 38 80 39 34 40 85 41 79 42 81 43 35 44 84 45
REMARK SMILES IDX 78 46 77 47 36 49 66 50 47 51 65 52 48 53 51 54 64 55 82 56
REMARK SMILES IDX 49 57 50 58 63 60 83 61 52 62 37 63 38 64 46 65 39 66 45 67
REMARK SMILES IDX 40 68 41 69 42 70 43 71 44 72 67 73 68 74 76 75 69 76 75 77
REMARK SMILES IDX 70 78 71 79 72 80 73 81 74 82 53 83 54 84 62 85 55 86 61 87
REMARK SMILES IDX 56 88 57 89 58 90 59 91 60 92
REMARK H PARENT 18 7 6 15 25 29 81 48 51 59
REMARK Flexibility Score: inf
ROOT
ATOM      1  C   UNL A   1      37.777  22.535  25.644  1.00  0.00     0.002 C 
ENDROOT
BRANCH   1   2
ATOM      2  C   UNL A   1      36.703  23.500  25.140  1.00  0.00     0.021 C 
BRANCH   2   3
ATOM      3  C   UNL A   1      35.291  23.085  25.527  1.00  0.00     0.116 C 
BRANCH   3   4
ATOM      4  N   UNL A   1      34.366  23.278  24.420  1.00  0.00    -0.354 N 
ATOM      5  C   UNL A   1      33.074  22.855  24.286  1.00  0.00     0.242 C 
ATOM      6  O   UNL A   1      32.449  23.187  23.277  1.00  0.00    -0.273 OA
ATOM      7  H   UNL A   1      34.724  23.787  23.657  1.00  0.00     0.163 HD
BRANCH   5   8
ATOM      8  C   UNL A   1      32.406  22.045  25.417  1.00  0.00     0.171 C 
BRANCH   8   9
ATOM      9  C   UNL A   1      32.172  20.593  24.982  1.00  0.00     0.038 C 
BRANCH   9  10
ATOM     10  C   UNL A   1      33.214  19.899  24.079  1.00  0.00    -0.015 C 
ATOM     11  C   UNL A   1      34.504  19.539  24.806  1.00  0.00     0.007 C 
ATOM     12  C   UNL A   1      32.584  18.638  23.473  1.00  0.00     0.007 C 
ENDBRANCH   9  10
ENDBRANCH   8   9
BRANCH   8  13
ATOM     13  N   UNL A   1      31.204  22.818  25.809  1.00  0.00    -0.344 N 
ATOM     14  C   UNL A   1      30.952  24.008  26.413  1.00  0.00     0.225 C 
ATOM     15  H   UNL A   1      30.373  22.348  25.568  1.00  0.00     0.164 HD
ATOM     16  O   UNL A   1      29.768  24.259  26.661  1.00  0.00    -0.275 OA
BRANCH  14  17
ATOM     17  C   UNL A   1      32.040  24.998  26.778  1.00  0.00     0.135 C 
BRANCH  17  18
ATOM     18  C   UNL A   1      31.920  26.370  26.152  1.00  0.00    -0.039 A 
ATOM     19  C   UNL A   1      31.795  27.542  26.915  1.00  0.00     0.004 A 
ATOM     20  C   UNL A   1      31.977  26.484  24.752  1.00  0.00     0.004 A 
ATOM     21  C   UNL A   1      31.844  28.795  26.299  1.00  0.00     0.000 A 
ATOM     22  C   UNL A   1      32.024  27.736  24.140  1.00  0.00     0.000 A 
ATOM     23  C   UNL A   1      31.978  28.891  24.914  1.00  0.00     0.000 A 
ENDBRANCH  17  18
ENDBRANCH  14  17
ENDBRANCH   8  13
ENDBRANCH   5   8
ENDBRANCH   3   4
ENDBRANCH   2   3
ENDBRANCH   1   2
BRANCH   1  24
ATOM     24  C   UNL A   1      38.865  23.187  26.505  1.00  0.00     0.002 C 
BRANCH  24  25
ATOM     25  C   UNL A   1      40.177  22.404  26.586  1.00  0.00     0.021 C 
BRANCH  25  26
ATOM     26  C   UNL A   1      41.376  23.224  27.050  1.00  0.00     0.116 C 
BRANCH  26  27
ATOM     27  N   UNL A   1      42.012  23.933  25.951  1.00  0.00    -0.352 N 
ATOM     28  C   UNL A   1      42.170  25.285  25.770  1.00  0.00     0.251 C 
ATOM     29  H   UNL A   1      42.381  23.364  25.237  1.00  0.00     0.163 HD
ATOM     30  O   UNL A   1      42.562  25.720  24.695  1.00  0.00    -0.269 OA
BRANCH  28  31
ATOM     31  C   UNL A   1      41.840  26.206  26.878  1.00  0.00     0.039 A 
ATOM     32  C   UNL A   1      40.854  25.834  27.793  1.00  0.00     0.014 A 
ATOM     33  C   UNL A   1      42.511  27.424  27.017  1.00  0.00     0.014 A 
ATOM     34  C   UNL A   1      40.580  26.660  28.883  1.00  0.00     0.010 A 
ATOM     35  C   UNL A   1      42.291  28.208  28.144  1.00  0.00     0.010 A 
ATOM     36  C   UNL A   1      41.320  27.838  29.086  1.00  0.00    -0.014 A 
BRANCH  36  37
ATOM     37  C   UNL A   1      41.090  28.692  30.279  1.00  0.00     0.031 A 
ATOM     38  C   UNL A   1      41.934  28.511  31.512  1.00  0.00     0.074 A 
ATOM     39  C   UNL A   1      40.087  29.592  30.269  1.00  0.00     0.049 A 
ATOM     40  N   UNL A   1      41.852  29.129  32.663  1.00  0.00    -0.248 NA
ATOM     41  C   UNL A   1      42.991  27.489  31.455  1.00  0.00     0.031 C 
ATOM     42  C   UNL A   1      39.175  29.834  29.147  1.00  0.00     0.029 A 
ATOM     43  N   UNL A   1      39.661  30.471  31.234  1.00  0.00    -0.354 N 
ATOM     44  C   UNL A   1      42.835  28.564  33.467  1.00  0.00     0.074 A 
ATOM     45  C   UNL A   1      43.465  27.518  32.692  1.00  0.00     0.031 C 
ATOM     46  C   UNL A   1      38.320  30.815  29.478  1.00  0.00     0.029 A 
ATOM     47  C   UNL A   1      38.590  31.240  30.848  1.00  0.00     0.049 A 
ATOM     48  H   UNL A   1      40.084  30.542  32.121  1.00  0.00     0.167 HD
ATOM     49  C   UNL A   1      43.196  28.900  34.728  1.00  0.00     0.031 A 
ATOM     50  C   UNL A   1      37.893  32.177  31.522  1.00  0.00     0.031 A 
ATOM     51  C   UNL A   1      42.569  29.945  35.493  1.00  0.00     0.049 A 
ATOM     52  C   UNL A   1      38.300  32.514  32.932  1.00  0.00     0.074 A 
ATOM     53  C   UNL A   1      42.895  30.395  36.761  1.00  0.00     0.029 A 
ATOM     54  N   UNL A   1      41.488  30.702  35.066  1.00  0.00    -0.354 N 
ATOM     55  N   UNL A   1      39.277  32.015  33.650  1.00  0.00    -0.248 NA
ATOM     56  C   UNL A   1      37.515  33.550  33.617  1.00  0.00     0.031 C 
ATOM     57  C   UNL A   1      41.973  31.382  37.124  1.00  0.00     0.029 A 
ATOM     58  C   UNL A   1      41.116  31.596  36.055  1.00  0.00     0.049 A 
ATOM     59  H   UNL A   1      41.049  30.615  34.187  1.00  0.00     0.167 HD
ATOM     60  C   UNL A   1      39.243  32.697  34.861  1.00  0.00     0.074 A 
ATOM     61  C   UNL A   1      38.160  33.655  34.771  1.00  0.00     0.031 C 
ATOM     62  C   UNL A   1      40.037  32.545  35.950  1.00  0.00     0.031 A 
BRANCH  49  63
ATOM     63  C   UNL A   1      44.319  28.122  35.365  1.00  0.00    -0.014 A 
ATOM     64  C   UNL A   1      45.638  28.614  35.360  1.00  0.00     0.010 A 
ATOM     65  C   UNL A   1      44.045  26.911  36.027  1.00  0.00     0.010 A 
ATOM     66  C   UNL A   1      46.665  27.890  35.971  1.00  0.00     0.020 A 
ATOM     67  C   UNL A   1      45.064  26.201  36.666  1.00  0.00     0.020 A 
ATOM     68  C   UNL A   1      46.372  26.689  36.622  1.00  0.00     0.054 A 
BRANCH  68  69
ATOM     69  S   UNL A   1      47.721  25.792  37.437  1.00  0.00     0.124 S 
ATOM     70  O   UNL A   1      48.254  26.808  38.342  1.00  0.00    -0.237 OA
ATOM     71  O   UNL A   1      47.024  24.682  38.081  1.00  0.00    -0.237 OA
ATOM     72  O   UNL A   1      48.605  25.416  36.336  1.00  0.00    -0.744 OA
ENDBRANCH  68  69
ENDBRANCH  49  63
BRANCH  50  73
ATOM     73  C   UNL A   1      36.745  32.867  30.871  1.00  0.00    -0.014 A 
ATOM     74  C   UNL A   1      36.961  33.820  29.861  1.00  0.00     0.010 A 
ATOM     75  C   UNL A   1      35.426  32.574  31.263  1.00  0.00     0.010 A 
ATOM     76  C   UNL A   1      35.881  34.486  29.271  1.00  0.00     0.020 A 
ATOM     77  C   UNL A   1      34.343  33.213  30.653  1.00  0.00     0.020 A 
ATOM     78  C   UNL A   1      34.577  34.176  29.671  1.00  0.00     0.054 A 
BRANCH  78  79
ATOM     79  S   UNL A   1      33.190  35.023  28.864  1.00  0.00     0.124 S 
ATOM     80  O   UNL A   1      33.860  36.142  28.207  1.00  0.00    -0.237 OA
ATOM     81  O   UNL A   1      32.663  33.990  27.979  1.00  0.00    -0.237 OA
ATOM     82  O   UNL A   1      32.317  35.384  29.979  1.00  0.00    -0.744 OA
ENDBRANCH  78  79
ENDBRANCH  50  73
BRANCH  62  83
ATOM     83  C   UNL A   1      39.793  33.460  37.122  1.00  0.00    -0.014 A 
ATOM     84  C   UNL A   1      38.951  33.084  38.183  1.00  0.00     0.010 A 
ATOM     85  C   UNL A   1      40.464  34.696  37.184  1.00  0.00     0.010 A 
ATOM     86  C   UNL A   1      38.758  33.942  39.269  1.00  0.00     0.020 A 
ATOM     87  C   UNL A   1      40.299  35.542  38.284  1.00  0.00     0.020 A 
ATOM     88  C   UNL A   1      39.435  35.165  39.314  1.00  0.00     0.054 A 
BRANCH  88  89
ATOM     89  S   UNL A   1      39.201  36.240  40.755  1.00  0.00     0.124 S 
ATOM     90  O   UNL A   1      40.439  36.026  41.500  1.00  0.00    -0.237 OA
ATOM     91  O   UNL A   1      39.054  37.561  40.148  1.00  0.00    -0.237 OA
ATOM     92  O   UNL A   1      37.994  35.714  41.388  1.00  0.00    -0.744 OA
ENDBRANCH  88  89
ENDBRANCH  62  83
ENDBRANCH  36  37
ENDBRANCH  28  31
ENDBRANCH  26  27
ENDBRANCH  25  26
ENDBRANCH  24  25
ENDBRANCH   1  24
TORSDOF 21
ENDMDL
MODEL 3
REMARK VINA RESULT:      -9.5      6.370     10.131
REMARK SMILES CC(C)C[C@H](NC(=O)Cc1ccccc1)C(=O)NCCCCCCNC(=O)c1ccc(-c2c3nc(c(-c4ccc(S(=O)(=O)[O-])cc4)c4ccc([nH]4)c(-c4ccc(S(=O)(=O)[O-])cc4)c4nc(c(-c5ccc(S(=O)(=O)[O-])cc5)c5ccc2[nH]5)C=C4)C=C3)cc1
REMARK SMILES IDX 21 1 20 2 19 3 18 4 16 5 17 6 5 8 4 9 2 10 1 11 3 12 6 13
REMARK SMILES IDX 7 14 8 16 9 17 10 18 11 19 15 20 12 21 14 22 13 23 22 24
REMARK SMILES IDX 23 25 24 26 25 27 26 28 27 30 28 31 29 32 87 33 30 34 86 35
REMARK SMILES IDX 31 36 32 37 33 38 80 39 34 40 85 41 79 42 81 43 35 44 84 45
REMARK SMILES IDX 78 46 77 47 36 49 66 50 47 51 65 52 48 53 51 54 64 55 82 56
REMARK SMILES IDX 49 57 50 58 63 60 83 61 52 62 37 63 38 64 46 65 39 66 45 67
REMARK SMILES IDX 40 68 41 69 42 70 43 71 44 72 67 73 68 74 76 75 69 76 75 77
REMARK SMILES IDX 70 78 71 79 72 80 73 81 74 82 53 83 54 84 62 85 55 86 61 87
REMARK SMILES IDX 56 88 57 89 58 90 59 91 60 92
REMARK H PARENT 18 7 6 15 25 29 81 48 51 59
REMARK Flexibility Score: inf
ROOT
ATOM      1  C   UNL A   1      33.464  29.482  27.326  1.00  0.00     0.002 C 
ENDROOT
BRANCH   1   2
ATOM      2  C   UNL A   1      33.902  28.792  26.033  1.00  0.00     0.021 C 
BRANCH   2   3
ATOM      3  C   UNL A   1      33.499  27.327  25.967  1.00  0.00     0.116 C 
BRANCH   3   4
ATOM      4  N   UNL A   1      32.097  27.154  26.317  1.00  0.00    -0.354 N 
ATOM      5  C   UNL A   1      31.309  26.042  26.215  1.00  0.00     0.242 C 
ATOM      6  O   UNL A   1      30.151  26.103  26.632  1.00  0.00    -0.273 OA
ATOM      7  H   UNL A   1      31.652  27.953  26.681  1.00  0.00     0.163 HD
BRANCH   5   8
ATOM      8  C   UNL A   1      31.896  24.729  25.655  1.00  0.00     0.171 C 
BRANCH   8   9
ATOM      9  C   UNL A   1      30.900  24.047  24.709  1.00  0.00     0.038 C 
BRANCH   9  10
ATOM     10  C   UNL A   1      31.181  24.045  23.191  1.00  0.00    -0.015 C 
ATOM     11  C   UNL A   1      32.277  25.019  22.776  1.00  0.00     0.007 C 
ATOM     12  C   UNL A   1      31.553  22.621  22.757  1.00  0.00     0.007 C 
ENDBRANCH   9  10
ENDBRANCH   8   9
BRANCH   8  13
ATOM     13  N   UNL A   1      32.325  23.945  26.838  1.00  0.00    -0.344 N 
ATOM     14  C   UNL A   1      32.805  22.697  27.070  1.00  0.00     0.225 C 
ATOM     15  H   UNL A   1      32.239  24.464  27.670  1.00  0.00     0.164 HD
ATOM     16  O   UNL A   1      32.951  22.375  28.254  1.00  0.00    -0.275 OA
BRANCH  14  17
ATOM     17  C   UNL A   1      33.155  21.724  25.961  1.00  0.00     0.135 C 
BRANCH  17  18
ATOM     18  C   UNL A   1      34.522  21.898  25.337  1.00  0.00    -0.039 A 
ATOM     19  C   UNL A   1      34.721  22.590  24.132  1.00  0.00     0.004 A 
ATOM     20  C   UNL A   1      35.644  21.384  26.009  1.00  0.00     0.004 A 
ATOM     21  C   UNL A   1      36.015  22.859  23.677  1.00  0.00     0.000 A 
ATOM     22  C   UNL A   1      36.934  21.652  25.551  1.00  0.00     0.000 A 
ATOM     23  C   UNL A   1      37.120  22.407  24.396  1.00  0.00     0.000 A 
ENDBRANCH  17  18
ENDBRANCH  14  17
ENDBRANCH   8  13
ENDBRANCH   5   8
ENDBRANCH   3   4
ENDBRANCH   2   3
ENDBRANCH   1   2
BRANCH   1  24
ATOM     24  C   UNL A   1      34.386  30.618  27.785  1.00  0.00     0.002 C 
BRANCH  24  25
ATOM     25  C   UNL A   1      34.024  32.001  27.237  1.00  0.00     0.021 C 
BRANCH  25  26
ATOM     26  C   UNL A   1      32.795  32.635  27.881  1.00  0.00     0.116 C 
BRANCH  26  27
ATOM     27  N   UNL A   1      32.946  34.071  28.049  1.00  0.00    -0.352 N 
ATOM     28  C   UNL A   1      33.839  34.761  28.832  1.00  0.00     0.251 C 
ATOM     29  H   UNL A   1      32.321  34.627  27.530  1.00  0.00     0.163 HD
ATOM     30  O   UNL A   1      33.705  35.966  29.003  1.00  0.00    -0.269 OA
BRANCH  28  31
ATOM     31  C   UNL A   1      34.946  34.030  29.482  1.00  0.00     0.039 A 
ATOM     32  C   UNL A   1      36.250  34.236  29.027  1.00  0.00     0.014 A 
ATOM     33  C   UNL A   1      34.697  33.155  30.543  1.00  0.00     0.014 A 
ATOM     34  C   UNL A   1      37.312  33.607  29.676  1.00  0.00     0.010 A 
ATOM     35  C   UNL A   1      35.763  32.590  31.236  1.00  0.00     0.010 A 
ATOM     36  C   UNL A   1      37.081  32.805  30.807  1.00  0.00    -0.014 A 
BRANCH  36  37
ATOM     37  C   UNL A   1      38.206  32.185  31.551  1.00  0.00     0.031 A 
ATOM     38  C   UNL A   1      38.619  32.733  32.891  1.00  0.00     0.074 A 
ATOM     39  C   UNL A   1      38.889  31.164  30.996  1.00  0.00     0.049 A 
ATOM     40  N   UNL A   1      39.603  32.355  33.666  1.00  0.00    -0.248 NA
ATOM     41  C   UNL A   1      37.842  33.866  33.418  1.00  0.00     0.031 C 
ATOM     42  C   UNL A   1      38.609  30.570  29.686  1.00  0.00     0.029 A 
ATOM     43  N   UNL A   1      39.963  30.446  31.461  1.00  0.00    -0.354 N 
ATOM     44  C   UNL A   1      39.571  33.209  34.763  1.00  0.00     0.074 A 
ATOM     45  C   UNL A   1      38.505  34.158  34.528  1.00  0.00     0.031 C 
ATOM     46  C   UNL A   1      39.468  29.561  29.467  1.00  0.00     0.029 A 
ATOM     47  C   UNL A   1      40.388  29.466  30.596  1.00  0.00     0.049 A 
ATOM     48  H   UNL A   1      40.389  30.618  32.331  1.00  0.00     0.167 HD
ATOM     49  C   UNL A   1      40.344  33.192  35.874  1.00  0.00     0.031 A 
ATOM     50  C   UNL A   1      41.411  28.593  30.693  1.00  0.00     0.031 A 
ATOM     51  C   UNL A   1      41.400  32.242  36.106  1.00  0.00     0.049 A 
ATOM     52  C   UNL A   1      42.270  28.611  31.929  1.00  0.00     0.074 A 
ATOM     53  C   UNL A   1      42.207  32.111  37.222  1.00  0.00     0.029 A 
ATOM     54  N   UNL A   1      41.799  31.265  35.206  1.00  0.00    -0.354 N 
ATOM     55  N   UNL A   1      42.179  29.383  32.986  1.00  0.00    -0.248 NA
ATOM     56  C   UNL A   1      43.364  27.631  31.990  1.00  0.00     0.031 C 
ATOM     57  C   UNL A   1      43.133  31.093  36.973  1.00  0.00     0.029 A 
ATOM     58  C   UNL A   1      42.858  30.545  35.730  1.00  0.00     0.049 A 
ATOM     59  H   UNL A   1      41.388  31.107  34.324  1.00  0.00     0.167 HD
ATOM     60  C   UNL A   1      43.184  28.962  33.849  1.00  0.00     0.074 A 
ATOM     61  C   UNL A   1      43.859  27.857  33.199  1.00  0.00     0.031 C 
ATOM     62  C   UNL A   1      43.519  29.446  35.071  1.00  0.00     0.031 A 
BRANCH  49  63
ATOM     63  C   UNL A   1      40.079  34.238  36.927  1.00  0.00    -0.014 A 
ATOM     64  C   UNL A   1      40.681  35.509  36.857  1.00  0.00     0.010 A 
ATOM     65  C   UNL A   1      39.174  33.969  37.970  1.00  0.00     0.010 A 
ATOM     66  C   UNL A   1      40.412  36.474  37.830  1.00  0.00     0.020 A 
ATOM     67  C   UNL A   1      38.878  34.943  38.927  1.00  0.00     0.020 A 
ATOM     68  C   UNL A   1      39.511  36.185  38.859  1.00  0.00     0.054 A 
BRANCH  68  69
ATOM     69  S   UNL A   1      39.154  37.473  40.086  1.00  0.00     0.124 S 
ATOM     70  O   UNL A   1      40.458  38.113  40.238  1.00  0.00    -0.237 OA
ATOM     71  O   UNL A   1      38.134  38.277  39.417  1.00  0.00    -0.237 OA
ATOM     72  O   UNL A   1      38.688  36.724  41.251  1.00  0.00    -0.744 OA
ENDBRANCH  68  69
ENDBRANCH  49  63
BRANCH  50  73
ATOM     73  C   UNL A   1      41.674  27.625  29.592  1.00  0.00    -0.014 A 
ATOM     74  C   UNL A   1      40.773  26.580  29.326  1.00  0.00     0.010 A 
ATOM     75  C   UNL A   1      42.834  27.744  28.805  1.00  0.00     0.010 A 
ATOM     76  C   UNL A   1      41.038  25.656  28.309  1.00  0.00     0.020 A 
ATOM     77  C   UNL A   1      43.086  26.842  27.767  1.00  0.00     0.020 A 
ATOM     78  C   UNL A   1      42.194  25.795  27.534  1.00  0.00     0.054 A 
BRANCH  78  79
ATOM     79  S   UNL A   1      42.496  24.610  26.195  1.00  0.00     0.124 S 
ATOM     80  O   UNL A   1      41.405  23.658  26.381  1.00  0.00    -0.237 OA
ATOM     81  O   UNL A   1      42.409  25.451  25.005  1.00  0.00    -0.237 OA
ATOM     82  O   UNL A   1      43.832  24.097  26.489  1.00  0.00    -0.744 OA
ENDBRANCH  78  79
ENDBRANCH  50  73
BRANCH  62  83
ATOM     83  C   UNL A   1      44.641  28.761  35.807  1.00  0.00    -0.014 A 
ATOM     84  C   UNL A   1      45.921  29.336  35.892  1.00  0.00     0.010 A 
ATOM     85  C   UNL A   1      44.390  27.544  36.470  1.00  0.00     0.010 A 
ATOM     86  C   UNL A   1      46.939  28.691  36.600  1.00  0.00     0.020 A 
ATOM     87  C   UNL A   1      45.397  26.913  37.205  1.00  0.00     0.020 A 
ATOM     88  C   UNL A   1      46.670  27.484  37.254  1.00  0.00     0.054 A 
BRANCH  88  89
ATOM     89  S   UNL A   1      47.997  26.690  38.200  1.00  0.00     0.124 S 
ATOM     90  O   UNL A   1      49.178  27.025  37.410  1.00  0.00    -0.237 OA
ATOM     91  O   UNL A   1      47.902  27.352  39.500  1.00  0.00    -0.237 OA
ATOM     92  O   UNL A   1      47.627  25.277  38.199  1.00  0.00    -0.744 OA
ENDBRANCH  88  89
ENDBRANCH  62  83
ENDBRANCH  36  37
ENDBRANCH  28  31
ENDBRANCH  26  27
ENDBRANCH  25  26
ENDBRANCH  24  25
ENDBRANCH   1  24
TORSDOF 21
ENDMDL
