MODEL 1
REMARK VINA RESULT:     -10.6      0.000      0.000
REMARK SMILES O=C(NCCCCCCNC(=O)c1ccc([C@H]2CCCN(C(=O)c3ccc4[nH]ccc4c3)C2)cc1)c1ccc(-c2c3nc(c(-c4ccc(S(=O)(=O)[O-])cc4)c4ccc([nH]4)c(-c4ccc(S(=O)(=O)[O-])cc4)c4nc(c(-c5ccc(S(=O)(=O)[O-])cc5)c5ccc2[nH]5)C=C4)C=C3)cc1
REMARK SMILES IDX 6 1 5 2 4 3 3 4 1 5 2 6 36 8 37 9 95 10 38 11 94 12 39 13
REMARK SMILES IDX 40 14 41 15 88 16 42 17 93 18 87 19 89 20 43 21 92 22 86 23
REMARK SMILES IDX 85 24 44 26 74 27 55 28 73 29 56 30 59 31 72 32 90 33 57 34
REMARK SMILES IDX 58 35 71 37 91 38 60 39 45 40 46 41 54 42 47 43 53 44 48 45
REMARK SMILES IDX 49 46 50 47 51 48 52 49 75 50 76 51 84 52 77 53 83 54 78 55
REMARK SMILES IDX 79 56 80 57 81 58 82 59 61 60 62 61 70 62 63 63 69 64 64 65
REMARK SMILES IDX 65 66 66 67 67 68 68 69 7 70 8 71 9 72 10 73 11 74 12 76
REMARK SMILES IDX 13 77 14 78 35 79 15 80 34 81 16 82 17 83 18 84 33 85 19 86
REMARK SMILES IDX 21 87 20 88 22 89 23 90 24 91 25 92 32 93 26 94 31 95 27 96
REMARK SMILES IDX 30 97 28 98 29 99
REMARK H PARENT 3 7 89 25 59 36 10 75 28 100
REMARK Flexibility Score: inf
ROOT
ATOM      1  C   UNL A   1      39.400  29.909  28.367  1.00  0.00     0.002 C 
ENDROOT
BRANCH   1   2
ATOM      2  C   UNL A   1      39.723  28.723  27.460  1.00  0.00     0.021 C 
BRANCH   2   3
ATOM      3  C   UNL A   1      40.915  28.933  26.537  1.00  0.00     0.116 C 
BRANCH   3   4
ATOM      4  N   UNL A   1      41.849  27.816  26.554  1.00  0.00    -0.352 N 
ATOM      5  O   UNL A   1      43.528  26.527  27.341  1.00  0.00    -0.269 OA
ATOM      6  C   UNL A   1      42.699  27.407  27.555  1.00  0.00     0.251 C 
ATOM      7  H   UNL A   1      41.876  27.276  25.731  1.00  0.00     0.163 HD
BRANCH   6   8
ATOM      8  C   UNL A   1      42.630  28.062  28.880  1.00  0.00     0.039 A 
ATOM      9  C   UNL A   1      41.967  27.442  29.940  1.00  0.00     0.014 A 
ATOM     10  C   UNL A   1      43.197  29.326  29.051  1.00  0.00     0.014 A 
ATOM     11  C   UNL A   1      41.704  28.159  31.098  1.00  0.00     0.010 A 
ATOM     12  C   UNL A   1      43.026  30.003  30.263  1.00  0.00     0.010 A 
ATOM     13  C   UNL A   1      42.234  29.448  31.280  1.00  0.00    -0.014 A 
BRANCH  13  14
ATOM     14  C   UNL A   1      41.964  30.169  32.553  1.00  0.00     0.031 A 
ATOM     15  C   UNL A   1      40.709  30.983  32.741  1.00  0.00     0.074 A 
ATOM     16  C   UNL A   1      42.843  30.044  33.567  1.00  0.00     0.049 A 
ATOM     17  N   UNL A   1      40.296  31.621  33.808  1.00  0.00    -0.248 NA
ATOM     18  C   UNL A   1      39.804  31.105  31.587  1.00  0.00     0.031 C 
ATOM     19  C   UNL A   1      44.096  29.284  33.508  1.00  0.00     0.029 A 
ATOM     20  N   UNL A   1      42.809  30.523  34.852  1.00  0.00    -0.354 N 
ATOM     21  C   UNL A   1      39.104  32.241  33.448  1.00  0.00     0.074 A 
ATOM     22  C   UNL A   1      38.871  31.923  32.056  1.00  0.00     0.031 C 
ATOM     23  C   UNL A   1      44.676  29.294  34.717  1.00  0.00     0.029 A 
ATOM     24  C   UNL A   1      43.880  30.121  35.617  1.00  0.00     0.049 A 
ATOM     25  H   UNL A   1      42.088  31.100  35.194  1.00  0.00     0.167 HD
ATOM     26  C   UNL A   1      38.278  33.001  34.208  1.00  0.00     0.031 A 
ATOM     27  C   UNL A   1      44.199  30.393  36.896  1.00  0.00     0.031 A 
ATOM     28  C   UNL A   1      38.515  33.312  35.596  1.00  0.00     0.049 A 
ATOM     29  C   UNL A   1      43.279  31.262  37.705  1.00  0.00     0.074 A 
ATOM     30  C   UNL A   1      37.717  34.041  36.462  1.00  0.00     0.029 A 
ATOM     31  N   UNL A   1      39.633  32.923  36.319  1.00  0.00    -0.354 N 
ATOM     32  N   UNL A   1      42.137  31.803  37.355  1.00  0.00    -0.248 NA
ATOM     33  C   UNL A   1      43.690  31.549  39.085  1.00  0.00     0.031 C 
ATOM     34  C   UNL A   1      38.384  34.148  37.687  1.00  0.00     0.029 A 
ATOM     35  C   UNL A   1      39.560  33.420  37.610  1.00  0.00     0.049 A 
ATOM     36  H   UNL A   1      40.369  32.373  35.966  1.00  0.00     0.167 HD
ATOM     37  C   UNL A   1      41.676  32.470  38.486  1.00  0.00     0.074 A 
ATOM     38  C   UNL A   1      42.655  32.247  39.530  1.00  0.00     0.031 C 
ATOM     39  C   UNL A   1      40.541  33.195  38.643  1.00  0.00     0.031 A 
BRANCH  26  40
ATOM     40  C   UNL A   1      37.052  33.586  33.549  1.00  0.00    -0.014 A 
ATOM     41  C   UNL A   1      37.148  34.587  32.566  1.00  0.00     0.010 A 
ATOM     42  C   UNL A   1      35.780  33.085  33.886  1.00  0.00     0.010 A 
ATOM     43  C   UNL A   1      35.997  35.106  31.966  1.00  0.00     0.020 A 
ATOM     44  C   UNL A   1      34.628  33.579  33.266  1.00  0.00     0.020 A 
ATOM     45  C   UNL A   1      34.742  34.600  32.323  1.00  0.00     0.054 A 
BRANCH  45  46
ATOM     46  S   UNL A   1      33.267  35.280  31.516  1.00  0.00     0.124 S 
ATOM     47  O   UNL A   1      33.247  34.542  30.255  1.00  0.00    -0.237 OA
ATOM     48  O   UNL A   1      32.203  34.942  32.457  1.00  0.00    -0.237 OA
ATOM     49  O   UNL A   1      33.561  36.706  31.398  1.00  0.00    -0.744 OA
ENDBRANCH  45  46
ENDBRANCH  26  40
BRANCH  27  50
ATOM     50  C   UNL A   1      45.446  29.834  37.483  1.00  0.00    -0.014 A 
ATOM     51  C   UNL A   1      45.438  28.587  38.131  1.00  0.00     0.010 A 
ATOM     52  C   UNL A   1      46.659  30.544  37.382  1.00  0.00     0.010 A 
ATOM     53  C   UNL A   1      46.613  28.071  38.686  1.00  0.00     0.020 A 
ATOM     54  C   UNL A   1      47.841  30.015  37.903  1.00  0.00     0.020 A 
ATOM     55  C   UNL A   1      47.807  28.787  38.564  1.00  0.00     0.054 A 
BRANCH  55  56
ATOM     56  S   UNL A   1      49.326  28.075  39.253  1.00  0.00     0.124 S 
ATOM     57  O   UNL A   1      49.984  27.551  38.060  1.00  0.00    -0.237 OA
ATOM     58  O   UNL A   1      49.964  29.234  39.872  1.00  0.00    -0.237 OA
ATOM     59  O   UNL A   1      48.838  27.068  40.193  1.00  0.00    -0.744 OA
ENDBRANCH  55  56
ENDBRANCH  27  50
BRANCH  39  60
ATOM     60  C   UNL A   1      40.268  33.757  40.014  1.00  0.00    -0.014 A 
ATOM     61  C   UNL A   1      40.729  35.030  40.397  1.00  0.00     0.010 A 
ATOM     62  C   UNL A   1      39.512  33.000  40.929  1.00  0.00     0.010 A 
ATOM     63  C   UNL A   1      40.480  35.514  41.684  1.00  0.00     0.020 A 
ATOM     64  C   UNL A   1      39.232  33.494  42.204  1.00  0.00     0.020 A 
ATOM     65  C   UNL A   1      39.736  34.741  42.581  1.00  0.00     0.054 A 
BRANCH  65  66
ATOM     66  S   UNL A   1      39.411  35.397  44.240  1.00  0.00     0.124 S 
ATOM     67  O   UNL A   1      37.996  35.748  44.155  1.00  0.00    -0.237 OA
ATOM     68  O   UNL A   1      39.727  34.261  45.102  1.00  0.00    -0.237 OA
ATOM     69  O   UNL A   1      40.328  36.530  44.350  1.00  0.00    -0.744 OA
ENDBRANCH  65  66
ENDBRANCH  39  60
ENDBRANCH  13  14
ENDBRANCH   6   8
ENDBRANCH   3   4
ENDBRANCH   2   3
ENDBRANCH   1   2
BRANCH   1  70
ATOM     70  C   UNL A   1      37.914  30.259  28.478  1.00  0.00     0.002 C 
BRANCH  70  71
ATOM     71  C   UNL A   1      37.148  29.531  29.585  1.00  0.00     0.021 C 
BRANCH  71  72
ATOM     72  C   UNL A   1      35.726  30.036  29.820  1.00  0.00     0.116 C 
BRANCH  72  73
ATOM     73  N   UNL A   1      35.484  31.306  29.151  1.00  0.00    -0.352 N 
ATOM     74  C   UNL A   1      34.774  31.555  28.002  1.00  0.00     0.251 C 
ATOM     75  H   UNL A   1      35.883  32.095  29.583  1.00  0.00     0.163 HD
ATOM     76  O   UNL A   1      34.829  32.649  27.457  1.00  0.00    -0.269 OA
BRANCH  74  77
ATOM     77  C   UNL A   1      33.954  30.475  27.418  1.00  0.00     0.039 A 
ATOM     78  C   UNL A   1      34.571  29.296  27.006  1.00  0.00     0.014 A 
ATOM     79  C   UNL A   1      32.574  30.629  27.288  1.00  0.00     0.014 A 
ATOM     80  C   UNL A   1      33.786  28.231  26.556  1.00  0.00     0.005 A 
ATOM     81  C   UNL A   1      31.795  29.556  26.861  1.00  0.00     0.005 A 
ATOM     82  C   UNL A   1      32.381  28.321  26.531  1.00  0.00    -0.043 A 
BRANCH  82  83
ATOM     83  C   UNL A   1      31.544  27.102  26.142  1.00  0.00     0.039 C 
ATOM     84  C   UNL A   1      30.684  27.387  24.884  1.00  0.00     0.012 C 
ATOM     85  C   UNL A   1      32.374  25.821  25.900  1.00  0.00     0.128 C 
ATOM     86  C   UNL A   1      29.882  26.163  24.433  1.00  0.00     0.022 C 
ATOM     87  N   UNL A   1      31.537  24.708  25.476  1.00  0.00    -0.338 N 
ATOM     88  C   UNL A   1      30.778  24.943  24.250  1.00  0.00     0.120 C 
BRANCH  87  89
ATOM     89  C   UNL A   1      31.448  23.590  26.294  1.00  0.00     0.253 C 
ATOM     90  O   UNL A   1      30.676  23.487  27.243  1.00  0.00    -0.269 OA
BRANCH  89  91
ATOM     91  C   UNL A   1      32.290  22.427  25.983  1.00  0.00     0.040 A 
ATOM     92  C   UNL A   1      33.603  22.421  26.457  1.00  0.00     0.016 A 
ATOM     93  C   UNL A   1      31.782  21.389  25.191  1.00  0.00     0.024 A 
ATOM     94  C   UNL A   1      34.441  21.337  26.199  1.00  0.00     0.027 A 
ATOM     95  C   UNL A   1      32.632  20.308  24.890  1.00  0.00     0.000 A 
ATOM     96  C   UNL A   1      33.925  20.296  25.417  1.00  0.00     0.045 A 
ATOM     97  C   UNL A   1      32.495  19.139  24.092  1.00  0.00     0.028 A 
ATOM     98  N   UNL A   1      34.516  19.123  25.005  1.00  0.00    -0.361 N 
ATOM     99  C   UNL A   1      33.677  18.439  24.168  1.00  0.00     0.083 A 
ATOM    100  H   UNL A   1      35.414  18.819  25.274  1.00  0.00     0.166 HD
ENDBRANCH  89  91
ENDBRANCH  87  89
ENDBRANCH  82  83
ENDBRANCH  74  77
ENDBRANCH  72  73
ENDBRANCH  71  72
ENDBRANCH  70  71
ENDBRANCH   1  70
TORSDOF 19
ENDMDL
MODEL 2
REMARK VINA RESULT:     -10.5      5.538     10.423
REMARK SMILES O=C(NCCCCCCNC(=O)c1ccc([C@H]2CCCN(C(=O)c3ccc4[nH]ccc4c3)C2)cc1)c1ccc(-c2c3nc(c(-c4ccc(S(=O)(=O)[O-])cc4)c4ccc([nH]4)c(-c4ccc(S(=O)(=O)[O-])cc4)c4nc(c(-c5ccc(S(=O)(=O)[O-])cc5)c5ccc2[nH]5)C=C4)C=C3)cc1
REMARK SMILES IDX 6 1 5 2 4 3 3 4 1 5 2 6 36 8 37 9 95 10 38 11 94 12 39 13
REMARK SMILES IDX 40 14 41 15 88 16 42 17 93 18 87 19 89 20 43 21 92 22 86 23
REMARK SMILES IDX 85 24 44 26 74 27 55 28 73 29 56 30 59 31 72 32 90 33 57 34
REMARK SMILES IDX 58 35 71 37 91 38 60 39 45 40 46 41 54 42 47 43 53 44 48 45
REMARK SMILES IDX 49 46 50 47 51 48 52 49 75 50 76 51 84 52 77 53 83 54 78 55
REMARK SMILES IDX 79 56 80 57 81 58 82 59 61 60 62 61 70 62 63 63 69 64 64 65
REMARK SMILES IDX 65 66 66 67 67 68 68 69 7 70 8 71 9 72 10 73 11 74 12 76
REMARK SMILES IDX 13 77 14 78 35 79 15 80 34 81 16 82 17 83 18 84 33 85 19 86
REMARK SMILES IDX 21 87 20 88 22 89 23 90 24 91 25 92 32 93 26 94 31 95 27 96
REMARK SMILES IDX 30 97 28 98 29 99
REMARK H PARENT 3 7 89 25 59 36 10 75 28 100
REMARK Flexibility Score: inf
ROOT
ATOM      1  C   UNL A   1      45.664  24.308  26.086  1.00  0.00     0.002 C 
ENDROOT
BRANCH   1   2
ATOM      2  C   UNL A   1      46.720  24.322  24.983  1.00  0.00     0.021 C 
BRANCH   2   3
ATOM      3  C   UNL A   1      47.978  25.112  25.314  1.00  0.00     0.116 C 
BRANCH   3   4
ATOM      4  N   UNL A   1      48.350  26.053  24.267  1.00  0.00    -0.352 N 
ATOM      5  O   UNL A   1      48.305  27.990  23.108  1.00  0.00    -0.269 OA
ATOM      6  C   UNL A   1      48.026  27.384  24.138  1.00  0.00     0.251 C 
ATOM      7  H   UNL A   1      48.912  25.683  23.548  1.00  0.00     0.163 HD
BRANCH   6   8
ATOM      8  C   UNL A   1      47.308  28.067  25.236  1.00  0.00     0.039 A 
ATOM      9  C   UNL A   1      48.018  28.722  26.243  1.00  0.00     0.014 A 
ATOM     10  C   UNL A   1      45.913  28.016  25.281  1.00  0.00     0.014 A 
ATOM     11  C   UNL A   1      47.352  29.151  27.383  1.00  0.00     0.010 A 
ATOM     12  C   UNL A   1      45.235  28.551  26.381  1.00  0.00     0.010 A 
ATOM     13  C   UNL A   1      45.952  29.077  27.467  1.00  0.00    -0.014 A 
BRANCH  13  14
ATOM     14  C   UNL A   1      45.272  29.586  28.689  1.00  0.00     0.031 A 
ATOM     15  C   UNL A   1      45.191  28.754  29.944  1.00  0.00     0.074 A 
ATOM     16  C   UNL A   1      44.766  30.835  28.677  1.00  0.00     0.049 A 
ATOM     17  N   UNL A   1      44.687  29.073  31.110  1.00  0.00    -0.248 NA
ATOM     18  C   UNL A   1      45.736  27.387  29.884  1.00  0.00     0.031 C 
ATOM     19  C   UNL A   1      44.781  31.739  27.522  1.00  0.00     0.029 A 
ATOM     20  N   UNL A   1      44.168  31.574  29.666  1.00  0.00    -0.354 N 
ATOM     21  C   UNL A   1      44.828  27.945  31.912  1.00  0.00     0.074 A 
ATOM     22  C   UNL A   1      45.441  26.923  31.091  1.00  0.00     0.031 C 
ATOM     23  C   UNL A   1      44.281  32.928  27.887  1.00  0.00     0.029 A 
ATOM     24  C   UNL A   1      43.840  32.852  29.274  1.00  0.00     0.049 A 
ATOM     25  H   UNL A   1      43.992  31.224  30.569  1.00  0.00     0.167 HD
ATOM     26  C   UNL A   1      44.481  27.777  33.212  1.00  0.00     0.031 A 
ATOM     27  C   UNL A   1      43.239  33.850  29.947  1.00  0.00     0.031 A 
ATOM     28  C   UNL A   1      43.871  28.800  34.023  1.00  0.00     0.049 A 
ATOM     29  C   UNL A   1      42.840  33.626  31.378  1.00  0.00     0.074 A 
ATOM     30  C   UNL A   1      43.519  28.740  35.362  1.00  0.00     0.029 A 
ATOM     31  N   UNL A   1      43.515  30.064  33.576  1.00  0.00    -0.354 N 
ATOM     32  N   UNL A   1      43.020  32.565  32.127  1.00  0.00    -0.248 NA
ATOM     33  C   UNL A   1      42.164  34.739  32.054  1.00  0.00     0.031 C 
ATOM     34  C   UNL A   1      42.890  29.942  35.704  1.00  0.00     0.029 A 
ATOM     35  C   UNL A   1      42.921  30.781  34.602  1.00  0.00     0.049 A 
ATOM     36  H   UNL A   1      43.663  30.402  32.663  1.00  0.00     0.167 HD
ATOM     37  C   UNL A   1      42.506  32.895  33.376  1.00  0.00     0.074 A 
ATOM     38  C   UNL A   1      42.027  34.259  33.282  1.00  0.00     0.031 C 
ATOM     39  C   UNL A   1      42.444  32.139  34.499  1.00  0.00     0.031 A 
BRANCH  26  40
ATOM     40  C   UNL A   1      44.717  26.422  33.835  1.00  0.00    -0.014 A 
ATOM     41  C   UNL A   1      43.673  25.493  34.000  1.00  0.00     0.010 A 
ATOM     42  C   UNL A   1      46.021  26.055  34.218  1.00  0.00     0.010 A 
ATOM     43  C   UNL A   1      43.921  24.242  34.575  1.00  0.00     0.020 A 
ATOM     44  C   UNL A   1      46.279  24.794  34.764  1.00  0.00     0.020 A 
ATOM     45  C   UNL A   1      45.223  23.902  34.955  1.00  0.00     0.054 A 
BRANCH  45  46
ATOM     46  S   UNL A   1      45.518  22.266  35.682  1.00  0.00     0.124 S 
ATOM     47  O   UNL A   1      44.531  21.445  34.984  1.00  0.00    -0.237 OA
ATOM     48  O   UNL A   1      46.911  22.005  35.329  1.00  0.00    -0.237 OA
ATOM     49  O   UNL A   1      45.266  22.467  37.106  1.00  0.00    -0.744 OA
ENDBRANCH  45  46
ENDBRANCH  26  40
BRANCH  27  50
ATOM     50  C   UNL A   1      42.983  35.150  29.271  1.00  0.00    -0.014 A 
ATOM     51  C   UNL A   1      43.907  36.204  29.367  1.00  0.00     0.010 A 
ATOM     52  C   UNL A   1      41.813  35.334  28.508  1.00  0.00     0.010 A 
ATOM     53  C   UNL A   1      43.657  37.424  28.732  1.00  0.00     0.020 A 
ATOM     54  C   UNL A   1      41.576  36.540  27.845  1.00  0.00     0.020 A 
ATOM     55  C   UNL A   1      42.494  37.582  27.973  1.00  0.00     0.054 A 
BRANCH  55  56
ATOM     56  S   UNL A   1      42.214  39.160  27.123  1.00  0.00     0.124 S 
ATOM     57  O   UNL A   1      41.159  38.812  26.177  1.00  0.00    -0.237 OA
ATOM     58  O   UNL A   1      41.818  40.041  28.219  1.00  0.00    -0.237 OA
ATOM     59  O   UNL A   1      43.513  39.465  26.528  1.00  0.00    -0.744 OA
ENDBRANCH  55  56
ENDBRANCH  27  50
BRANCH  39  60
ATOM     60  C   UNL A   1      41.885  32.788  35.738  1.00  0.00    -0.014 A 
ATOM     61  C   UNL A   1      40.536  32.634  36.109  1.00  0.00     0.010 A 
ATOM     62  C   UNL A   1      42.736  33.551  36.559  1.00  0.00     0.010 A 
ATOM     63  C   UNL A   1      40.041  33.270  37.250  1.00  0.00     0.020 A 
ATOM     64  C   UNL A   1      42.253  34.160  37.719  1.00  0.00     0.020 A 
ATOM     65  C   UNL A   1      40.902  34.032  38.046  1.00  0.00     0.054 A 
BRANCH  65  66
ATOM     66  S   UNL A   1      40.240  34.833  39.532  1.00  0.00     0.124 S 
ATOM     67  O   UNL A   1      39.856  36.146  39.024  1.00  0.00    -0.237 OA
ATOM     68  O   UNL A   1      39.135  33.953  39.905  1.00  0.00    -0.237 OA
ATOM     69  O   UNL A   1      41.370  34.831  40.459  1.00  0.00    -0.744 OA
ENDBRANCH  65  66
ENDBRANCH  39  60
ENDBRANCH  13  14
ENDBRANCH   6   8
ENDBRANCH   3   4
ENDBRANCH   2   3
ENDBRANCH   1   2
BRANCH   1  70
ATOM     70  C   UNL A   1      44.216  24.415  25.603  1.00  0.00     0.002 C 
BRANCH  70  71
ATOM     71  C   UNL A   1      43.149  24.310  26.697  1.00  0.00     0.021 C 
BRANCH  71  72
ATOM     72  C   UNL A   1      42.162  25.474  26.743  1.00  0.00     0.116 C 
BRANCH  72  73
ATOM     73  N   UNL A   1      42.472  26.489  25.746  1.00  0.00    -0.352 N 
ATOM     74  C   UNL A   1      42.037  27.790  25.675  1.00  0.00     0.251 C 
ATOM     75  H   UNL A   1      43.077  26.203  25.025  1.00  0.00     0.163 HD
ATOM     76  O   UNL A   1      42.225  28.458  24.667  1.00  0.00    -0.269 OA
BRANCH  74  77
ATOM     77  C   UNL A   1      41.319  28.370  26.826  1.00  0.00     0.039 A 
ATOM     78  C   UNL A   1      40.035  28.879  26.644  1.00  0.00     0.014 A 
ATOM     79  C   UNL A   1      41.915  28.401  28.086  1.00  0.00     0.014 A 
ATOM     80  C   UNL A   1      39.310  29.327  27.751  1.00  0.00     0.005 A 
ATOM     81  C   UNL A   1      41.179  28.828  29.190  1.00  0.00     0.005 A 
ATOM     82  C   UNL A   1      39.847  29.255  29.051  1.00  0.00    -0.043 A 
BRANCH  82  83
ATOM     83  C   UNL A   1      38.989  29.646  30.255  1.00  0.00     0.039 C 
ATOM     84  C   UNL A   1      38.614  28.407  31.107  1.00  0.00     0.012 C 
ATOM     85  C   UNL A   1      39.642  30.705  31.174  1.00  0.00     0.128 C 
ATOM     86  C   UNL A   1      37.808  28.776  32.355  1.00  0.00     0.022 C 
ATOM     87  N   UNL A   1      38.812  30.997  32.334  1.00  0.00    -0.338 N 
ATOM     88  C   UNL A   1      38.514  29.845  33.181  1.00  0.00     0.120 C 
BRANCH  87  89
ATOM     89  C   UNL A   1      38.301  32.280  32.483  1.00  0.00     0.253 C 
ATOM     90  O   UNL A   1      38.825  33.158  33.163  1.00  0.00    -0.269 OA
BRANCH  89  91
ATOM     91  C   UNL A   1      37.083  32.639  31.744  1.00  0.00     0.040 A 
ATOM     92  C   UNL A   1      35.854  32.476  32.385  1.00  0.00     0.016 A 
ATOM     93  C   UNL A   1      37.177  33.082  30.418  1.00  0.00     0.024 A 
ATOM     94  C   UNL A   1      34.669  32.812  31.731  1.00  0.00     0.027 A 
ATOM     95  C   UNL A   1      35.985  33.385  29.735  1.00  0.00     0.000 A 
ATOM     96  C   UNL A   1      34.768  33.267  30.410  1.00  0.00     0.045 A 
ATOM     97  C   UNL A   1      35.686  33.791  28.405  1.00  0.00     0.028 A 
ATOM     98  N   UNL A   1      33.781  33.658  29.533  1.00  0.00    -0.361 N 
ATOM     99  C   UNL A   1      34.321  33.934  28.306  1.00  0.00     0.083 A 
ATOM    100  H   UNL A   1      32.825  33.730  29.756  1.00  0.00     0.166 HD
ENDBRANCH  89  91
ENDBRANCH  87  89
ENDBRANCH  82  83
ENDBRANCH  74  77
ENDBRANCH  72  73
ENDBRANCH  71  72
ENDBRANCH  70  71
ENDBRANCH   1  70
TORSDOF 19
ENDMDL
MODEL 3
REMARK VINA RESULT:     -10.4      6.237     11.881
REMARK SMILES O=C(NCCCCCCNC(=O)c1ccc([C@H]2CCCN(C(=O)c3ccc4[nH]ccc4c3)C2)cc1)c1ccc(-c2c3nc(c(-c4ccc(S(=O)(=O)[O-])cc4)c4ccc([nH]4)c(-c4ccc(S(=O)(=O)[O-])cc4)c4nc(c(-c5ccc(S(=O)(=O)[O-])cc5)c5ccc2[nH]5)C=C4)C=C3)cc1
REMARK SMILES IDX 6 1 5 2 4 3 3 4 1 5 2 6 36 8 37 9 95 10 38 11 94 12 39 13
REMARK SMILES IDX 40 14 41 15 88 16 42 17 93 18 87 19 89 20 43 21 92 22 86 23
REMARK SMILES IDX 85 24 44 26 74 27 55 28 73 29 56 30 59 31 72 32 90 33 57 34
REMARK SMILES IDX 58 35 71 37 91 38 60 39 45 40 46 41 54 42 47 43 53 44 48 45
REMARK SMILES IDX 49 46 50 47 51 48 52 49 75 50 76 51 84 52 77 53 83 54 78 55
REMARK SMILES IDX 79 56 80 57 81 58 82 59 61 60 62 61 70 62 63 63 69 64 64 65
REMARK SMILES IDX 65 66 66 67 67 68 68 69 7 70 8 71 9 72 10 73 11 74 12 76
REMARK SMILES IDX 13 77 14 78 35 79 15 80 34 81 16 82 17 83 18 84 33 85 19 86
REMARK SMILES IDX 21 87 20 88 22 89 23 90 24 91 25 92 32 93 26 94 31 95 27 96
REMARK SMILES IDX 30 97 28 98 29 99
REMARK H PARENT 3 7 89 25 59 36 10 75 28 100
REMARK Flexibility Score: inf
ROOT
ATOM      1  C   UNL A   1      35.425  32.511  30.309  1.00  0.00     0.002 C 
ENDROOT
BRANCH   1   2
ATOM      2  C   UNL A   1      36.216  33.372  31.292  1.00  0.00     0.021 C 
BRANCH   2   3
ATOM      3  C   UNL A   1      37.283  32.624  32.079  1.00  0.00     0.116 C 
BRANCH   3   4
ATOM      4  N   UNL A   1      36.820  31.340  32.584  1.00  0.00    -0.352 N 
ATOM      5  O   UNL A   1      36.761  29.092  32.792  1.00  0.00    -0.269 OA
ATOM      6  C   UNL A   1      37.369  30.090  32.417  1.00  0.00     0.251 C 
ATOM      7  H   UNL A   1      35.996  31.370  33.122  1.00  0.00     0.163 HD
BRANCH   6   8
ATOM      8  C   UNL A   1      38.683  29.956  31.748  1.00  0.00     0.039 A 
ATOM      9  C   UNL A   1      38.791  30.118  30.367  1.00  0.00     0.014 A 
ATOM     10  C   UNL A   1      39.808  29.627  32.507  1.00  0.00     0.014 A 
ATOM     11  C   UNL A   1      39.969  29.761  29.725  1.00  0.00     0.010 A 
ATOM     12  C   UNL A   1      41.026  29.377  31.865  1.00  0.00     0.010 A 
ATOM     13  C   UNL A   1      41.105  29.391  30.464  1.00  0.00    -0.014 A 
BRANCH  13  14
ATOM     14  C   UNL A   1      42.362  29.055  29.741  1.00  0.00     0.031 A 
ATOM     15  C   UNL A   1      42.536  27.728  29.048  1.00  0.00     0.074 A 
ATOM     16  C   UNL A   1      43.336  29.984  29.670  1.00  0.00     0.049 A 
ATOM     17  N   UNL A   1      43.543  27.304  28.326  1.00  0.00    -0.248 NA
ATOM     18  C   UNL A   1      41.449  26.746  29.188  1.00  0.00     0.031 C 
ATOM     19  C   UNL A   1      43.287  31.308  30.300  1.00  0.00     0.029 A 
ATOM     20  N   UNL A   1      44.542  29.976  29.016  1.00  0.00    -0.354 N 
ATOM     21  C   UNL A   1      43.226  26.003  27.949  1.00  0.00     0.074 A 
ATOM     22  C   UNL A   1      41.943  25.697  28.544  1.00  0.00     0.031 C 
ATOM     23  C   UNL A   1      44.377  32.004  29.949  1.00  0.00     0.029 A 
ATOM     24  C   UNL A   1      45.238  31.157  29.133  1.00  0.00     0.049 A 
ATOM     25  H   UNL A   1      44.876  29.200  28.511  1.00  0.00     0.167 HD
ATOM     26  C   UNL A   1      43.936  25.145  27.176  1.00  0.00     0.031 A 
ATOM     27  C   UNL A   1      46.442  31.518  28.653  1.00  0.00     0.031 A 
ATOM     28  C   UNL A   1      45.213  25.458  26.585  1.00  0.00     0.049 A 
ATOM     29  C   UNL A   1      47.219  30.537  27.823  1.00  0.00     0.074 A 
ATOM     30  C   UNL A   1      45.992  24.669  25.754  1.00  0.00     0.029 A 
ATOM     31  N   UNL A   1      45.904  26.647  26.766  1.00  0.00    -0.354 N 
ATOM     32  N   UNL A   1      46.881  29.327  27.447  1.00  0.00    -0.248 NA
ATOM     33  C   UNL A   1      48.537  30.974  27.349  1.00  0.00     0.031 C 
ATOM     34  C   UNL A   1      47.182  25.356  25.488  1.00  0.00     0.029 A 
ATOM     35  C   UNL A   1      47.111  26.603  26.087  1.00  0.00     0.049 A 
ATOM     36  H   UNL A   1      45.583  27.411  27.298  1.00  0.00     0.167 HD
ATOM     37  C   UNL A   1      47.934  28.870  26.661  1.00  0.00     0.074 A 
ATOM     38  C   UNL A   1      48.908  29.941  26.606  1.00  0.00     0.031 C 
ATOM     39  C   UNL A   1      48.076  27.674  26.039  1.00  0.00     0.031 A 
BRANCH  26  40
ATOM     40  C   UNL A   1      43.369  23.764  26.951  1.00  0.00    -0.014 A 
ATOM     41  C   UNL A   1      42.719  23.419  25.752  1.00  0.00     0.010 A 
ATOM     42  C   UNL A   1      43.535  22.778  27.942  1.00  0.00     0.010 A 
ATOM     43  C   UNL A   1      42.208  22.130  25.567  1.00  0.00     0.020 A 
ATOM     44  C   UNL A   1      43.054  21.480  27.749  1.00  0.00     0.020 A 
ATOM     45  C   UNL A   1      42.377  21.169  26.569  1.00  0.00     0.054 A 
BRANCH  45  46
ATOM     46  S   UNL A   1      41.719  19.500  26.295  1.00  0.00     0.124 S 
ATOM     47  O   UNL A   1      42.542  19.033  25.181  1.00  0.00    -0.237 OA
ATOM     48  O   UNL A   1      41.968  18.844  27.576  1.00  0.00    -0.237 OA
ATOM     49  O   UNL A   1      40.313  19.729  25.976  1.00  0.00    -0.744 OA
ENDBRANCH  45  46
ENDBRANCH  26  40
BRANCH  27  50
ATOM     50  C   UNL A   1      46.980  32.874  28.947  1.00  0.00    -0.014 A 
ATOM     51  C   UNL A   1      47.140  33.821  27.920  1.00  0.00     0.010 A 
ATOM     52  C   UNL A   1      47.321  33.232  30.266  1.00  0.00     0.010 A 
ATOM     53  C   UNL A   1      47.651  35.091  28.203  1.00  0.00     0.020 A 
ATOM     54  C   UNL A   1      47.798  34.511  30.558  1.00  0.00     0.020 A 
ATOM     55  C   UNL A   1      47.973  35.428  29.521  1.00  0.00     0.054 A 
BRANCH  55  56
ATOM     56  S   UNL A   1      48.592  37.097  29.869  1.00  0.00     0.124 S 
ATOM     57  O   UNL A   1      49.959  37.025  29.365  1.00  0.00    -0.237 OA
ATOM     58  O   UNL A   1      47.676  37.938  29.101  1.00  0.00    -0.237 OA
ATOM     59  O   UNL A   1      48.463  37.215  31.320  1.00  0.00    -0.744 OA
ENDBRANCH  55  56
ENDBRANCH  27  50
BRANCH  39  60
ATOM     60  C   UNL A   1      49.309  27.478  25.196  1.00  0.00    -0.014 A 
ATOM     61  C   UNL A   1      50.522  27.030  25.750  1.00  0.00     0.010 A 
ATOM     62  C   UNL A   1      49.242  27.730  23.812  1.00  0.00     0.010 A 
ATOM     63  C   UNL A   1      51.654  26.882  24.946  1.00  0.00     0.020 A 
ATOM     64  C   UNL A   1      50.363  27.551  22.999  1.00  0.00     0.020 A 
ATOM     65  C   UNL A   1      51.569  27.147  23.575  1.00  0.00     0.054 A 
BRANCH  65  66
ATOM     66  S   UNL A   1      53.047  26.931  22.549  1.00  0.00     0.124 S 
ATOM     67  O   UNL A   1      53.360  28.307  22.173  1.00  0.00    -0.237 OA
ATOM     68  O   UNL A   1      53.989  26.301  23.472  1.00  0.00    -0.237 OA
ATOM     69  O   UNL A   1      52.588  26.076  21.455  1.00  0.00    -0.744 OA
ENDBRANCH  65  66
ENDBRANCH  39  60
ENDBRANCH  13  14
ENDBRANCH   6   8
ENDBRANCH   3   4
ENDBRANCH   2   3
ENDBRANCH   1   2
BRANCH   1  70
ATOM     70  C   UNL A   1      35.569  32.903  28.836  1.00  0.00     0.002 C 
BRANCH  70  71
ATOM     71  C   UNL A   1      36.027  31.782  27.899  1.00  0.00     0.021 C 
BRANCH  71  72
ATOM     72  C   UNL A   1      34.977  30.709  27.622  1.00  0.00     0.116 C 
BRANCH  72  73
ATOM     73  N   UNL A   1      33.681  31.289  27.298  1.00  0.00    -0.352 N 
ATOM     74  C   UNL A   1      32.637  30.733  26.599  1.00  0.00     0.251 C 
ATOM     75  H   UNL A   1      33.533  32.205  27.627  1.00  0.00     0.163 HD
ATOM     76  O   UNL A   1      31.691  31.420  26.237  1.00  0.00    -0.269 OA
BRANCH  74  77
ATOM     77  C   UNL A   1      32.680  29.295  26.270  1.00  0.00     0.039 A 
ATOM     78  C   UNL A   1      33.173  28.893  25.031  1.00  0.00     0.014 A 
ATOM     79  C   UNL A   1      32.239  28.348  27.193  1.00  0.00     0.014 A 
ATOM     80  C   UNL A   1      33.318  27.529  24.759  1.00  0.00     0.005 A 
ATOM     81  C   UNL A   1      32.408  26.991  26.925  1.00  0.00     0.005 A 
ATOM     82  C   UNL A   1      32.993  26.556  25.723  1.00  0.00    -0.043 A 
BRANCH  82  83
ATOM     83  C   UNL A   1      33.268  25.079  25.440  1.00  0.00     0.039 C 
ATOM     84  C   UNL A   1      34.790  24.791  25.375  1.00  0.00     0.012 C 
ATOM     85  C   UNL A   1      32.620  24.113  26.459  1.00  0.00     0.128 C 
ATOM     86  C   UNL A   1      35.096  23.307  25.155  1.00  0.00     0.022 C 
ATOM     87  N   UNL A   1      32.962  22.726  26.179  1.00  0.00    -0.338 N 
ATOM     88  C   UNL A   1      34.393  22.432  26.186  1.00  0.00     0.120 C 
BRANCH  87  89
ATOM     89  C   UNL A   1      31.945  21.844  25.837  1.00  0.00     0.253 C 
ATOM     90  O   UNL A   1      30.764  22.003  26.131  1.00  0.00    -0.269 OA
BRANCH  89  91
ATOM     91  C   UNL A   1      32.283  20.666  25.026  1.00  0.00     0.040 A 
ATOM     92  C   UNL A   1      32.196  20.778  23.637  1.00  0.00     0.016 A 
ATOM     93  C   UNL A   1      32.631  19.463  25.654  1.00  0.00     0.024 A 
ATOM     94  C   UNL A   1      32.516  19.692  22.822  1.00  0.00     0.027 A 
ATOM     95  C   UNL A   1      32.917  18.350  24.843  1.00  0.00     0.000 A 
ATOM     96  C   UNL A   1      32.876  18.495  23.454  1.00  0.00     0.045 A 
ATOM     97  C   UNL A   1      33.238  16.991  25.110  1.00  0.00     0.028 A 
ATOM     98  N   UNL A   1      33.231  17.281  22.911  1.00  0.00    -0.361 N 
ATOM     99  C   UNL A   1      33.408  16.354  23.902  1.00  0.00     0.083 A 
ATOM    100  H   UNL A   1      33.343  17.105  21.949  1.00  0.00     0.166 HD
ENDBRANCH  89  91
ENDBRANCH  87  89
ENDBRANCH  82  83
ENDBRANCH  74  77
ENDBRANCH  72  73
ENDBRANCH  71  72
ENDBRANCH  70  71
ENDBRANCH   1  70
TORSDOF 19
ENDMDL
