MODEL 1
REMARK VINA RESULT:     -13.6      0.000      0.000
REMARK SMILES Cc1cccc(-c2cccc(C(=O)NCCCCCCNC(=O)c3ccc(-c4c5nc(c(-c6ccc(S(=O)(=O)[O-])cc6)c6ccc([nH]6)c(-c6ccc(S(=O)(=O)[O-])cc6)c6nc(c(-c7ccc(S(=O)(=O)[O-])cc7)c7ccc4[nH]7)C=C6)C=C5)cc3)c2)c1
REMARK SMILES IDX 18 1 17 2 16 3 15 4 14 5 12 6 13 7 11 9 7 10 8 11 84 12 9 13
REMARK SMILES IDX 10 14 6 15 1 16 2 17 3 18 85 19 4 20 5 21 19 22 20 23 21 24
REMARK SMILES IDX 22 25 23 27 24 28 25 29 83 30 26 31 82 32 27 33 28 34 29 35
REMARK SMILES IDX 76 36 30 37 81 38 75 39 77 40 31 41 80 42 74 43 73 44 32 46
REMARK SMILES IDX 62 47 43 48 61 49 44 50 47 51 60 52 78 53 45 54 46 55 59 57
REMARK SMILES IDX 79 58 48 59 33 60 34 61 42 62 35 63 41 64 36 65 37 66 38 67
REMARK SMILES IDX 39 68 40 69 63 70 64 71 72 72 65 73 71 74 66 75 67 76 68 77
REMARK SMILES IDX 69 78 70 79 49 80 50 81 58 82 51 83 57 84 52 85 53 86 54 87
REMARK SMILES IDX 55 88 56 89
REMARK H PARENT 14 8 21 26 77 45 47 56
REMARK Flexibility Score: inf
ROOT
ATOM      1  C   UNL A   1      32.328  29.883  26.618  1.00  0.00     0.002 C 
ENDROOT
BRANCH   1   2
ATOM      2  C   UNL A   1      32.322  28.433  27.117  1.00  0.00     0.002 C 
BRANCH   2   3
ATOM      3  C   UNL A   1      32.751  27.325  26.149  1.00  0.00     0.021 C 
BRANCH   3   4
ATOM      4  C   UNL A   1      33.656  27.693  24.974  1.00  0.00     0.116 C 
BRANCH   4   5
ATOM      5  N   UNL A   1      33.639  26.760  23.863  1.00  0.00    -0.352 N 
ATOM      6  C   UNL A   1      32.608  26.323  23.059  1.00  0.00     0.251 C 
ATOM      7  O   UNL A   1      32.873  25.520  22.162  1.00  0.00    -0.269 OA
ATOM      8  H   UNL A   1      34.517  26.371  23.646  1.00  0.00     0.163 HD
BRANCH   6   9
ATOM      9  C   UNL A   1      31.184  26.749  23.232  1.00  0.00     0.040 A 
ATOM     10  C   UNL A   1      29.541  28.573  23.055  1.00  0.00    -0.018 A 
ATOM     11  C   UNL A   1      28.552  27.682  23.500  1.00  0.00     0.009 A 
ATOM     12  C   UNL A   1      30.849  28.077  22.892  1.00  0.00     0.022 A 
ATOM     13  C   UNL A   1      28.874  26.381  23.876  1.00  0.00     0.001 A 
ATOM     14  C   UNL A   1      30.193  25.936  23.790  1.00  0.00     0.014 A 
BRANCH  10  15
ATOM     15  C   UNL A   1      29.214  29.999  22.865  1.00  0.00    -0.018 A 
ATOM     16  C   UNL A   1      27.833  32.202  20.056  1.00  0.00     0.044 C 
ATOM     17  C   UNL A   1      28.372  31.773  21.389  1.00  0.00    -0.051 A 
ATOM     18  C   UNL A   1      28.559  32.705  22.412  1.00  0.00     0.003 A 
ATOM     19  C   UNL A   1      28.702  30.433  21.626  1.00  0.00     0.012 A 
ATOM     20  C   UNL A   1      29.061  32.296  23.650  1.00  0.00     0.001 A 
ATOM     21  C   UNL A   1      29.383  30.953  23.876  1.00  0.00     0.009 A 
ENDBRANCH  10  15
ENDBRANCH   6   9
ENDBRANCH   4   5
ENDBRANCH   3   4
ENDBRANCH   2   3
ENDBRANCH   1   2
BRANCH   1  22
ATOM     22  C   UNL A   1      33.513  30.765  27.009  1.00  0.00     0.021 C 
BRANCH  22  23
ATOM     23  C   UNL A   1      34.529  30.113  27.943  1.00  0.00     0.116 C 
BRANCH  23  24
ATOM     24  N   UNL A   1      35.335  31.087  28.686  1.00  0.00    -0.352 N 
ATOM     25  C   UNL A   1      36.608  30.934  29.212  1.00  0.00     0.251 C 
ATOM     26  H   UNL A   1      34.916  31.966  28.831  1.00  0.00     0.163 HD
ATOM     27  O   UNL A   1      37.183  31.773  29.881  1.00  0.00    -0.269 OA
BRANCH  25  28
ATOM     28  C   UNL A   1      37.320  29.704  28.823  1.00  0.00     0.039 A 
ATOM     29  C   UNL A   1      37.579  28.789  29.849  1.00  0.00     0.014 A 
ATOM     30  C   UNL A   1      38.035  29.700  27.628  1.00  0.00     0.014 A 
ATOM     31  C   UNL A   1      38.728  28.017  29.773  1.00  0.00     0.010 A 
ATOM     32  C   UNL A   1      39.224  29.000  27.597  1.00  0.00     0.010 A 
ATOM     33  C   UNL A   1      39.600  28.228  28.702  1.00  0.00    -0.014 A 
BRANCH  33  34
ATOM     34  C   UNL A   1      40.978  27.763  28.749  1.00  0.00     0.031 A 
ATOM     35  C   UNL A   1      41.274  26.386  28.324  1.00  0.00     0.074 A 
ATOM     36  C   UNL A   1      41.950  28.549  29.263  1.00  0.00     0.049 A 
ATOM     37  N   UNL A   1      42.141  25.617  28.889  1.00  0.00    -0.248 NA
ATOM     38  C   UNL A   1      40.526  25.742  27.249  1.00  0.00     0.031 C 
ATOM     39  C   UNL A   1      43.379  28.253  29.309  1.00  0.00     0.029 A 
ATOM     40  N   UNL A   1      41.807  29.671  30.086  1.00  0.00    -0.354 N 
ATOM     41  C   UNL A   1      42.271  24.506  28.087  1.00  0.00     0.074 A 
ATOM     42  C   UNL A   1      41.176  24.582  27.147  1.00  0.00     0.031 C 
ATOM     43  C   UNL A   1      43.915  28.928  30.338  1.00  0.00     0.029 A 
ATOM     44  C   UNL A   1      42.829  29.597  31.040  1.00  0.00     0.049 A 
ATOM     45  H   UNL A   1      41.121  30.374  30.009  1.00  0.00     0.167 HD
ATOM     46  C   UNL A   1      43.383  23.723  28.176  1.00  0.00     0.031 A 
ATOM     47  C   UNL A   1      42.608  29.553  32.383  1.00  0.00     0.031 A 
ATOM     48  C   UNL A   1      44.284  24.182  29.231  1.00  0.00     0.049 A 
ATOM     49  C   UNL A   1      43.168  28.297  33.021  1.00  0.00     0.074 A 
ATOM     50  C   UNL A   1      45.430  24.961  29.206  1.00  0.00     0.029 A 
ATOM     51  N   UNL A   1      43.874  24.132  30.560  1.00  0.00    -0.354 N 
ATOM     52  N   UNL A   1      43.520  27.233  32.351  1.00  0.00    -0.248 NA
ATOM     53  C   UNL A   1      43.351  28.131  34.460  1.00  0.00     0.031 C 
ATOM     54  C   UNL A   1      45.656  25.454  30.516  1.00  0.00     0.029 A 
ATOM     55  C   UNL A   1      44.671  24.946  31.345  1.00  0.00     0.049 A 
ATOM     56  H   UNL A   1      43.121  23.592  30.895  1.00  0.00     0.167 HD
ATOM     57  C   UNL A   1      43.984  26.272  33.216  1.00  0.00     0.074 A 
ATOM     58  C   UNL A   1      43.861  26.887  34.526  1.00  0.00     0.031 C 
ATOM     59  C   UNL A   1      44.439  25.058  32.781  1.00  0.00     0.031 A 
BRANCH  46  60
ATOM     60  C   UNL A   1      43.778  22.811  27.034  1.00  0.00    -0.014 A 
ATOM     61  C   UNL A   1      42.919  21.765  26.643  1.00  0.00     0.010 A 
ATOM     62  C   UNL A   1      45.026  22.869  26.382  1.00  0.00     0.010 A 
ATOM     63  C   UNL A   1      43.338  20.750  25.769  1.00  0.00     0.020 A 
ATOM     64  C   UNL A   1      45.478  21.836  25.548  1.00  0.00     0.020 A 
ATOM     65  C   UNL A   1      44.634  20.769  25.261  1.00  0.00     0.054 A 
BRANCH  65  66
ATOM     66  S   UNL A   1      45.209  19.376  24.253  1.00  0.00     0.124 S 
ATOM     67  O   UNL A   1      44.531  19.603  22.978  1.00  0.00    -0.237 OA
ATOM     68  O   UNL A   1      46.654  19.575  24.243  1.00  0.00    -0.237 OA
ATOM     69  O   UNL A   1      44.747  18.201  24.991  1.00  0.00    -0.744 OA
ENDBRANCH  65  66
ENDBRANCH  46  60
BRANCH  47  70
ATOM     70  C   UNL A   1      41.430  30.326  32.863  1.00  0.00    -0.014 A 
ATOM     71  C   UNL A   1      40.214  29.628  33.028  1.00  0.00     0.010 A 
ATOM     72  C   UNL A   1      41.563  31.588  33.464  1.00  0.00     0.010 A 
ATOM     73  C   UNL A   1      39.204  30.121  33.860  1.00  0.00     0.020 A 
ATOM     74  C   UNL A   1      40.553  32.084  34.306  1.00  0.00     0.020 A 
ATOM     75  C   UNL A   1      39.401  31.325  34.535  1.00  0.00     0.054 A 
BRANCH  75  76
ATOM     76  S   UNL A   1      38.155  31.850  35.755  1.00  0.00     0.124 S 
ATOM     77  O   UNL A   1      38.823  32.958  36.432  1.00  0.00    -0.237 OA
ATOM     78  O   UNL A   1      37.029  32.230  34.903  1.00  0.00    -0.237 OA
ATOM     79  O   UNL A   1      37.957  30.653  36.564  1.00  0.00    -0.744 OA
ENDBRANCH  75  76
ENDBRANCH  47  70
BRANCH  59  80
ATOM     80  C   UNL A   1      44.815  23.874  33.649  1.00  0.00    -0.014 A 
ATOM     81  C   UNL A   1      43.943  22.834  34.002  1.00  0.00     0.010 A 
ATOM     82  C   UNL A   1      46.170  23.727  34.044  1.00  0.00     0.010 A 
ATOM     83  C   UNL A   1      44.387  21.732  34.753  1.00  0.00     0.020 A 
ATOM     84  C   UNL A   1      46.632  22.614  34.750  1.00  0.00     0.020 A 
ATOM     85  C   UNL A   1      45.728  21.628  35.122  1.00  0.00     0.054 A 
BRANCH  85  86
ATOM     86  S   UNL A   1      46.311  20.164  36.012  1.00  0.00     0.124 S 
ATOM     87  O   UNL A   1      47.760  20.312  35.918  1.00  0.00    -0.237 OA
ATOM     88  O   UNL A   1      45.748  20.345  37.348  1.00  0.00    -0.237 OA
ATOM     89  O   UNL A   1      45.742  19.054  35.252  1.00  0.00    -0.744 OA
ENDBRANCH  85  86
ENDBRANCH  59  80
ENDBRANCH  33  34
ENDBRANCH  25  28
ENDBRANCH  23  24
ENDBRANCH  22  23
ENDBRANCH   1  22
TORSDOF 17
ENDMDL
MODEL 2
REMARK VINA RESULT:     -13.0      4.881     11.355
REMARK SMILES Cc1cccc(-c2cccc(C(=O)NCCCCCCNC(=O)c3ccc(-c4c5nc(c(-c6ccc(S(=O)(=O)[O-])cc6)c6ccc([nH]6)c(-c6ccc(S(=O)(=O)[O-])cc6)c6nc(c(-c7ccc(S(=O)(=O)[O-])cc7)c7ccc4[nH]7)C=C6)C=C5)cc3)c2)c1
REMARK SMILES IDX 18 1 17 2 16 3 15 4 14 5 12 6 13 7 11 9 7 10 8 11 84 12 9 13
REMARK SMILES IDX 10 14 6 15 1 16 2 17 3 18 85 19 4 20 5 21 19 22 20 23 21 24
REMARK SMILES IDX 22 25 23 27 24 28 25 29 83 30 26 31 82 32 27 33 28 34 29 35
REMARK SMILES IDX 76 36 30 37 81 38 75 39 77 40 31 41 80 42 74 43 73 44 32 46
REMARK SMILES IDX 62 47 43 48 61 49 44 50 47 51 60 52 78 53 45 54 46 55 59 57
REMARK SMILES IDX 79 58 48 59 33 60 34 61 42 62 35 63 41 64 36 65 37 66 38 67
REMARK SMILES IDX 39 68 40 69 63 70 64 71 72 72 65 73 71 74 66 75 67 76 68 77
REMARK SMILES IDX 69 78 70 79 49 80 50 81 58 82 51 83 57 84 52 85 53 86 54 87
REMARK SMILES IDX 55 88 56 89
REMARK H PARENT 14 8 21 26 77 45 47 56
REMARK Flexibility Score: inf
ROOT
ATOM      1  C   UNL A   1      36.845  23.085  25.846  1.00  0.00     0.002 C 
ENDROOT
BRANCH   1   2
ATOM      2  C   UNL A   1      35.813  24.035  25.226  1.00  0.00     0.002 C 
BRANCH   2   3
ATOM      3  C   UNL A   1      34.328  23.789  25.513  1.00  0.00     0.021 C 
BRANCH   3   4
ATOM      4  C   UNL A   1      33.368  23.657  24.331  1.00  0.00     0.116 C 
BRANCH   4   5
ATOM      5  N   UNL A   1      33.732  24.420  23.150  1.00  0.00    -0.352 N 
ATOM      6  C   UNL A   1      33.588  25.758  22.853  1.00  0.00     0.251 C 
ATOM      7  O   UNL A   1      34.000  26.156  21.762  1.00  0.00    -0.269 OA
ATOM      8  H   UNL A   1      34.154  23.888  22.438  1.00  0.00     0.163 HD
BRANCH   6   9
ATOM      9  C   UNL A   1      32.937  26.745  23.770  1.00  0.00     0.040 A 
ATOM     10  C   UNL A   1      31.014  28.227  24.175  1.00  0.00    -0.018 A 
ATOM     11  C   UNL A   1      31.598  28.598  25.396  1.00  0.00     0.009 A 
ATOM     12  C   UNL A   1      31.683  27.269  23.389  1.00  0.00     0.022 A 
ATOM     13  C   UNL A   1      32.852  28.121  25.767  1.00  0.00     0.001 A 
ATOM     14  C   UNL A   1      33.538  27.239  24.931  1.00  0.00     0.014 A 
BRANCH  10  15
ATOM     15  C   UNL A   1      29.790  28.906  23.709  1.00  0.00    -0.018 A 
ATOM     16  C   UNL A   1      28.631  32.511  23.150  1.00  0.00     0.044 C 
ATOM     17  C   UNL A   1      28.629  31.012  23.205  1.00  0.00    -0.051 A 
ATOM     18  C   UNL A   1      27.495  30.289  22.828  1.00  0.00     0.003 A 
ATOM     19  C   UNL A   1      29.762  30.313  23.642  1.00  0.00     0.012 A 
ATOM     20  C   UNL A   1      27.503  28.894  22.881  1.00  0.00     0.001 A 
ATOM     21  C   UNL A   1      28.642  28.207  23.316  1.00  0.00     0.009 A 
ENDBRANCH  10  15
ENDBRANCH   6   9
ENDBRANCH   4   5
ENDBRANCH   3   4
ENDBRANCH   2   3
ENDBRANCH   1   2
BRANCH   1  22
ATOM     22  C   UNL A   1      38.324  23.426  25.665  1.00  0.00     0.021 C 
BRANCH  22  23
ATOM     23  C   UNL A   1      39.198  23.205  26.898  1.00  0.00     0.116 C 
BRANCH  23  24
ATOM     24  N   UNL A   1      40.599  23.578  26.682  1.00  0.00    -0.352 N 
ATOM     25  C   UNL A   1      41.160  24.846  26.645  1.00  0.00     0.251 C 
ATOM     26  H   UNL A   1      41.224  22.830  26.544  1.00  0.00     0.163 HD
ATOM     27  O   UNL A   1      42.328  25.075  26.389  1.00  0.00    -0.269 OA
BRANCH  25  28
ATOM     28  C   UNL A   1      40.277  25.950  27.054  1.00  0.00     0.039 A 
ATOM     29  C   UNL A   1      40.507  27.186  26.440  1.00  0.00     0.014 A 
ATOM     30  C   UNL A   1      39.589  25.839  28.260  1.00  0.00     0.014 A 
ATOM     31  C   UNL A   1      40.255  28.342  27.162  1.00  0.00     0.010 A 
ATOM     32  C   UNL A   1      39.426  26.985  29.011  1.00  0.00     0.010 A 
ATOM     33  C   UNL A   1      39.835  28.218  28.488  1.00  0.00    -0.014 A 
BRANCH  33  34
ATOM     34  C   UNL A   1      39.926  29.335  29.416  1.00  0.00     0.031 A 
ATOM     35  C   UNL A   1      38.868  30.357  29.398  1.00  0.00     0.074 A 
ATOM     36  C   UNL A   1      41.010  29.480  30.210  1.00  0.00     0.049 A 
ATOM     37  N   UNL A   1      39.069  31.621  29.558  1.00  0.00    -0.248 NA
ATOM     38  C   UNL A   1      37.480  30.014  29.106  1.00  0.00     0.031 C 
ATOM     39  C   UNL A   1      41.210  30.499  31.237  1.00  0.00     0.029 A 
ATOM     40  N   UNL A   1      42.267  28.884  30.071  1.00  0.00    -0.354 N 
ATOM     41  C   UNL A   1      37.831  32.210  29.680  1.00  0.00     0.074 A 
ATOM     42  C   UNL A   1      36.883  31.193  29.287  1.00  0.00     0.031 C 
ATOM     43  C   UNL A   1      42.530  30.687  31.391  1.00  0.00     0.029 A 
ATOM     44  C   UNL A   1      43.210  29.865  30.400  1.00  0.00     0.049 A 
ATOM     45  H   UNL A   1      42.452  27.956  29.795  1.00  0.00     0.167 HD
ATOM     46  C   UNL A   1      37.709  33.434  30.267  1.00  0.00     0.031 A 
ATOM     47  C   UNL A   1      44.184  30.294  29.549  1.00  0.00     0.031 A 
ATOM     48  C   UNL A   1      39.011  33.992  30.629  1.00  0.00     0.049 A 
ATOM     49  C   UNL A   1      44.089  31.779  29.263  1.00  0.00     0.074 A 
ATOM     50  C   UNL A   1      39.710  34.029  31.825  1.00  0.00     0.029 A 
ATOM     51  N   UNL A   1      39.925  34.316  29.631  1.00  0.00    -0.354 N 
ATOM     52  N   UNL A   1      43.033  32.505  29.514  1.00  0.00    -0.248 NA
ATOM     53  C   UNL A   1      45.162  32.556  28.649  1.00  0.00     0.031 C 
ATOM     54  C   UNL A   1      41.073  34.290  31.530  1.00  0.00     0.029 A 
ATOM     55  C   UNL A   1      41.196  34.448  30.161  1.00  0.00     0.049 A 
ATOM     56  H   UNL A   1      39.699  34.434  28.679  1.00  0.00     0.167 HD
ATOM     57  C   UNL A   1      43.264  33.806  29.140  1.00  0.00     0.074 A 
ATOM     58  C   UNL A   1      44.615  33.785  28.607  1.00  0.00     0.031 C 
ATOM     59  C   UNL A   1      42.330  34.791  29.309  1.00  0.00     0.031 A 
BRANCH  46  60
ATOM     60  C   UNL A   1      36.383  33.888  30.836  1.00  0.00    -0.014 A 
ATOM     61  C   UNL A   1      35.289  34.109  29.975  1.00  0.00     0.010 A 
ATOM     62  C   UNL A   1      36.185  34.217  32.192  1.00  0.00     0.010 A 
ATOM     63  C   UNL A   1      34.125  34.760  30.410  1.00  0.00     0.020 A 
ATOM     64  C   UNL A   1      35.049  34.914  32.630  1.00  0.00     0.020 A 
ATOM     65  C   UNL A   1      34.030  35.199  31.728  1.00  0.00     0.054 A 
BRANCH  65  66
ATOM     66  S   UNL A   1      32.584  36.168  32.236  1.00  0.00     0.124 S 
ATOM     67  O   UNL A   1      31.652  35.137  32.687  1.00  0.00    -0.237 OA
ATOM     68  O   UNL A   1      33.135  37.022  33.283  1.00  0.00    -0.237 OA
ATOM     69  O   UNL A   1      32.185  36.861  31.012  1.00  0.00    -0.744 OA
ENDBRANCH  65  66
ENDBRANCH  46  60
BRANCH  47  70
ATOM     70  C   UNL A   1      44.729  29.259  28.628  1.00  0.00    -0.014 A 
ATOM     71  C   UNL A   1      44.004  28.990  27.447  1.00  0.00     0.010 A 
ATOM     72  C   UNL A   1      46.057  28.812  28.714  1.00  0.00     0.010 A 
ATOM     73  C   UNL A   1      44.618  28.393  26.340  1.00  0.00     0.020 A 
ATOM     74  C   UNL A   1      46.680  28.218  27.602  1.00  0.00     0.020 A 
ATOM     75  C   UNL A   1      45.970  28.057  26.408  1.00  0.00     0.054 A 
BRANCH  75  76
ATOM     76  S   UNL A   1      46.791  27.458  24.898  1.00  0.00     0.124 S 
ATOM     77  O   UNL A   1      46.613  28.577  23.977  1.00  0.00    -0.237 OA
ATOM     78  O   UNL A   1      48.163  27.242  25.357  1.00  0.00    -0.237 OA
ATOM     79  O   UNL A   1      46.041  26.252  24.567  1.00  0.00    -0.744 OA
ENDBRANCH  75  76
ENDBRANCH  47  70
BRANCH  59  80
ATOM     80  C   UNL A   1      42.414  36.211  28.787  1.00  0.00    -0.014 A 
ATOM     81  C   UNL A   1      43.017  37.278  29.467  1.00  0.00     0.010 A 
ATOM     82  C   UNL A   1      41.961  36.475  27.468  1.00  0.00     0.010 A 
ATOM     83  C   UNL A   1      43.118  38.553  28.886  1.00  0.00     0.020 A 
ATOM     84  C   UNL A   1      42.097  37.726  26.862  1.00  0.00     0.020 A 
ATOM     85  C   UNL A   1      42.658  38.769  27.587  1.00  0.00     0.054 A 
BRANCH  85  86
ATOM     86  S   UNL A   1      42.870  40.390  26.810  1.00  0.00     0.124 S 
ATOM     87  O   UNL A   1      43.790  40.084  25.719  1.00  0.00    -0.237 OA
ATOM     88  O   UNL A   1      41.510  40.741  26.402  1.00  0.00    -0.237 OA
ATOM     89  O   UNL A   1      43.419  41.214  27.883  1.00  0.00    -0.744 OA
ENDBRANCH  85  86
ENDBRANCH  59  80
ENDBRANCH  33  34
ENDBRANCH  25  28
ENDBRANCH  23  24
ENDBRANCH  22  23
ENDBRANCH   1  22
TORSDOF 17
ENDMDL
MODEL 3
REMARK VINA RESULT:     -13.0      1.893      3.785
REMARK SMILES Cc1cccc(-c2cccc(C(=O)NCCCCCCNC(=O)c3ccc(-c4c5nc(c(-c6ccc(S(=O)(=O)[O-])cc6)c6ccc([nH]6)c(-c6ccc(S(=O)(=O)[O-])cc6)c6nc(c(-c7ccc(S(=O)(=O)[O-])cc7)c7ccc4[nH]7)C=C6)C=C5)cc3)c2)c1
REMARK SMILES IDX 18 1 17 2 16 3 15 4 14 5 12 6 13 7 11 9 7 10 8 11 84 12 9 13
REMARK SMILES IDX 10 14 6 15 1 16 2 17 3 18 85 19 4 20 5 21 19 22 20 23 21 24
REMARK SMILES IDX 22 25 23 27 24 28 25 29 83 30 26 31 82 32 27 33 28 34 29 35
REMARK SMILES IDX 76 36 30 37 81 38 75 39 77 40 31 41 80 42 74 43 73 44 32 46
REMARK SMILES IDX 62 47 43 48 61 49 44 50 47 51 60 52 78 53 45 54 46 55 59 57
REMARK SMILES IDX 79 58 48 59 33 60 34 61 42 62 35 63 41 64 36 65 37 66 38 67
REMARK SMILES IDX 39 68 40 69 63 70 64 71 72 72 65 73 71 74 66 75 67 76 68 77
REMARK SMILES IDX 69 78 70 79 49 80 50 81 58 82 51 83 57 84 52 85 53 86 54 87
REMARK SMILES IDX 55 88 56 89
REMARK H PARENT 14 8 21 26 77 45 47 56
REMARK Flexibility Score: inf
ROOT
ATOM      1  C   UNL A   1      31.997  30.025  27.001  1.00  0.00     0.002 C 
ENDROOT
BRANCH   1   2
ATOM      2  C   UNL A   1      31.786  28.853  26.034  1.00  0.00     0.002 C 
BRANCH   2   3
ATOM      3  C   UNL A   1      32.686  28.753  24.798  1.00  0.00     0.021 C 
BRANCH   3   4
ATOM      4  C   UNL A   1      32.030  28.719  23.418  1.00  0.00     0.116 C 
BRANCH   4   5
ATOM      5  N   UNL A   1      32.799  28.053  22.383  1.00  0.00    -0.352 N 
ATOM      6  C   UNL A   1      32.908  26.720  22.047  1.00  0.00     0.251 C 
ATOM      7  O   UNL A   1      33.636  26.419  21.099  1.00  0.00    -0.269 OA
ATOM      8  H   UNL A   1      33.337  28.658  21.823  1.00  0.00     0.163 HD
BRANCH   6   9
ATOM      9  C   UNL A   1      32.213  25.620  22.787  1.00  0.00     0.040 A 
ATOM     10  C   UNL A   1      32.415  23.431  23.894  1.00  0.00    -0.018 A 
ATOM     11  C   UNL A   1      31.044  23.491  24.191  1.00  0.00     0.009 A 
ATOM     12  C   UNL A   1      32.991  24.526  23.221  1.00  0.00     0.022 A 
ATOM     13  C   UNL A   1      30.256  24.545  23.735  1.00  0.00     0.001 A 
ATOM     14  C   UNL A   1      30.831  25.576  22.993  1.00  0.00     0.014 A 
BRANCH  10  15
ATOM     15  C   UNL A   1      33.181  22.210  24.202  1.00  0.00    -0.018 A 
ATOM     16  C   UNL A   1      32.501  18.446  24.355  1.00  0.00     0.044 C 
ATOM     17  C   UNL A   1      33.216  19.763  24.423  1.00  0.00    -0.051 A 
ATOM     18  C   UNL A   1      34.567  19.820  24.773  1.00  0.00     0.003 A 
ATOM     19  C   UNL A   1      32.539  20.956  24.143  1.00  0.00     0.012 A 
ATOM     20  C   UNL A   1      35.224  21.051  24.833  1.00  0.00     0.001 A 
ATOM     21  C   UNL A   1      34.538  22.236  24.547  1.00  0.00     0.009 A 
ENDBRANCH  10  15
ENDBRANCH   6   9
ENDBRANCH   4   5
ENDBRANCH   3   4
ENDBRANCH   2   3
ENDBRANCH   1   2
BRANCH   1  22
ATOM     22  C   UNL A   1      33.355  30.726  26.981  1.00  0.00     0.021 C 
BRANCH  22  23
ATOM     23  C   UNL A   1      34.444  30.060  27.819  1.00  0.00     0.116 C 
BRANCH  23  24
ATOM     24  N   UNL A   1      35.210  31.013  28.628  1.00  0.00    -0.352 N 
ATOM     25  C   UNL A   1      36.456  30.845  29.213  1.00  0.00     0.251 C 
ATOM     26  H   UNL A   1      34.783  31.888  28.776  1.00  0.00     0.163 HD
ATOM     27  O   UNL A   1      36.996  31.666  29.932  1.00  0.00    -0.269 OA
BRANCH  25  28
ATOM     28  C   UNL A   1      37.187  29.627  28.826  1.00  0.00     0.039 A 
ATOM     29  C   UNL A   1      37.462  28.718  29.854  1.00  0.00     0.014 A 
ATOM     30  C   UNL A   1      37.902  29.632  27.631  1.00  0.00     0.014 A 
ATOM     31  C   UNL A   1      38.623  27.965  29.779  1.00  0.00     0.010 A 
ATOM     32  C   UNL A   1      39.102  28.952  27.600  1.00  0.00     0.010 A 
ATOM     33  C   UNL A   1      39.491  28.188  28.708  1.00  0.00    -0.014 A 
BRANCH  33  34
ATOM     34  C   UNL A   1      40.877  27.746  28.755  1.00  0.00     0.031 A 
ATOM     35  C   UNL A   1      41.195  26.372  28.336  1.00  0.00     0.074 A 
ATOM     36  C   UNL A   1      41.836  28.550  29.265  1.00  0.00     0.049 A 
ATOM     37  N   UNL A   1      42.075  25.620  28.904  1.00  0.00    -0.248 NA
ATOM     38  C   UNL A   1      40.457  25.711  27.265  1.00  0.00     0.031 C 
ATOM     39  C   UNL A   1      43.270  28.278  29.310  1.00  0.00     0.029 A 
ATOM     40  N   UNL A   1      41.675  29.674  30.082  1.00  0.00    -0.354 N 
ATOM     41  C   UNL A   1      42.222  24.507  28.107  1.00  0.00     0.074 A 
ATOM     42  C   UNL A   1      41.125  24.561  27.167  1.00  0.00     0.031 C 
ATOM     43  C   UNL A   1      43.796  28.966  30.336  1.00  0.00     0.029 A 
ATOM     44  C   UNL A   1      42.700  29.621  31.035  1.00  0.00     0.049 A 
ATOM     45  H   UNL A   1      40.979  30.365  30.003  1.00  0.00     0.167 HD
ATOM     46  C   UNL A   1      43.347  23.743  28.198  1.00  0.00     0.031 A 
ATOM     47  C   UNL A   1      42.481  29.580  32.379  1.00  0.00     0.031 A 
ATOM     48  C   UNL A   1      44.242  24.221  29.250  1.00  0.00     0.049 A 
ATOM     49  C   UNL A   1      43.062  28.336  33.022  1.00  0.00     0.074 A 
ATOM     50  C   UNL A   1      45.374  25.019  29.220  1.00  0.00     0.029 A 
ATOM     51  N   UNL A   1      43.833  24.171  30.579  1.00  0.00    -0.354 N 
ATOM     52  N   UNL A   1      43.430  27.274  32.356  1.00  0.00    -0.248 NA
ATOM     53  C   UNL A   1      43.250  28.180  34.462  1.00  0.00     0.031 C 
ATOM     54  C   UNL A   1      45.594  25.522  30.528  1.00  0.00     0.029 A 
ATOM     55  C   UNL A   1      44.618  25.001  31.360  1.00  0.00     0.049 A 
ATOM     56  H   UNL A   1      43.090  23.621  30.918  1.00  0.00     0.167 HD
ATOM     57  C   UNL A   1      43.911  26.326  33.225  1.00  0.00     0.074 A 
ATOM     58  C   UNL A   1      43.780  26.945  34.532  1.00  0.00     0.031 C 
ATOM     59  C   UNL A   1      44.386  25.117  32.796  1.00  0.00     0.031 A 
BRANCH  46  60
ATOM     60  C   UNL A   1      43.755  22.833  27.060  1.00  0.00    -0.014 A 
ATOM     61  C   UNL A   1      42.921  21.761  26.685  1.00  0.00     0.010 A 
ATOM     62  C   UNL A   1      44.995  22.919  26.395  1.00  0.00     0.010 A 
ATOM     63  C   UNL A   1      43.360  20.750  25.816  1.00  0.00     0.020 A 
ATOM     64  C   UNL A   1      45.468  21.891  25.566  1.00  0.00     0.020 A 
ATOM     65  C   UNL A   1      44.650  20.799  25.295  1.00  0.00     0.054 A 
BRANCH  65  66
ATOM     66  S   UNL A   1      45.253  19.413  24.294  1.00  0.00     0.124 S 
ATOM     67  O   UNL A   1      44.549  19.605  23.027  1.00  0.00    -0.237 OA
ATOM     68  O   UNL A   1      46.691  19.658  24.259  1.00  0.00    -0.237 OA
ATOM     69  O   UNL A   1      44.839  18.233  25.051  1.00  0.00    -0.744 OA
ENDBRANCH  65  66
ENDBRANCH  46  60
BRANCH  47  70
ATOM     70  C   UNL A   1      41.291  30.335  32.856  1.00  0.00    -0.014 A 
ATOM     71  C   UNL A   1      40.175  29.588  33.290  1.00  0.00     0.010 A 
ATOM     72  C   UNL A   1      41.363  31.694  33.204  1.00  0.00     0.010 A 
ATOM     73  C   UNL A   1      39.215  30.149  34.141  1.00  0.00     0.020 A 
ATOM     74  C   UNL A   1      40.405  32.259  34.064  1.00  0.00     0.020 A 
ATOM     75  C   UNL A   1      39.364  31.469  34.564  1.00  0.00     0.054 A 
BRANCH  75  76
ATOM     76  S   UNL A   1      38.211  32.115  35.815  1.00  0.00     0.124 S 
ATOM     77  O   UNL A   1      36.990  32.323  35.042  1.00  0.00    -0.237 OA
ATOM     78  O   UNL A   1      38.156  31.017  36.781  1.00  0.00    -0.237 OA
ATOM     79  O   UNL A   1      38.870  33.330  36.280  1.00  0.00    -0.744 OA
ENDBRANCH  75  76
ENDBRANCH  47  70
BRANCH  59  80
ATOM     80  C   UNL A   1      44.782  23.943  33.669  1.00  0.00    -0.014 A 
ATOM     81  C   UNL A   1      43.881  23.033  34.241  1.00  0.00     0.010 A 
ATOM     82  C   UNL A   1      46.162  23.658  33.834  1.00  0.00     0.010 A 
ATOM     83  C   UNL A   1      44.331  21.926  34.981  1.00  0.00     0.020 A 
ATOM     84  C   UNL A   1      46.621  22.536  34.528  1.00  0.00     0.020 A 
ATOM     85  C   UNL A   1      45.698  21.685  35.120  1.00  0.00     0.054 A 
BRANCH  85  86
ATOM     86  S   UNL A   1      46.271  20.209  35.999  1.00  0.00     0.124 S 
ATOM     87  O   UNL A   1      45.733  20.428  37.338  1.00  0.00    -0.237 OA
ATOM     88  O   UNL A   1      45.654  19.118  35.247  1.00  0.00    -0.237 OA
ATOM     89  O   UNL A   1      47.725  20.287  35.885  1.00  0.00    -0.744 OA
ENDBRANCH  85  86
ENDBRANCH  59  80
ENDBRANCH  33  34
ENDBRANCH  25  28
ENDBRANCH  23  24
ENDBRANCH  22  23
ENDBRANCH   1  22
TORSDOF 17
ENDMDL
