MODEL 1
REMARK VINA RESULT:     -10.6      0.000      0.000
REMARK SMILES O=C(NCCCCCCNC(=O)c1ccc(-c2c3nc(c(-c4ccc(S(=O)(=O)[O-])cc4)c4ccc([nH]4)c(-c4ccc(S(=O)(=O)[O-])cc4)c4nc(c(-c5ccc(S(=O)(=O)[O-])cc5)c5ccc2[nH]5)C=C4)C=C3)cc1)C1=Cc2cc(OC(F)(F)F)ccc2O[C@@H]1C(F)(F)F
REMARK SMILES IDX 7 1 6 2 5 3 4 4 3 5 1 6 2 7 73 9 74 10 87 11 75 12 86 13
REMARK SMILES IDX 76 14 85 15 77 16 84 17 83 18 88 19 89 20 90 21 91 22 78 23
REMARK SMILES IDX 79 24 80 25 81 26 82 27 8 28 9 29 10 30 11 31 12 33 13 34
REMARK SMILES IDX 14 35 72 36 15 37 71 38 16 39 17 40 18 41 65 42 19 43 70 44
REMARK SMILES IDX 64 45 66 46 20 47 69 48 63 49 62 50 21 52 51 53 32 54 50 55
REMARK SMILES IDX 33 56 36 57 49 58 67 59 34 60 35 61 48 63 68 64 37 65 22 66
REMARK SMILES IDX 23 67 31 68 24 69 30 70 25 71 26 72 27 73 28 74 29 75 52 76
REMARK SMILES IDX 53 77 61 78 54 79 60 80 55 81 56 82 57 83 58 84 59 85 38 86
REMARK SMILES IDX 39 87 47 88 40 89 46 90 41 91 42 92 43 93 44 94 45 95
REMARK H PARENT 3 8 10 32 66 51 36 62
REMARK Flexibility Score: inf
ROOT
ATOM      1  C   UNL A   1      32.003  27.770  25.879  1.00  0.00     0.002 C 
ENDROOT
BRANCH   1   2
ATOM      2  C   UNL A   1      30.905  26.951  26.571  1.00  0.00     0.002 C 
BRANCH   2   3
ATOM      3  C   UNL A   1      30.288  25.814  25.763  1.00  0.00     0.021 C 
BRANCH   3   4
ATOM      4  C   UNL A   1      30.359  24.429  26.395  1.00  0.00     0.116 C 
BRANCH   4   5
ATOM      5  N   UNL A   1      30.676  23.340  25.487  1.00  0.00    -0.352 N 
ATOM      6  O   UNL A   1      31.936  22.091  24.111  1.00  0.00    -0.270 OA
ATOM      7  C   UNL A   1      31.759  23.175  24.668  1.00  0.00     0.251 C 
ATOM      8  H   UNL A   1      30.013  22.613  25.458  1.00  0.00     0.163 HD
BRANCH   7   9
ATOM      9  C   UNL A   1      32.800  24.231  24.495  1.00  0.00     0.067 C 
ATOM     10  C   UNL A   1      33.759  24.452  25.414  1.00  0.00     0.025 C 
ATOM     11  C   UNL A   1      33.096  24.523  23.042  1.00  0.00     0.314 C 
ATOM     12  C   UNL A   1      35.087  23.988  24.929  1.00  0.00     0.021 A 
ATOM     13  O   UNL A   1      34.315  23.860  22.609  1.00  0.00    -0.475 OA
ATOM     14  C   UNL A   1      36.072  23.659  25.872  1.00  0.00     0.058 A 
ATOM     15  C   UNL A   1      35.246  23.606  23.587  1.00  0.00     0.128 A 
ATOM     16  C   UNL A   1      37.148  22.848  25.502  1.00  0.00     0.130 A 
ATOM     17  C   UNL A   1      36.337  22.823  23.217  1.00  0.00     0.051 A 
ATOM     18  C   UNL A   1      37.276  22.430  24.176  1.00  0.00     0.050 A 
BRANCH  11  19
ATOM     19  C   UNL A   1      33.125  26.030  22.739  1.00  0.00     0.429 C 
ATOM     20  F   UNL A   1      33.433  26.267  21.443  1.00  0.00    -0.167 F 
ATOM     21  F   UNL A   1      31.917  26.605  22.964  1.00  0.00    -0.167 F 
ATOM     22  F   UNL A   1      34.026  26.698  23.497  1.00  0.00    -0.167 F 
ENDBRANCH  11  19
BRANCH  16  23
ATOM     23  O   UNL A   1      38.072  22.575  26.470  1.00  0.00    -0.406 OA
BRANCH  23  24
ATOM     24  C   UNL A   1      39.125  23.525  26.592  1.00  0.00     0.573 C 
ATOM     25  F   UNL A   1      40.308  22.967  26.244  1.00  0.00    -0.132 F 
ATOM     26  F   UNL A   1      38.918  24.619  25.832  1.00  0.00    -0.132 F 
ATOM     27  F   UNL A   1      39.214  23.915  27.881  1.00  0.00    -0.132 F 
ENDBRANCH  23  24
ENDBRANCH  16  23
ENDBRANCH   7   9
ENDBRANCH   4   5
ENDBRANCH   3   4
ENDBRANCH   2   3
ENDBRANCH   1   2
BRANCH   1  28
ATOM     28  C   UNL A   1      33.379  27.794  26.550  1.00  0.00     0.021 C 
BRANCH  28  29
ATOM     29  C   UNL A   1      34.317  28.922  26.129  1.00  0.00     0.116 C 
BRANCH  29  30
ATOM     30  N   UNL A   1      33.866  30.234  26.557  1.00  0.00    -0.352 N 
ATOM     31  C   UNL A   1      34.374  31.072  27.521  1.00  0.00     0.251 C 
ATOM     32  H   UNL A   1      33.073  30.575  26.083  1.00  0.00     0.163 HD
ATOM     33  O   UNL A   1      33.764  32.095  27.809  1.00  0.00    -0.269 OA
BRANCH  31  34
ATOM     34  C   UNL A   1      35.632  30.739  28.237  1.00  0.00     0.039 A 
ATOM     35  C   UNL A   1      35.621  29.666  29.133  1.00  0.00     0.014 A 
ATOM     36  C   UNL A   1      36.802  31.482  28.063  1.00  0.00     0.014 A 
ATOM     37  C   UNL A   1      36.792  29.307  29.810  1.00  0.00     0.010 A 
ATOM     38  C   UNL A   1      37.987  31.079  28.682  1.00  0.00     0.010 A 
ATOM     39  C   UNL A   1      37.994  29.992  29.570  1.00  0.00    -0.014 A 
BRANCH  39  40
ATOM     40  C   UNL A   1      39.254  29.582  30.248  1.00  0.00     0.031 A 
ATOM     41  C   UNL A   1      39.720  30.294  31.491  1.00  0.00     0.074 A 
ATOM     42  C   UNL A   1      39.997  28.580  29.734  1.00  0.00     0.049 A 
ATOM     43  N   UNL A   1      40.798  30.087  32.205  1.00  0.00    -0.248 NA
ATOM     44  C   UNL A   1      38.877  31.393  31.988  1.00  0.00     0.031 C 
ATOM     45  C   UNL A   1      39.679  27.829  28.518  1.00  0.00     0.029 A 
ATOM     46  N   UNL A   1      41.175  28.022  30.167  1.00  0.00    -0.354 N 
ATOM     47  C   UNL A   1      40.763  31.026  33.229  1.00  0.00     0.074 A 
ATOM     48  C   UNL A   1      39.590  31.843  33.010  1.00  0.00     0.031 C 
ATOM     49  C   UNL A   1      40.622  26.895  28.317  1.00  0.00     0.029 A 
ATOM     50  C   UNL A   1      41.636  27.005  29.363  1.00  0.00     0.049 A 
ATOM     51  H   UNL A   1      41.646  28.320  30.979  1.00  0.00     0.167 HD
ATOM     52  C   UNL A   1      41.613  31.183  34.273  1.00  0.00     0.031 A 
ATOM     53  C   UNL A   1      42.751  26.252  29.446  1.00  0.00     0.031 A 
ATOM     54  C   UNL A   1      42.784  30.373  34.491  1.00  0.00     0.049 A 
ATOM     55  C   UNL A   1      43.698  26.464  30.596  1.00  0.00     0.074 A 
ATOM     56  C   UNL A   1      43.689  30.435  35.537  1.00  0.00     0.029 A 
ATOM     57  N   UNL A   1      43.214  29.357  33.652  1.00  0.00    -0.354 N 
ATOM     58  N   UNL A   1      43.613  27.322  31.586  1.00  0.00    -0.248 NA
ATOM     59  C   UNL A   1      44.883  25.598  30.650  1.00  0.00     0.031 C 
ATOM     60  C   UNL A   1      44.697  29.494  35.300  1.00  0.00     0.029 A 
ATOM     61  C   UNL A   1      44.383  28.800  34.143  1.00  0.00     0.049 A 
ATOM     62  H   UNL A   1      42.756  29.073  32.828  1.00  0.00     0.167 HD
ATOM     63  C   UNL A   1      44.720  27.079  32.393  1.00  0.00     0.074 A 
ATOM     64  C   UNL A   1      45.447  25.982  31.788  1.00  0.00     0.031 C 
ATOM     65  C   UNL A   1      45.099  27.707  33.533  1.00  0.00     0.031 A 
BRANCH  52  66
ATOM     66  C   UNL A   1      41.307  32.275  35.265  1.00  0.00    -0.014 A 
ATOM     67  C   UNL A   1      41.599  33.622  34.975  1.00  0.00     0.010 A 
ATOM     68  C   UNL A   1      40.674  31.964  36.482  1.00  0.00     0.010 A 
ATOM     69  C   UNL A   1      41.302  34.628  35.897  1.00  0.00     0.020 A 
ATOM     70  C   UNL A   1      40.346  32.971  37.396  1.00  0.00     0.020 A 
ATOM     71  C   UNL A   1      40.677  34.295  37.102  1.00  0.00     0.054 A 
BRANCH  71  72
ATOM     72  S   UNL A   1      40.280  35.627  38.268  1.00  0.00     0.124 S 
ATOM     73  O   UNL A   1      40.229  36.793  37.388  1.00  0.00    -0.237 OA
ATOM     74  O   UNL A   1      38.997  35.198  38.817  1.00  0.00    -0.237 OA
ATOM     75  O   UNL A   1      41.397  35.609  39.210  1.00  0.00    -0.744 OA
ENDBRANCH  71  72
ENDBRANCH  52  66
BRANCH  53  76
ATOM     76  C   UNL A   1      43.037  25.230  28.400  1.00  0.00    -0.014 A 
ATOM     77  C   UNL A   1      43.697  25.578  27.208  1.00  0.00     0.010 A 
ATOM     78  C   UNL A   1      42.647  23.892  28.597  1.00  0.00     0.010 A 
ATOM     79  C   UNL A   1      43.938  24.615  26.223  1.00  0.00     0.020 A 
ATOM     80  C   UNL A   1      42.916  22.920  27.630  1.00  0.00     0.020 A 
ATOM     81  C   UNL A   1      43.547  23.291  26.442  1.00  0.00     0.054 A 
BRANCH  81  82
ATOM     82  S   UNL A   1      43.909  22.048  25.170  1.00  0.00     0.124 S 
ATOM     83  O   UNL A   1      45.323  21.778  25.404  1.00  0.00    -0.237 OA
ATOM     84  O   UNL A   1      42.991  20.966  25.518  1.00  0.00    -0.237 OA
ATOM     85  O   UNL A   1      43.600  22.739  23.919  1.00  0.00    -0.744 OA
ENDBRANCH  81  82
ENDBRANCH  53  76
BRANCH  65  86
ATOM     86  C   UNL A   1      46.339  27.205  34.228  1.00  0.00    -0.014 A 
ATOM     87  C   UNL A   1      46.279  26.171  35.179  1.00  0.00     0.010 A 
ATOM     88  C   UNL A   1      47.593  27.742  33.880  1.00  0.00     0.010 A 
ATOM     89  C   UNL A   1      47.446  25.707  35.793  1.00  0.00     0.020 A 
ATOM     90  C   UNL A   1      48.764  27.259  34.467  1.00  0.00     0.020 A 
ATOM     91  C   UNL A   1      48.682  26.253  35.431  1.00  0.00     0.054 A 
BRANCH  91  92
ATOM     92  S   UNL A   1      50.184  25.600  36.210  1.00  0.00     0.124 S 
ATOM     93  O   UNL A   1      49.957  24.158  36.148  1.00  0.00    -0.237 OA
ATOM     94  O   UNL A   1      51.242  26.108  35.341  1.00  0.00    -0.237 OA
ATOM     95  O   UNL A   1      50.158  26.176  37.553  1.00  0.00    -0.744 OA
ENDBRANCH  91  92
ENDBRANCH  65  86
ENDBRANCH  39  40
ENDBRANCH  31  34
ENDBRANCH  29  30
ENDBRANCH  28  29
ENDBRANCH   1  28
TORSDOF 19
ENDMDL
MODEL 2
REMARK VINA RESULT:     -10.6      3.283      4.181
REMARK SMILES O=C(NCCCCCCNC(=O)c1ccc(-c2c3nc(c(-c4ccc(S(=O)(=O)[O-])cc4)c4ccc([nH]4)c(-c4ccc(S(=O)(=O)[O-])cc4)c4nc(c(-c5ccc(S(=O)(=O)[O-])cc5)c5ccc2[nH]5)C=C4)C=C3)cc1)C1=Cc2cc(OC(F)(F)F)ccc2O[C@@H]1C(F)(F)F
REMARK SMILES IDX 7 1 6 2 5 3 4 4 3 5 1 6 2 7 73 9 74 10 87 11 75 12 86 13
REMARK SMILES IDX 76 14 85 15 77 16 84 17 83 18 88 19 89 20 90 21 91 22 78 23
REMARK SMILES IDX 79 24 80 25 81 26 82 27 8 28 9 29 10 30 11 31 12 33 13 34
REMARK SMILES IDX 14 35 72 36 15 37 71 38 16 39 17 40 18 41 65 42 19 43 70 44
REMARK SMILES IDX 64 45 66 46 20 47 69 48 63 49 62 50 21 52 51 53 32 54 50 55
REMARK SMILES IDX 33 56 36 57 49 58 67 59 34 60 35 61 48 63 68 64 37 65 22 66
REMARK SMILES IDX 23 67 31 68 24 69 30 70 25 71 26 72 27 73 28 74 29 75 52 76
REMARK SMILES IDX 53 77 61 78 54 79 60 80 55 81 56 82 57 83 58 84 59 85 38 86
REMARK SMILES IDX 39 87 47 88 40 89 46 90 41 91 42 92 43 93 44 94 45 95
REMARK H PARENT 3 8 10 32 66 51 36 62
REMARK Flexibility Score: inf
ROOT
ATOM      1  C   UNL A   1      31.735  29.144  25.176  1.00  0.00     0.002 C 
ENDROOT
BRANCH   1   2
ATOM      2  C   UNL A   1      30.775  28.949  23.995  1.00  0.00     0.002 C 
BRANCH   2   3
ATOM      3  C   UNL A   1      31.402  28.533  22.667  1.00  0.00     0.021 C 
BRANCH   3   4
ATOM      4  C   UNL A   1      31.223  27.072  22.272  1.00  0.00     0.116 C 
BRANCH   4   5
ATOM      5  N   UNL A   1      32.450  26.335  22.023  1.00  0.00    -0.352 N 
ATOM      6  O   UNL A   1      33.861  24.589  22.062  1.00  0.00    -0.270 OA
ATOM      7  C   UNL A   1      32.870  25.140  22.541  1.00  0.00     0.251 C 
ATOM      8  H   UNL A   1      33.071  26.757  21.386  1.00  0.00     0.163 HD
BRANCH   7   9
ATOM      9  C   UNL A   1      32.114  24.420  23.608  1.00  0.00     0.067 C 
ATOM     10  C   UNL A   1      31.777  23.121  23.498  1.00  0.00     0.025 C 
ATOM     11  C   UNL A   1      32.351  25.002  24.983  1.00  0.00     0.314 C 
ATOM     12  C   UNL A   1      32.586  22.275  24.417  1.00  0.00     0.021 A 
ATOM     13  O   UNL A   1      33.312  24.209  25.732  1.00  0.00    -0.475 OA
ATOM     14  C   UNL A   1      32.759  20.919  24.106  1.00  0.00     0.058 A 
ATOM     15  C   UNL A   1      33.395  22.880  25.392  1.00  0.00     0.128 A 
ATOM     16  C   UNL A   1      33.814  20.202  24.678  1.00  0.00     0.130 A 
ATOM     17  C   UNL A   1      34.426  22.152  25.982  1.00  0.00     0.051 A 
ATOM     18  C   UNL A   1      34.646  20.821  25.612  1.00  0.00     0.050 A 
BRANCH  11  19
ATOM     19  C   UNL A   1      31.045  25.211  25.766  1.00  0.00     0.429 C 
ATOM     20  F   UNL A   1      31.162  26.222  26.660  1.00  0.00    -0.167 F 
ATOM     21  F   UNL A   1      30.018  25.537  24.943  1.00  0.00    -0.167 F 
ATOM     22  F   UNL A   1      30.666  24.108  26.452  1.00  0.00    -0.167 F 
ENDBRANCH  11  19
BRANCH  16  23
ATOM     23  O   UNL A   1      33.917  18.884  24.336  1.00  0.00    -0.406 OA
BRANCH  23  24
ATOM     24  C   UNL A   1      32.972  18.018  24.956  1.00  0.00     0.573 C 
ATOM     25  F   UNL A   1      33.452  16.754  25.007  1.00  0.00    -0.132 F 
ATOM     26  F   UNL A   1      32.655  18.416  26.204  1.00  0.00    -0.132 F 
ATOM     27  F   UNL A   1      31.843  18.004  24.216  1.00  0.00    -0.132 F 
ENDBRANCH  23  24
ENDBRANCH  16  23
ENDBRANCH   7   9
ENDBRANCH   4   5
ENDBRANCH   3   4
ENDBRANCH   2   3
ENDBRANCH   1   2
BRANCH   1  28
ATOM     28  C   UNL A   1      33.081  28.416  25.106  1.00  0.00     0.021 C 
BRANCH  28  29
ATOM     29  C   UNL A   1      34.038  28.651  26.271  1.00  0.00     0.116 C 
BRANCH  29  30
ATOM     30  N   UNL A   1      33.777  29.885  26.989  1.00  0.00    -0.352 N 
ATOM     31  C   UNL A   1      34.553  30.555  27.905  1.00  0.00     0.251 C 
ATOM     32  H   UNL A   1      32.911  30.307  26.788  1.00  0.00     0.163 HD
ATOM     33  O   UNL A   1      34.088  31.529  28.487  1.00  0.00    -0.269 OA
BRANCH  31  34
ATOM     34  C   UNL A   1      35.929  30.097  28.221  1.00  0.00     0.039 A 
ATOM     35  C   UNL A   1      36.912  30.219  27.235  1.00  0.00     0.014 A 
ATOM     36  C   UNL A   1      36.253  29.523  29.454  1.00  0.00     0.014 A 
ATOM     37  C   UNL A   1      38.225  29.817  27.502  1.00  0.00     0.010 A 
ATOM     38  C   UNL A   1      37.578  29.192  29.745  1.00  0.00     0.010 A 
ATOM     39  C   UNL A   1      38.579  29.327  28.770  1.00  0.00    -0.014 A 
BRANCH  39  40
ATOM     40  C   UNL A   1      39.985  28.947  29.076  1.00  0.00     0.031 A 
ATOM     41  C   UNL A   1      40.928  29.943  29.700  1.00  0.00     0.074 A 
ATOM     42  C   UNL A   1      40.427  27.710  28.771  1.00  0.00     0.049 A 
ATOM     43  N   UNL A   1      42.189  29.797  30.019  1.00  0.00    -0.248 NA
ATOM     44  C   UNL A   1      40.390  31.283  29.987  1.00  0.00     0.031 C 
ATOM     45  C   UNL A   1      39.630  26.660  28.133  1.00  0.00     0.029 A 
ATOM     46  N   UNL A   1      41.657  27.125  28.953  1.00  0.00    -0.354 N 
ATOM     47  C   UNL A   1      42.595  31.020  30.541  1.00  0.00     0.074 A 
ATOM     48  C   UNL A   1      41.463  31.916  30.439  1.00  0.00     0.031 C 
ATOM     49  C   UNL A   1      40.381  25.555  28.001  1.00  0.00     0.029 A 
ATOM     50  C   UNL A   1      41.726  25.826  28.503  1.00  0.00     0.049 A 
ATOM     51  H   UNL A   1      42.418  27.591  29.368  1.00  0.00     0.167 HD
ATOM     52  C   UNL A   1      43.789  31.365  31.078  1.00  0.00     0.031 A 
ATOM     53  C   UNL A   1      42.753  24.954  28.484  1.00  0.00     0.031 A 
ATOM     54  C   UNL A   1      44.918  30.476  31.178  1.00  0.00     0.049 A 
ATOM     55  C   UNL A   1      44.081  25.368  29.058  1.00  0.00     0.074 A 
ATOM     56  C   UNL A   1      46.161  30.724  31.735  1.00  0.00     0.029 A 
ATOM     57  N   UNL A   1      44.945  29.171  30.709  1.00  0.00    -0.354 N 
ATOM     58  N   UNL A   1      44.424  26.513  29.599  1.00  0.00    -0.248 NA
ATOM     59  C   UNL A   1      45.157  24.367  29.034  1.00  0.00     0.031 C 
ATOM     60  C   UNL A   1      46.957  29.588  31.553  1.00  0.00     0.029 A 
ATOM     61  C   UNL A   1      46.189  28.609  30.943  1.00  0.00     0.049 A 
ATOM     62  H   UNL A   1      44.191  28.712  30.273  1.00  0.00     0.167 HD
ATOM     63  C   UNL A   1      45.747  26.360  30.002  1.00  0.00     0.074 A 
ATOM     64  C   UNL A   1      46.134  25.007  29.662  1.00  0.00     0.031 C 
ATOM     65  C   UNL A   1      46.565  27.260  30.601  1.00  0.00     0.031 A 
BRANCH  52  66
ATOM     66  C   UNL A   1      43.939  32.769  31.606  1.00  0.00    -0.014 A 
ATOM     67  C   UNL A   1      43.643  33.074  32.949  1.00  0.00     0.010 A 
ATOM     68  C   UNL A   1      44.428  33.788  30.769  1.00  0.00     0.010 A 
ATOM     69  C   UNL A   1      43.794  34.376  33.431  1.00  0.00     0.020 A 
ATOM     70  C   UNL A   1      44.611  35.086  31.256  1.00  0.00     0.020 A 
ATOM     71  C   UNL A   1      44.277  35.374  32.581  1.00  0.00     0.054 A 
BRANCH  71  72
ATOM     72  S   UNL A   1      44.488  37.049  33.244  1.00  0.00     0.124 S 
ATOM     73  O   UNL A   1      43.181  37.302  33.846  1.00  0.00    -0.237 OA
ATOM     74  O   UNL A   1      45.592  36.883  34.186  1.00  0.00    -0.237 OA
ATOM     75  O   UNL A   1      44.794  37.855  32.065  1.00  0.00    -0.744 OA
ENDBRANCH  71  72
ENDBRANCH  52  66
BRANCH  53  76
ATOM     76  C   UNL A   1      42.567  23.600  27.890  1.00  0.00    -0.014 A 
ATOM     77  C   UNL A   1      42.119  22.521  28.674  1.00  0.00     0.010 A 
ATOM     78  C   UNL A   1      42.841  23.384  26.527  1.00  0.00     0.010 A 
ATOM     79  C   UNL A   1      41.972  21.249  28.111  1.00  0.00     0.020 A 
ATOM     80  C   UNL A   1      42.664  22.122  25.954  1.00  0.00     0.020 A 
ATOM     81  C   UNL A   1      42.244  21.058  26.753  1.00  0.00     0.054 A 
BRANCH  81  82
ATOM     82  S   UNL A   1      42.005  19.410  26.033  1.00  0.00     0.124 S 
ATOM     83  O   UNL A   1      40.557  19.363  25.857  1.00  0.00    -0.237 OA
ATOM     84  O   UNL A   1      42.791  19.486  24.804  1.00  0.00    -0.237 OA
ATOM     85  O   UNL A   1      42.542  18.511  27.053  1.00  0.00    -0.744 OA
ENDBRANCH  81  82
ENDBRANCH  53  76
BRANCH  65  86
ATOM     86  C   UNL A   1      47.956  26.805  30.964  1.00  0.00    -0.014 A 
ATOM     87  C   UNL A   1      49.034  26.961  30.075  1.00  0.00     0.010 A 
ATOM     88  C   UNL A   1      48.195  26.262  32.240  1.00  0.00     0.010 A 
ATOM     89  C   UNL A   1      50.319  26.552  30.444  1.00  0.00     0.020 A 
ATOM     90  C   UNL A   1      49.483  25.882  32.624  1.00  0.00     0.020 A 
ATOM     91  C   UNL A   1      50.536  26.016  31.717  1.00  0.00     0.054 A 
BRANCH  91  92
ATOM     92  S   UNL A   1      52.220  25.536  32.186  1.00  0.00     0.124 S 
ATOM     93  O   UNL A   1      52.085  24.092  32.368  1.00  0.00    -0.237 OA
ATOM     94  O   UNL A   1      53.006  25.952  31.027  1.00  0.00    -0.237 OA
ATOM     95  O   UNL A   1      52.471  26.296  33.408  1.00  0.00    -0.744 OA
ENDBRANCH  91  92
ENDBRANCH  65  86
ENDBRANCH  39  40
ENDBRANCH  31  34
ENDBRANCH  29  30
ENDBRANCH  28  29
ENDBRANCH   1  28
TORSDOF 19
ENDMDL
MODEL 3
REMARK VINA RESULT:     -10.6      2.236      2.979
REMARK SMILES O=C(NCCCCCCNC(=O)c1ccc(-c2c3nc(c(-c4ccc(S(=O)(=O)[O-])cc4)c4ccc([nH]4)c(-c4ccc(S(=O)(=O)[O-])cc4)c4nc(c(-c5ccc(S(=O)(=O)[O-])cc5)c5ccc2[nH]5)C=C4)C=C3)cc1)C1=Cc2cc(OC(F)(F)F)ccc2O[C@@H]1C(F)(F)F
REMARK SMILES IDX 7 1 6 2 5 3 4 4 3 5 1 6 2 7 73 9 74 10 87 11 75 12 86 13
REMARK SMILES IDX 76 14 85 15 77 16 84 17 83 18 88 19 89 20 90 21 91 22 78 23
REMARK SMILES IDX 79 24 80 25 81 26 82 27 8 28 9 29 10 30 11 31 12 33 13 34
REMARK SMILES IDX 14 35 72 36 15 37 71 38 16 39 17 40 18 41 65 42 19 43 70 44
REMARK SMILES IDX 64 45 66 46 20 47 69 48 63 49 62 50 21 52 51 53 32 54 50 55
REMARK SMILES IDX 33 56 36 57 49 58 67 59 34 60 35 61 48 63 68 64 37 65 22 66
REMARK SMILES IDX 23 67 31 68 24 69 30 70 25 71 26 72 27 73 28 74 29 75 52 76
REMARK SMILES IDX 53 77 61 78 54 79 60 80 55 81 56 82 57 83 58 84 59 85 38 86
REMARK SMILES IDX 39 87 47 88 40 89 46 90 41 91 42 92 43 93 44 94 45 95
REMARK H PARENT 3 8 10 32 66 51 36 62
REMARK Flexibility Score: inf
ROOT
ATOM      1  C   UNL A   1      31.926  29.082  24.508  1.00  0.00     0.002 C 
ENDROOT
BRANCH   1   2
ATOM      2  C   UNL A   1      31.222  28.454  23.298  1.00  0.00     0.002 C 
BRANCH   2   3
ATOM      3  C   UNL A   1      32.075  27.565  22.397  1.00  0.00     0.021 C 
BRANCH   3   4
ATOM      4  C   UNL A   1      31.469  26.218  22.022  1.00  0.00     0.116 C 
BRANCH   4   5
ATOM      5  N   UNL A   1      32.398  25.243  21.476  1.00  0.00    -0.352 N 
ATOM      6  O   UNL A   1      33.566  23.328  21.370  1.00  0.00    -0.270 OA
ATOM      7  C   UNL A   1      32.941  24.132  22.061  1.00  0.00     0.251 C 
ATOM      8  H   UNL A   1      32.677  25.406  20.546  1.00  0.00     0.163 HD
BRANCH   7   9
ATOM      9  C   UNL A   1      32.724  23.799  23.501  1.00  0.00     0.067 C 
ATOM     10  C   UNL A   1      32.056  22.697  23.890  1.00  0.00     0.025 C 
ATOM     11  C   UNL A   1      33.808  24.354  24.396  1.00  0.00     0.314 C 
ATOM     12  C   UNL A   1      32.979  21.686  24.475  1.00  0.00     0.021 A 
ATOM     13  O   UNL A   1      34.774  23.328  24.752  1.00  0.00    -0.475 OA
ATOM     14  C   UNL A   1      32.597  20.337  24.462  1.00  0.00     0.058 A 
ATOM     15  C   UNL A   1      34.311  22.035  24.752  1.00  0.00     0.128 A 
ATOM     16  C   UNL A   1      33.563  19.337  24.604  1.00  0.00     0.130 A 
ATOM     17  C   UNL A   1      35.265  21.034  24.923  1.00  0.00     0.051 A 
ATOM     18  C   UNL A   1      34.894  19.688  24.832  1.00  0.00     0.050 A 
BRANCH  11  19
ATOM     19  C   UNL A   1      33.240  25.062  25.637  1.00  0.00     0.429 C 
ATOM     20  F   UNL A   1      34.128  25.945  26.151  1.00  0.00    -0.167 F 
ATOM     21  F   UNL A   1      32.120  25.765  25.339  1.00  0.00    -0.167 F 
ATOM     22  F   UNL A   1      32.912  24.198  26.626  1.00  0.00    -0.167 F 
ENDBRANCH  11  19
BRANCH  16  23
ATOM     23  O   UNL A   1      33.117  18.046  24.590  1.00  0.00    -0.406 OA
BRANCH  23  24
ATOM     24  C   UNL A   1      33.507  17.279  23.456  1.00  0.00     0.573 C 
ATOM     25  F   UNL A   1      32.985  17.808  22.325  1.00  0.00    -0.132 F 
ATOM     26  F   UNL A   1      34.847  17.203  23.326  1.00  0.00    -0.132 F 
ATOM     27  F   UNL A   1      33.023  16.026  23.590  1.00  0.00    -0.132 F 
ENDBRANCH  23  24
ENDBRANCH  16  23
ENDBRANCH   7   9
ENDBRANCH   4   5
ENDBRANCH   3   4
ENDBRANCH   2   3
ENDBRANCH   1   2
BRANCH   1  28
ATOM     28  C   UNL A   1      33.425  28.804  24.661  1.00  0.00     0.021 C 
BRANCH  28  29
ATOM     29  C   UNL A   1      34.025  29.075  26.039  1.00  0.00     0.116 C 
BRANCH  29  30
ATOM     30  N   UNL A   1      33.680  30.382  26.568  1.00  0.00    -0.352 N 
ATOM     31  C   UNL A   1      34.273  31.115  27.569  1.00  0.00     0.251 C 
ATOM     32  H   UNL A   1      32.900  30.808  26.145  1.00  0.00     0.163 HD
ATOM     33  O   UNL A   1      33.745  32.154  27.945  1.00  0.00    -0.269 OA
BRANCH  31  34
ATOM     34  C   UNL A   1      35.524  30.647  28.218  1.00  0.00     0.039 A 
ATOM     35  C   UNL A   1      36.739  31.180  27.780  1.00  0.00     0.014 A 
ATOM     36  C   UNL A   1      35.517  29.675  29.223  1.00  0.00     0.014 A 
ATOM     37  C   UNL A   1      37.937  30.780  28.382  1.00  0.00     0.010 A 
ATOM     38  C   UNL A   1      36.704  29.331  29.873  1.00  0.00     0.010 A 
ATOM     39  C   UNL A   1      37.930  29.873  29.455  1.00  0.00    -0.014 A 
BRANCH  39  40
ATOM     40  C   UNL A   1      39.196  29.484  30.133  1.00  0.00     0.031 A 
ATOM     41  C   UNL A   1      39.666  30.224  31.359  1.00  0.00     0.074 A 
ATOM     42  C   UNL A   1      39.942  28.478  29.634  1.00  0.00     0.049 A 
ATOM     43  N   UNL A   1      40.749  30.037  32.070  1.00  0.00    -0.248 NA
ATOM     44  C   UNL A   1      38.818  31.327  31.839  1.00  0.00     0.031 C 
ATOM     45  C   UNL A   1      39.622  27.701  28.434  1.00  0.00     0.029 A 
ATOM     46  N   UNL A   1      41.127  27.935  30.070  1.00  0.00    -0.354 N 
ATOM     47  C   UNL A   1      40.715  30.997  33.076  1.00  0.00     0.074 A 
ATOM     48  C   UNL A   1      39.535  31.802  32.848  1.00  0.00     0.031 C 
ATOM     49  C   UNL A   1      40.570  26.769  28.246  1.00  0.00     0.029 A 
ATOM     50  C   UNL A   1      41.589  26.906  29.283  1.00  0.00     0.049 A 
ATOM     51  H   UNL A   1      41.601  28.253  30.873  1.00  0.00     0.167 HD
ATOM     52  C   UNL A   1      41.570  31.179  34.110  1.00  0.00     0.031 A 
ATOM     53  C   UNL A   1      42.710  26.162  29.374  1.00  0.00     0.031 A 
ATOM     54  C   UNL A   1      42.748  30.381  34.337  1.00  0.00     0.049 A 
ATOM     55  C   UNL A   1      43.662  26.402  30.514  1.00  0.00     0.074 A 
ATOM     56  C   UNL A   1      43.658  30.469  35.376  1.00  0.00     0.029 A 
ATOM     57  N   UNL A   1      43.178  29.351  33.516  1.00  0.00    -0.354 N 
ATOM     58  N   UNL A   1      43.578  27.279  31.487  1.00  0.00    -0.248 NA
ATOM     59  C   UNL A   1      44.853  25.544  30.577  1.00  0.00     0.031 C 
ATOM     60  C   UNL A   1      44.671  29.530  35.151  1.00  0.00     0.029 A 
ATOM     61  C   UNL A   1      44.354  28.811  34.010  1.00  0.00     0.049 A 
ATOM     62  H   UNL A   1      42.718  29.049  32.700  1.00  0.00     0.167 HD
ATOM     63  C   UNL A   1      44.692  27.058  32.291  1.00  0.00     0.074 A 
ATOM     64  C   UNL A   1      45.421  25.955  31.703  1.00  0.00     0.031 C 
ATOM     65  C   UNL A   1      45.074  27.711  33.417  1.00  0.00     0.031 A 
BRANCH  52  66
ATOM     66  C   UNL A   1      41.263  32.289  35.083  1.00  0.00    -0.014 A 
ATOM     67  C   UNL A   1      41.784  33.583  34.895  1.00  0.00     0.010 A 
ATOM     68  C   UNL A   1      40.403  32.053  36.172  1.00  0.00     0.010 A 
ATOM     69  C   UNL A   1      41.486  34.607  35.797  1.00  0.00     0.020 A 
ATOM     70  C   UNL A   1      40.076  33.083  37.060  1.00  0.00     0.020 A 
ATOM     71  C   UNL A   1      40.633  34.350  36.874  1.00  0.00     0.054 A 
BRANCH  71  72
ATOM     72  S   UNL A   1      40.243  35.707  38.013  1.00  0.00     0.124 S 
ATOM     73  O   UNL A   1      41.537  35.951  38.645  1.00  0.00    -0.237 OA
ATOM     74  O   UNL A   1      39.776  36.756  37.110  1.00  0.00    -0.237 OA
ATOM     75  O   UNL A   1      39.220  35.142  38.890  1.00  0.00    -0.744 OA
ENDBRANCH  71  72
ENDBRANCH  52  66
BRANCH  53  76
ATOM     76  C   UNL A   1      42.996  25.121  28.347  1.00  0.00    -0.014 A 
ATOM     77  C   UNL A   1      42.701  23.767  28.586  1.00  0.00     0.010 A 
ATOM     78  C   UNL A   1      43.570  25.486  27.115  1.00  0.00     0.010 A 
ATOM     79  C   UNL A   1      42.997  22.796  27.624  1.00  0.00     0.020 A 
ATOM     80  C   UNL A   1      43.837  24.523  26.138  1.00  0.00     0.020 A 
ATOM     81  C   UNL A   1      43.562  23.181  26.405  1.00  0.00     0.054 A 
BRANCH  81  82
ATOM     82  S   UNL A   1      43.898  21.910  25.153  1.00  0.00     0.124 S 
ATOM     83  O   UNL A   1      43.810  22.676  23.914  1.00  0.00    -0.237 OA
ATOM     84  O   UNL A   1      45.236  21.452  25.522  1.00  0.00    -0.237 OA
ATOM     85  O   UNL A   1      42.832  20.933  25.364  1.00  0.00    -0.744 OA
ENDBRANCH  81  82
ENDBRANCH  53  76
BRANCH  65  86
ATOM     86  C   UNL A   1      46.321  27.230  34.114  1.00  0.00    -0.014 A 
ATOM     87  C   UNL A   1      47.582  27.777  33.820  1.00  0.00     0.010 A 
ATOM     88  C   UNL A   1      46.217  26.251  35.120  1.00  0.00     0.010 A 
ATOM     89  C   UNL A   1      48.721  27.330  34.496  1.00  0.00     0.020 A 
ATOM     90  C   UNL A   1      47.348  25.825  35.820  1.00  0.00     0.020 A 
ATOM     91  C   UNL A   1      48.596  26.358  35.494  1.00  0.00     0.054 A 
BRANCH  91  92
ATOM     92  S   UNL A   1      50.084  25.829  36.386  1.00  0.00     0.124 S 
ATOM     93  O   UNL A   1      51.148  26.235  35.471  1.00  0.00    -0.237 OA
ATOM     94  O   UNL A   1      49.999  26.592  37.629  1.00  0.00    -0.237 OA
ATOM     95  O   UNL A   1      49.906  24.386  36.534  1.00  0.00    -0.744 OA
ENDBRANCH  91  92
ENDBRANCH  65  86
ENDBRANCH  39  40
ENDBRANCH  31  34
ENDBRANCH  29  30
ENDBRANCH  28  29
ENDBRANCH   1  28
TORSDOF 19
ENDMDL
