MODEL 1
REMARK VINA RESULT:     -11.9      0.000      0.000
REMARK SMILES CCc1sc(NC(=O)[C@H]2CC(C)=C(C)C[C@H]2C(=O)NCCCCCCNC(=O)c2ccc(-c3c4nc(c(-c5ccc(S(=O)(=O)[O-])cc5)c5ccc([nH]5)c(-c5ccc(S(=O)(=O)[O-])cc5)c5nc(c(-c6ccc(S(=O)(=O)[O-])cc6)c6ccc3[nH]6)C=C5)C=C4)cc2)nc1-c1ccccc1
REMARK SMILES IDX 22 1 21 2 20 3 19 4 17 5 18 6 16 8 9 9 10 10 11 11 15 12
REMARK SMILES IDX 12 13 13 14 14 15 7 16 6 17 8 19 5 20 3 21 4 22 90 23 89 24
REMARK SMILES IDX 2 25 1 26 91 27 92 28 96 29 93 30 95 31 94 32 23 33 24 34
REMARK SMILES IDX 25 35 26 36 27 37 28 39 29 40 30 41 88 42 31 43 87 44 32 45
REMARK SMILES IDX 33 46 34 47 81 48 35 49 86 50 80 51 82 52 36 53 85 54 79 55
REMARK SMILES IDX 78 56 37 58 67 59 48 60 66 61 49 62 52 63 65 64 83 65 50 66
REMARK SMILES IDX 51 67 64 69 84 70 53 71 38 72 39 73 47 74 40 75 46 76 41 77
REMARK SMILES IDX 42 78 43 79 44 80 45 81 68 82 69 83 77 84 70 85 76 86 71 87
REMARK SMILES IDX 72 88 73 89 74 90 75 91 54 92 55 93 63 94 56 95 62 96 57 97
REMARK SMILES IDX 58 98 59 99 60 100 61 101
REMARK H PARENT 19 7 6 18 26 38 82 57 52 68
REMARK Flexibility Score: inf
ROOT
ATOM      1  C   UNL A   1      34.905  30.468  28.021  1.00  0.00     0.002 C 
ENDROOT
BRANCH   1   2
ATOM      2  C   UNL A   1      35.199  29.181  27.250  1.00  0.00     0.021 C 
BRANCH   2   3
ATOM      3  C   UNL A   1      34.259  28.935  26.078  1.00  0.00     0.116 C 
BRANCH   3   4
ATOM      4  N   UNL A   1      33.160  29.868  26.055  1.00  0.00    -0.356 N 
ATOM      5  C   UNL A   1      32.008  29.870  25.341  1.00  0.00     0.224 C 
ATOM      6  O   UNL A   1      31.160  30.713  25.659  1.00  0.00    -0.275 OA
ATOM      7  H   UNL A   1      33.265  30.636  26.663  1.00  0.00     0.163 HD
BRANCH   5   8
ATOM      8  C   UNL A   1      31.678  28.826  24.263  1.00  0.00     0.095 C 
ATOM      9  C   UNL A   1      30.931  27.518  24.663  1.00  0.00     0.095 C 
ATOM     10  C   UNL A   1      29.460  27.502  24.211  1.00  0.00     0.045 C 
ATOM     11  C   UNL A   1      28.944  28.478  23.193  1.00  0.00    -0.074 C 
ATOM     12  C   UNL A   1      31.184  29.548  22.994  1.00  0.00     0.045 C 
ATOM     13  C   UNL A   1      27.479  28.278  22.880  1.00  0.00     0.039 C 
ATOM     14  C   UNL A   1      29.724  29.425  22.647  1.00  0.00    -0.074 C 
ATOM     15  C   UNL A   1      29.197  30.433  21.661  1.00  0.00     0.039 C 
BRANCH   9  16
ATOM     16  C   UNL A   1      31.216  27.130  26.146  1.00  0.00     0.230 C 
ATOM     17  N   UNL A   1      31.555  25.895  26.602  1.00  0.00    -0.302 N 
ATOM     18  H   UNL A   1      31.416  25.778  27.570  1.00  0.00     0.172 HD
ATOM     19  O   UNL A   1      31.134  27.999  27.025  1.00  0.00    -0.274 OA
BRANCH  17  20
ATOM     20  C   UNL A   1      32.051  24.789  25.981  1.00  0.00     0.190 A 
ATOM     21  C   UNL A   1      32.346  22.525  25.299  1.00  0.00     0.034 A 
ATOM     22  S   UNL A   1      31.015  23.617  25.314  1.00  0.00    -0.101 S 
ATOM     23  C   UNL A   1      33.503  23.299  25.291  1.00  0.00     0.087 A 
ATOM     24  N   UNL A   1      33.321  24.612  25.710  1.00  0.00    -0.220 NA
BRANCH  21  25
ATOM     25  C   UNL A   1      32.191  21.032  25.338  1.00  0.00     0.046 C 
ATOM     26  C   UNL A   1      32.454  20.300  24.034  1.00  0.00     0.010 C 
ENDBRANCH  21  25
BRANCH  23  27
ATOM     27  C   UNL A   1      34.815  22.767  24.957  1.00  0.00     0.001 A 
ATOM     28  C   UNL A   1      35.462  21.910  25.862  1.00  0.00     0.010 A 
ATOM     29  C   UNL A   1      35.449  23.093  23.755  1.00  0.00     0.010 A 
ATOM     30  C   UNL A   1      36.740  21.422  25.592  1.00  0.00     0.001 A 
ATOM     31  C   UNL A   1      36.731  22.602  23.485  1.00  0.00     0.001 A 
ATOM     32  C   UNL A   1      37.377  21.774  24.405  1.00  0.00     0.000 A 
ENDBRANCH  23  27
ENDBRANCH  17  20
ENDBRANCH   9  16
ENDBRANCH   5   8
ENDBRANCH   3   4
ENDBRANCH   2   3
ENDBRANCH   1   2
BRANCH   1  33
ATOM     33  C   UNL A   1      35.892  31.612  27.773  1.00  0.00     0.002 C 
BRANCH  33  34
ATOM     34  C   UNL A   1      35.791  32.791  28.746  1.00  0.00     0.021 C 
BRANCH  34  35
ATOM     35  C   UNL A   1      36.768  32.749  29.918  1.00  0.00     0.116 C 
BRANCH  35  36
ATOM     36  N   UNL A   1      36.341  31.823  30.951  1.00  0.00    -0.352 N 
ATOM     37  C   UNL A   1      36.865  30.610  31.317  1.00  0.00     0.251 C 
ATOM     38  H   UNL A   1      35.554  32.109  31.470  1.00  0.00     0.163 HD
ATOM     39  O   UNL A   1      36.240  29.882  32.081  1.00  0.00    -0.269 OA
BRANCH  37  40
ATOM     40  C   UNL A   1      38.172  30.172  30.780  1.00  0.00     0.039 A 
ATOM     41  C   UNL A   1      38.306  30.005  29.400  1.00  0.00     0.014 A 
ATOM     42  C   UNL A   1      39.248  29.889  31.629  1.00  0.00     0.014 A 
ATOM     43  C   UNL A   1      39.530  29.602  28.866  1.00  0.00     0.010 A 
ATOM     44  C   UNL A   1      40.487  29.545  31.090  1.00  0.00     0.010 A 
ATOM     45  C   UNL A   1      40.638  29.392  29.704  1.00  0.00    -0.014 A 
BRANCH  45  46
ATOM     46  C   UNL A   1      41.959  29.025  29.133  1.00  0.00     0.031 A 
ATOM     47  C   UNL A   1      43.059  30.044  29.031  1.00  0.00     0.074 A 
ATOM     48  C   UNL A   1      42.151  27.773  28.671  1.00  0.00     0.049 A 
ATOM     49  N   UNL A   1      44.273  29.899  28.564  1.00  0.00    -0.248 NA
ATOM     50  C   UNL A   1      42.752  31.408  29.492  1.00  0.00     0.031 C 
ATOM     51  C   UNL A   1      41.144  26.709  28.666  1.00  0.00     0.029 A 
ATOM     52  N   UNL A   1      43.258  27.185  28.113  1.00  0.00    -0.354 N 
ATOM     53  C   UNL A   1      44.870  31.151  28.663  1.00  0.00     0.074 A 
ATOM     54  C   UNL A   1      43.871  32.054  29.193  1.00  0.00     0.031 C 
ATOM     55  C   UNL A   1      41.689  25.591  28.159  1.00  0.00     0.029 A 
ATOM     56  C   UNL A   1      43.070  25.866  27.775  1.00  0.00     0.049 A 
ATOM     57  H   UNL A   1      44.106  27.663  27.969  1.00  0.00     0.167 HD
ATOM     58  C   UNL A   1      46.140  31.512  28.358  1.00  0.00     0.031 A 
ATOM     59  C   UNL A   1      43.914  24.975  27.220  1.00  0.00     0.031 A 
ATOM     60  C   UNL A   1      47.136  30.609  27.844  1.00  0.00     0.049 A 
ATOM     61  C   UNL A   1      45.321  25.396  26.906  1.00  0.00     0.074 A 
ATOM     62  C   UNL A   1      48.467  30.864  27.566  1.00  0.00     0.029 A 
ATOM     63  N   UNL A   1      46.910  29.277  27.530  1.00  0.00    -0.354 N 
ATOM     64  N   UNL A   1      45.888  26.566  27.078  1.00  0.00    -0.248 NA
ATOM     65  C   UNL A   1      46.208  24.371  26.337  1.00  0.00     0.031 C 
ATOM     66  C   UNL A   1      49.036  29.699  27.039  1.00  0.00     0.029 A 
ATOM     67  C   UNL A   1      48.071  28.704  27.037  1.00  0.00     0.049 A 
ATOM     68  H   UNL A   1      46.052  28.808  27.639  1.00  0.00     0.167 HD
ATOM     69  C   UNL A   1      47.204  26.413  26.656  1.00  0.00     0.074 A 
ATOM     70  C   UNL A   1      47.353  25.033  26.239  1.00  0.00     0.031 C 
ATOM     71  C   UNL A   1      48.199  27.333  26.615  1.00  0.00     0.031 A 
BRANCH  58  72
ATOM     72  C   UNL A   1      46.524  32.952  28.568  1.00  0.00    -0.014 A 
ATOM     73  C   UNL A   1      46.293  33.919  27.571  1.00  0.00     0.010 A 
ATOM     74  C   UNL A   1      47.082  33.355  29.795  1.00  0.00     0.010 A 
ATOM     75  C   UNL A   1      46.649  35.253  27.783  1.00  0.00     0.020 A 
ATOM     76  C   UNL A   1      47.416  34.694  30.020  1.00  0.00     0.020 A 
ATOM     77  C   UNL A   1      47.213  35.632  29.005  1.00  0.00     0.054 A 
BRANCH  77  78
ATOM     78  S   UNL A   1      47.648  37.374  29.262  1.00  0.00     0.124 S 
ATOM     79  O   UNL A   1      47.216  37.589  30.641  1.00  0.00    -0.237 OA
ATOM     80  O   UNL A   1      49.094  37.380  29.049  1.00  0.00    -0.237 OA
ATOM     81  O   UNL A   1      46.869  38.079  28.248  1.00  0.00    -0.744 OA
ENDBRANCH  77  78
ENDBRANCH  58  72
BRANCH  59  82
ATOM     82  C   UNL A   1      43.449  23.589  26.947  1.00  0.00    -0.014 A 
ATOM     83  C   UNL A   1      43.330  23.122  25.626  1.00  0.00     0.010 A 
ATOM     84  C   UNL A   1      43.143  22.721  28.011  1.00  0.00     0.010 A 
ATOM     85  C   UNL A   1      42.898  21.817  25.373  1.00  0.00     0.020 A 
ATOM     86  C   UNL A   1      42.736  21.407  27.762  1.00  0.00     0.020 A 
ATOM     87  C   UNL A   1      42.605  20.968  26.443  1.00  0.00     0.054 A 
BRANCH  87  88
ATOM     88  S   UNL A   1      42.102  19.259  26.096  1.00  0.00     0.124 S 
ATOM     89  O   UNL A   1      40.664  19.401  25.898  1.00  0.00    -0.237 OA
ATOM     90  O   UNL A   1      42.878  18.936  24.901  1.00  0.00    -0.237 OA
ATOM     91  O   UNL A   1      42.502  18.536  27.302  1.00  0.00    -0.744 OA
ENDBRANCH  87  88
ENDBRANCH  59  82
BRANCH  71  92
ATOM     92  C   UNL A   1      49.541  26.871  26.116  1.00  0.00    -0.014 A 
ATOM     93  C   UNL A   1      49.941  27.102  24.789  1.00  0.00     0.010 A 
ATOM     94  C   UNL A   1      50.429  26.226  26.999  1.00  0.00     0.010 A 
ATOM     95  C   UNL A   1      51.190  26.666  24.341  1.00  0.00     0.020 A 
ATOM     96  C   UNL A   1      51.689  25.811  26.561  1.00  0.00     0.020 A 
ATOM     97  C   UNL A   1      52.056  26.020  25.230  1.00  0.00     0.054 A 
BRANCH  97  98
ATOM     98  S   UNL A   1      53.684  25.488  24.634  1.00  0.00     0.124 S 
ATOM     99  O   UNL A   1      53.694  26.013  23.271  1.00  0.00    -0.237 OA
ATOM    100  O   UNL A   1      54.598  26.143  25.567  1.00  0.00    -0.237 OA
ATOM    101  O   UNL A   1      53.633  24.032  24.742  1.00  0.00    -0.744 OA
ENDBRANCH  97  98
ENDBRANCH  71  92
ENDBRANCH  45  46
ENDBRANCH  37  40
ENDBRANCH  35  36
ENDBRANCH  34  35
ENDBRANCH  33  34
ENDBRANCH   1  33
TORSDOF 20
ENDMDL
MODEL 2
REMARK VINA RESULT:     -11.6      1.503      2.245
REMARK SMILES CCc1sc(NC(=O)[C@H]2CC(C)=C(C)C[C@H]2C(=O)NCCCCCCNC(=O)c2ccc(-c3c4nc(c(-c5ccc(S(=O)(=O)[O-])cc5)c5ccc([nH]5)c(-c5ccc(S(=O)(=O)[O-])cc5)c5nc(c(-c6ccc(S(=O)(=O)[O-])cc6)c6ccc3[nH]6)C=C5)C=C4)cc2)nc1-c1ccccc1
REMARK SMILES IDX 22 1 21 2 20 3 19 4 17 5 18 6 16 8 9 9 10 10 11 11 15 12
REMARK SMILES IDX 12 13 13 14 14 15 7 16 6 17 8 19 5 20 3 21 4 22 90 23 89 24
REMARK SMILES IDX 2 25 1 26 91 27 92 28 96 29 93 30 95 31 94 32 23 33 24 34
REMARK SMILES IDX 25 35 26 36 27 37 28 39 29 40 30 41 88 42 31 43 87 44 32 45
REMARK SMILES IDX 33 46 34 47 81 48 35 49 86 50 80 51 82 52 36 53 85 54 79 55
REMARK SMILES IDX 78 56 37 58 67 59 48 60 66 61 49 62 52 63 65 64 83 65 50 66
REMARK SMILES IDX 51 67 64 69 84 70 53 71 38 72 39 73 47 74 40 75 46 76 41 77
REMARK SMILES IDX 42 78 43 79 44 80 45 81 68 82 69 83 77 84 70 85 76 86 71 87
REMARK SMILES IDX 72 88 73 89 74 90 75 91 54 92 55 93 63 94 56 95 62 96 57 97
REMARK SMILES IDX 58 98 59 99 60 100 61 101
REMARK H PARENT 19 7 6 18 26 38 82 57 52 68
REMARK Flexibility Score: inf
ROOT
ATOM      1  C   UNL A   1      34.284  29.164  25.900  1.00  0.00     0.002 C 
ENDROOT
BRANCH   1   2
ATOM      2  C   UNL A   1      34.341  27.648  26.094  1.00  0.00     0.021 C 
BRANCH   2   3
ATOM      3  C   UNL A   1      34.044  26.852  24.831  1.00  0.00     0.116 C 
BRANCH   3   4
ATOM      4  N   UNL A   1      33.801  27.705  23.694  1.00  0.00    -0.356 N 
ATOM      5  C   UNL A   1      32.652  28.016  23.044  1.00  0.00     0.224 C 
ATOM      6  O   UNL A   1      32.718  28.922  22.204  1.00  0.00    -0.275 OA
ATOM      7  H   UNL A   1      34.607  28.136  23.327  1.00  0.00     0.163 HD
BRANCH   5   8
ATOM      8  C   UNL A   1      31.292  27.384  23.380  1.00  0.00     0.095 C 
ATOM      9  C   UNL A   1      30.982  25.933  22.906  1.00  0.00     0.095 C 
ATOM     10  C   UNL A   1      31.014  24.905  24.050  1.00  0.00     0.045 C 
ATOM     11  C   UNL A   1      30.985  25.336  25.489  1.00  0.00    -0.074 C 
ATOM     12  C   UNL A   1      30.914  27.737  24.832  1.00  0.00     0.045 C 
ATOM     13  C   UNL A   1      31.006  24.170  26.451  1.00  0.00     0.039 C 
ATOM     14  C   UNL A   1      30.956  26.629  25.850  1.00  0.00    -0.074 C 
ATOM     15  C   UNL A   1      30.974  27.063  27.292  1.00  0.00     0.039 C 
BRANCH   9  16
ATOM     16  C   UNL A   1      31.778  25.573  21.615  1.00  0.00     0.230 C 
ATOM     17  N   UNL A   1      32.879  24.779  21.544  1.00  0.00    -0.302 N 
ATOM     18  H   UNL A   1      33.401  24.896  20.718  1.00  0.00     0.172 HD
ATOM     19  O   UNL A   1      31.407  26.035  20.527  1.00  0.00    -0.274 OA
BRANCH  17  20
ATOM     20  C   UNL A   1      33.401  23.852  22.396  1.00  0.00     0.190 A 
ATOM     21  C   UNL A   1      33.579  22.225  24.128  1.00  0.00     0.034 A 
ATOM     22  S   UNL A   1      32.568  22.413  22.748  1.00  0.00    -0.101 S 
ATOM     23  C   UNL A   1      34.740  22.951  23.880  1.00  0.00     0.087 A 
ATOM     24  N   UNL A   1      34.618  23.910  22.881  1.00  0.00    -0.220 NA
BRANCH  21  25
ATOM     25  C   UNL A   1      33.176  21.446  25.347  1.00  0.00     0.046 C 
ATOM     26  C   UNL A   1      33.172  19.935  25.200  1.00  0.00     0.010 C 
ENDBRANCH  21  25
BRANCH  23  27
ATOM     27  C   UNL A   1      35.962  22.788  24.653  1.00  0.00     0.001 A 
ATOM     28  C   UNL A   1      36.445  23.865  25.413  1.00  0.00     0.010 A 
ATOM     29  C   UNL A   1      36.668  21.582  24.651  1.00  0.00     0.010 A 
ATOM     30  C   UNL A   1      37.639  23.754  26.125  1.00  0.00     0.001 A 
ATOM     31  C   UNL A   1      37.865  21.473  25.368  1.00  0.00     0.001 A 
ATOM     32  C   UNL A   1      38.352  22.559  26.098  1.00  0.00     0.000 A 
ENDBRANCH  23  27
ENDBRANCH  17  20
ENDBRANCH   9  16
ENDBRANCH   5   8
ENDBRANCH   3   4
ENDBRANCH   2   3
ENDBRANCH   1   2
BRANCH   1  33
ATOM     33  C   UNL A   1      33.309  29.899  26.824  1.00  0.00     0.002 C 
BRANCH  33  34
ATOM     34  C   UNL A   1      33.899  31.089  27.590  1.00  0.00     0.021 C 
BRANCH  34  35
ATOM     35  C   UNL A   1      35.268  30.839  28.218  1.00  0.00     0.116 C 
BRANCH  35  36
ATOM     36  N   UNL A   1      35.275  31.124  29.641  1.00  0.00    -0.352 N 
ATOM     37  C   UNL A   1      36.234  30.863  30.586  1.00  0.00     0.251 C 
ATOM     38  H   UNL A   1      34.468  31.574  29.982  1.00  0.00     0.163 HD
ATOM     39  O   UNL A   1      35.970  30.999  31.776  1.00  0.00    -0.269 OA
BRANCH  37  40
ATOM     40  C   UNL A   1      37.579  30.405  30.174  1.00  0.00     0.039 A 
ATOM     41  C   UNL A   1      37.926  30.480  28.823  1.00  0.00     0.014 A 
ATOM     42  C   UNL A   1      38.478  29.868  31.101  1.00  0.00     0.014 A 
ATOM     43  C   UNL A   1      39.191  30.063  28.408  1.00  0.00     0.010 A 
ATOM     44  C   UNL A   1      39.763  29.508  30.695  1.00  0.00     0.010 A 
ATOM     45  C   UNL A   1      40.129  29.596  29.344  1.00  0.00    -0.014 A 
BRANCH  45  46
ATOM     46  C   UNL A   1      41.498  29.211  28.915  1.00  0.00     0.031 A 
ATOM     47  C   UNL A   1      42.606  30.227  28.888  1.00  0.00     0.074 A 
ATOM     48  C   UNL A   1      41.730  27.946  28.511  1.00  0.00     0.049 A 
ATOM     49  N   UNL A   1      43.859  30.068  28.545  1.00  0.00    -0.248 NA
ATOM     50  C   UNL A   1      42.260  31.605  29.275  1.00  0.00     0.031 C 
ATOM     51  C   UNL A   1      40.725  26.882  28.443  1.00  0.00     0.029 A 
ATOM     52  N   UNL A   1      42.884  27.341  28.081  1.00  0.00    -0.354 N 
ATOM     53  C   UNL A   1      44.447  31.322  28.663  1.00  0.00     0.074 A 
ATOM     54  C   UNL A   1      43.404  32.241  29.066  1.00  0.00     0.031 C 
ATOM     55  C   UNL A   1      41.312  25.749  28.025  1.00  0.00     0.029 A 
ATOM     56  C   UNL A   1      42.725  26.012  27.768  1.00  0.00     0.049 A 
ATOM     57  H   UNL A   1      43.743  27.814  28.005  1.00  0.00     0.167 HD
ATOM     58  C   UNL A   1      45.742  31.674  28.470  1.00  0.00     0.031 A 
ATOM     59  C   UNL A   1      43.616  25.105  27.324  1.00  0.00     0.031 A 
ATOM     60  C   UNL A   1      46.780  30.755  28.083  1.00  0.00     0.049 A 
ATOM     61  C   UNL A   1      45.048  25.515  27.135  1.00  0.00     0.074 A 
ATOM     62  C   UNL A   1      48.132  31.002  27.927  1.00  0.00     0.029 A 
ATOM     63  N   UNL A   1      46.581  29.414  27.789  1.00  0.00    -0.354 N 
ATOM     64  N   UNL A   1      45.600  26.690  27.325  1.00  0.00    -0.248 NA
ATOM     65  C   UNL A   1      45.983  24.473  26.685  1.00  0.00     0.031 C 
ATOM     66  C   UNL A   1      48.745  29.821  27.493  1.00  0.00     0.029 A 
ATOM     67  C   UNL A   1      47.783  28.826  27.428  1.00  0.00     0.049 A 
ATOM     68  H   UNL A   1      45.715  28.949  27.830  1.00  0.00     0.167 HD
ATOM     69  C   UNL A   1      46.950  26.524  27.036  1.00  0.00     0.074 A 
ATOM     70  C   UNL A   1      47.134  25.132  26.678  1.00  0.00     0.031 C 
ATOM     71  C   UNL A   1      47.947  27.443  27.063  1.00  0.00     0.031 A 
BRANCH  58  72
ATOM     72  C   UNL A   1      46.107  33.120  28.672  1.00  0.00    -0.014 A 
ATOM     73  C   UNL A   1      46.046  34.040  27.609  1.00  0.00     0.010 A 
ATOM     74  C   UNL A   1      46.475  33.576  29.952  1.00  0.00     0.010 A 
ATOM     75  C   UNL A   1      46.383  35.381  27.813  1.00  0.00     0.020 A 
ATOM     76  C   UNL A   1      46.789  34.922  30.165  1.00  0.00     0.020 A 
ATOM     77  C   UNL A   1      46.757  35.812  29.089  1.00  0.00     0.054 A 
BRANCH  77  78
ATOM     78  S   UNL A   1      47.170  37.562  29.332  1.00  0.00     0.124 S 
ATOM     79  O   UNL A   1      47.187  37.665  30.790  1.00  0.00    -0.237 OA
ATOM     80  O   UNL A   1      48.473  37.678  28.680  1.00  0.00    -0.237 OA
ATOM     81  O   UNL A   1      46.079  38.271  28.669  1.00  0.00    -0.744 OA
ENDBRANCH  77  78
ENDBRANCH  58  72
BRANCH  59  82
ATOM     82  C   UNL A   1      43.176  23.711  27.050  1.00  0.00    -0.014 A 
ATOM     83  C   UNL A   1      42.916  23.289  25.734  1.00  0.00     0.010 A 
ATOM     84  C   UNL A   1      43.034  22.792  28.105  1.00  0.00     0.010 A 
ATOM     85  C   UNL A   1      42.508  21.976  25.480  1.00  0.00     0.020 A 
ATOM     86  C   UNL A   1      42.651  21.472  27.851  1.00  0.00     0.020 A 
ATOM     87  C   UNL A   1      42.379  21.076  26.540  1.00  0.00     0.054 A 
BRANCH  87  88
ATOM     88  S   UNL A   1      41.904  19.361  26.184  1.00  0.00     0.124 S 
ATOM     89  O   UNL A   1      42.777  19.032  25.062  1.00  0.00    -0.237 OA
ATOM     90  O   UNL A   1      42.205  18.681  27.443  1.00  0.00    -0.237 OA
ATOM     91  O   UNL A   1      40.482  19.461  25.865  1.00  0.00    -0.744 OA
ENDBRANCH  87  88
ENDBRANCH  59  82
BRANCH  71  92
ATOM     92  C   UNL A   1      49.329  26.965  26.711  1.00  0.00    -0.014 A 
ATOM     93  C   UNL A   1      50.315  26.803  27.699  1.00  0.00     0.010 A 
ATOM     94  C   UNL A   1      49.635  26.642  25.375  1.00  0.00     0.010 A 
ATOM     95  C   UNL A   1      51.594  26.360  27.355  1.00  0.00     0.020 A 
ATOM     96  C   UNL A   1      50.906  26.175  25.031  1.00  0.00     0.020 A 
ATOM     97  C   UNL A   1      51.883  26.051  26.021  1.00  0.00     0.054 A 
BRANCH  97  98
ATOM     98  S   UNL A   1      53.542  25.450  25.602  1.00  0.00     0.124 S 
ATOM     99  O   UNL A   1      53.244  24.203  24.903  1.00  0.00    -0.237 OA
ATOM    100  O   UNL A   1      54.074  26.527  24.770  1.00  0.00    -0.237 OA
ATOM    101  O   UNL A   1      54.191  25.297  26.901  1.00  0.00    -0.744 OA
ENDBRANCH  97  98
ENDBRANCH  71  92
ENDBRANCH  45  46
ENDBRANCH  37  40
ENDBRANCH  35  36
ENDBRANCH  34  35
ENDBRANCH  33  34
ENDBRANCH   1  33
TORSDOF 20
ENDMDL
MODEL 3
REMARK VINA RESULT:     -11.5      5.658     10.177
REMARK SMILES CCc1sc(NC(=O)[C@H]2CC(C)=C(C)C[C@H]2C(=O)NCCCCCCNC(=O)c2ccc(-c3c4nc(c(-c5ccc(S(=O)(=O)[O-])cc5)c5ccc([nH]5)c(-c5ccc(S(=O)(=O)[O-])cc5)c5nc(c(-c6ccc(S(=O)(=O)[O-])cc6)c6ccc3[nH]6)C=C5)C=C4)cc2)nc1-c1ccccc1
REMARK SMILES IDX 22 1 21 2 20 3 19 4 17 5 18 6 16 8 9 9 10 10 11 11 15 12
REMARK SMILES IDX 12 13 13 14 14 15 7 16 6 17 8 19 5 20 3 21 4 22 90 23 89 24
REMARK SMILES IDX 2 25 1 26 91 27 92 28 96 29 93 30 95 31 94 32 23 33 24 34
REMARK SMILES IDX 25 35 26 36 27 37 28 39 29 40 30 41 88 42 31 43 87 44 32 45
REMARK SMILES IDX 33 46 34 47 81 48 35 49 86 50 80 51 82 52 36 53 85 54 79 55
REMARK SMILES IDX 78 56 37 58 67 59 48 60 66 61 49 62 52 63 65 64 83 65 50 66
REMARK SMILES IDX 51 67 64 69 84 70 53 71 38 72 39 73 47 74 40 75 46 76 41 77
REMARK SMILES IDX 42 78 43 79 44 80 45 81 68 82 69 83 77 84 70 85 76 86 71 87
REMARK SMILES IDX 72 88 73 89 74 90 75 91 54 92 55 93 63 94 56 95 62 96 57 97
REMARK SMILES IDX 58 98 59 99 60 100 61 101
REMARK H PARENT 19 7 6 18 26 38 82 57 52 68
REMARK Flexibility Score: inf
ROOT
ATOM      1  C   UNL A   1      35.335  30.131  28.340  1.00  0.00     0.002 C 
ENDROOT
BRANCH   1   2
ATOM      2  C   UNL A   1      35.676  29.244  27.141  1.00  0.00     0.021 C 
BRANCH   2   3
ATOM      3  C   UNL A   1      34.459  28.633  26.460  1.00  0.00     0.116 C 
BRANCH   3   4
ATOM      4  N   UNL A   1      33.328  29.527  26.460  1.00  0.00    -0.356 N 
ATOM      5  C   UNL A   1      32.194  29.527  25.718  1.00  0.00     0.224 C 
ATOM      6  O   UNL A   1      31.308  30.321  26.060  1.00  0.00    -0.275 OA
ATOM      7  H   UNL A   1      33.390  30.263  27.111  1.00  0.00     0.163 HD
BRANCH   5   8
ATOM      8  C   UNL A   1      31.928  28.534  24.576  1.00  0.00     0.095 C 
ATOM      9  C   UNL A   1      31.180  27.200  24.877  1.00  0.00     0.095 C 
ATOM     10  C   UNL A   1      29.732  27.190  24.356  1.00  0.00     0.045 C 
ATOM     11  C   UNL A   1      29.252  28.209  23.363  1.00  0.00    -0.074 C 
ATOM     12  C   UNL A   1      31.484  29.311  23.321  1.00  0.00     0.045 C 
ATOM     13  C   UNL A   1      27.806  28.010  22.972  1.00  0.00     0.039 C 
ATOM     14  C   UNL A   1      30.044  29.190  22.901  1.00  0.00    -0.074 C 
ATOM     15  C   UNL A   1      29.550  30.240  21.941  1.00  0.00     0.039 C 
BRANCH   9  16
ATOM     16  C   UNL A   1      31.401  26.743  26.351  1.00  0.00     0.230 C 
ATOM     17  N   UNL A   1      31.939  25.562  26.754  1.00  0.00    -0.302 N 
ATOM     18  H   UNL A   1      31.739  25.333  27.690  1.00  0.00     0.172 HD
ATOM     19  O   UNL A   1      31.065  27.497  27.275  1.00  0.00    -0.274 OA
BRANCH  17  20
ATOM     20  C   UNL A   1      32.703  24.633  26.114  1.00  0.00     0.190 A 
ATOM     21  C   UNL A   1      34.271  23.643  24.617  1.00  0.00     0.034 A 
ATOM     22  S   UNL A   1      34.337  24.935  25.754  1.00  0.00    -0.101 S 
ATOM     23  C   UNL A   1      33.226  22.812  25.010  1.00  0.00     0.087 A 
ATOM     24  N   UNL A   1      32.307  23.408  25.867  1.00  0.00    -0.220 NA
BRANCH  21  25
ATOM     25  C   UNL A   1      35.181  23.543  23.427  1.00  0.00     0.046 C 
ATOM     26  C   UNL A   1      36.355  22.590  23.564  1.00  0.00     0.010 C 
ENDBRANCH  21  25
BRANCH  23  27
ATOM     27  C   UNL A   1      33.051  21.459  24.505  1.00  0.00     0.001 A 
ATOM     28  C   UNL A   1      32.392  21.260  23.281  1.00  0.00     0.010 A 
ATOM     29  C   UNL A   1      33.521  20.351  25.215  1.00  0.00     0.010 A 
ATOM     30  C   UNL A   1      32.167  19.973  22.795  1.00  0.00     0.001 A 
ATOM     31  C   UNL A   1      33.296  19.060  24.725  1.00  0.00     0.001 A 
ATOM     32  C   UNL A   1      32.615  18.872  23.521  1.00  0.00     0.000 A 
ENDBRANCH  23  27
ENDBRANCH  17  20
ENDBRANCH   9  16
ENDBRANCH   5   8
ENDBRANCH   3   4
ENDBRANCH   2   3
ENDBRANCH   1   2
BRANCH   1  33
ATOM     33  C   UNL A   1      35.345  31.636  28.056  1.00  0.00     0.002 C 
BRANCH  33  34
ATOM     34  C   UNL A   1      33.966  32.303  27.998  1.00  0.00     0.021 C 
BRANCH  34  35
ATOM     35  C   UNL A   1      33.978  33.781  27.614  1.00  0.00     0.116 C 
BRANCH  35  36
ATOM     36  N   UNL A   1      33.221  34.594  28.548  1.00  0.00    -0.352 N 
ATOM     37  C   UNL A   1      33.358  34.732  29.906  1.00  0.00     0.251 C 
ATOM     38  H   UNL A   1      32.498  35.128  28.147  1.00  0.00     0.163 HD
ATOM     39  O   UNL A   1      32.491  35.313  30.549  1.00  0.00    -0.269 OA
BRANCH  37  40
ATOM     40  C   UNL A   1      34.540  34.170  30.595  1.00  0.00     0.039 A 
ATOM     41  C   UNL A   1      34.353  33.107  31.483  1.00  0.00     0.014 A 
ATOM     42  C   UNL A   1      35.817  34.707  30.403  1.00  0.00     0.014 A 
ATOM     43  C   UNL A   1      35.451  32.552  32.140  1.00  0.00     0.010 A 
ATOM     44  C   UNL A   1      36.921  34.113  31.013  1.00  0.00     0.010 A 
ATOM     45  C   UNL A   1      36.748  33.033  31.892  1.00  0.00    -0.014 A 
BRANCH  45  46
ATOM     46  C   UNL A   1      37.925  32.403  32.541  1.00  0.00     0.031 A 
ATOM     47  C   UNL A   1      38.706  31.330  31.834  1.00  0.00     0.074 A 
ATOM     48  C   UNL A   1      38.266  32.776  33.791  1.00  0.00     0.049 A 
ATOM     49  N   UNL A   1      39.760  30.673  32.248  1.00  0.00    -0.248 NA
ATOM     50  C   UNL A   1      38.231  30.925  30.501  1.00  0.00     0.031 C 
ATOM     51  C   UNL A   1      37.556  33.769  34.601  1.00  0.00     0.029 A 
ATOM     52  N   UNL A   1      39.295  32.363  34.599  1.00  0.00    -0.354 N 
ATOM     53  C   UNL A   1      40.067  29.772  31.234  1.00  0.00     0.074 A 
ATOM     54  C   UNL A   1      39.062  29.935  30.206  1.00  0.00     0.031 C 
ATOM     55  C   UNL A   1      38.187  33.908  35.778  1.00  0.00     0.029 A 
ATOM     56  C   UNL A   1      39.326  32.996  35.819  1.00  0.00     0.049 A 
ATOM     57  H   UNL A   1      39.949  31.679  34.330  1.00  0.00     0.167 HD
ATOM     58  C   UNL A   1      41.102  28.901  31.159  1.00  0.00     0.031 A 
ATOM     59  C   UNL A   1      40.176  32.861  36.855  1.00  0.00     0.031 A 
ATOM     60  C   UNL A   1      42.108  28.750  32.177  1.00  0.00     0.049 A 
ATOM     61  C   UNL A   1      41.325  31.900  36.739  1.00  0.00     0.074 A 
ATOM     62  C   UNL A   1      43.232  27.942  32.163  1.00  0.00     0.029 A 
ATOM     63  N   UNL A   1      42.113  29.421  33.391  1.00  0.00    -0.354 N 
ATOM     64  N   UNL A   1      41.641  31.111  35.740  1.00  0.00    -0.248 NA
ATOM     65  C   UNL A   1      42.241  31.822  37.886  1.00  0.00     0.031 C 
ATOM     66  C   UNL A   1      43.891  28.089  33.389  1.00  0.00     0.029 A 
ATOM     67  C   UNL A   1      43.206  29.026  34.146  1.00  0.00     0.049 A 
ATOM     68  H   UNL A   1      41.438  30.079  33.675  1.00  0.00     0.167 HD
ATOM     69  C   UNL A   1      42.804  30.457  36.130  1.00  0.00     0.074 A 
ATOM     70  C   UNL A   1      43.145  30.956  37.447  1.00  0.00     0.031 C 
ATOM     71  C   UNL A   1      43.524  29.524  35.459  1.00  0.00     0.031 A 
BRANCH  58  72
ATOM     72  C   UNL A   1      41.195  28.036  29.930  1.00  0.00    -0.014 A 
ATOM     73  C   UNL A   1      40.326  26.945  29.742  1.00  0.00     0.010 A 
ATOM     74  C   UNL A   1      42.134  28.343  28.928  1.00  0.00     0.010 A 
ATOM     75  C   UNL A   1      40.421  26.154  28.594  1.00  0.00     0.020 A 
ATOM     76  C   UNL A   1      42.215  27.569  27.766  1.00  0.00     0.020 A 
ATOM     77  C   UNL A   1      41.368  26.469  27.615  1.00  0.00     0.054 A 
BRANCH  77  78
ATOM     78  S   UNL A   1      41.457  25.439  26.124  1.00  0.00     0.124 S 
ATOM     79  O   UNL A   1      41.632  26.443  25.077  1.00  0.00    -0.237 OA
ATOM     80  O   UNL A   1      42.621  24.595  26.385  1.00  0.00    -0.237 OA
ATOM     81  O   UNL A   1      40.175  24.739  26.109  1.00  0.00    -0.744 OA
ENDBRANCH  77  78
ENDBRANCH  58  72
BRANCH  59  82
ATOM     82  C   UNL A   1      39.978  33.675  38.083  1.00  0.00    -0.014 A 
ATOM     83  C   UNL A   1      40.533  34.963  38.185  1.00  0.00     0.010 A 
ATOM     84  C   UNL A   1      39.215  33.172  39.152  1.00  0.00     0.010 A 
ATOM     85  C   UNL A   1      40.341  35.727  39.339  1.00  0.00     0.020 A 
ATOM     86  C   UNL A   1      38.999  33.944  40.297  1.00  0.00     0.020 A 
ATOM     87  C   UNL A   1      39.575  35.213  40.388  1.00  0.00     0.054 A 
BRANCH  87  88
ATOM     88  S   UNL A   1      39.287  36.243  41.854  1.00  0.00     0.124 S 
ATOM     89  O   UNL A   1      40.481  35.976  42.649  1.00  0.00    -0.237 OA
ATOM     90  O   UNL A   1      39.191  37.585  41.285  1.00  0.00    -0.237 OA
ATOM     91  O   UNL A   1      38.039  35.716  42.400  1.00  0.00    -0.744 OA
ENDBRANCH  87  88
ENDBRANCH  59  82
BRANCH  71  92
ATOM     92  C   UNL A   1      44.761  28.996  36.133  1.00  0.00    -0.014 A 
ATOM     93  C   UNL A   1      46.005  29.630  35.967  1.00  0.00     0.010 A 
ATOM     94  C   UNL A   1      44.670  27.869  36.971  1.00  0.00     0.010 A 
ATOM     95  C   UNL A   1      47.144  29.125  36.599  1.00  0.00     0.020 A 
ATOM     96  C   UNL A   1      45.802  27.377  37.625  1.00  0.00     0.020 A 
ATOM     97  C   UNL A   1      47.036  28.000  37.422  1.00  0.00     0.054 A 
BRANCH  97  98
ATOM     98  S   UNL A   1      48.523  27.380  38.255  1.00  0.00     0.124 S 
ATOM     99  O   UNL A   1      49.517  27.443  37.187  1.00  0.00    -0.237 OA
ATOM    100  O   UNL A   1      48.706  28.339  39.343  1.00  0.00    -0.237 OA
ATOM    101  O   UNL A   1      48.146  26.034  38.678  1.00  0.00    -0.744 OA
ENDBRANCH  97  98
ENDBRANCH  71  92
ENDBRANCH  45  46
ENDBRANCH  37  40
ENDBRANCH  35  36
ENDBRANCH  34  35
ENDBRANCH  33  34
ENDBRANCH   1  33
TORSDOF 20
ENDMDL
