MODEL 1
REMARK VINA RESULT:      -9.8      0.000      0.000
REMARK SMILES COc1ccc(F)cc1[C@@H](C(=O)NCCCCCCNC(=O)c1ccc(-c2c3nc(c(-c4ccc(S(=O)(=O)[O-])cc4)c4ccc([nH]4)c(-c4ccc(S(=O)(=O)[O-])cc4)c4nc(c(-c5ccc(S(=O)(=O)[O-])cc5)c5ccc2[nH]5)C=C4)C=C3)cc1)[NH+]1CC[NH+](Cc2noc(C)n2)CC1
REMARK SMILES IDX 16 1 15 2 14 3 13 4 11 5 12 6 10 8 9 9 3 10 4 11 5 12 8 13
REMARK SMILES IDX 6 14 7 15 2 16 1 17 83 18 84 19 95 20 85 22 94 23 86 24
REMARK SMILES IDX 87 26 88 27 89 28 93 29 90 30 91 31 92 32 17 33 18 34 19 35
REMARK SMILES IDX 20 36 21 37 22 39 23 40 24 41 82 42 25 43 81 44 26 45 27 46
REMARK SMILES IDX 28 47 75 48 29 49 80 50 74 51 76 52 30 53 79 54 73 55 72 56
REMARK SMILES IDX 31 58 61 59 42 60 60 61 43 62 46 63 59 64 77 65 44 66 45 67
REMARK SMILES IDX 58 69 78 70 47 71 32 72 33 73 41 74 34 75 40 76 35 77 36 78
REMARK SMILES IDX 37 79 38 80 39 81 62 82 63 83 71 84 64 85 70 86 65 87 66 88
REMARK SMILES IDX 67 89 68 90 69 91 48 92 49 93 57 94 50 95 56 96 51 97 52 98
REMARK SMILES IDX 53 99 54 100 55 101
REMARK H PARENT 13 7 83 21 86 25 20 38 76 57 46 68
REMARK Flexibility Score: inf
ROOT
ATOM      1  C   UNL A   1      39.189  22.254  25.935  1.00  0.00     0.002 C 
ENDROOT
BRANCH   1   2
ATOM      2  C   UNL A   1      38.293  23.410  26.387  1.00  0.00     0.021 C 
BRANCH   2   3
ATOM      3  C   UNL A   1      36.984  23.513  25.607  1.00  0.00     0.116 C 
BRANCH   3   4
ATOM      4  N   UNL A   1      35.857  23.276  26.476  1.00  0.00    -0.351 N 
ATOM      5  C   UNL A   1      34.539  23.580  26.274  1.00  0.00     0.283 C 
ATOM      6  O   UNL A   1      33.795  23.396  27.245  1.00  0.00    -0.268 OA
ATOM      7  H   UNL A   1      36.065  22.835  27.332  1.00  0.00     0.163 HD
BRANCH   5   8
ATOM      8  C   UNL A   1      34.042  24.038  24.854  1.00  0.00     0.309 C 
BRANCH   8   9
ATOM      9  C   UNL A   1      33.115  25.253  24.847  1.00  0.00     0.064 A 
ATOM     10  C   UNL A   1      32.586  25.764  23.643  1.00  0.00     0.128 A 
ATOM     11  C   UNL A   1      31.617  26.777  23.656  1.00  0.00     0.050 A 
ATOM     12  C   UNL A   1      31.205  27.334  24.863  1.00  0.00     0.043 A 
ATOM     13  C   UNL A   1      32.728  25.875  26.046  1.00  0.00     0.053 A 
ATOM     14  C   UNL A   1      31.778  26.891  26.046  1.00  0.00     0.124 A 
ATOM     15  F   UNL A   1      31.397  27.434  27.209  1.00  0.00    -0.207 F 
BRANCH  10  16
ATOM     16  O   UNL A   1      33.013  25.215  22.459  1.00  0.00    -0.496 OA
ATOM     17  C   UNL A   1      32.941  26.124  21.357  1.00  0.00     0.278 C 
ENDBRANCH  10  16
ENDBRANCH   8   9
BRANCH   8  18
ATOM     18  N   UNL A   1      33.507  22.873  24.108  1.00  0.00    -0.311 N 
ATOM     19  C   UNL A   1      34.426  21.758  23.860  1.00  0.00     0.325 C 
ATOM     20  C   UNL A   1      32.155  22.455  24.473  1.00  0.00     0.325 C 
ATOM     21  H   UNL A   1      33.409  23.287  23.181  1.00  0.00     0.349 HD
ATOM     22  C   UNL A   1      34.247  20.475  24.713  1.00  0.00     0.324 C 
ATOM     23  C   UNL A   1      32.049  21.225  25.403  1.00  0.00     0.324 C 
ATOM     24  N   UNL A   1      32.881  20.066  25.055  1.00  0.00    -0.319 N 
ATOM     25  H   UNL A   1      32.947  19.506  25.904  1.00  0.00     0.348 HD
BRANCH  24  26
ATOM     26  C   UNL A   1      32.269  19.103  24.119  1.00  0.00     0.345 C 
BRANCH  26  27
ATOM     27  C   UNL A   1      32.977  17.795  23.990  1.00  0.00     0.226 A 
ATOM     28  N   UNL A   1      33.242  17.221  22.806  1.00  0.00    -0.056 NA
ATOM     29  N   UNL A   1      33.496  17.133  25.076  1.00  0.00    -0.191 NA
ATOM     30  O   UNL A   1      34.137  16.200  23.146  1.00  0.00    -0.339 OA
ATOM     31  C   UNL A   1      34.276  16.248  24.502  1.00  0.00     0.223 A 
ATOM     32  C   UNL A   1      35.344  15.429  25.100  1.00  0.00     0.114 C 
ENDBRANCH  26  27
ENDBRANCH  24  26
ENDBRANCH   8  18
ENDBRANCH   5   8
ENDBRANCH   3   4
ENDBRANCH   2   3
ENDBRANCH   1   2
BRANCH   1  33
ATOM     33  C   UNL A   1      40.109  21.696  27.023  1.00  0.00     0.002 C 
BRANCH  33  34
ATOM     34  C   UNL A   1      41.604  21.779  26.701  1.00  0.00     0.021 C 
BRANCH  34  35
ATOM     35  C   UNL A   1      41.991  22.945  25.797  1.00  0.00     0.116 C 
BRANCH  35  36
ATOM     36  N   UNL A   1      42.774  22.500  24.656  1.00  0.00    -0.352 N 
ATOM     37  C   UNL A   1      44.065  22.811  24.324  1.00  0.00     0.251 C 
ATOM     38  H   UNL A   1      42.312  21.890  24.036  1.00  0.00     0.163 HD
ATOM     39  O   UNL A   1      44.496  22.542  23.201  1.00  0.00    -0.269 OA
BRANCH  37  40
ATOM     40  C   UNL A   1      44.936  23.476  25.313  1.00  0.00     0.039 A 
ATOM     41  C   UNL A   1      45.083  24.864  25.260  1.00  0.00     0.014 A 
ATOM     42  C   UNL A   1      45.615  22.730  26.281  1.00  0.00     0.014 A 
ATOM     43  C   UNL A   1      45.874  25.509  26.212  1.00  0.00     0.010 A 
ATOM     44  C   UNL A   1      46.351  23.380  27.267  1.00  0.00     0.010 A 
ATOM     45  C   UNL A   1      46.494  24.776  27.238  1.00  0.00    -0.014 A 
BRANCH  45  46
ATOM     46  C   UNL A   1      47.293  25.456  28.287  1.00  0.00     0.031 A 
ATOM     47  C   UNL A   1      48.735  25.803  28.038  1.00  0.00     0.074 A 
ATOM     48  C   UNL A   1      46.729  25.717  29.483  1.00  0.00     0.049 A 
ATOM     49  N   UNL A   1      49.595  26.373  28.843  1.00  0.00    -0.248 NA
ATOM     50  C   UNL A   1      49.289  25.444  26.723  1.00  0.00     0.031 C 
ATOM     51  C   UNL A   1      45.352  25.388  29.861  1.00  0.00     0.029 A 
ATOM     52  N   UNL A   1      47.245  26.315  30.604  1.00  0.00    -0.354 N 
ATOM     53  C   UNL A   1      50.792  26.430  28.139  1.00  0.00     0.074 A 
ATOM     54  C   UNL A   1      50.561  25.793  26.861  1.00  0.00     0.031 C 
ATOM     55  C   UNL A   1      45.126  25.815  31.113  1.00  0.00     0.029 A 
ATOM     56  C   UNL A   1      46.347  26.416  31.639  1.00  0.00     0.049 A 
ATOM     57  H   UNL A   1      48.173  26.641  30.661  1.00  0.00     0.167 HD
ATOM     58  C   UNL A   1      51.971  26.980  28.513  1.00  0.00     0.031 A 
ATOM     59  C   UNL A   1      46.490  26.934  32.874  1.00  0.00     0.031 A 
ATOM     60  C   UNL A   1      52.195  27.621  29.782  1.00  0.00     0.049 A 
ATOM     61  C   UNL A   1      47.809  27.537  33.268  1.00  0.00     0.074 A 
ATOM     62  C   UNL A   1      53.338  28.258  30.236  1.00  0.00     0.029 A 
ATOM     63  N   UNL A   1      51.258  27.709  30.801  1.00  0.00    -0.354 N 
ATOM     64  N   UNL A   1      48.911  27.638  32.564  1.00  0.00    -0.248 NA
ATOM     65  C   UNL A   1      47.899  28.110  34.618  1.00  0.00     0.031 C 
ATOM     66  C   UNL A   1      53.107  28.688  31.547  1.00  0.00     0.029 A 
ATOM     67  C   UNL A   1      51.804  28.367  31.890  1.00  0.00     0.049 A 
ATOM     68  H   UNL A   1      50.340  27.355  30.756  1.00  0.00     0.167 HD
ATOM     69  C   UNL A   1      49.820  28.304  33.378  1.00  0.00     0.074 A 
ATOM     70  C   UNL A   1      49.131  28.598  34.620  1.00  0.00     0.031 C 
ATOM     71  C   UNL A   1      51.107  28.642  33.122  1.00  0.00     0.031 A 
BRANCH  58  72
ATOM     72  C   UNL A   1      53.114  26.907  27.534  1.00  0.00    -0.014 A 
ATOM     73  C   UNL A   1      53.281  27.888  26.540  1.00  0.00     0.010 A 
ATOM     74  C   UNL A   1      54.052  25.862  27.629  1.00  0.00     0.010 A 
ATOM     75  C   UNL A   1      54.339  27.803  25.632  1.00  0.00     0.020 A 
ATOM     76  C   UNL A   1      55.127  25.789  26.739  1.00  0.00     0.020 A 
ATOM     77  C   UNL A   1      55.253  26.750  25.734  1.00  0.00     0.054 A 
BRANCH  77  78
ATOM     78  S   UNL A   1      56.627  26.673  24.552  1.00  0.00     0.124 S 
ATOM     79  O   UNL A   1      57.352  27.905  24.854  1.00  0.00    -0.237 OA
ATOM     80  O   UNL A   1      57.308  25.436  24.928  1.00  0.00    -0.237 OA
ATOM     81  O   UNL A   1      55.963  26.645  23.251  1.00  0.00    -0.744 OA
ENDBRANCH  77  78
ENDBRANCH  58  72
BRANCH  59  82
ATOM     82  C   UNL A   1      45.341  26.919  33.820  1.00  0.00    -0.014 A 
ATOM     83  C   UNL A   1      44.450  28.005  33.876  1.00  0.00     0.010 A 
ATOM     84  C   UNL A   1      45.123  25.810  34.658  1.00  0.00     0.010 A 
ATOM     85  C   UNL A   1      43.369  27.988  34.762  1.00  0.00     0.020 A 
ATOM     86  C   UNL A   1      44.029  25.779  35.527  1.00  0.00     0.020 A 
ATOM     87  C   UNL A   1      43.165  26.874  35.581  1.00  0.00     0.054 A 
BRANCH  87  88
ATOM     88  S   UNL A   1      41.723  26.848  36.683  1.00  0.00     0.124 S 
ATOM     89  O   UNL A   1      40.862  25.867  36.031  1.00  0.00    -0.237 OA
ATOM     90  O   UNL A   1      42.307  26.433  37.956  1.00  0.00    -0.237 OA
ATOM     91  O   UNL A   1      41.243  28.227  36.648  1.00  0.00    -0.744 OA
ENDBRANCH  87  88
ENDBRANCH  59  82
BRANCH  71  92
ATOM     92  C   UNL A   1      51.850  29.385  34.199  1.00  0.00    -0.014 A 
ATOM     93  C   UNL A   1      52.678  28.708  35.111  1.00  0.00     0.010 A 
ATOM     94  C   UNL A   1      51.745  30.786  34.276  1.00  0.00     0.010 A 
ATOM     95  C   UNL A   1      53.361  29.415  36.105  1.00  0.00     0.020 A 
ATOM     96  C   UNL A   1      52.447  31.499  35.252  1.00  0.00     0.020 A 
ATOM     97  C   UNL A   1      53.238  30.806  36.170  1.00  0.00     0.054 A 
BRANCH  97  98
ATOM     98  S   UNL A   1      54.157  31.705  37.449  1.00  0.00     0.124 S 
ATOM     99  O   UNL A   1      54.068  30.792  38.585  1.00  0.00    -0.237 OA
ATOM    100  O   UNL A   1      55.485  31.842  36.855  1.00  0.00    -0.237 OA
ATOM    101  O   UNL A   1      53.414  32.955  37.594  1.00  0.00    -0.744 OA
ENDBRANCH  97  98
ENDBRANCH  71  92
ENDBRANCH  45  46
ENDBRANCH  37  40
ENDBRANCH  35  36
ENDBRANCH  34  35
ENDBRANCH  33  34
ENDBRANCH   1  33
TORSDOF 21
ENDMDL
MODEL 2
REMARK VINA RESULT:      -9.4      4.490      9.289
REMARK SMILES COc1ccc(F)cc1[C@@H](C(=O)NCCCCCCNC(=O)c1ccc(-c2c3nc(c(-c4ccc(S(=O)(=O)[O-])cc4)c4ccc([nH]4)c(-c4ccc(S(=O)(=O)[O-])cc4)c4nc(c(-c5ccc(S(=O)(=O)[O-])cc5)c5ccc2[nH]5)C=C4)C=C3)cc1)[NH+]1CC[NH+](Cc2noc(C)n2)CC1
REMARK SMILES IDX 16 1 15 2 14 3 13 4 11 5 12 6 10 8 9 9 3 10 4 11 5 12 8 13
REMARK SMILES IDX 6 14 7 15 2 16 1 17 83 18 84 19 95 20 85 22 94 23 86 24
REMARK SMILES IDX 87 26 88 27 89 28 93 29 90 30 91 31 92 32 17 33 18 34 19 35
REMARK SMILES IDX 20 36 21 37 22 39 23 40 24 41 82 42 25 43 81 44 26 45 27 46
REMARK SMILES IDX 28 47 75 48 29 49 80 50 74 51 76 52 30 53 79 54 73 55 72 56
REMARK SMILES IDX 31 58 61 59 42 60 60 61 43 62 46 63 59 64 77 65 44 66 45 67
REMARK SMILES IDX 58 69 78 70 47 71 32 72 33 73 41 74 34 75 40 76 35 77 36 78
REMARK SMILES IDX 37 79 38 80 39 81 62 82 63 83 71 84 64 85 70 86 65 87 66 88
REMARK SMILES IDX 67 89 68 90 69 91 48 92 49 93 57 94 50 95 56 96 51 97 52 98
REMARK SMILES IDX 53 99 54 100 55 101
REMARK H PARENT 13 7 83 21 86 25 20 38 76 57 46 68
REMARK Flexibility Score: inf
ROOT
ATOM      1  C   UNL A   1      35.582  30.524  27.512  1.00  0.00     0.002 C 
ENDROOT
BRANCH   1   2
ATOM      2  C   UNL A   1      34.801  29.233  27.254  1.00  0.00     0.021 C 
BRANCH   2   3
ATOM      3  C   UNL A   1      33.497  29.446  26.488  1.00  0.00     0.116 C 
BRANCH   3   4
ATOM      4  N   UNL A   1      32.508  28.476  26.890  1.00  0.00    -0.351 N 
ATOM      5  C   UNL A   1      31.513  27.905  26.144  1.00  0.00     0.283 C 
ATOM      6  O   UNL A   1      30.711  27.206  26.774  1.00  0.00    -0.268 OA
ATOM      7  H   UNL A   1      32.555  28.185  27.830  1.00  0.00     0.163 HD
BRANCH   5   8
ATOM      8  C   UNL A   1      31.497  28.081  24.582  1.00  0.00     0.309 C 
BRANCH   8   9
ATOM      9  C   UNL A   1      30.329  28.898  24.029  1.00  0.00     0.064 A 
ATOM     10  C   UNL A   1      29.179  28.270  23.504  1.00  0.00     0.128 A 
ATOM     11  C   UNL A   1      28.051  29.021  23.145  1.00  0.00     0.050 A 
ATOM     12  C   UNL A   1      28.074  30.408  23.248  1.00  0.00     0.043 A 
ATOM     13  C   UNL A   1      30.348  30.303  24.064  1.00  0.00     0.053 A 
ATOM     14  C   UNL A   1      29.229  31.038  23.688  1.00  0.00     0.124 A 
ATOM     15  F   UNL A   1      29.262  32.374  23.775  1.00  0.00    -0.207 F 
BRANCH  10  16
ATOM     16  O   UNL A   1      29.177  26.902  23.395  1.00  0.00    -0.496 OA
ATOM     17  C   UNL A   1      28.115  26.280  24.124  1.00  0.00     0.278 C 
ENDBRANCH  10  16
ENDBRANCH   8   9
BRANCH   8  18
ATOM     18  N   UNL A   1      31.670  26.763  23.925  1.00  0.00    -0.311 N 
ATOM     19  C   UNL A   1      32.345  26.746  22.625  1.00  0.00     0.325 C 
ATOM     20  C   UNL A   1      32.058  25.663  24.807  1.00  0.00     0.325 C 
ATOM     21  H   UNL A   1      30.702  26.564  23.672  1.00  0.00     0.349 HD
ATOM     22  C   UNL A   1      33.810  26.237  22.581  1.00  0.00     0.324 C 
ATOM     23  C   UNL A   1      33.551  25.267  24.786  1.00  0.00     0.324 C 
ATOM     24  N   UNL A   1      34.173  25.124  23.464  1.00  0.00    -0.319 N 
ATOM     25  H   UNL A   1      35.178  25.190  23.620  1.00  0.00     0.348 HD
BRANCH  24  26
ATOM     26  C   UNL A   1      34.062  23.785  22.850  1.00  0.00     0.345 C 
BRANCH  26  27
ATOM     27  C   UNL A   1      34.351  22.637  23.759  1.00  0.00     0.226 A 
ATOM     28  N   UNL A   1      33.426  21.726  24.101  1.00  0.00    -0.056 NA
ATOM     29  N   UNL A   1      35.613  22.376  24.233  1.00  0.00    -0.191 NA
ATOM     30  O   UNL A   1      34.188  20.718  24.704  1.00  0.00    -0.339 OA
ATOM     31  C   UNL A   1      35.479  21.156  24.696  1.00  0.00     0.223 A 
ATOM     32  C   UNL A   1      36.524  20.185  25.063  1.00  0.00     0.114 C 
ENDBRANCH  26  27
ENDBRANCH  24  26
ENDBRANCH   8  18
ENDBRANCH   5   8
ENDBRANCH   3   4
ENDBRANCH   2   3
ENDBRANCH   1   2
BRANCH   1  33
ATOM     33  C   UNL A   1      36.000  30.736  28.969  1.00  0.00     0.002 C 
BRANCH  33  34
ATOM     34  C   UNL A   1      35.911  29.486  29.848  1.00  0.00     0.021 C 
BRANCH  34  35
ATOM     35  C   UNL A   1      36.604  29.615  31.200  1.00  0.00     0.116 C 
BRANCH  35  36
ATOM     36  N   UNL A   1      36.677  31.000  31.634  1.00  0.00    -0.352 N 
ATOM     37  C   UNL A   1      37.783  31.776  31.856  1.00  0.00     0.251 C 
ATOM     38  H   UNL A   1      35.811  31.442  31.791  1.00  0.00     0.163 HD
ATOM     39  O   UNL A   1      37.674  32.850  32.451  1.00  0.00    -0.269 OA
BRANCH  37  40
ATOM     40  C   UNL A   1      39.105  31.317  31.389  1.00  0.00     0.039 A 
ATOM     41  C   UNL A   1      39.948  30.654  32.283  1.00  0.00     0.014 A 
ATOM     42  C   UNL A   1      39.518  31.553  30.073  1.00  0.00     0.014 A 
ATOM     43  C   UNL A   1      41.185  30.184  31.844  1.00  0.00     0.010 A 
ATOM     44  C   UNL A   1      40.724  31.028  29.620  1.00  0.00     0.010 A 
ATOM     45  C   UNL A   1      41.573  30.344  30.503  1.00  0.00    -0.014 A 
BRANCH  45  46
ATOM     46  C   UNL A   1      42.863  29.799  30.010  1.00  0.00     0.031 A 
ATOM     47  C   UNL A   1      42.926  28.419  29.416  1.00  0.00     0.074 A 
ATOM     48  C   UNL A   1      43.985  30.533  30.144  1.00  0.00     0.049 A 
ATOM     49  N   UNL A   1      43.965  27.767  28.959  1.00  0.00    -0.248 NA
ATOM     50  C   UNL A   1      41.666  27.664  29.348  1.00  0.00     0.031 C 
ATOM     51  C   UNL A   1      44.059  31.868  30.744  1.00  0.00     0.029 A 
ATOM     52  N   UNL A   1      45.280  30.259  29.787  1.00  0.00    -0.354 N 
ATOM     53  C   UNL A   1      43.487  26.525  28.560  1.00  0.00     0.074 A 
ATOM     54  C   UNL A   1      42.075  26.495  28.875  1.00  0.00     0.031 C 
ATOM     55  C   UNL A   1      45.326  32.306  30.686  1.00  0.00     0.029 A 
ATOM     56  C   UNL A   1      46.160  31.275  30.078  1.00  0.00     0.049 A 
ATOM     57  H   UNL A   1      45.555  29.414  29.362  1.00  0.00     0.167 HD
ATOM     58  C   UNL A   1      44.156  25.508  27.968  1.00  0.00     0.031 A 
ATOM     59  C   UNL A   1      47.489  31.365  29.879  1.00  0.00     0.031 A 
ATOM     60  C   UNL A   1      45.559  25.545  27.648  1.00  0.00     0.049 A 
ATOM     61  C   UNL A   1      48.211  30.223  29.221  1.00  0.00     0.074 A 
ATOM     62  C   UNL A   1      46.320  24.587  26.998  1.00  0.00     0.029 A 
ATOM     63  N   UNL A   1      46.413  26.594  27.952  1.00  0.00    -0.354 N 
ATOM     64  N   UNL A   1      47.728  29.081  28.793  1.00  0.00    -0.248 NA
ATOM     65  C   UNL A   1      49.654  30.388  29.006  1.00  0.00     0.031 C 
ATOM     66  C   UNL A   1      47.643  25.038  26.953  1.00  0.00     0.029 A 
ATOM     67  C   UNL A   1      47.697  26.298  27.526  1.00  0.00     0.049 A 
ATOM     68  H   UNL A   1      46.147  27.426  28.406  1.00  0.00     0.167 HD
ATOM     69  C   UNL A   1      48.805  28.399  28.240  1.00  0.00     0.074 A 
ATOM     70  C   UNL A   1      49.960  29.266  28.370  1.00  0.00     0.031 C 
ATOM     71  C   UNL A   1      48.837  27.168  27.674  1.00  0.00     0.031 A 
BRANCH  58  72
ATOM     72  C   UNL A   1      43.376  24.265  27.630  1.00  0.00    -0.014 A 
ATOM     73  C   UNL A   1      42.733  24.127  26.387  1.00  0.00     0.010 A 
ATOM     74  C   UNL A   1      43.310  23.206  28.555  1.00  0.00     0.010 A 
ATOM     75  C   UNL A   1      42.002  22.973  26.091  1.00  0.00     0.020 A 
ATOM     76  C   UNL A   1      42.603  22.039  28.251  1.00  0.00     0.020 A 
ATOM     77  C   UNL A   1      41.938  21.938  27.028  1.00  0.00     0.054 A 
BRANCH  77  78
ATOM     78  S   UNL A   1      40.998  20.444  26.611  1.00  0.00     0.124 S 
ATOM     79  O   UNL A   1      39.757  21.008  26.083  1.00  0.00    -0.237 OA
ATOM     80  O   UNL A   1      41.856  19.787  25.628  1.00  0.00    -0.237 OA
ATOM     81  O   UNL A   1      40.871  19.747  27.888  1.00  0.00    -0.744 OA
ENDBRANCH  77  78
ENDBRANCH  58  72
BRANCH  59  82
ATOM     82  C   UNL A   1      48.217  32.596  30.292  1.00  0.00    -0.014 A 
ATOM     83  C   UNL A   1      48.780  32.693  31.577  1.00  0.00     0.010 A 
ATOM     84  C   UNL A   1      48.366  33.669  29.396  1.00  0.00     0.010 A 
ATOM     85  C   UNL A   1      49.466  33.848  31.963  1.00  0.00     0.020 A 
ATOM     86  C   UNL A   1      49.074  34.814  29.769  1.00  0.00     0.020 A 
ATOM     87  C   UNL A   1      49.610  34.901  31.055  1.00  0.00     0.054 A 
BRANCH  87  88
ATOM     88  S   UNL A   1      50.555  36.367  31.556  1.00  0.00     0.124 S 
ATOM     89  O   UNL A   1      49.586  37.438  31.346  1.00  0.00    -0.237 OA
ATOM     90  O   UNL A   1      50.883  36.072  32.948  1.00  0.00    -0.237 OA
ATOM     91  O   UNL A   1      51.696  36.365  30.642  1.00  0.00    -0.744 OA
ENDBRANCH  87  88
ENDBRANCH  59  82
BRANCH  71  92
ATOM     92  C   UNL A   1      50.160  26.692  27.136  1.00  0.00    -0.014 A 
ATOM     93  C   UNL A   1      50.469  26.799  25.769  1.00  0.00     0.010 A 
ATOM     94  C   UNL A   1      51.120  26.165  28.018  1.00  0.00     0.010 A 
ATOM     95  C   UNL A   1      51.703  26.353  25.287  1.00  0.00     0.020 A 
ATOM     96  C   UNL A   1      52.364  25.743  27.545  1.00  0.00     0.020 A 
ATOM     97  C   UNL A   1      52.641  25.824  26.179  1.00  0.00     0.054 A 
BRANCH  97  98
ATOM     98  S   UNL A   1      54.247  25.280  25.535  1.00  0.00     0.124 S 
ATOM     99  O   UNL A   1      54.763  26.505  24.931  1.00  0.00    -0.237 OA
ATOM    100  O   UNL A   1      54.941  24.832  26.740  1.00  0.00    -0.237 OA
ATOM    101  O   UNL A   1      53.900  24.218  24.593  1.00  0.00    -0.744 OA
ENDBRANCH  97  98
ENDBRANCH  71  92
ENDBRANCH  45  46
ENDBRANCH  37  40
ENDBRANCH  35  36
ENDBRANCH  34  35
ENDBRANCH  33  34
ENDBRANCH   1  33
TORSDOF 21
ENDMDL
MODEL 3
REMARK VINA RESULT:      -9.4      4.996      9.287
REMARK SMILES COc1ccc(F)cc1[C@@H](C(=O)NCCCCCCNC(=O)c1ccc(-c2c3nc(c(-c4ccc(S(=O)(=O)[O-])cc4)c4ccc([nH]4)c(-c4ccc(S(=O)(=O)[O-])cc4)c4nc(c(-c5ccc(S(=O)(=O)[O-])cc5)c5ccc2[nH]5)C=C4)C=C3)cc1)[NH+]1CC[NH+](Cc2noc(C)n2)CC1
REMARK SMILES IDX 16 1 15 2 14 3 13 4 11 5 12 6 10 8 9 9 3 10 4 11 5 12 8 13
REMARK SMILES IDX 6 14 7 15 2 16 1 17 83 18 84 19 95 20 85 22 94 23 86 24
REMARK SMILES IDX 87 26 88 27 89 28 93 29 90 30 91 31 92 32 17 33 18 34 19 35
REMARK SMILES IDX 20 36 21 37 22 39 23 40 24 41 82 42 25 43 81 44 26 45 27 46
REMARK SMILES IDX 28 47 75 48 29 49 80 50 74 51 76 52 30 53 79 54 73 55 72 56
REMARK SMILES IDX 31 58 61 59 42 60 60 61 43 62 46 63 59 64 77 65 44 66 45 67
REMARK SMILES IDX 58 69 78 70 47 71 32 72 33 73 41 74 34 75 40 76 35 77 36 78
REMARK SMILES IDX 37 79 38 80 39 81 62 82 63 83 71 84 64 85 70 86 65 87 66 88
REMARK SMILES IDX 67 89 68 90 69 91 48 92 49 93 57 94 50 95 56 96 51 97 52 98
REMARK SMILES IDX 53 99 54 100 55 101
REMARK H PARENT 13 7 83 21 86 25 20 38 76 57 46 68
REMARK Flexibility Score: inf
ROOT
ATOM      1  C   UNL A   1      32.277  29.546  27.305  1.00  0.00     0.002 C 
ENDROOT
BRANCH   1   2
ATOM      2  C   UNL A   1      32.266  28.034  27.543  1.00  0.00     0.021 C 
BRANCH   2   3
ATOM      3  C   UNL A   1      31.249  27.285  26.686  1.00  0.00     0.116 C 
BRANCH   3   4
ATOM      4  N   UNL A   1      31.309  25.867  26.950  1.00  0.00    -0.351 N 
ATOM      5  C   UNL A   1      32.186  24.940  26.460  1.00  0.00     0.283 C 
ATOM      6  O   UNL A   1      31.926  23.763  26.737  1.00  0.00    -0.268 OA
ATOM      7  H   UNL A   1      30.625  25.520  27.568  1.00  0.00     0.163 HD
BRANCH   5   8
ATOM      8  C   UNL A   1      33.473  25.402  25.683  1.00  0.00     0.309 C 
BRANCH   8   9
ATOM      9  C   UNL A   1      33.217  26.275  24.456  1.00  0.00     0.064 A 
ATOM     10  C   UNL A   1      32.076  26.087  23.647  1.00  0.00     0.128 A 
ATOM     11  C   UNL A   1      31.766  26.988  22.619  1.00  0.00     0.050 A 
ATOM     12  C   UNL A   1      32.618  28.054  22.344  1.00  0.00     0.043 A 
ATOM     13  C   UNL A   1      34.091  27.323  24.118  1.00  0.00     0.053 A 
ATOM     14  C   UNL A   1      33.782  28.200  23.084  1.00  0.00     0.124 A 
ATOM     15  F   UNL A   1      34.613  29.215  22.815  1.00  0.00    -0.207 F 
BRANCH  10  16
ATOM     16  O   UNL A   1      31.253  25.022  23.920  1.00  0.00    -0.496 OA
ATOM     17  C   UNL A   1      29.880  25.277  23.610  1.00  0.00     0.278 C 
ENDBRANCH  10  16
ENDBRANCH   8   9
BRANCH   8  18
ATOM     18  N   UNL A   1      34.346  24.233  25.415  1.00  0.00    -0.311 N 
ATOM     19  C   UNL A   1      34.682  23.373  26.553  1.00  0.00     0.325 C 
ATOM     20  C   UNL A   1      34.059  23.500  24.183  1.00  0.00     0.325 C 
ATOM     21  H   UNL A   1      35.228  24.711  25.233  1.00  0.00     0.349 HD
ATOM     22  C   UNL A   1      33.967  22.000  26.653  1.00  0.00     0.324 C 
ATOM     23  C   UNL A   1      33.260  22.187  24.343  1.00  0.00     0.324 C 
ATOM     24  N   UNL A   1      33.702  21.275  25.406  1.00  0.00    -0.319 N 
ATOM     25  H   UNL A   1      32.912  20.657  25.588  1.00  0.00     0.348 HD
BRANCH  24  26
ATOM     26  C   UNL A   1      34.746  20.306  25.019  1.00  0.00     0.345 C 
BRANCH  26  27
ATOM     27  C   UNL A   1      34.268  18.914  24.768  1.00  0.00     0.226 A 
ATOM     28  N   UNL A   1      35.025  17.976  24.178  1.00  0.00    -0.056 NA
ATOM     29  N   UNL A   1      33.049  18.466  25.216  1.00  0.00    -0.191 NA
ATOM     30  O   UNL A   1      34.304  16.799  24.409  1.00  0.00    -0.339 OA
ATOM     31  C   UNL A   1      33.172  17.168  25.075  1.00  0.00     0.223 A 
ATOM     32  C   UNL A   1      32.344  16.091  25.646  1.00  0.00     0.114 C 
ENDBRANCH  26  27
ENDBRANCH  24  26
ENDBRANCH   8  18
ENDBRANCH   5   8
ENDBRANCH   3   4
ENDBRANCH   2   3
ENDBRANCH   1   2
BRANCH   1  33
ATOM     33  C   UNL A   1      33.616  30.106  26.818  1.00  0.00     0.002 C 
BRANCH  33  34
ATOM     34  C   UNL A   1      34.176  31.252  27.664  1.00  0.00     0.021 C 
BRANCH  34  35
ATOM     35  C   UNL A   1      35.557  30.985  28.254  1.00  0.00     0.116 C 
BRANCH  35  36
ATOM     36  N   UNL A   1      35.507  30.869  29.702  1.00  0.00    -0.352 N 
ATOM     37  C   UNL A   1      36.456  30.382  30.560  1.00  0.00     0.251 C 
ATOM     38  H   UNL A   1      34.676  31.186  30.125  1.00  0.00     0.163 HD
ATOM     39  O   UNL A   1      36.160  30.133  31.730  1.00  0.00    -0.269 OA
BRANCH  37  40
ATOM     40  C   UNL A   1      37.831  30.147  30.076  1.00  0.00     0.039 A 
ATOM     41  C   UNL A   1      38.879  30.125  30.998  1.00  0.00     0.014 A 
ATOM     42  C   UNL A   1      38.084  29.963  28.713  1.00  0.00     0.014 A 
ATOM     43  C   UNL A   1      40.178  29.869  30.557  1.00  0.00     0.010 A 
ATOM     44  C   UNL A   1      39.369  29.645  28.283  1.00  0.00     0.010 A 
ATOM     45  C   UNL A   1      40.430  29.601  29.200  1.00  0.00    -0.014 A 
BRANCH  45  46
ATOM     46  C   UNL A   1      41.797  29.273  28.728  1.00  0.00     0.031 A 
ATOM     47  C   UNL A   1      42.133  27.874  28.286  1.00  0.00     0.074 A 
ATOM     48  C   UNL A   1      42.750  30.225  28.743  1.00  0.00     0.049 A 
ATOM     49  N   UNL A   1      43.277  27.395  27.869  1.00  0.00    -0.248 NA
ATOM     50  C   UNL A   1      41.050  26.879  28.343  1.00  0.00     0.031 C 
ATOM     51  C   UNL A   1      42.558  31.608  29.190  1.00  0.00     0.029 A 
ATOM     52  N   UNL A   1      44.070  30.177  28.375  1.00  0.00    -0.354 N 
ATOM     53  C   UNL A   1      43.056  26.045  27.624  1.00  0.00     0.074 A 
ATOM     54  C   UNL A   1      41.682  25.770  27.987  1.00  0.00     0.031 C 
ATOM     55  C   UNL A   1      43.711  32.281  29.043  1.00  0.00     0.029 A 
ATOM     56  C   UNL A   1      44.729  31.374  28.524  1.00  0.00     0.049 A 
ATOM     57  H   UNL A   1      44.505  29.361  28.037  1.00  0.00     0.167 HD
ATOM     58  C   UNL A   1      43.911  25.122  27.125  1.00  0.00     0.031 A 
ATOM     59  C   UNL A   1      46.010  31.705  28.273  1.00  0.00     0.031 A 
ATOM     60  C   UNL A   1      45.273  25.401  26.756  1.00  0.00     0.049 A 
ATOM     61  C   UNL A   1      46.941  30.663  27.720  1.00  0.00     0.074 A 
ATOM     62  C   UNL A   1      46.205  24.547  26.190  1.00  0.00     0.029 A 
ATOM     63  N   UNL A   1      45.901  26.627  26.916  1.00  0.00    -0.354 N 
ATOM     64  N   UNL A   1      46.695  29.406  27.435  1.00  0.00    -0.248 NA
ATOM     65  C   UNL A   1      48.319  31.087  27.440  1.00  0.00     0.031 C 
ATOM     66  C   UNL A   1      47.410  25.245  26.052  1.00  0.00     0.029 A 
ATOM     67  C   UNL A   1      47.214  26.547  26.483  1.00  0.00     0.049 A 
ATOM     68  H   UNL A   1      45.477  27.436  27.284  1.00  0.00     0.167 HD
ATOM     69  C   UNL A   1      47.882  28.895  26.925  1.00  0.00     0.074 A 
ATOM     70  C   UNL A   1      48.839  29.984  26.921  1.00  0.00     0.031 C 
ATOM     71  C   UNL A   1      48.156  27.638  26.496  1.00  0.00     0.031 A 
BRANCH  58  72
ATOM     72  C   UNL A   1      43.394  23.717  26.952  1.00  0.00    -0.014 A 
ATOM     73  C   UNL A   1      43.374  22.813  28.029  1.00  0.00     0.010 A 
ATOM     74  C   UNL A   1      42.890  23.305  25.704  1.00  0.00     0.010 A 
ATOM     75  C   UNL A   1      42.901  21.511  27.852  1.00  0.00     0.020 A 
ATOM     76  C   UNL A   1      42.392  22.011  25.530  1.00  0.00     0.020 A 
ATOM     77  C   UNL A   1      42.418  21.116  26.601  1.00  0.00     0.054 A 
BRANCH  77  78
ATOM     78  S   UNL A   1      41.795  19.424  26.404  1.00  0.00     0.124 S 
ATOM     79  O   UNL A   1      42.102  18.838  27.707  1.00  0.00    -0.237 OA
ATOM     80  O   UNL A   1      40.376  19.633  26.128  1.00  0.00    -0.237 OA
ATOM     81  O   UNL A   1      42.573  18.897  25.285  1.00  0.00    -0.744 OA
ENDBRANCH  77  78
ENDBRANCH  58  72
BRANCH  59  82
ATOM     82  C   UNL A   1      46.479  33.095  28.524  1.00  0.00    -0.014 A 
ATOM     83  C   UNL A   1      47.058  33.439  29.758  1.00  0.00     0.010 A 
ATOM     84  C   UNL A   1      46.365  34.077  27.523  1.00  0.00     0.010 A 
ATOM     85  C   UNL A   1      47.501  34.744  29.992  1.00  0.00     0.020 A 
ATOM     86  C   UNL A   1      46.830  35.376  27.745  1.00  0.00     0.020 A 
ATOM     87  C   UNL A   1      47.385  35.704  28.983  1.00  0.00     0.054 A 
BRANCH  87  88
ATOM     88  S   UNL A   1      48.020  37.377  29.286  1.00  0.00     0.124 S 
ATOM     89  O   UNL A   1      49.140  37.449  28.353  1.00  0.00    -0.237 OA
ATOM     90  O   UNL A   1      46.868  38.215  28.961  1.00  0.00    -0.237 OA
ATOM     91  O   UNL A   1      48.381  37.352  30.702  1.00  0.00    -0.744 OA
ENDBRANCH  87  88
ENDBRANCH  59  82
BRANCH  71  92
ATOM     92  C   UNL A   1      49.541  27.378  25.970  1.00  0.00    -0.014 A 
ATOM     93  C   UNL A   1      50.567  26.923  26.817  1.00  0.00     0.010 A 
ATOM     94  C   UNL A   1      49.810  27.557  24.601  1.00  0.00     0.010 A 
ATOM     95  C   UNL A   1      51.848  26.686  26.311  1.00  0.00     0.020 A 
ATOM     96  C   UNL A   1      51.082  27.296  24.086  1.00  0.00     0.020 A 
ATOM     97  C   UNL A   1      52.098  26.877  24.949  1.00  0.00     0.054 A 
BRANCH  97  98
ATOM     98  S   UNL A   1      53.760  26.534  24.309  1.00  0.00     0.124 S 
ATOM     99  O   UNL A   1      54.299  27.879  24.129  1.00  0.00    -0.237 OA
ATOM    100  O   UNL A   1      54.364  25.753  25.386  1.00  0.00    -0.237 OA
ATOM    101  O   UNL A   1      53.508  25.792  23.075  1.00  0.00    -0.744 OA
ENDBRANCH  97  98
ENDBRANCH  71  92
ENDBRANCH  45  46
ENDBRANCH  37  40
ENDBRANCH  35  36
ENDBRANCH  34  35
ENDBRANCH  33  34
ENDBRANCH   1  33
TORSDOF 21
ENDMDL
