MODEL 1
REMARK VINA RESULT:     -11.4      0.000      0.000
REMARK SMILES C[C@H]1[C@@H](C(=O)NCCCCCCNC(=O)c2ccc(-c3c4nc(c(-c5ccc(S(=O)(=O)[O-])cc5)c5ccc([nH]5)c(-c5ccc(S(=O)(=O)[O-])cc5)c5nc(c(-c6ccc(S(=O)(=O)[O-])cc6)c6ccc3[nH]6)C=C5)C=C4)cc2)CCN1C(=O)/C=C/c1cccc(F)c1
REMARK SMILES IDX 9 1 8 2 7 3 6 4 4 5 5 6 3 8 1 9 2 10 78 11 76 12 77 13 79 14
REMARK SMILES IDX 80 15 81 16 82 17 83 18 84 19 89 20 85 21 87 22 86 23 88 24
REMARK SMILES IDX 10 25 11 26 12 27 13 28 14 29 15 31 16 32 17 33 75 34 18 35
REMARK SMILES IDX 74 36 19 37 20 38 21 39 68 40 22 41 73 42 67 43 69 44 23 45
REMARK SMILES IDX 72 46 66 47 65 48 24 50 54 51 35 52 53 53 36 54 39 55 52 56
REMARK SMILES IDX 70 57 37 58 38 59 51 61 71 62 40 63 25 64 26 65 34 66 27 67
REMARK SMILES IDX 33 68 28 69 29 70 30 71 31 72 32 73 55 74 56 75 64 76 57 77
REMARK SMILES IDX 63 78 58 79 59 80 60 81 61 82 62 83 41 84 42 85 50 86 43 87
REMARK SMILES IDX 49 88 44 89 45 90 46 91 47 92 48 93
REMARK H PARENT 6 7 13 30 69 49 39 60
REMARK Flexibility Score: inf
ROOT
ATOM      1  C   UNL A   1      39.466  21.515  26.148  1.00  0.00     0.002 C 
ENDROOT
BRANCH   1   2
ATOM      2  C   UNL A   1      38.826  22.889  26.320  1.00  0.00     0.021 C 
BRANCH   2   3
ATOM      3  C   UNL A   1      37.458  23.081  25.650  1.00  0.00     0.116 C 
BRANCH   3   4
ATOM      4  N   UNL A   1      36.898  21.787  25.300  1.00  0.00    -0.356 N 
ATOM      5  C   UNL A   1      35.613  21.376  25.108  1.00  0.00     0.225 C 
ATOM      6  O   UNL A   1      35.441  20.156  25.021  1.00  0.00    -0.275 OA
ATOM      7  H   UNL A   1      37.570  21.078  25.178  1.00  0.00     0.163 HD
BRANCH   5   8
ATOM      8  C   UNL A   1      34.467  22.366  24.878  1.00  0.00     0.102 C 
ATOM      9  C   UNL A   1      34.267  22.750  27.469  1.00  0.00     0.032 C 
ATOM     10  C   UNL A   1      33.856  23.157  26.061  1.00  0.00     0.094 C 
ATOM     11  N   UNL A   1      32.404  22.995  25.935  1.00  0.00    -0.336 N 
ATOM     12  C   UNL A   1      33.243  21.695  24.198  1.00  0.00     0.037 C 
ATOM     13  C   UNL A   1      32.116  21.783  25.209  1.00  0.00     0.121 C 
BRANCH  11  14
ATOM     14  C   UNL A   1      31.405  23.699  26.582  1.00  0.00     0.246 C 
ATOM     15  O   UNL A   1      30.692  23.213  27.455  1.00  0.00    -0.270 OA
BRANCH  14  16
ATOM     16  C   UNL A   1      31.308  25.160  26.301  1.00  0.00     0.072 C 
ATOM     17  C   UNL A   1      32.384  25.958  26.227  1.00  0.00     0.014 C 
BRANCH  17  18
ATOM     18  C   UNL A   1      32.369  27.433  26.174  1.00  0.00    -0.023 A 
ATOM     19  C   UNL A   1      33.227  28.137  27.039  1.00  0.00     0.008 A 
ATOM     20  C   UNL A   1      31.487  28.173  25.377  1.00  0.00     0.047 A 
ATOM     21  C   UNL A   1      33.211  29.536  27.098  1.00  0.00     0.004 A 
ATOM     22  C   UNL A   1      31.476  29.566  25.444  1.00  0.00     0.123 A 
ATOM     23  C   UNL A   1      32.330  30.254  26.295  1.00  0.00     0.039 A 
ATOM     24  F   UNL A   1      30.612  30.250  24.684  1.00  0.00    -0.207 F 
ENDBRANCH  17  18
ENDBRANCH  14  16
ENDBRANCH  11  14
ENDBRANCH   5   8
ENDBRANCH   3   4
ENDBRANCH   2   3
ENDBRANCH   1   2
BRANCH   1  25
ATOM     25  C   UNL A   1      40.774  21.320  26.917  1.00  0.00     0.002 C 
BRANCH  25  26
ATOM     26  C   UNL A   1      41.060  22.341  28.026  1.00  0.00     0.021 C 
BRANCH  26  27
ATOM     27  C   UNL A   1      42.267  23.252  27.797  1.00  0.00     0.116 C 
BRANCH  27  28
ATOM     28  N   UNL A   1      42.186  23.956  26.528  1.00  0.00    -0.352 N 
ATOM     29  C   UNL A   1      41.743  25.223  26.258  1.00  0.00     0.251 C 
ATOM     30  H   UNL A   1      42.497  23.444  25.746  1.00  0.00     0.163 HD
ATOM     31  O   UNL A   1      41.527  25.557  25.090  1.00  0.00    -0.269 OA
BRANCH  29  32
ATOM     32  C   UNL A   1      41.511  26.186  27.354  1.00  0.00     0.039 A 
ATOM     33  C   UNL A   1      40.410  26.003  28.195  1.00  0.00     0.014 A 
ATOM     34  C   UNL A   1      42.351  27.291  27.531  1.00  0.00     0.014 A 
ATOM     35  C   UNL A   1      40.184  26.895  29.245  1.00  0.00     0.010 A 
ATOM     36  C   UNL A   1      42.159  28.144  28.616  1.00  0.00     0.010 A 
ATOM     37  C   UNL A   1      41.071  27.958  29.481  1.00  0.00    -0.014 A 
BRANCH  37  38
ATOM     38  C   UNL A   1      40.874  28.883  30.628  1.00  0.00     0.031 A 
ATOM     39  C   UNL A   1      41.718  28.747  31.867  1.00  0.00     0.074 A 
ATOM     40  C   UNL A   1      39.899  29.811  30.573  1.00  0.00     0.049 A 
ATOM     41  N   UNL A   1      41.662  29.432  32.981  1.00  0.00    -0.248 NA
ATOM     42  C   UNL A   1      42.745  27.692  31.860  1.00  0.00     0.031 C 
ATOM     43  C   UNL A   1      38.992  30.022  29.443  1.00  0.00     0.029 A 
ATOM     44  N   UNL A   1      39.504  30.749  31.494  1.00  0.00    -0.354 N 
ATOM     45  C   UNL A   1      42.632  28.882  33.812  1.00  0.00     0.074 A 
ATOM     46  C   UNL A   1      43.229  27.778  33.091  1.00  0.00     0.031 C 
ATOM     47  C   UNL A   1      38.164  31.041  29.728  1.00  0.00     0.029 A 
ATOM     48  C   UNL A   1      38.454  31.530  31.072  1.00  0.00     0.049 A 
ATOM     49  H   UNL A   1      39.932  30.854  32.375  1.00  0.00     0.167 HD
ATOM     50  C   UNL A   1      43.005  29.270  35.056  1.00  0.00     0.031 A 
ATOM     51  C   UNL A   1      37.793  32.524  31.697  1.00  0.00     0.031 A 
ATOM     52  C   UNL A   1      42.412  30.370  35.769  1.00  0.00     0.049 A 
ATOM     53  C   UNL A   1      38.214  32.927  33.083  1.00  0.00     0.074 A 
ATOM     54  C   UNL A   1      42.754  30.876  37.011  1.00  0.00     0.029 A 
ATOM     55  N   UNL A   1      41.351  31.135  35.305  1.00  0.00    -0.354 N 
ATOM     56  N   UNL A   1      39.175  32.436  33.828  1.00  0.00    -0.248 NA
ATOM     57  C   UNL A   1      37.466  34.027  33.709  1.00  0.00     0.031 C 
ATOM     58  C   UNL A   1      41.867  31.912  37.321  1.00  0.00     0.029 A 
ATOM     59  C   UNL A   1      41.009  32.091  36.247  1.00  0.00     0.049 A 
ATOM     60  H   UNL A   1      40.907  31.016  34.435  1.00  0.00     0.167 HD
ATOM     61  C   UNL A   1      39.163  33.181  35.001  1.00  0.00     0.074 A 
ATOM     62  C   UNL A   1      38.110  34.166  34.861  1.00  0.00     0.031 C 
ATOM     63  C   UNL A   1      39.954  33.060  36.096  1.00  0.00     0.031 A 
BRANCH  50  64
ATOM     64  C   UNL A   1      44.103  28.487  35.728  1.00  0.00    -0.014 A 
ATOM     65  C   UNL A   1      43.813  27.361  36.519  1.00  0.00     0.010 A 
ATOM     66  C   UNL A   1      45.446  28.862  35.539  1.00  0.00     0.010 A 
ATOM     67  C   UNL A   1      44.839  26.653  37.149  1.00  0.00     0.020 A 
ATOM     68  C   UNL A   1      46.478  28.138  36.144  1.00  0.00     0.020 A 
ATOM     69  C   UNL A   1      46.167  27.050  36.962  1.00  0.00     0.054 A 
BRANCH  69  70
ATOM     70  S   UNL A   1      47.482  26.106  37.781  1.00  0.00     0.124 S 
ATOM     71  O   UNL A   1      46.725  25.318  38.751  1.00  0.00    -0.237 OA
ATOM     72  O   UNL A   1      48.067  25.348  36.677  1.00  0.00    -0.237 OA
ATOM     73  O   UNL A   1      48.345  27.135  38.352  1.00  0.00    -0.744 OA
ENDBRANCH  69  70
ENDBRANCH  50  64
BRANCH  51  74
ATOM     74  C   UNL A   1      36.670  33.215  31.006  1.00  0.00    -0.014 A 
ATOM     75  C   UNL A   1      35.374  33.188  31.550  1.00  0.00     0.010 A 
ATOM     76  C   UNL A   1      36.897  33.922  29.812  1.00  0.00     0.010 A 
ATOM     77  C   UNL A   1      34.322  33.845  30.904  1.00  0.00     0.020 A 
ATOM     78  C   UNL A   1      35.854  34.602  29.178  1.00  0.00     0.020 A 
ATOM     79  C   UNL A   1      34.570  34.552  29.724  1.00  0.00     0.054 A 
BRANCH  79  80
ATOM     80  S   UNL A   1      33.204  35.449  28.936  1.00  0.00     0.124 S 
ATOM     81  O   UNL A   1      32.451  35.930  30.089  1.00  0.00    -0.237 OA
ATOM     82  O   UNL A   1      33.903  36.472  28.161  1.00  0.00    -0.237 OA
ATOM     83  O   UNL A   1      32.539  34.422  28.136  1.00  0.00    -0.744 OA
ENDBRANCH  79  80
ENDBRANCH  51  74
BRANCH  63  84
ATOM     84  C   UNL A   1      39.729  34.034  37.222  1.00  0.00    -0.014 A 
ATOM     85  C   UNL A   1      38.931  33.695  38.329  1.00  0.00     0.010 A 
ATOM     86  C   UNL A   1      40.369  35.287  37.196  1.00  0.00     0.010 A 
ATOM     87  C   UNL A   1      38.753  34.604  39.376  1.00  0.00     0.020 A 
ATOM     88  C   UNL A   1      40.216  36.187  38.253  1.00  0.00     0.020 A 
ATOM     89  C   UNL A   1      39.397  35.844  39.331  1.00  0.00     0.054 A 
BRANCH  89  90
ATOM     90  S   UNL A   1      39.186  36.987  40.722  1.00  0.00     0.124 S 
ATOM     91  O   UNL A   1      38.543  36.137  41.720  1.00  0.00    -0.237 OA
ATOM     92  O   UNL A   1      40.560  37.383  41.025  1.00  0.00    -0.237 OA
ATOM     93  O   UNL A   1      38.345  38.049  40.174  1.00  0.00    -0.744 OA
ENDBRANCH  89  90
ENDBRANCH  63  84
ENDBRANCH  37  38
ENDBRANCH  29  32
ENDBRANCH  27  28
ENDBRANCH  26  27
ENDBRANCH  25  26
ENDBRANCH   1  25
TORSDOF 19
ENDMDL
MODEL 2
REMARK VINA RESULT:     -11.3      3.192      9.643
REMARK SMILES C[C@H]1[C@@H](C(=O)NCCCCCCNC(=O)c2ccc(-c3c4nc(c(-c5ccc(S(=O)(=O)[O-])cc5)c5ccc([nH]5)c(-c5ccc(S(=O)(=O)[O-])cc5)c5nc(c(-c6ccc(S(=O)(=O)[O-])cc6)c6ccc3[nH]6)C=C5)C=C4)cc2)CCN1C(=O)/C=C/c1cccc(F)c1
REMARK SMILES IDX 9 1 8 2 7 3 6 4 4 5 5 6 3 8 1 9 2 10 78 11 76 12 77 13 79 14
REMARK SMILES IDX 80 15 81 16 82 17 83 18 84 19 89 20 85 21 87 22 86 23 88 24
REMARK SMILES IDX 10 25 11 26 12 27 13 28 14 29 15 31 16 32 17 33 75 34 18 35
REMARK SMILES IDX 74 36 19 37 20 38 21 39 68 40 22 41 73 42 67 43 69 44 23 45
REMARK SMILES IDX 72 46 66 47 65 48 24 50 54 51 35 52 53 53 36 54 39 55 52 56
REMARK SMILES IDX 70 57 37 58 38 59 51 61 71 62 40 63 25 64 26 65 34 66 27 67
REMARK SMILES IDX 33 68 28 69 29 70 30 71 31 72 32 73 55 74 56 75 64 76 57 77
REMARK SMILES IDX 63 78 58 79 59 80 60 81 61 82 62 83 41 84 42 85 50 86 43 87
REMARK SMILES IDX 49 88 44 89 45 90 46 91 47 92 48 93
REMARK H PARENT 6 7 13 30 69 49 39 60
REMARK Flexibility Score: inf
ROOT
ATOM      1  C   UNL A   1      31.055  28.202  25.973  1.00  0.00     0.002 C 
ENDROOT
BRANCH   1   2
ATOM      2  C   UNL A   1      31.173  26.998  25.044  1.00  0.00     0.021 C 
BRANCH   2   3
ATOM      3  C   UNL A   1      29.985  26.025  25.053  1.00  0.00     0.116 C 
BRANCH   3   4
ATOM      4  N   UNL A   1      30.065  25.164  26.221  1.00  0.00    -0.356 N 
ATOM      5  C   UNL A   1      30.404  23.852  26.359  1.00  0.00     0.225 C 
ATOM      6  O   UNL A   1      30.175  23.347  27.463  1.00  0.00    -0.275 OA
ATOM      7  H   UNL A   1      29.832  25.612  27.066  1.00  0.00     0.163 HD
BRANCH   5   8
ATOM      8  C   UNL A   1      31.148  23.082  25.263  1.00  0.00     0.102 C 
ATOM      9  C   UNL A   1      33.398  24.243  25.964  1.00  0.00     0.032 C 
ATOM     10  C   UNL A   1      32.687  23.186  25.131  1.00  0.00     0.094 C 
ATOM     11  N   UNL A   1      32.943  23.460  23.714  1.00  0.00    -0.336 N 
ATOM     12  C   UNL A   1      30.621  23.431  23.845  1.00  0.00     0.037 C 
ATOM     13  C   UNL A   1      31.785  24.088  23.128  1.00  0.00     0.121 C 
BRANCH  11  14
ATOM     14  C   UNL A   1      34.144  23.392  23.031  1.00  0.00     0.246 C 
ATOM     15  O   UNL A   1      34.224  23.293  21.810  1.00  0.00    -0.270 OA
BRANCH  14  16
ATOM     16  C   UNL A   1      35.390  23.608  23.821  1.00  0.00     0.072 C 
ATOM     17  C   UNL A   1      36.191  22.603  24.205  1.00  0.00     0.014 C 
BRANCH  17  18
ATOM     18  C   UNL A   1      37.309  22.700  25.163  1.00  0.00    -0.023 A 
ATOM     19  C   UNL A   1      37.532  23.935  25.799  1.00  0.00     0.008 A 
ATOM     20  C   UNL A   1      38.214  21.660  25.409  1.00  0.00     0.047 A 
ATOM     21  C   UNL A   1      38.621  24.121  26.661  1.00  0.00     0.004 A 
ATOM     22  C   UNL A   1      39.296  21.856  26.267  1.00  0.00     0.123 A 
ATOM     23  C   UNL A   1      39.507  23.075  26.896  1.00  0.00     0.039 A 
ATOM     24  F   UNL A   1      40.157  20.851  26.472  1.00  0.00    -0.207 F 
ENDBRANCH  17  18
ENDBRANCH  14  16
ENDBRANCH  11  14
ENDBRANCH   5   8
ENDBRANCH   3   4
ENDBRANCH   2   3
ENDBRANCH   1   2
BRANCH   1  25
ATOM     25  C   UNL A   1      32.002  28.177  27.174  1.00  0.00     0.002 C 
BRANCH  25  26
ATOM     26  C   UNL A   1      33.468  27.845  26.866  1.00  0.00     0.021 C 
BRANCH  26  27
ATOM     27  C   UNL A   1      34.246  28.916  26.100  1.00  0.00     0.116 C 
BRANCH  27  28
ATOM     28  N   UNL A   1      33.943  30.256  26.574  1.00  0.00    -0.352 N 
ATOM     29  C   UNL A   1      34.500  30.965  27.605  1.00  0.00     0.251 C 
ATOM     30  H   UNL A   1      33.230  30.722  26.080  1.00  0.00     0.163 HD
ATOM     31  O   UNL A   1      33.946  31.992  28.007  1.00  0.00    -0.269 OA
BRANCH  29  32
ATOM     32  C   UNL A   1      35.748  30.503  28.246  1.00  0.00     0.039 A 
ATOM     33  C   UNL A   1      36.974  30.896  27.700  1.00  0.00     0.014 A 
ATOM     34  C   UNL A   1      35.716  29.655  29.357  1.00  0.00     0.014 A 
ATOM     35  C   UNL A   1      38.165  30.481  28.301  1.00  0.00     0.010 A 
ATOM     36  C   UNL A   1      36.903  29.294  29.992  1.00  0.00     0.010 A 
ATOM     37  C   UNL A   1      38.140  29.699  29.467  1.00  0.00    -0.014 A 
BRANCH  37  38
ATOM     38  C   UNL A   1      39.397  29.297  30.149  1.00  0.00     0.031 A 
ATOM     39  C   UNL A   1      39.863  30.030  31.379  1.00  0.00     0.074 A 
ATOM     40  C   UNL A   1      40.147  28.305  29.631  1.00  0.00     0.049 A 
ATOM     41  N   UNL A   1      40.952  29.851  32.082  1.00  0.00    -0.248 NA
ATOM     42  C   UNL A   1      39.003  31.119  31.870  1.00  0.00     0.031 C 
ATOM     43  C   UNL A   1      39.823  27.539  28.425  1.00  0.00     0.029 A 
ATOM     44  N   UNL A   1      41.342  27.773  30.049  1.00  0.00    -0.354 N 
ATOM     45  C   UNL A   1      40.916  30.812  33.087  1.00  0.00     0.074 A 
ATOM     46  C   UNL A   1      39.721  31.600  32.874  1.00  0.00     0.031 C 
ATOM     47  C   UNL A   1      40.781  26.621  28.216  1.00  0.00     0.029 A 
ATOM     48  C   UNL A   1      41.805  26.757  29.247  1.00  0.00     0.049 A 
ATOM     49  H   UNL A   1      41.822  28.090  30.848  1.00  0.00     0.167 HD
ATOM     50  C   UNL A   1      41.788  31.011  34.104  1.00  0.00     0.031 A 
ATOM     51  C   UNL A   1      42.931  26.021  29.326  1.00  0.00     0.031 A 
ATOM     52  C   UNL A   1      42.974  30.222  34.316  1.00  0.00     0.049 A 
ATOM     53  C   UNL A   1      43.892  26.269  30.455  1.00  0.00     0.074 A 
ATOM     54  C   UNL A   1      43.893  30.310  35.347  1.00  0.00     0.029 A 
ATOM     55  N   UNL A   1      43.407  29.202  33.480  1.00  0.00    -0.354 N 
ATOM     56  N   UNL A   1      43.809  27.141  31.431  1.00  0.00    -0.248 NA
ATOM     57  C   UNL A   1      45.096  25.426  30.499  1.00  0.00     0.031 C 
ATOM     58  C   UNL A   1      44.909  29.379  35.107  1.00  0.00     0.029 A 
ATOM     59  C   UNL A   1      44.593  28.670  33.958  1.00  0.00     0.049 A 
ATOM     60  H   UNL A   1      42.939  28.902  32.668  1.00  0.00     0.167 HD
ATOM     61  C   UNL A   1      44.936  26.938  32.219  1.00  0.00     0.074 A 
ATOM     62  C   UNL A   1      45.678  25.849  31.614  1.00  0.00     0.031 C 
ATOM     63  C   UNL A   1      45.322  27.592  33.341  1.00  0.00     0.031 A 
BRANCH  50  64
ATOM     64  C   UNL A   1      41.494  32.135  35.062  1.00  0.00    -0.014 A 
ATOM     65  C   UNL A   1      40.675  31.935  36.189  1.00  0.00     0.010 A 
ATOM     66  C   UNL A   1      42.070  33.402  34.854  1.00  0.00     0.010 A 
ATOM     67  C   UNL A   1      40.398  32.990  37.061  1.00  0.00     0.020 A 
ATOM     68  C   UNL A   1      41.819  34.453  35.740  1.00  0.00     0.020 A 
ATOM     69  C   UNL A   1      40.967  34.246  36.828  1.00  0.00     0.054 A 
BRANCH  69  70
ATOM     70  S   UNL A   1      40.601  35.595  37.983  1.00  0.00     0.124 S 
ATOM     71  O   UNL A   1      40.009  36.595  37.098  1.00  0.00    -0.237 OA
ATOM     72  O   UNL A   1      39.679  34.968  38.927  1.00  0.00    -0.237 OA
ATOM     73  O   UNL A   1      41.907  35.946  38.534  1.00  0.00    -0.744 OA
ENDBRANCH  69  70
ENDBRANCH  50  64
BRANCH  51  74
ATOM     74  C   UNL A   1      43.200  24.968  28.309  1.00  0.00    -0.014 A 
ATOM     75  C   UNL A   1      43.877  25.284  27.119  1.00  0.00     0.010 A 
ATOM     76  C   UNL A   1      42.799  23.639  28.537  1.00  0.00     0.010 A 
ATOM     77  C   UNL A   1      44.137  24.292  26.167  1.00  0.00     0.020 A 
ATOM     78  C   UNL A   1      43.081  22.641  27.601  1.00  0.00     0.020 A 
ATOM     79  C   UNL A   1      43.740  22.975  26.417  1.00  0.00     0.054 A 
BRANCH  79  80
ATOM     80  S   UNL A   1      44.143  21.692  25.199  1.00  0.00     0.124 S 
ATOM     81  O   UNL A   1      45.521  21.362  25.548  1.00  0.00    -0.237 OA
ATOM     82  O   UNL A   1      43.150  20.659  25.488  1.00  0.00    -0.237 OA
ATOM     83  O   UNL A   1      43.965  22.372  23.918  1.00  0.00    -0.744 OA
ENDBRANCH  79  80
ENDBRANCH  51  74
BRANCH  63  84
ATOM     84  C   UNL A   1      46.593  27.133  34.007  1.00  0.00    -0.014 A 
ATOM     85  C   UNL A   1      46.574  26.144  35.006  1.00  0.00     0.010 A 
ATOM     86  C   UNL A   1      47.827  27.664  33.590  1.00  0.00     0.010 A 
ATOM     87  C   UNL A   1      47.766  25.715  35.597  1.00  0.00     0.020 A 
ATOM     88  C   UNL A   1      49.022  27.217  34.157  1.00  0.00     0.020 A 
ATOM     89  C   UNL A   1      48.983  26.254  35.168  1.00  0.00     0.054 A 
BRANCH  89  90
ATOM     90  S   UNL A   1      50.519  25.649  35.918  1.00  0.00     0.124 S 
ATOM     91  O   UNL A   1      51.261  25.179  34.752  1.00  0.00    -0.237 OA
ATOM     92  O   UNL A   1      51.054  26.845  36.565  1.00  0.00    -0.237 OA
ATOM     93  O   UNL A   1      50.069  24.602  36.833  1.00  0.00    -0.744 OA
ENDBRANCH  89  90
ENDBRANCH  63  84
ENDBRANCH  37  38
ENDBRANCH  29  32
ENDBRANCH  27  28
ENDBRANCH  26  27
ENDBRANCH  25  26
ENDBRANCH   1  25
TORSDOF 19
ENDMDL
MODEL 3
REMARK VINA RESULT:     -11.2      4.356     10.004
REMARK SMILES C[C@H]1[C@@H](C(=O)NCCCCCCNC(=O)c2ccc(-c3c4nc(c(-c5ccc(S(=O)(=O)[O-])cc5)c5ccc([nH]5)c(-c5ccc(S(=O)(=O)[O-])cc5)c5nc(c(-c6ccc(S(=O)(=O)[O-])cc6)c6ccc3[nH]6)C=C5)C=C4)cc2)CCN1C(=O)/C=C/c1cccc(F)c1
REMARK SMILES IDX 9 1 8 2 7 3 6 4 4 5 5 6 3 8 1 9 2 10 78 11 76 12 77 13 79 14
REMARK SMILES IDX 80 15 81 16 82 17 83 18 84 19 89 20 85 21 87 22 86 23 88 24
REMARK SMILES IDX 10 25 11 26 12 27 13 28 14 29 15 31 16 32 17 33 75 34 18 35
REMARK SMILES IDX 74 36 19 37 20 38 21 39 68 40 22 41 73 42 67 43 69 44 23 45
REMARK SMILES IDX 72 46 66 47 65 48 24 50 54 51 35 52 53 53 36 54 39 55 52 56
REMARK SMILES IDX 70 57 37 58 38 59 51 61 71 62 40 63 25 64 26 65 34 66 27 67
REMARK SMILES IDX 33 68 28 69 29 70 30 71 31 72 32 73 55 74 56 75 64 76 57 77
REMARK SMILES IDX 63 78 58 79 59 80 60 81 61 82 62 83 41 84 42 85 50 86 43 87
REMARK SMILES IDX 49 88 44 89 45 90 46 91 47 92 48 93
REMARK H PARENT 6 7 13 30 69 49 39 60
REMARK Flexibility Score: inf
ROOT
ATOM      1  C   UNL A   1      31.189  25.431  26.322  1.00  0.00     0.002 C 
ENDROOT
BRANCH   1   2
ATOM      2  C   UNL A   1      31.949  24.189  26.777  1.00  0.00     0.021 C 
BRANCH   2   3
ATOM      3  C   UNL A   1      31.615  22.889  26.033  1.00  0.00     0.116 C 
BRANCH   3   4
ATOM      4  N   UNL A   1      32.829  22.115  25.828  1.00  0.00    -0.356 N 
ATOM      5  C   UNL A   1      33.506  21.774  24.696  1.00  0.00     0.225 C 
ATOM      6  O   UNL A   1      34.396  20.929  24.832  1.00  0.00    -0.275 OA
ATOM      7  H   UNL A   1      33.236  21.778  26.658  1.00  0.00     0.163 HD
BRANCH   5   8
ATOM      8  C   UNL A   1      33.274  22.488  23.361  1.00  0.00     0.102 C 
ATOM      9  C   UNL A   1      34.449  24.642  24.299  1.00  0.00     0.032 C 
ATOM     10  C   UNL A   1      33.852  23.902  23.110  1.00  0.00     0.094 C 
ATOM     11  N   UNL A   1      32.739  24.695  22.579  1.00  0.00    -0.336 N 
ATOM     12  C   UNL A   1      31.763  22.632  23.030  1.00  0.00     0.037 C 
ATOM     13  C   UNL A   1      31.490  24.123  23.017  1.00  0.00     0.121 C 
BRANCH  11  14
ATOM     14  C   UNL A   1      32.786  25.933  21.966  1.00  0.00     0.246 C 
ATOM     15  O   UNL A   1      33.786  26.374  21.407  1.00  0.00    -0.270 OA
BRANCH  14  16
ATOM     16  C   UNL A   1      31.505  26.687  21.852  1.00  0.00     0.072 C 
ATOM     17  C   UNL A   1      31.298  27.864  22.461  1.00  0.00     0.014 C 
BRANCH  17  18
ATOM     18  C   UNL A   1      30.003  28.563  22.583  1.00  0.00    -0.023 A 
ATOM     19  C   UNL A   1      28.935  27.880  23.193  1.00  0.00     0.008 A 
ATOM     20  C   UNL A   1      29.754  29.833  22.049  1.00  0.00     0.047 A 
ATOM     21  C   UNL A   1      27.659  28.452  23.273  1.00  0.00     0.004 A 
ATOM     22  C   UNL A   1      28.479  30.393  22.133  1.00  0.00     0.123 A 
ATOM     23  C   UNL A   1      27.431  29.716  22.740  1.00  0.00     0.039 A 
ATOM     24  F   UNL A   1      28.260  31.602  21.599  1.00  0.00    -0.207 F 
ENDBRANCH  17  18
ENDBRANCH  14  16
ENDBRANCH  11  14
ENDBRANCH   5   8
ENDBRANCH   3   4
ENDBRANCH   2   3
ENDBRANCH   1   2
BRANCH   1  25
ATOM     25  C   UNL A   1      32.074  26.578  25.833  1.00  0.00     0.002 C 
BRANCH  25  26
ATOM     26  C   UNL A   1      32.805  27.374  26.922  1.00  0.00     0.021 C 
BRANCH  26  27
ATOM     27  C   UNL A   1      33.894  28.329  26.430  1.00  0.00     0.116 C 
BRANCH  27  28
ATOM     28  N   UNL A   1      33.675  29.691  26.889  1.00  0.00    -0.352 N 
ATOM     29  C   UNL A   1      34.434  30.463  27.727  1.00  0.00     0.251 C 
ATOM     30  H   UNL A   1      32.859  30.121  26.545  1.00  0.00     0.163 HD
ATOM     31  O   UNL A   1      33.962  31.506  28.188  1.00  0.00    -0.269 OA
BRANCH  29  32
ATOM     32  C   UNL A   1      35.805  30.052  28.091  1.00  0.00     0.039 A 
ATOM     33  C   UNL A   1      36.820  30.156  27.136  1.00  0.00     0.014 A 
ATOM     34  C   UNL A   1      36.087  29.529  29.357  1.00  0.00     0.014 A 
ATOM     35  C   UNL A   1      38.125  29.786  27.467  1.00  0.00     0.010 A 
ATOM     36  C   UNL A   1      37.400  29.219  29.706  1.00  0.00     0.010 A 
ATOM     37  C   UNL A   1      38.432  29.339  28.763  1.00  0.00    -0.014 A 
BRANCH  37  38
ATOM     38  C   UNL A   1      39.825  28.995  29.147  1.00  0.00     0.031 A 
ATOM     39  C   UNL A   1      40.695  30.009  29.841  1.00  0.00     0.074 A 
ATOM     40  C   UNL A   1      40.325  27.786  28.824  1.00  0.00     0.049 A 
ATOM     41  N   UNL A   1      41.945  29.906  30.212  1.00  0.00    -0.248 NA
ATOM     42  C   UNL A   1      40.087  31.316  30.137  1.00  0.00     0.031 C 
ATOM     43  C   UNL A   1      39.595  26.728  28.122  1.00  0.00     0.029 A 
ATOM     44  N   UNL A   1      41.568  27.245  29.038  1.00  0.00    -0.354 N 
ATOM     45  C   UNL A   1      42.278  31.135  30.771  1.00  0.00     0.074 A 
ATOM     46  C   UNL A   1      41.112  31.983  30.647  1.00  0.00     0.031 C 
ATOM     47  C   UNL A   1      40.395  25.657  27.986  1.00  0.00     0.029 A 
ATOM     48  C   UNL A   1      41.704  25.964  28.555  1.00  0.00     0.049 A 
ATOM     49  H   UNL A   1      42.295  27.727  29.494  1.00  0.00     0.167 HD
ATOM     50  C   UNL A   1      43.441  31.519  31.349  1.00  0.00     0.031 A 
ATOM     51  C   UNL A   1      42.763  25.132  28.561  1.00  0.00     0.031 A 
ATOM     52  C   UNL A   1      44.598  30.672  31.475  1.00  0.00     0.049 A 
ATOM     53  C   UNL A   1      44.049  25.585  29.195  1.00  0.00     0.074 A 
ATOM     54  C   UNL A   1      45.806  30.950  32.091  1.00  0.00     0.029 A 
ATOM     55  N   UNL A   1      44.694  29.382  30.972  1.00  0.00    -0.354 N 
ATOM     56  N   UNL A   1      44.323  26.730  29.773  1.00  0.00    -0.248 NA
ATOM     57  C   UNL A   1      45.166  24.630  29.185  1.00  0.00     0.031 C 
ATOM     58  C   UNL A   1      46.650  29.848  31.916  1.00  0.00     0.029 A 
ATOM     59  C   UNL A   1      45.948  28.861  31.242  1.00  0.00     0.049 A 
ATOM     60  H   UNL A   1      43.976  28.908  30.495  1.00  0.00     0.167 HD
ATOM     61  C   UNL A   1      45.636  26.625  30.218  1.00  0.00     0.074 A 
ATOM     62  C   UNL A   1      46.095  25.299  29.855  1.00  0.00     0.031 C 
ATOM     63  C   UNL A   1      46.393  27.542  30.868  1.00  0.00     0.031 A 
BRANCH  50  64
ATOM     64  C   UNL A   1      43.521  32.926  31.883  1.00  0.00    -0.014 A 
ATOM     65  C   UNL A   1      43.978  33.984  31.077  1.00  0.00     0.010 A 
ATOM     66  C   UNL A   1      43.101  33.201  33.198  1.00  0.00     0.010 A 
ATOM     67  C   UNL A   1      44.060  35.281  31.589  1.00  0.00     0.020 A 
ATOM     68  C   UNL A   1      43.154  34.503  33.705  1.00  0.00     0.020 A 
ATOM     69  C   UNL A   1      43.653  35.532  32.903  1.00  0.00     0.054 A 
BRANCH  69  70
ATOM     70  S   UNL A   1      43.759  37.227  33.539  1.00  0.00     0.124 S 
ATOM     71  O   UNL A   1      42.560  37.310  34.371  1.00  0.00    -0.237 OA
ATOM     72  O   UNL A   1      45.027  37.219  34.264  1.00  0.00    -0.237 OA
ATOM     73  O   UNL A   1      43.739  38.053  32.335  1.00  0.00    -0.744 OA
ENDBRANCH  69  70
ENDBRANCH  50  64
BRANCH  51  74
ATOM     74  C   UNL A   1      42.644  23.777  27.956  1.00  0.00    -0.014 A 
ATOM     75  C   UNL A   1      42.066  22.721  28.682  1.00  0.00     0.010 A 
ATOM     76  C   UNL A   1      43.089  23.543  26.643  1.00  0.00     0.010 A 
ATOM     77  C   UNL A   1      41.947  21.451  28.109  1.00  0.00     0.020 A 
ATOM     78  C   UNL A   1      42.947  22.282  26.058  1.00  0.00     0.020 A 
ATOM     79  C   UNL A   1      42.385  21.240  26.798  1.00  0.00     0.054 A 
BRANCH  79  80
ATOM     80  S   UNL A   1      42.164  19.602  26.052  1.00  0.00     0.124 S 
ATOM     81  O   UNL A   1      40.718  19.547  25.860  1.00  0.00    -0.237 OA
ATOM     82  O   UNL A   1      42.964  19.699  24.833  1.00  0.00    -0.237 OA
ATOM     83  O   UNL A   1      42.697  18.692  27.065  1.00  0.00    -0.744 OA
ENDBRANCH  79  80
ENDBRANCH  51  74
BRANCH  63  84
ATOM     84  C   UNL A   1      47.791  27.138  31.254  1.00  0.00    -0.014 A 
ATOM     85  C   UNL A   1      48.862  27.276  30.354  1.00  0.00     0.010 A 
ATOM     86  C   UNL A   1      48.043  26.662  32.554  1.00  0.00     0.010 A 
ATOM     87  C   UNL A   1      50.158  26.917  30.738  1.00  0.00     0.020 A 
ATOM     88  C   UNL A   1      49.340  26.329  32.950  1.00  0.00     0.020 A 
ATOM     89  C   UNL A   1      50.388  26.446  32.034  1.00  0.00     0.054 A 
BRANCH  89  90
ATOM     90  S   UNL A   1      52.084  26.029  32.523  1.00  0.00     0.124 S 
ATOM     91  O   UNL A   1      51.865  25.205  33.709  1.00  0.00    -0.237 OA
ATOM     92  O   UNL A   1      52.592  25.321  31.350  1.00  0.00    -0.237 OA
ATOM     93  O   UNL A   1      52.702  27.330  32.774  1.00  0.00    -0.744 OA
ENDBRANCH  89  90
ENDBRANCH  63  84
ENDBRANCH  37  38
ENDBRANCH  29  32
ENDBRANCH  27  28
ENDBRANCH  26  27
ENDBRANCH  25  26
ENDBRANCH   1  25
TORSDOF 19
ENDMDL
