MODEL 1
REMARK VINA RESULT:     -12.0      0.000      0.000
REMARK SMILES Cc1cc(C)c2c(C(=O)NCCCCCCNC(=O)c3ccc(-c4c5nc(c(-c6ccc(S(=O)(=O)[O-])cc6)c6ccc([nH]6)c(-c6ccc(S(=O)(=O)[O-])cc6)c6nc(c(-c7ccc(S(=O)(=O)[O-])cc7)c7ccc4[nH]7)C=C6)C=C5)cc3)cc(-c3ccco3)nc2c1
REMARK SMILES IDX 14 1 13 2 12 3 11 4 10 5 8 6 9 7 7 9 1 10 2 11 3 12 89 13
REMARK SMILES IDX 4 14 88 15 5 16 6 17 87 18 81 19 80 20 82 21 83 22 86 23
REMARK SMILES IDX 84 24 85 25 15 26 16 27 17 28 18 29 19 31 20 32 21 33 79 34
REMARK SMILES IDX 22 35 78 36 23 37 24 38 25 39 72 40 26 41 77 42 71 43 73 44
REMARK SMILES IDX 27 45 76 46 70 47 69 48 28 50 58 51 39 52 57 53 40 54 43 55
REMARK SMILES IDX 56 56 74 57 41 58 42 59 55 61 75 62 44 63 29 64 30 65 38 66
REMARK SMILES IDX 31 67 37 68 32 69 33 70 34 71 35 72 36 73 59 74 60 75 68 76
REMARK SMILES IDX 61 77 67 78 62 79 63 80 64 81 65 82 66 83 45 84 46 85 54 86
REMARK SMILES IDX 47 87 53 88 48 89 49 90 50 91 51 92 52 93
REMARK H PARENT 10 8 17 30 73 49 43 60
REMARK Flexibility Score: inf
ROOT
ATOM      1  C   UNL A   1      31.321  27.581  25.779  1.00  0.00     0.002 C 
ENDROOT
BRANCH   1   2
ATOM      2  C   UNL A   1      31.189  26.466  24.736  1.00  0.00     0.002 C 
BRANCH   2   3
ATOM      3  C   UNL A   1      30.531  25.147  25.167  1.00  0.00     0.021 C 
BRANCH   3   4
ATOM      4  C   UNL A   1      31.242  23.858  24.765  1.00  0.00     0.116 C 
BRANCH   4   5
ATOM      5  N   UNL A   1      31.959  23.925  23.505  1.00  0.00    -0.352 N 
ATOM      6  C   UNL A   1      33.034  23.190  23.052  1.00  0.00     0.252 C 
ATOM      7  O   UNL A   1      33.464  23.414  21.919  1.00  0.00    -0.269 OA
ATOM      8  H   UNL A   1      31.625  24.603  22.873  1.00  0.00     0.163 HD
BRANCH   6   9
ATOM      9  C   UNL A   1      33.762  22.217  23.915  1.00  0.00     0.051 A 
ATOM     10  C   UNL A   1      39.013  22.922  26.021  1.00  0.00     0.044 C 
ATOM     11  C   UNL A   1      37.571  22.780  25.640  1.00  0.00    -0.049 A 
ATOM     12  C   UNL A   1      36.749  23.898  25.546  1.00  0.00     0.007 A 
ATOM     13  C   UNL A   1      36.992  21.522  25.467  1.00  0.00     0.032 A 
ATOM     14  C   UNL A   1      35.420  23.772  25.112  1.00  0.00    -0.041 A 
ATOM     15  C   UNL A   1      35.683  21.364  25.032  1.00  0.00     0.072 A 
ATOM     16  C   UNL A   1      34.522  24.969  25.316  1.00  0.00     0.045 C 
ATOM     17  C   UNL A   1      34.934  22.500  24.670  1.00  0.00     0.016 A 
ATOM     18  N   UNL A   1      35.200  20.114  24.979  1.00  0.00    -0.244 NA
ATOM     19  C   UNL A   1      33.955  19.919  24.505  1.00  0.00     0.107 A 
ATOM     20  C   UNL A   1      33.243  20.917  23.881  1.00  0.00     0.046 A 
BRANCH  19  21
ATOM     21  C   UNL A   1      33.397  18.597  24.730  1.00  0.00     0.152 A 
ATOM     22  C   UNL A   1      32.560  18.033  25.673  1.00  0.00     0.052 A 
ATOM     23  O   UNL A   1      33.833  17.624  23.871  1.00  0.00    -0.463 OA
ATOM     24  C   UNL A   1      32.476  16.650  25.367  1.00  0.00     0.043 A 
ATOM     25  C   UNL A   1      33.276  16.453  24.266  1.00  0.00     0.196 A 
ENDBRANCH  19  21
ENDBRANCH   6   9
ENDBRANCH   4   5
ENDBRANCH   3   4
ENDBRANCH   2   3
ENDBRANCH   1   2
BRANCH   1  26
ATOM     26  C   UNL A   1      32.337  27.379  26.904  1.00  0.00     0.021 C 
BRANCH  26  27
ATOM     27  C   UNL A   1      33.609  28.213  26.826  1.00  0.00     0.116 C 
BRANCH  27  28
ATOM     28  N   UNL A   1      33.401  29.609  27.166  1.00  0.00    -0.352 N 
ATOM     29  C   UNL A   1      34.250  30.484  27.803  1.00  0.00     0.251 C 
ATOM     30  H   UNL A   1      32.528  29.982  26.905  1.00  0.00     0.163 HD
ATOM     31  O   UNL A   1      33.865  31.608  28.100  1.00  0.00    -0.269 OA
BRANCH  29  32
ATOM     32  C   UNL A   1      35.621  30.053  28.155  1.00  0.00     0.039 A 
ATOM     33  C   UNL A   1      36.612  30.109  27.172  1.00  0.00     0.014 A 
ATOM     34  C   UNL A   1      35.925  29.594  29.441  1.00  0.00     0.014 A 
ATOM     35  C   UNL A   1      37.923  29.750  27.493  1.00  0.00     0.010 A 
ATOM     36  C   UNL A   1      37.244  29.292  29.774  1.00  0.00     0.010 A 
ATOM     37  C   UNL A   1      38.251  29.355  28.799  1.00  0.00    -0.014 A 
BRANCH  37  38
ATOM     38  C   UNL A   1      39.634  28.941  29.134  1.00  0.00     0.031 A 
ATOM     39  C   UNL A   1      40.520  29.874  29.910  1.00  0.00     0.074 A 
ATOM     40  C   UNL A   1      40.094  27.738  28.744  1.00  0.00     0.049 A 
ATOM     41  N   UNL A   1      41.743  29.684  30.332  1.00  0.00    -0.248 NA
ATOM     42  C   UNL A   1      39.965  31.196  30.244  1.00  0.00     0.031 C 
ATOM     43  C   UNL A   1      39.337  26.754  27.968  1.00  0.00     0.029 A 
ATOM     44  N   UNL A   1      41.308  27.133  28.957  1.00  0.00    -0.354 N 
ATOM     45  C   UNL A   1      42.098  30.856  30.988  1.00  0.00     0.074 A 
ATOM     46  C   UNL A   1      40.988  31.774  30.854  1.00  0.00     0.031 C 
ATOM     47  C   UNL A   1      40.092  25.655  27.800  1.00  0.00     0.029 A 
ATOM     48  C   UNL A   1      41.390  25.863  28.438  1.00  0.00     0.049 A 
ATOM     49  H   UNL A   1      42.050  27.568  29.436  1.00  0.00     0.167 HD
ATOM     50  C   UNL A   1      43.234  31.135  31.668  1.00  0.00     0.031 A 
ATOM     51  C   UNL A   1      42.392  24.962  28.482  1.00  0.00     0.031 A 
ATOM     52  C   UNL A   1      44.335  30.224  31.806  1.00  0.00     0.049 A 
ATOM     53  C   UNL A   1      43.662  25.300  29.210  1.00  0.00     0.074 A 
ATOM     54  C   UNL A   1      45.514  30.402  32.504  1.00  0.00     0.029 A 
ATOM     55  N   UNL A   1      44.389  28.963  31.232  1.00  0.00    -0.354 N 
ATOM     56  N   UNL A   1      43.963  26.398  29.861  1.00  0.00    -0.248 NA
ATOM     57  C   UNL A   1      44.724  24.285  29.215  1.00  0.00     0.031 C 
ATOM     58  C   UNL A   1      46.301  29.261  32.323  1.00  0.00     0.029 A 
ATOM     59  C   UNL A   1      45.594  28.357  31.544  1.00  0.00     0.049 A 
ATOM     60  H   UNL A   1      43.678  28.559  30.685  1.00  0.00     0.167 HD
ATOM     61  C   UNL A   1      45.243  26.202  30.366  1.00  0.00     0.074 A 
ATOM     62  C   UNL A   1      45.660  24.879  29.946  1.00  0.00     0.031 C 
ATOM     63  C   UNL A   1      45.997  27.043  31.113  1.00  0.00     0.031 A 
BRANCH  50  64
ATOM     64  C   UNL A   1      43.326  32.483  32.324  1.00  0.00    -0.014 A 
ATOM     65  C   UNL A   1      42.890  32.664  33.650  1.00  0.00     0.010 A 
ATOM     66  C   UNL A   1      43.861  33.576  31.621  1.00  0.00     0.010 A 
ATOM     67  C   UNL A   1      42.948  33.925  34.246  1.00  0.00     0.020 A 
ATOM     68  C   UNL A   1      43.942  34.836  32.221  1.00  0.00     0.020 A 
ATOM     69  C   UNL A   1      43.470  35.004  33.526  1.00  0.00     0.054 A 
BRANCH  69  70
ATOM     70  S   UNL A   1      43.514  36.631  34.325  1.00  0.00     0.124 S 
ATOM     71  O   UNL A   1      42.205  36.687  34.971  1.00  0.00    -0.237 OA
ATOM     72  O   UNL A   1      44.656  36.507  35.227  1.00  0.00    -0.237 OA
ATOM     73  O   UNL A   1      43.696  37.560  33.213  1.00  0.00    -0.744 OA
ENDBRANCH  69  70
ENDBRANCH  50  64
BRANCH  51  74
ATOM     74  C   UNL A   1      42.193  23.634  27.845  1.00  0.00    -0.014 A 
ATOM     75  C   UNL A   1      42.692  23.390  26.554  1.00  0.00     0.010 A 
ATOM     76  C   UNL A   1      41.594  22.582  28.560  1.00  0.00     0.010 A 
ATOM     77  C   UNL A   1      42.619  22.108  26.000  1.00  0.00     0.020 A 
ATOM     78  C   UNL A   1      41.530  21.297  28.015  1.00  0.00     0.020 A 
ATOM     79  C   UNL A   1      42.054  21.066  26.741  1.00  0.00     0.054 A 
BRANCH  79  80
ATOM     80  S   UNL A   1      42.068  19.394  26.035  1.00  0.00     0.124 S 
ATOM     81  O   UNL A   1      40.653  19.160  25.764  1.00  0.00    -0.237 OA
ATOM     82  O   UNL A   1      42.918  19.566  24.860  1.00  0.00    -0.237 OA
ATOM     83  O   UNL A   1      42.645  18.576  27.101  1.00  0.00    -0.744 OA
ENDBRANCH  79  80
ENDBRANCH  51  74
BRANCH  63  84
ATOM     84  C   UNL A   1      47.363  26.586  31.538  1.00  0.00    -0.014 A 
ATOM     85  C   UNL A   1      47.533  25.876  32.739  1.00  0.00     0.010 A 
ATOM     86  C   UNL A   1      48.449  26.718  30.653  1.00  0.00     0.010 A 
ATOM     87  C   UNL A   1      48.764  25.286  33.037  1.00  0.00     0.020 A 
ATOM     88  C   UNL A   1      49.675  26.116  30.942  1.00  0.00     0.020 A 
ATOM     89  C   UNL A   1      49.821  25.394  32.128  1.00  0.00     0.054 A 
BRANCH  89  90
ATOM     90  S   UNL A   1      51.369  24.522  32.495  1.00  0.00     0.124 S 
ATOM     91  O   UNL A   1      51.523  24.756  33.929  1.00  0.00    -0.237 OA
ATOM     92  O   UNL A   1      51.053  23.149  32.113  1.00  0.00    -0.237 OA
ATOM     93  O   UNL A   1      52.355  25.190  31.648  1.00  0.00    -0.744 OA
ENDBRANCH  89  90
ENDBRANCH  63  84
ENDBRANCH  37  38
ENDBRANCH  29  32
ENDBRANCH  27  28
ENDBRANCH  26  27
ENDBRANCH   1  26
TORSDOF 17
ENDMDL
MODEL 2
REMARK VINA RESULT:     -12.0      2.910      9.869
REMARK SMILES Cc1cc(C)c2c(C(=O)NCCCCCCNC(=O)c3ccc(-c4c5nc(c(-c6ccc(S(=O)(=O)[O-])cc6)c6ccc([nH]6)c(-c6ccc(S(=O)(=O)[O-])cc6)c6nc(c(-c7ccc(S(=O)(=O)[O-])cc7)c7ccc4[nH]7)C=C6)C=C5)cc3)cc(-c3ccco3)nc2c1
REMARK SMILES IDX 14 1 13 2 12 3 11 4 10 5 8 6 9 7 7 9 1 10 2 11 3 12 89 13
REMARK SMILES IDX 4 14 88 15 5 16 6 17 87 18 81 19 80 20 82 21 83 22 86 23
REMARK SMILES IDX 84 24 85 25 15 26 16 27 17 28 18 29 19 31 20 32 21 33 79 34
REMARK SMILES IDX 22 35 78 36 23 37 24 38 25 39 72 40 26 41 77 42 71 43 73 44
REMARK SMILES IDX 27 45 76 46 70 47 69 48 28 50 58 51 39 52 57 53 40 54 43 55
REMARK SMILES IDX 56 56 74 57 41 58 42 59 55 61 75 62 44 63 29 64 30 65 38 66
REMARK SMILES IDX 31 67 37 68 32 69 33 70 34 71 35 72 36 73 59 74 60 75 68 76
REMARK SMILES IDX 61 77 67 78 62 79 63 80 64 81 65 82 66 83 45 84 46 85 54 86
REMARK SMILES IDX 47 87 53 88 48 89 49 90 50 91 51 92 52 93
REMARK H PARENT 10 8 17 30 73 49 43 60
REMARK Flexibility Score: inf
ROOT
ATOM      1  C   UNL A   1      34.844  23.221  23.500  1.00  0.00     0.002 C 
ENDROOT
BRANCH   1   2
ATOM      2  C   UNL A   1      33.364  23.461  23.183  1.00  0.00     0.002 C 
BRANCH   2   3
ATOM      3  C   UNL A   1      33.012  24.507  22.116  1.00  0.00     0.021 C 
BRANCH   3   4
ATOM      4  C   UNL A   1      31.789  25.380  22.382  1.00  0.00     0.116 C 
BRANCH   4   5
ATOM      5  N   UNL A   1      31.137  25.143  23.657  1.00  0.00    -0.352 N 
ATOM      6  C   UNL A   1      30.677  26.035  24.602  1.00  0.00     0.252 C 
ATOM      7  O   UNL A   1      30.128  25.592  25.611  1.00  0.00    -0.269 OA
ATOM      8  H   UNL A   1      31.002  24.194  23.883  1.00  0.00     0.163 HD
BRANCH   6   9
ATOM      9  C   UNL A   1      30.915  27.503  24.502  1.00  0.00     0.051 A 
ATOM     10  C   UNL A   1      34.144  30.596  28.039  1.00  0.00     0.044 C 
ATOM     11  C   UNL A   1      33.440  29.793  26.988  1.00  0.00    -0.049 A 
ATOM     12  C   UNL A   1      33.856  28.502  26.684  1.00  0.00     0.007 A 
ATOM     13  C   UNL A   1      32.416  30.352  26.221  1.00  0.00     0.032 A 
ATOM     14  C   UNL A   1      33.145  27.723  25.757  1.00  0.00    -0.041 A 
ATOM     15  C   UNL A   1      31.690  29.607  25.302  1.00  0.00     0.072 A 
ATOM     16  C   UNL A   1      33.820  26.462  25.271  1.00  0.00     0.045 C 
ATOM     17  C   UNL A   1      31.930  28.223  25.192  1.00  0.00     0.016 A 
ATOM     18  N   UNL A   1      30.786  30.260  24.558  1.00  0.00    -0.244 NA
ATOM     19  C   UNL A   1      30.022  29.559  23.700  1.00  0.00     0.107 A 
ATOM     20  C   UNL A   1      29.986  28.184  23.706  1.00  0.00     0.046 A 
BRANCH  19  21
ATOM     21  C   UNL A   1      29.268  30.348  22.741  1.00  0.00     0.152 A 
ATOM     22  C   UNL A   1      28.820  31.653  22.681  1.00  0.00     0.052 A 
ATOM     23  O   UNL A   1      28.807  29.660  21.651  1.00  0.00    -0.463 OA
ATOM     24  C   UNL A   1      28.055  31.767  21.492  1.00  0.00     0.043 A 
ATOM     25  C   UNL A   1      28.072  30.523  20.906  1.00  0.00     0.196 A 
ENDBRANCH  19  21
ENDBRANCH   6   9
ENDBRANCH   4   5
ENDBRANCH   3   4
ENDBRANCH   2   3
ENDBRANCH   1   2
BRANCH   1  26
ATOM     26  C   UNL A   1      35.276  23.305  24.964  1.00  0.00     0.021 C 
BRANCH  26  27
ATOM     27  C   UNL A   1      36.684  23.822  25.226  1.00  0.00     0.116 C 
BRANCH  27  28
ATOM     28  N   UNL A   1      37.664  22.762  25.383  1.00  0.00    -0.352 N 
ATOM     29  C   UNL A   1      38.895  22.800  25.993  1.00  0.00     0.251 C 
ATOM     30  H   UNL A   1      37.410  21.892  24.998  1.00  0.00     0.163 HD
ATOM     31  O   UNL A   1      39.637  21.827  25.943  1.00  0.00    -0.269 OA
BRANCH  29  32
ATOM     32  C   UNL A   1      39.334  24.031  26.687  1.00  0.00     0.039 A 
ATOM     33  C   UNL A   1      40.076  24.974  25.970  1.00  0.00     0.014 A 
ATOM     34  C   UNL A   1      39.019  24.254  28.031  1.00  0.00     0.014 A 
ATOM     35  C   UNL A   1      40.461  26.164  26.589  1.00  0.00     0.010 A 
ATOM     36  C   UNL A   1      39.355  25.467  28.630  1.00  0.00     0.010 A 
ATOM     37  C   UNL A   1      40.091  26.426  27.918  1.00  0.00    -0.014 A 
BRANCH  37  38
ATOM     38  C   UNL A   1      40.527  27.673  28.588  1.00  0.00     0.031 A 
ATOM     39  C   UNL A   1      41.947  27.803  29.063  1.00  0.00     0.074 A 
ATOM     40  C   UNL A   1      39.656  28.683  28.773  1.00  0.00     0.049 A 
ATOM     41  N   UNL A   1      42.531  28.823  29.636  1.00  0.00    -0.248 NA
ATOM     42  C   UNL A   1      42.819  26.631  28.881  1.00  0.00     0.031 C 
ATOM     43  C   UNL A   1      38.247  28.667  28.376  1.00  0.00     0.029 A 
ATOM     44  N   UNL A   1      39.832  29.924  29.333  1.00  0.00    -0.354 N 
ATOM     45  C   UNL A   1      43.838  28.419  29.874  1.00  0.00     0.074 A 
ATOM     46  C   UNL A   1      43.946  27.043  29.442  1.00  0.00     0.031 C 
ATOM     47  C   UNL A   1      37.696  29.856  28.674  1.00  0.00     0.029 A 
ATOM     48  C   UNL A   1      38.705  30.709  29.299  1.00  0.00     0.049 A 
ATOM     49  H   UNL A   1      40.685  30.223  29.722  1.00  0.00     0.167 HD
ATOM     50  C   UNL A   1      44.868  29.138  30.378  1.00  0.00     0.031 A 
ATOM     51  C   UNL A   1      38.507  31.977  29.711  1.00  0.00     0.031 A 
ATOM     52  C   UNL A   1      44.764  30.505  30.802  1.00  0.00     0.049 A 
ATOM     53  C   UNL A   1      39.651  32.750  30.303  1.00  0.00     0.074 A 
ATOM     54  C   UNL A   1      45.759  31.328  31.295  1.00  0.00     0.029 A 
ATOM     55  N   UNL A   1      43.594  31.249  30.784  1.00  0.00    -0.354 N 
ATOM     56  N   UNL A   1      40.892  32.366  30.481  1.00  0.00    -0.248 NA
ATOM     57  C   UNL A   1      39.376  34.123  30.747  1.00  0.00     0.031 C 
ATOM     58  C   UNL A   1      45.183  32.562  31.611  1.00  0.00     0.029 A 
ATOM     59  C   UNL A   1      43.837  32.518  31.278  1.00  0.00     0.049 A 
ATOM     60  H   UNL A   1      42.722  30.922  30.469  1.00  0.00     0.167 HD
ATOM     61  C   UNL A   1      41.551  33.453  31.043  1.00  0.00     0.074 A 
ATOM     62  C   UNL A   1      40.571  34.513  31.175  1.00  0.00     0.031 C 
ATOM     63  C   UNL A   1      42.850  33.559  31.409  1.00  0.00     0.031 A 
BRANCH  50  64
ATOM     64  C   UNL A   1      46.199  28.448  30.480  1.00  0.00    -0.014 A 
ATOM     65  C   UNL A   1      47.115  28.500  29.413  1.00  0.00     0.010 A 
ATOM     66  C   UNL A   1      46.546  27.755  31.652  1.00  0.00     0.010 A 
ATOM     67  C   UNL A   1      48.337  27.832  29.499  1.00  0.00     0.020 A 
ATOM     68  C   UNL A   1      47.779  27.103  31.752  1.00  0.00     0.020 A 
ATOM     69  C   UNL A   1      48.660  27.135  30.668  1.00  0.00     0.054 A 
BRANCH  69  70
ATOM     70  S   UNL A   1      50.249  26.265  30.739  1.00  0.00     0.124 S 
ATOM     71  O   UNL A   1      50.240  25.514  29.486  1.00  0.00    -0.237 OA
ATOM     72  O   UNL A   1      51.207  27.364  30.806  1.00  0.00    -0.237 OA
ATOM     73  O   UNL A   1      50.147  25.451  31.948  1.00  0.00    -0.744 OA
ENDBRANCH  69  70
ENDBRANCH  50  64
BRANCH  51  74
ATOM     74  C   UNL A   1      37.167  32.594  29.526  1.00  0.00    -0.014 A 
ATOM     75  C   UNL A   1      36.266  32.658  30.602  1.00  0.00     0.010 A 
ATOM     76  C   UNL A   1      36.826  33.205  28.306  1.00  0.00     0.010 A 
ATOM     77  C   UNL A   1      35.057  33.347  30.470  1.00  0.00     0.020 A 
ATOM     78  C   UNL A   1      35.624  33.905  28.174  1.00  0.00     0.020 A 
ATOM     79  C   UNL A   1      34.752  33.981  29.261  1.00  0.00     0.054 A 
BRANCH  79  80
ATOM     80  S   UNL A   1      33.222  34.952  29.155  1.00  0.00     0.124 S 
ATOM     81  O   UNL A   1      32.720  34.891  30.524  1.00  0.00    -0.237 OA
ATOM     82  O   UNL A   1      33.717  36.255  28.718  1.00  0.00    -0.237 OA
ATOM     83  O   UNL A   1      32.425  34.231  28.164  1.00  0.00    -0.744 OA
ENDBRANCH  79  80
ENDBRANCH  51  74
BRANCH  63  84
ATOM     84  C   UNL A   1      43.319  34.859  31.999  1.00  0.00    -0.014 A 
ATOM     85  C   UNL A   1      43.656  35.937  31.164  1.00  0.00     0.010 A 
ATOM     86  C   UNL A   1      43.258  35.055  33.391  1.00  0.00     0.010 A 
ATOM     87  C   UNL A   1      43.903  37.199  31.712  1.00  0.00     0.020 A 
ATOM     88  C   UNL A   1      43.490  36.318  33.939  1.00  0.00     0.020 A 
ATOM     89  C   UNL A   1      43.800  37.384  33.093  1.00  0.00     0.054 A 
BRANCH  89  90
ATOM     90  S   UNL A   1      44.018  39.058  33.759  1.00  0.00     0.124 S 
ATOM     91  O   UNL A   1      42.948  39.796  33.095  1.00  0.00    -0.237 OA
ATOM     92  O   UNL A   1      43.842  38.849  35.193  1.00  0.00    -0.237 OA
ATOM     93  O   UNL A   1      45.372  39.424  33.348  1.00  0.00    -0.744 OA
ENDBRANCH  89  90
ENDBRANCH  63  84
ENDBRANCH  37  38
ENDBRANCH  29  32
ENDBRANCH  27  28
ENDBRANCH  26  27
ENDBRANCH   1  26
TORSDOF 17
ENDMDL
MODEL 3
REMARK VINA RESULT:     -11.6      0.862      2.727
REMARK SMILES Cc1cc(C)c2c(C(=O)NCCCCCCNC(=O)c3ccc(-c4c5nc(c(-c6ccc(S(=O)(=O)[O-])cc6)c6ccc([nH]6)c(-c6ccc(S(=O)(=O)[O-])cc6)c6nc(c(-c7ccc(S(=O)(=O)[O-])cc7)c7ccc4[nH]7)C=C6)C=C5)cc3)cc(-c3ccco3)nc2c1
REMARK SMILES IDX 14 1 13 2 12 3 11 4 10 5 8 6 9 7 7 9 1 10 2 11 3 12 89 13
REMARK SMILES IDX 4 14 88 15 5 16 6 17 87 18 81 19 80 20 82 21 83 22 86 23
REMARK SMILES IDX 84 24 85 25 15 26 16 27 17 28 18 29 19 31 20 32 21 33 79 34
REMARK SMILES IDX 22 35 78 36 23 37 24 38 25 39 72 40 26 41 77 42 71 43 73 44
REMARK SMILES IDX 27 45 76 46 70 47 69 48 28 50 58 51 39 52 57 53 40 54 43 55
REMARK SMILES IDX 56 56 74 57 41 58 42 59 55 61 75 62 44 63 29 64 30 65 38 66
REMARK SMILES IDX 31 67 37 68 32 69 33 70 34 71 35 72 36 73 59 74 60 75 68 76
REMARK SMILES IDX 61 77 67 78 62 79 63 80 64 81 65 82 66 83 45 84 46 85 54 86
REMARK SMILES IDX 47 87 53 88 48 89 49 90 50 91 51 92 52 93
REMARK H PARENT 10 8 17 30 73 49 43 60
REMARK Flexibility Score: inf
ROOT
ATOM      1  C   UNL A   1      33.294  26.174  25.888  1.00  0.00     0.002 C 
ENDROOT
BRANCH   1   2
ATOM      2  C   UNL A   1      31.827  25.858  26.197  1.00  0.00     0.002 C 
BRANCH   2   3
ATOM      3  C   UNL A   1      31.461  24.416  26.575  1.00  0.00     0.021 C 
BRANCH   3   4
ATOM      4  C   UNL A   1      30.909  23.530  25.463  1.00  0.00     0.116 C 
BRANCH   4   5
ATOM      5  N   UNL A   1      31.340  23.892  24.125  1.00  0.00    -0.352 N 
ATOM      6  C   UNL A   1      32.371  23.394  23.356  1.00  0.00     0.252 C 
ATOM      7  O   UNL A   1      32.532  23.849  22.223  1.00  0.00    -0.269 OA
ATOM      8  H   UNL A   1      30.813  24.607  23.698  1.00  0.00     0.163 HD
BRANCH   6   9
ATOM      9  C   UNL A   1      33.361  22.411  23.881  1.00  0.00     0.051 A 
ATOM     10  C   UNL A   1      32.323  16.918  24.999  1.00  0.00     0.044 C 
ATOM     11  C   UNL A   1      32.681  18.301  24.548  1.00  0.00    -0.049 A 
ATOM     12  C   UNL A   1      32.049  18.876  23.451  1.00  0.00     0.007 A 
ATOM     13  C   UNL A   1      33.722  19.009  25.151  1.00  0.00     0.032 A 
ATOM     14  C   UNL A   1      32.327  20.200  23.079  1.00  0.00    -0.041 A 
ATOM     15  C   UNL A   1      34.018  20.321  24.811  1.00  0.00     0.072 A 
ATOM     16  C   UNL A   1      31.830  20.646  21.724  1.00  0.00     0.045 C 
ATOM     17  C   UNL A   1      33.196  20.998  23.890  1.00  0.00     0.016 A 
ATOM     18  N   UNL A   1      35.090  20.880  25.392  1.00  0.00    -0.244 NA
ATOM     19  C   UNL A   1      35.372  22.170  25.132  1.00  0.00     0.107 A 
ATOM     20  C   UNL A   1      34.493  22.992  24.465  1.00  0.00     0.046 A 
BRANCH  19  21
ATOM     21  C   UNL A   1      36.680  22.627  25.566  1.00  0.00     0.152 A 
ATOM     22  C   UNL A   1      37.260  23.858  25.803  1.00  0.00     0.052 A 
ATOM     23  O   UNL A   1      37.622  21.646  25.721  1.00  0.00    -0.463 OA
ATOM     24  C   UNL A   1      38.619  23.613  26.127  1.00  0.00     0.043 A 
ATOM     25  C   UNL A   1      38.789  22.250  26.054  1.00  0.00     0.196 A 
ENDBRANCH  19  21
ENDBRANCH   6   9
ENDBRANCH   4   5
ENDBRANCH   3   4
ENDBRANCH   2   3
ENDBRANCH   1   2
BRANCH   1  26
ATOM     26  C   UNL A   1      33.773  27.607  26.121  1.00  0.00     0.021 C 
BRANCH  26  27
ATOM     27  C   UNL A   1      33.427  28.227  27.469  1.00  0.00     0.116 C 
BRANCH  27  28
ATOM     28  N   UNL A   1      33.343  29.676  27.429  1.00  0.00    -0.352 N 
ATOM     29  C   UNL A   1      34.298  30.611  27.752  1.00  0.00     0.251 C 
ATOM     30  H   UNL A   1      32.480  30.041  27.126  1.00  0.00     0.163 HD
ATOM     31  O   UNL A   1      34.017  31.802  27.754  1.00  0.00    -0.269 OA
BRANCH  29  32
ATOM     32  C   UNL A   1      35.660  30.170  28.128  1.00  0.00     0.039 A 
ATOM     33  C   UNL A   1      36.660  30.182  27.152  1.00  0.00     0.014 A 
ATOM     34  C   UNL A   1      35.947  29.745  29.430  1.00  0.00     0.014 A 
ATOM     35  C   UNL A   1      37.962  29.814  27.494  1.00  0.00     0.010 A 
ATOM     36  C   UNL A   1      37.259  29.434  29.782  1.00  0.00     0.010 A 
ATOM     37  C   UNL A   1      38.274  29.452  28.815  1.00  0.00    -0.014 A 
BRANCH  37  38
ATOM     38  C   UNL A   1      39.648  29.029  29.173  1.00  0.00     0.031 A 
ATOM     39  C   UNL A   1      40.525  29.952  29.970  1.00  0.00     0.074 A 
ATOM     40  C   UNL A   1      40.109  27.824  28.785  1.00  0.00     0.049 A 
ATOM     41  N   UNL A   1      41.740  29.753  30.413  1.00  0.00    -0.248 NA
ATOM     42  C   UNL A   1      39.972  31.276  30.300  1.00  0.00     0.031 C 
ATOM     43  C   UNL A   1      39.360  26.849  27.991  1.00  0.00     0.029 A 
ATOM     44  N   UNL A   1      41.314  27.211  29.018  1.00  0.00    -0.354 N 
ATOM     45  C   UNL A   1      42.089  30.919  31.081  1.00  0.00     0.074 A 
ATOM     46  C   UNL A   1      40.988  31.844  30.932  1.00  0.00     0.031 C 
ATOM     47  C   UNL A   1      40.111  25.747  27.831  1.00  0.00     0.029 A 
ATOM     48  C   UNL A   1      41.399  25.943  28.494  1.00  0.00     0.049 A 
ATOM     49  H   UNL A   1      42.050  27.639  29.513  1.00  0.00     0.167 HD
ATOM     50  C   UNL A   1      43.214  31.187  31.784  1.00  0.00     0.031 A 
ATOM     51  C   UNL A   1      42.393  25.035  28.552  1.00  0.00     0.031 A 
ATOM     52  C   UNL A   1      44.306  30.269  31.937  1.00  0.00     0.049 A 
ATOM     53  C   UNL A   1      43.652  25.363  29.305  1.00  0.00     0.074 A 
ATOM     54  C   UNL A   1      45.474  30.436  32.658  1.00  0.00     0.029 A 
ATOM     55  N   UNL A   1      44.364  29.010  31.359  1.00  0.00    -0.354 N 
ATOM     56  N   UNL A   1      43.947  26.455  29.967  1.00  0.00    -0.248 NA
ATOM     57  C   UNL A   1      44.707  24.341  29.324  1.00  0.00     0.031 C 
ATOM     58  C   UNL A   1      46.257  29.292  32.486  1.00  0.00     0.029 A 
ATOM     59  C   UNL A   1      45.559  28.396  31.689  1.00  0.00     0.049 A 
ATOM     60  H   UNL A   1      43.661  28.614  30.797  1.00  0.00     0.167 HD
ATOM     61  C   UNL A   1      45.216  26.248  30.494  1.00  0.00     0.074 A 
ATOM     62  C   UNL A   1      45.633  24.925  30.076  1.00  0.00     0.031 C 
ATOM     63  C   UNL A   1      45.961  27.081  31.259  1.00  0.00     0.031 A 
BRANCH  50  64
ATOM     64  C   UNL A   1      43.302  32.532  32.449  1.00  0.00    -0.014 A 
ATOM     65  C   UNL A   1      43.867  33.629  31.772  1.00  0.00     0.010 A 
ATOM     66  C   UNL A   1      42.807  32.707  33.752  1.00  0.00     0.010 A 
ATOM     67  C   UNL A   1      43.975  34.869  32.405  1.00  0.00     0.020 A 
ATOM     68  C   UNL A   1      42.893  33.953  34.382  1.00  0.00     0.020 A 
ATOM     69  C   UNL A   1      43.490  35.021  33.708  1.00  0.00     0.054 A 
BRANCH  69  70
ATOM     70  S   UNL A   1      43.662  36.641  34.505  1.00  0.00     0.124 S 
ATOM     71  O   UNL A   1      44.341  37.418  33.470  1.00  0.00    -0.237 OA
ATOM     72  O   UNL A   1      42.275  37.013  34.763  1.00  0.00    -0.237 OA
ATOM     73  O   UNL A   1      44.464  36.360  35.693  1.00  0.00    -0.744 OA
ENDBRANCH  69  70
ENDBRANCH  50  64
BRANCH  51  74
ATOM     74  C   UNL A   1      42.198  23.712  27.904  1.00  0.00    -0.014 A 
ATOM     75  C   UNL A   1      42.650  23.496  26.592  1.00  0.00     0.010 A 
ATOM     76  C   UNL A   1      41.652  22.637  28.629  1.00  0.00     0.010 A 
ATOM     77  C   UNL A   1      42.583  22.221  26.023  1.00  0.00     0.020 A 
ATOM     78  C   UNL A   1      41.594  21.358  28.068  1.00  0.00     0.020 A 
ATOM     79  C   UNL A   1      42.072  21.156  26.771  1.00  0.00     0.054 A 
BRANCH  79  80
ATOM     80  S   UNL A   1      42.093  19.494  26.042  1.00  0.00     0.124 S 
ATOM     81  O   UNL A   1      43.012  19.660  24.920  1.00  0.00    -0.237 OA
ATOM     82  O   UNL A   1      42.586  18.680  27.150  1.00  0.00    -0.237 OA
ATOM     83  O   UNL A   1      40.697  19.261  25.677  1.00  0.00    -0.744 OA
ENDBRANCH  79  80
ENDBRANCH  51  74
BRANCH  63  84
ATOM     84  C   UNL A   1      47.317  26.613  31.708  1.00  0.00    -0.014 A 
ATOM     85  C   UNL A   1      47.465  25.927  32.925  1.00  0.00     0.010 A 
ATOM     86  C   UNL A   1      48.413  26.711  30.831  1.00  0.00     0.010 A 
ATOM     87  C   UNL A   1      48.684  25.326  33.247  1.00  0.00     0.020 A 
ATOM     88  C   UNL A   1      49.627  26.097  31.144  1.00  0.00     0.020 A 
ATOM     89  C   UNL A   1      49.751  25.399  32.347  1.00  0.00     0.054 A 
BRANCH  89  90
ATOM     90  S   UNL A   1      51.283  24.513  32.747  1.00  0.00     0.124 S 
ATOM     91  O   UNL A   1      51.067  23.218  32.107  1.00  0.00    -0.237 OA
ATOM     92  O   UNL A   1      52.302  25.356  32.130  1.00  0.00    -0.237 OA
ATOM     93  O   UNL A   1      51.300  24.488  34.208  1.00  0.00    -0.744 OA
ENDBRANCH  89  90
ENDBRANCH  63  84
ENDBRANCH  37  38
ENDBRANCH  29  32
ENDBRANCH  27  28
ENDBRANCH  26  27
ENDBRANCH   1  26
TORSDOF 17
ENDMDL
