MODEL 1
REMARK VINA RESULT:     -11.3      0.000      0.000
REMARK SMILES C[C@H]1CCC[C@]1(C(=O)NCCCCCCNC(=O)c1ccc(-c2c3nc(c(-c4ccc(S(=O)(=O)[O-])cc4)c4ccc([nH]4)c(-c4ccc(S(=O)(=O)[O-])cc4)c4nc(c(-c5ccc(S(=O)(=O)[O-])cc5)c5ccc2[nH]5)C=C4)C=C3)cc1)c1ccc2c(c1)OCO2
REMARK SMILES IDX 13 1 12 2 11 3 10 4 9 5 7 6 8 7 6 9 1 10 2 11 3 12 4 13 5 14
REMARK SMILES IDX 79 15 80 16 84 17 81 18 83 19 82 20 85 21 87 22 86 23 14 24
REMARK SMILES IDX 15 25 16 26 17 27 18 29 19 30 20 31 78 32 21 33 77 34 22 35
REMARK SMILES IDX 23 36 24 37 71 38 25 39 76 40 70 41 72 42 26 43 75 44 69 45
REMARK SMILES IDX 68 46 27 48 57 49 38 50 56 51 39 52 42 53 55 54 73 55 40 56
REMARK SMILES IDX 41 57 54 59 74 60 43 61 28 62 29 63 37 64 30 65 36 66 31 67
REMARK SMILES IDX 32 68 33 69 34 70 35 71 58 72 59 73 67 74 60 75 66 76 61 77
REMARK SMILES IDX 62 78 63 79 64 80 65 81 44 82 45 83 53 84 46 85 52 86 47 87
REMARK SMILES IDX 48 88 49 89 50 90 51 91
REMARK H PARENT 9 8 16 28 72 47 42 58
REMARK Flexibility Score: inf
ROOT
ATOM      1  C   UNL A   1      35.095  22.006  24.928  1.00  0.00     0.002 C 
ENDROOT
BRANCH   1   2
ATOM      2  C   UNL A   1      33.697  21.974  24.300  1.00  0.00     0.002 C 
BRANCH   2   3
ATOM      3  C   UNL A   1      32.551  22.089  25.304  1.00  0.00     0.021 C 
BRANCH   3   4
ATOM      4  C   UNL A   1      31.294  22.706  24.712  1.00  0.00     0.116 C 
BRANCH   4   5
ATOM      5  N   UNL A   1      30.711  23.695  25.590  1.00  0.00    -0.355 N 
ATOM      6  C   UNL A   1      30.501  25.036  25.478  1.00  0.00     0.230 C 
ATOM      7  O   UNL A   1      29.803  25.493  26.391  1.00  0.00    -0.274 OA
ATOM      8  H   UNL A   1      30.401  23.322  26.446  1.00  0.00     0.163 HD
BRANCH   6   9
ATOM      9  C   UNL A   1      31.077  25.919  24.311  1.00  0.00     0.077 C 
ATOM     10  C   UNL A   1      33.227  26.235  25.816  1.00  0.00     0.009 C 
ATOM     11  C   UNL A   1      32.614  26.239  24.420  1.00  0.00     0.006 C 
ATOM     12  C   UNL A   1      33.338  25.354  23.412  1.00  0.00     0.005 C 
ATOM     13  C   UNL A   1      32.312  25.091  22.316  1.00  0.00     0.002 C 
ATOM     14  C   UNL A   1      30.926  25.135  22.972  1.00  0.00     0.022 C 
BRANCH   9  15
ATOM     15  C   UNL A   1      30.434  27.347  24.197  1.00  0.00    -0.028 A 
ATOM     16  C   UNL A   1      31.128  28.526  24.578  1.00  0.00     0.009 A 
ATOM     17  C   UNL A   1      29.255  27.507  23.430  1.00  0.00     0.055 A 
ATOM     18  C   UNL A   1      30.699  29.803  24.190  1.00  0.00     0.051 A 
ATOM     19  C   UNL A   1      28.901  28.765  23.001  1.00  0.00     0.166 A 
ATOM     20  C   UNL A   1      29.609  29.883  23.359  1.00  0.00     0.165 A 
ATOM     21  O   UNL A   1      27.921  29.036  22.096  1.00  0.00    -0.454 OA
ATOM     22  O   UNL A   1      29.159  30.997  22.719  1.00  0.00    -0.454 OA
ATOM     23  C   UNL A   1      28.294  30.381  21.740  1.00  0.00     0.468 C 
ENDBRANCH   9  15
ENDBRANCH   6   9
ENDBRANCH   4   5
ENDBRANCH   3   4
ENDBRANCH   2   3
ENDBRANCH   1   2
BRANCH   1  24
ATOM     24  C   UNL A   1      35.964  23.190  24.495  1.00  0.00     0.021 C 
BRANCH  24  25
ATOM     25  C   UNL A   1      36.892  23.706  25.589  1.00  0.00     0.116 C 
BRANCH  25  26
ATOM     26  N   UNL A   1      37.925  22.734  25.906  1.00  0.00    -0.352 N 
ATOM     27  C   UNL A   1      39.186  22.950  26.397  1.00  0.00     0.251 C 
ATOM     28  H   UNL A   1      37.685  21.792  25.747  1.00  0.00     0.163 HD
ATOM     29  O   UNL A   1      40.031  22.065  26.348  1.00  0.00    -0.269 OA
BRANCH  27  30
ATOM     30  C   UNL A   1      39.507  24.266  26.982  1.00  0.00     0.039 A 
ATOM     31  C   UNL A   1      39.136  24.538  28.299  1.00  0.00     0.014 A 
ATOM     32  C   UNL A   1      40.184  25.224  26.220  1.00  0.00     0.014 A 
ATOM     33  C   UNL A   1      39.485  25.763  28.869  1.00  0.00     0.010 A 
ATOM     34  C   UNL A   1      40.601  26.407  26.815  1.00  0.00     0.010 A 
ATOM     35  C   UNL A   1      40.245  26.693  28.141  1.00  0.00    -0.014 A 
BRANCH  35  36
ATOM     36  C   UNL A   1      40.671  27.981  28.740  1.00  0.00     0.031 A 
ATOM     37  C   UNL A   1      42.065  28.132  29.283  1.00  0.00     0.074 A 
ATOM     38  C   UNL A   1      39.783  28.988  28.854  1.00  0.00     0.049 A 
ATOM     39  N   UNL A   1      42.604  29.152  29.900  1.00  0.00    -0.248 NA
ATOM     40  C   UNL A   1      42.965  26.975  29.138  1.00  0.00     0.031 C 
ATOM     41  C   UNL A   1      38.392  28.947  28.395  1.00  0.00     0.029 A 
ATOM     42  N   UNL A   1      39.917  30.241  29.395  1.00  0.00    -0.354 N 
ATOM     43  C   UNL A   1      43.896  28.755  30.226  1.00  0.00     0.074 A 
ATOM     44  C   UNL A   1      44.039  27.382  29.796  1.00  0.00     0.031 C 
ATOM     45  C   UNL A   1      37.813  30.133  28.642  1.00  0.00     0.029 A 
ATOM     46  C   UNL A   1      38.773  30.999  29.320  1.00  0.00     0.049 A 
ATOM     47  H   UNL A   1      40.753  30.567  29.799  1.00  0.00     0.167 HD
ATOM     48  C   UNL A   1      44.882  29.477  30.812  1.00  0.00     0.031 A 
ATOM     49  C   UNL A   1      38.523  32.249  29.754  1.00  0.00     0.031 A 
ATOM     50  C   UNL A   1      44.731  30.842  31.238  1.00  0.00     0.049 A 
ATOM     51  C   UNL A   1      39.622  33.020  30.433  1.00  0.00     0.074 A 
ATOM     52  C   UNL A   1      45.678  31.678  31.802  1.00  0.00     0.029 A 
ATOM     53  N   UNL A   1      43.555  31.573  31.150  1.00  0.00    -0.354 N 
ATOM     54  N   UNL A   1      40.856  32.650  30.682  1.00  0.00    -0.248 NA
ATOM     55  C   UNL A   1      39.299  34.382  30.877  1.00  0.00     0.031 C 
ATOM     56  C   UNL A   1      45.058  32.892  32.113  1.00  0.00     0.029 A 
ATOM     57  C   UNL A   1      43.743  32.839  31.676  1.00  0.00     0.049 A 
ATOM     58  H   UNL A   1      42.709  31.238  30.771  1.00  0.00     0.167 HD
ATOM     59  C   UNL A   1      41.466  33.745  31.283  1.00  0.00     0.074 A 
ATOM     60  C   UNL A   1      40.468  34.794  31.348  1.00  0.00     0.031 C 
ATOM     61  C   UNL A   1      42.738  33.872  31.736  1.00  0.00     0.031 A 
BRANCH  48  62
ATOM     62  C   UNL A   1      46.205  28.790  31.033  1.00  0.00    -0.014 A 
ATOM     63  C   UNL A   1      46.463  28.064  32.212  1.00  0.00     0.010 A 
ATOM     64  C   UNL A   1      47.204  28.855  30.043  1.00  0.00     0.010 A 
ATOM     65  C   UNL A   1      47.709  27.465  32.420  1.00  0.00     0.020 A 
ATOM     66  C   UNL A   1      48.438  28.229  30.232  1.00  0.00     0.020 A 
ATOM     67  C   UNL A   1      48.691  27.556  31.429  1.00  0.00     0.054 A 
BRANCH  67  68
ATOM     68  S   UNL A   1      50.296  26.767  31.725  1.00  0.00     0.124 S 
ATOM     69  O   UNL A   1      51.099  27.890  32.205  1.00  0.00    -0.237 OA
ATOM     70  O   UNL A   1      49.974  25.752  32.726  1.00  0.00    -0.237 OA
ATOM     71  O   UNL A   1      50.675  26.246  30.414  1.00  0.00    -0.744 OA
ENDBRANCH  67  68
ENDBRANCH  48  62
BRANCH  49  72
ATOM     72  C   UNL A   1      37.180  32.856  29.536  1.00  0.00    -0.014 A 
ATOM     73  C   UNL A   1      36.337  33.127  30.627  1.00  0.00     0.010 A 
ATOM     74  C   UNL A   1      36.748  33.188  28.239  1.00  0.00     0.010 A 
ATOM     75  C   UNL A   1      35.080  33.705  30.425  1.00  0.00     0.020 A 
ATOM     76  C   UNL A   1      35.505  33.793  28.035  1.00  0.00     0.020 A 
ATOM     77  C   UNL A   1      34.675  34.040  29.130  1.00  0.00     0.054 A 
BRANCH  77  78
ATOM     78  S   UNL A   1      33.064  34.843  28.899  1.00  0.00     0.124 S 
ATOM     79  O   UNL A   1      33.451  36.174  28.446  1.00  0.00    -0.237 OA
ATOM     80  O   UNL A   1      32.430  33.991  27.896  1.00  0.00    -0.237 OA
ATOM     81  O   UNL A   1      32.459  34.784  30.227  1.00  0.00    -0.744 OA
ENDBRANCH  77  78
ENDBRANCH  49  72
BRANCH  61  82
ATOM     82  C   UNL A   1      43.141  35.207  32.307  1.00  0.00    -0.014 A 
ATOM     83  C   UNL A   1      43.752  36.190  31.510  1.00  0.00     0.010 A 
ATOM     84  C   UNL A   1      42.849  35.498  33.653  1.00  0.00     0.010 A 
ATOM     85  C   UNL A   1      44.092  37.431  32.058  1.00  0.00     0.020 A 
ATOM     86  C   UNL A   1      43.157  36.747  34.195  1.00  0.00     0.020 A 
ATOM     87  C   UNL A   1      43.790  37.702  33.396  1.00  0.00     0.054 A 
BRANCH  87  88
ATOM     88  S   UNL A   1      44.198  39.336  34.068  1.00  0.00     0.124 S 
ATOM     89  O   UNL A   1      45.345  39.723  33.253  1.00  0.00    -0.237 OA
ATOM     90  O   UNL A   1      42.972  40.094  33.830  1.00  0.00    -0.237 OA
ATOM     91  O   UNL A   1      44.495  39.070  35.473  1.00  0.00    -0.744 OA
ENDBRANCH  87  88
ENDBRANCH  61  82
ENDBRANCH  35  36
ENDBRANCH  27  30
ENDBRANCH  25  26
ENDBRANCH  24  25
ENDBRANCH   1  24
TORSDOF 17
ENDMDL
MODEL 2
REMARK VINA RESULT:     -11.0      4.301      9.467
REMARK SMILES C[C@H]1CCC[C@]1(C(=O)NCCCCCCNC(=O)c1ccc(-c2c3nc(c(-c4ccc(S(=O)(=O)[O-])cc4)c4ccc([nH]4)c(-c4ccc(S(=O)(=O)[O-])cc4)c4nc(c(-c5ccc(S(=O)(=O)[O-])cc5)c5ccc2[nH]5)C=C4)C=C3)cc1)c1ccc2c(c1)OCO2
REMARK SMILES IDX 13 1 12 2 11 3 10 4 9 5 7 6 8 7 6 9 1 10 2 11 3 12 4 13 5 14
REMARK SMILES IDX 79 15 80 16 84 17 81 18 83 19 82 20 85 21 87 22 86 23 14 24
REMARK SMILES IDX 15 25 16 26 17 27 18 29 19 30 20 31 78 32 21 33 77 34 22 35
REMARK SMILES IDX 23 36 24 37 71 38 25 39 76 40 70 41 72 42 26 43 75 44 69 45
REMARK SMILES IDX 68 46 27 48 57 49 38 50 56 51 39 52 42 53 55 54 73 55 40 56
REMARK SMILES IDX 41 57 54 59 74 60 43 61 28 62 29 63 37 64 30 65 36 66 31 67
REMARK SMILES IDX 32 68 33 69 34 70 35 71 58 72 59 73 67 74 60 75 66 76 61 77
REMARK SMILES IDX 62 78 63 79 64 80 65 81 44 82 45 83 53 84 46 85 52 86 47 87
REMARK SMILES IDX 48 88 49 89 50 90 51 91
REMARK H PARENT 9 8 16 28 72 47 42 58
REMARK Flexibility Score: inf
ROOT
ATOM      1  C   UNL A   1      35.861  32.783  27.989  1.00  0.00     0.002 C 
ENDROOT
BRANCH   1   2
ATOM      2  C   UNL A   1      35.252  31.456  28.455  1.00  0.00     0.002 C 
BRANCH   2   3
ATOM      3  C   UNL A   1      35.716  30.236  27.661  1.00  0.00     0.021 C 
BRANCH   3   4
ATOM      4  C   UNL A   1      34.569  29.357  27.187  1.00  0.00     0.116 C 
BRANCH   4   5
ATOM      5  N   UNL A   1      34.504  29.284  25.745  1.00  0.00    -0.355 N 
ATOM      6  C   UNL A   1      33.493  29.031  24.868  1.00  0.00     0.230 C 
ATOM      7  O   UNL A   1      33.812  29.238  23.691  1.00  0.00    -0.274 OA
ATOM      8  H   UNL A   1      35.368  29.453  25.306  1.00  0.00     0.163 HD
BRANCH   6   9
ATOM      9  C   UNL A   1      32.064  28.532  25.297  1.00  0.00     0.077 C 
ATOM     10  C   UNL A   1      32.859  26.116  24.575  1.00  0.00     0.009 C 
ATOM     11  C   UNL A   1      31.919  26.969  25.418  1.00  0.00     0.006 C 
ATOM     12  C   UNL A   1      31.916  26.624  26.903  1.00  0.00     0.005 C 
ATOM     13  C   UNL A   1      31.369  27.869  27.591  1.00  0.00     0.002 C 
ATOM     14  C   UNL A   1      31.755  29.074  26.725  1.00  0.00     0.022 C 
BRANCH   9  15
ATOM     15  C   UNL A   1      30.915  28.909  24.295  1.00  0.00    -0.028 A 
ATOM     16  C   UNL A   1      30.043  27.937  23.737  1.00  0.00     0.009 A 
ATOM     17  C   UNL A   1      30.541  30.268  24.165  1.00  0.00     0.055 A 
ATOM     18  C   UNL A   1      28.840  28.287  23.109  1.00  0.00     0.051 A 
ATOM     19  C   UNL A   1      29.320  30.576  23.612  1.00  0.00     0.166 A 
ATOM     20  C   UNL A   1      28.484  29.613  23.110  1.00  0.00     0.165 A 
ATOM     21  O   UNL A   1      28.749  31.812  23.614  1.00  0.00    -0.454 OA
ATOM     22  O   UNL A   1      27.282  30.128  22.733  1.00  0.00    -0.454 OA
ATOM     23  C   UNL A   1      27.388  31.444  23.318  1.00  0.00     0.468 C 
ENDBRANCH   9  15
ENDBRANCH   6   9
ENDBRANCH   4   5
ENDBRANCH   3   4
ENDBRANCH   2   3
ENDBRANCH   1   2
BRANCH   1  24
ATOM     24  C   UNL A   1      34.888  33.966  27.980  1.00  0.00     0.021 C 
BRANCH  24  25
ATOM     25  C   UNL A   1      33.466  33.599  28.387  1.00  0.00     0.116 C 
BRANCH  25  26
ATOM     26  N   UNL A   1      32.897  34.601  29.274  1.00  0.00    -0.352 N 
ATOM     27  C   UNL A   1      33.170  34.831  30.598  1.00  0.00     0.251 C 
ATOM     28  H   UNL A   1      32.226  35.196  28.869  1.00  0.00     0.163 HD
ATOM     29  O   UNL A   1      32.416  35.516  31.277  1.00  0.00    -0.269 OA
BRANCH  27  30
ATOM     30  C   UNL A   1      34.384  34.235  31.189  1.00  0.00     0.039 A 
ATOM     31  C   UNL A   1      34.331  32.935  31.693  1.00  0.00     0.014 A 
ATOM     32  C   UNL A   1      35.574  34.969  31.233  1.00  0.00     0.014 A 
ATOM     33  C   UNL A   1      35.491  32.352  32.204  1.00  0.00     0.010 A 
ATOM     34  C   UNL A   1      36.742  34.358  31.666  1.00  0.00     0.010 A 
ATOM     35  C   UNL A   1      36.711  33.048  32.167  1.00  0.00    -0.014 A 
BRANCH  35  36
ATOM     36  C   UNL A   1      37.967  32.433  32.660  1.00  0.00     0.031 A 
ATOM     37  C   UNL A   1      38.446  32.720  34.056  1.00  0.00     0.074 A 
ATOM     38  C   UNL A   1      38.706  31.673  31.829  1.00  0.00     0.049 A 
ATOM     39  N   UNL A   1      39.546  32.332  34.647  1.00  0.00    -0.248 NA
ATOM     40  C   UNL A   1      37.589  33.580  34.890  1.00  0.00     0.031 C 
ATOM     41  C   UNL A   1      38.360  31.351  30.442  1.00  0.00     0.029 A 
ATOM     42  N   UNL A   1      39.903  31.034  32.029  1.00  0.00    -0.354 N 
ATOM     43  C   UNL A   1      39.519  32.909  35.912  1.00  0.00     0.074 A 
ATOM     44  C   UNL A   1      38.326  33.722  35.980  1.00  0.00     0.031 C 
ATOM     45  C   UNL A   1      39.306  30.548  29.929  1.00  0.00     0.029 A 
ATOM     46  C   UNL A   1      40.348  30.338  30.930  1.00  0.00     0.049 A 
ATOM     47  H   UNL A   1      40.398  31.071  32.879  1.00  0.00     0.167 HD
ATOM     48  C   UNL A   1      40.397  32.756  36.932  1.00  0.00     0.031 A 
ATOM     49  C   UNL A   1      41.470  29.617  30.748  1.00  0.00     0.031 A 
ATOM     50  C   UNL A   1      41.583  31.945  36.855  1.00  0.00     0.049 A 
ATOM     51  C   UNL A   1      42.449  29.490  31.883  1.00  0.00     0.074 A 
ATOM     52  C   UNL A   1      42.516  31.688  37.842  1.00  0.00     0.029 A 
ATOM     53  N   UNL A   1      42.001  31.261  35.722  1.00  0.00    -0.354 N 
ATOM     54  N   UNL A   1      42.379  29.995  33.092  1.00  0.00    -0.248 NA
ATOM     55  C   UNL A   1      43.651  28.684  31.633  1.00  0.00     0.031 C 
ATOM     56  C   UNL A   1      43.531  30.900  37.289  1.00  0.00     0.029 A 
ATOM     57  C   UNL A   1      43.194  30.606  35.977  1.00  0.00     0.049 A 
ATOM     58  H   UNL A   1      41.520  31.245  34.862  1.00  0.00     0.167 HD
ATOM     59  C   UNL A   1      43.512  29.541  33.758  1.00  0.00     0.074 A 
ATOM     60  C   UNL A   1      44.242  28.712  32.820  1.00  0.00     0.031 C 
ATOM     61  C   UNL A   1      43.910  29.785  35.031  1.00  0.00     0.031 A 
BRANCH  48  62
ATOM     62  C   UNL A   1      40.107  33.496  38.213  1.00  0.00    -0.014 A 
ATOM     63  C   UNL A   1      39.338  32.909  39.236  1.00  0.00     0.010 A 
ATOM     64  C   UNL A   1      40.622  34.791  38.407  1.00  0.00     0.010 A 
ATOM     65  C   UNL A   1      39.044  33.622  40.401  1.00  0.00     0.020 A 
ATOM     66  C   UNL A   1      40.360  35.494  39.585  1.00  0.00     0.020 A 
ATOM     67  C   UNL A   1      39.554  34.913  40.566  1.00  0.00     0.054 A 
BRANCH  67  68
ATOM     68  S   UNL A   1      39.159  35.812  42.091  1.00  0.00     0.124 S 
ATOM     69  O   UNL A   1      37.776  35.405  42.329  1.00  0.00    -0.237 OA
ATOM     70  O   UNL A   1      40.140  35.286  43.036  1.00  0.00    -0.237 OA
ATOM     71  O   UNL A   1      39.340  37.214  41.724  1.00  0.00    -0.744 OA
ENDBRANCH  67  68
ENDBRANCH  48  62
BRANCH  49  72
ATOM     72  C   UNL A   1      41.714  28.942  29.442  1.00  0.00    -0.014 A 
ATOM     73  C   UNL A   1      42.331  29.635  28.387  1.00  0.00     0.010 A 
ATOM     74  C   UNL A   1      41.353  27.595  29.257  1.00  0.00     0.010 A 
ATOM     75  C   UNL A   1      42.569  28.999  27.165  1.00  0.00     0.020 A 
ATOM     76  C   UNL A   1      41.616  26.947  28.047  1.00  0.00     0.020 A 
ATOM     77  C   UNL A   1      42.215  27.657  27.005  1.00  0.00     0.054 A 
BRANCH  77  78
ATOM     78  S   UNL A   1      42.588  26.837  25.430  1.00  0.00     0.124 S 
ATOM     79  O   UNL A   1      43.848  26.165  25.728  1.00  0.00    -0.237 OA
ATOM     80  O   UNL A   1      41.431  25.964  25.250  1.00  0.00    -0.237 OA
ATOM     81  O   UNL A   1      42.677  27.944  24.481  1.00  0.00    -0.744 OA
ENDBRANCH  77  78
ENDBRANCH  49  72
BRANCH  61  82
ATOM     82  C   UNL A   1      45.173  29.115  35.504  1.00  0.00    -0.014 A 
ATOM     83  C   UNL A   1      46.436  29.693  35.285  1.00  0.00     0.010 A 
ATOM     84  C   UNL A   1      45.086  27.913  36.232  1.00  0.00     0.010 A 
ATOM     85  C   UNL A   1      47.591  29.064  35.758  1.00  0.00     0.020 A 
ATOM     86  C   UNL A   1      46.235  27.299  36.734  1.00  0.00     0.020 A 
ATOM     87  C   UNL A   1      47.482  27.872  36.482  1.00  0.00     0.054 A 
BRANCH  87  88
ATOM     88  S   UNL A   1      48.993  27.103  37.126  1.00  0.00     0.124 S 
ATOM     89  O   UNL A   1      49.390  28.040  38.172  1.00  0.00    -0.237 OA
ATOM     90  O   UNL A   1      48.514  25.804  37.593  1.00  0.00    -0.237 OA
ATOM     91  O   UNL A   1      49.879  27.053  35.966  1.00  0.00    -0.744 OA
ENDBRANCH  87  88
ENDBRANCH  61  82
ENDBRANCH  35  36
ENDBRANCH  27  30
ENDBRANCH  25  26
ENDBRANCH  24  25
ENDBRANCH   1  24
TORSDOF 17
ENDMDL
MODEL 3
REMARK VINA RESULT:     -10.9      1.167      2.200
REMARK SMILES C[C@H]1CCC[C@]1(C(=O)NCCCCCCNC(=O)c1ccc(-c2c3nc(c(-c4ccc(S(=O)(=O)[O-])cc4)c4ccc([nH]4)c(-c4ccc(S(=O)(=O)[O-])cc4)c4nc(c(-c5ccc(S(=O)(=O)[O-])cc5)c5ccc2[nH]5)C=C4)C=C3)cc1)c1ccc2c(c1)OCO2
REMARK SMILES IDX 13 1 12 2 11 3 10 4 9 5 7 6 8 7 6 9 1 10 2 11 3 12 4 13 5 14
REMARK SMILES IDX 79 15 80 16 84 17 81 18 83 19 82 20 85 21 87 22 86 23 14 24
REMARK SMILES IDX 15 25 16 26 17 27 18 29 19 30 20 31 78 32 21 33 77 34 22 35
REMARK SMILES IDX 23 36 24 37 71 38 25 39 76 40 70 41 72 42 26 43 75 44 69 45
REMARK SMILES IDX 68 46 27 48 57 49 38 50 56 51 39 52 42 53 55 54 73 55 40 56
REMARK SMILES IDX 41 57 54 59 74 60 43 61 28 62 29 63 37 64 30 65 36 66 31 67
REMARK SMILES IDX 32 68 33 69 34 70 35 71 58 72 59 73 67 74 60 75 66 76 61 77
REMARK SMILES IDX 62 78 63 79 64 80 65 81 44 82 45 83 53 84 46 85 52 86 47 87
REMARK SMILES IDX 48 88 49 89 50 90 51 91
REMARK H PARENT 9 8 16 28 72 47 42 58
REMARK Flexibility Score: inf
ROOT
ATOM      1  C   UNL A   1      34.623  22.899  26.019  1.00  0.00     0.002 C 
ENDROOT
BRANCH   1   2
ATOM      2  C   UNL A   1      33.391  23.122  26.902  1.00  0.00     0.002 C 
BRANCH   2   3
ATOM      3  C   UNL A   1      32.130  23.524  26.138  1.00  0.00     0.021 C 
BRANCH   3   4
ATOM      4  C   UNL A   1      31.449  24.758  26.709  1.00  0.00     0.116 C 
BRANCH   4   5
ATOM      5  N   UNL A   1      30.219  25.066  26.016  1.00  0.00    -0.355 N 
ATOM      6  C   UNL A   1      29.910  25.911  24.993  1.00  0.00     0.230 C 
ATOM      7  O   UNL A   1      28.760  25.751  24.566  1.00  0.00    -0.274 OA
ATOM      8  H   UNL A   1      29.445  24.561  26.353  1.00  0.00     0.163 HD
BRANCH   6   9
ATOM      9  C   UNL A   1      30.905  26.979  24.406  1.00  0.00     0.077 C 
ATOM     10  C   UNL A   1      32.032  24.982  23.090  1.00  0.00     0.009 C 
ATOM     11  C   UNL A   1      31.767  26.480  23.188  1.00  0.00     0.006 C 
ATOM     12  C   UNL A   1      31.177  27.099  21.926  1.00  0.00     0.005 C 
ATOM     13  C   UNL A   1      30.523  28.393  22.396  1.00  0.00     0.002 C 
ATOM     14  C   UNL A   1      30.078  28.176  23.847  1.00  0.00     0.022 C 
BRANCH   9  15
ATOM     15  C   UNL A   1      31.995  27.478  25.421  1.00  0.00    -0.028 A 
ATOM     16  C   UNL A   1      33.350  27.058  25.348  1.00  0.00     0.009 A 
ATOM     17  C   UNL A   1      31.703  28.592  26.245  1.00  0.00     0.055 A 
ATOM     18  C   UNL A   1      34.376  27.727  26.030  1.00  0.00     0.051 A 
ATOM     19  C   UNL A   1      32.739  29.273  26.840  1.00  0.00     0.166 A 
ATOM     20  C   UNL A   1      34.042  28.862  26.726  1.00  0.00     0.165 A 
ATOM     21  O   UNL A   1      32.624  30.468  27.481  1.00  0.00    -0.454 OA
ATOM     22  O   UNL A   1      34.907  29.752  27.284  1.00  0.00    -0.454 OA
ATOM     23  C   UNL A   1      34.009  30.863  27.495  1.00  0.00     0.468 C 
ENDBRANCH   9  15
ENDBRANCH   6   9
ENDBRANCH   4   5
ENDBRANCH   3   4
ENDBRANCH   2   3
ENDBRANCH   1   2
BRANCH   1  24
ATOM     24  C   UNL A   1      35.692  23.991  26.123  1.00  0.00     0.021 C 
BRANCH  24  25
ATOM     25  C   UNL A   1      36.843  23.823  25.138  1.00  0.00     0.116 C 
BRANCH  25  26
ATOM     26  N   UNL A   1      37.765  22.788  25.575  1.00  0.00    -0.352 N 
ATOM     27  C   UNL A   1      38.974  22.925  26.207  1.00  0.00     0.251 C 
ATOM     28  H   UNL A   1      37.482  21.863  25.394  1.00  0.00     0.163 HD
ATOM     29  O   UNL A   1      39.757  21.986  26.258  1.00  0.00    -0.269 OA
BRANCH  27  30
ATOM     30  C   UNL A   1      39.314  24.224  26.819  1.00  0.00     0.039 A 
ATOM     31  C   UNL A   1      38.920  24.485  28.132  1.00  0.00     0.014 A 
ATOM     32  C   UNL A   1      40.031  25.177  26.088  1.00  0.00     0.014 A 
ATOM     33  C   UNL A   1      39.287  25.691  28.729  1.00  0.00     0.010 A 
ATOM     34  C   UNL A   1      40.464  26.339  26.710  1.00  0.00     0.010 A 
ATOM     35  C   UNL A   1      40.086  26.614  28.033  1.00  0.00    -0.014 A 
BRANCH  35  36
ATOM     36  C   UNL A   1      40.529  27.881  28.662  1.00  0.00     0.031 A 
ATOM     37  C   UNL A   1      41.923  27.997  29.216  1.00  0.00     0.074 A 
ATOM     38  C   UNL A   1      39.658  28.900  28.793  1.00  0.00     0.049 A 
ATOM     39  N   UNL A   1      42.475  28.994  29.857  1.00  0.00    -0.248 NA
ATOM     40  C   UNL A   1      42.804  26.828  29.051  1.00  0.00     0.031 C 
ATOM     41  C   UNL A   1      38.269  28.893  28.325  1.00  0.00     0.029 A 
ATOM     42  N   UNL A   1      39.810  30.139  29.361  1.00  0.00    -0.354 N 
ATOM     43  C   UNL A   1      43.759  28.568  30.182  1.00  0.00     0.074 A 
ATOM     44  C   UNL A   1      43.880  27.203  29.723  1.00  0.00     0.031 C 
ATOM     45  C   UNL A   1      37.709  30.083  28.594  1.00  0.00     0.029 A 
ATOM     46  C   UNL A   1      38.679  30.918  29.296  1.00  0.00     0.049 A 
ATOM     47  H   UNL A   1      40.649  30.442  29.777  1.00  0.00     0.167 HD
ATOM     48  C   UNL A   1      44.753  29.260  30.788  1.00  0.00     0.031 A 
ATOM     49  C   UNL A   1      38.448  32.163  29.755  1.00  0.00     0.031 A 
ATOM     50  C   UNL A   1      44.623  30.619  31.243  1.00  0.00     0.049 A 
ATOM     51  C   UNL A   1      39.556  32.900  30.456  1.00  0.00     0.074 A 
ATOM     52  C   UNL A   1      45.580  31.426  31.830  1.00  0.00     0.029 A 
ATOM     53  N   UNL A   1      43.459  31.371  31.164  1.00  0.00    -0.354 N 
ATOM     54  N   UNL A   1      40.782  32.503  30.704  1.00  0.00    -0.248 NA
ATOM     55  C   UNL A   1      39.253  34.257  30.928  1.00  0.00     0.031 C 
ATOM     56  C   UNL A   1      44.979  32.644  32.163  1.00  0.00     0.029 A 
ATOM     57  C   UNL A   1      43.666  32.623  31.718  1.00  0.00     0.049 A 
ATOM     58  H   UNL A   1      42.610  31.059  30.773  1.00  0.00     0.167 HD
ATOM     59  C   UNL A   1      41.407  33.575  31.332  1.00  0.00     0.074 A 
ATOM     60  C   UNL A   1      40.426  34.639  31.414  1.00  0.00     0.031 C 
ATOM     61  C   UNL A   1      42.678  33.671  31.795  1.00  0.00     0.031 A 
BRANCH  48  62
ATOM     62  C   UNL A   1      46.063  28.546  31.002  1.00  0.00    -0.014 A 
ATOM     63  C   UNL A   1      47.093  28.608  30.043  1.00  0.00     0.010 A 
ATOM     64  C   UNL A   1      46.279  27.816  32.185  1.00  0.00     0.010 A 
ATOM     65  C   UNL A   1      48.287  27.909  30.237  1.00  0.00     0.020 A 
ATOM     66  C   UNL A   1      47.486  27.144  32.399  1.00  0.00     0.020 A 
ATOM     67  C   UNL A   1      48.474  27.177  31.413  1.00  0.00     0.054 A 
BRANCH  67  68
ATOM     68  S   UNL A   1      50.035  26.283  31.639  1.00  0.00     0.124 S 
ATOM     69  O   UNL A   1      50.273  26.452  33.071  1.00  0.00    -0.237 OA
ATOM     70  O   UNL A   1      49.692  24.928  31.215  1.00  0.00    -0.237 OA
ATOM     71  O   UNL A   1      50.969  26.989  30.766  1.00  0.00    -0.744 OA
ENDBRANCH  67  68
ENDBRANCH  48  62
BRANCH  49  72
ATOM     72  C   UNL A   1      37.116  32.796  29.543  1.00  0.00    -0.014 A 
ATOM     73  C   UNL A   1      36.107  32.673  30.513  1.00  0.00     0.010 A 
ATOM     74  C   UNL A   1      36.860  33.547  28.381  1.00  0.00     0.010 A 
ATOM     75  C   UNL A   1      34.861  33.275  30.320  1.00  0.00     0.020 A 
ATOM     76  C   UNL A   1      35.625  34.176  28.198  1.00  0.00     0.020 A 
ATOM     77  C   UNL A   1      34.630  34.027  29.165  1.00  0.00     0.054 A 
BRANCH  77  78
ATOM     78  S   UNL A   1      33.024  34.848  28.964  1.00  0.00     0.124 S 
ATOM     79  O   UNL A   1      33.410  36.137  28.400  1.00  0.00    -0.237 OA
ATOM     80  O   UNL A   1      32.321  33.944  28.058  1.00  0.00    -0.237 OA
ATOM     81  O   UNL A   1      32.490  34.893  30.323  1.00  0.00    -0.744 OA
ENDBRANCH  77  78
ENDBRANCH  49  72
BRANCH  61  82
ATOM     82  C   UNL A   1      43.101  34.986  32.396  1.00  0.00    -0.014 A 
ATOM     83  C   UNL A   1      43.718  35.982  31.620  1.00  0.00     0.010 A 
ATOM     84  C   UNL A   1      42.820  35.247  33.751  1.00  0.00     0.010 A 
ATOM     85  C   UNL A   1      44.075  37.205  32.197  1.00  0.00     0.020 A 
ATOM     86  C   UNL A   1      43.147  36.478  34.322  1.00  0.00     0.020 A 
ATOM     87  C   UNL A   1      43.785  37.445  33.543  1.00  0.00     0.054 A 
BRANCH  87  88
ATOM     88  S   UNL A   1      44.216  39.057  34.254  1.00  0.00     0.124 S 
ATOM     89  O   UNL A   1      44.332  38.743  35.674  1.00  0.00    -0.237 OA
ATOM     90  O   UNL A   1      45.470  39.379  33.576  1.00  0.00    -0.237 OA
ATOM     91  O   UNL A   1      43.085  39.909  33.895  1.00  0.00    -0.744 OA
ENDBRANCH  87  88
ENDBRANCH  61  82
ENDBRANCH  35  36
ENDBRANCH  27  30
ENDBRANCH  25  26
ENDBRANCH  24  25
ENDBRANCH   1  24
TORSDOF 17
ENDMDL
