MODEL 1
REMARK VINA RESULT:     -11.3      0.000      0.000
REMARK SMILES Cc1nn(C)c(C)c1CNC(=O)N[C@H]1CC[C@@H](C(=O)NCCCCCCNC(=O)c2ccc(-c3c4nc(c(-c5ccc(S(=O)(=O)[O-])cc5)c5ccc([nH]5)c(-c5ccc(S(=O)(=O)[O-])cc5)c5nc(c(-c6ccc(S(=O)(=O)[O-])cc6)c6ccc3[nH]6)C=C5)C=C4)cc2)C1
REMARK SMILES IDX 23 1 22 2 21 3 20 4 18 5 19 6 17 8 14 9 15 10 90 11 16 12
REMARK SMILES IDX 13 13 10 14 11 15 12 17 9 19 8 20 1 21 2 22 3 23 4 24 6 25
REMARK SMILES IDX 5 26 7 27 24 28 25 29 26 30 27 31 28 32 29 34 30 35 31 36
REMARK SMILES IDX 89 37 32 38 88 39 33 40 34 41 35 42 82 43 36 44 87 45 81 46
REMARK SMILES IDX 83 47 37 48 86 49 80 50 79 51 38 53 68 54 49 55 67 56 50 57
REMARK SMILES IDX 53 58 66 59 84 60 51 61 52 62 65 64 85 65 54 66 39 67 40 68
REMARK SMILES IDX 48 69 41 70 47 71 42 72 43 73 44 74 45 75 46 76 69 77 70 78
REMARK SMILES IDX 78 79 71 80 77 81 72 82 73 83 74 84 75 85 76 86 55 87 56 88
REMARK SMILES IDX 64 89 57 90 63 91 58 92 59 93 60 94 61 95 62 96
REMARK H PARENT 20 7 10 16 13 18 27 33 83 52 53 63
REMARK Flexibility Score: inf
ROOT
ATOM      1  C   UNL A   1      39.997  20.813  26.237  1.00  0.00     0.002 C 
ENDROOT
BRANCH   1   2
ATOM      2  C   UNL A   1      39.135  22.078  26.201  1.00  0.00     0.021 C 
BRANCH   2   3
ATOM      3  C   UNL A   1      37.840  21.947  25.401  1.00  0.00     0.116 C 
BRANCH   3   4
ATOM      4  N   UNL A   1      36.670  21.764  26.232  1.00  0.00    -0.356 N 
ATOM      5  C   UNL A   1      35.341  21.834  25.982  1.00  0.00     0.223 C 
ATOM      6  O   UNL A   1      34.602  21.445  26.897  1.00  0.00    -0.275 OA
ATOM      7  H   UNL A   1      36.883  21.545  27.168  1.00  0.00     0.163 HD
BRANCH   5   8
ATOM      8  C   UNL A   1      34.689  22.291  24.674  1.00  0.00     0.080 C 
ATOM      9  C   UNL A   1      32.397  23.041  24.191  1.00  0.00     0.084 C 
ATOM     10  C   UNL A   1      33.381  24.117  23.736  1.00  0.00     0.026 C 
ATOM     11  C   UNL A   1      33.307  21.797  24.230  1.00  0.00     0.038 C 
ATOM     12  C   UNL A   1      34.637  23.823  24.560  1.00  0.00     0.015 C 
BRANCH   9  13
ATOM     13  N   UNL A   1      31.849  23.442  25.487  1.00  0.00    -0.335 N 
ATOM     14  N   UNL A   1      30.037  24.906  25.123  1.00  0.00    -0.334 N 
ATOM     15  C   UNL A   1      30.789  24.139  25.910  1.00  0.00     0.315 C 
ATOM     16  H   UNL A   1      29.083  24.939  25.363  1.00  0.00     0.165 HD
ATOM     17  O   UNL A   1      30.474  24.012  27.093  1.00  0.00    -0.249 OA
ATOM     18  H   UNL A   1      32.398  23.117  26.236  1.00  0.00     0.165 HD
BRANCH  14  19
ATOM     19  C   UNL A   1      30.405  25.691  23.979  1.00  0.00     0.157 C 
BRANCH  19  20
ATOM     20  C   UNL A   1      30.792  27.081  24.352  1.00  0.00     0.015 A 
ATOM     21  C   UNL A   1      29.025  28.337  22.874  1.00  0.00     0.069 C 
ATOM     22  C   UNL A   1      30.158  28.248  23.829  1.00  0.00     0.065 A 
ATOM     23  N   UNL A   1      30.710  29.369  24.295  1.00  0.00    -0.178 NA
ATOM     24  N   UNL A   1      31.722  28.946  25.066  1.00  0.00    -0.272 N 
ATOM     25  C   UNL A   1      31.762  27.581  25.217  1.00  0.00     0.040 A 
ATOM     26  C   UNL A   1      32.622  29.943  25.599  1.00  0.00     0.174 C 
ATOM     27  C   UNL A   1      32.733  26.914  26.123  1.00  0.00     0.067 C 
ENDBRANCH  19  20
ENDBRANCH  14  19
ENDBRANCH   9  13
ENDBRANCH   5   8
ENDBRANCH   3   4
ENDBRANCH   2   3
ENDBRANCH   1   2
BRANCH   1  28
ATOM     28  C   UNL A   1      41.405  20.979  26.821  1.00  0.00     0.002 C 
BRANCH  28  29
ATOM     29  C   UNL A   1      41.568  22.067  27.886  1.00  0.00     0.021 C 
BRANCH  29  30
ATOM     30  C   UNL A   1      42.649  23.108  27.622  1.00  0.00     0.116 C 
BRANCH  30  31
ATOM     31  N   UNL A   1      42.414  23.857  26.401  1.00  0.00    -0.352 N 
ATOM     32  C   UNL A   1      41.898  25.111  26.213  1.00  0.00     0.251 C 
ATOM     33  H   UNL A   1      42.665  23.386  25.573  1.00  0.00     0.163 HD
ATOM     34  O   UNL A   1      41.621  25.480  25.070  1.00  0.00    -0.269 OA
BRANCH  32  35
ATOM     35  C   UNL A   1      41.658  26.023  27.355  1.00  0.00     0.039 A 
ATOM     36  C   UNL A   1      42.545  27.086  27.556  1.00  0.00     0.014 A 
ATOM     37  C   UNL A   1      40.612  25.815  28.259  1.00  0.00     0.014 A 
ATOM     38  C   UNL A   1      42.361  27.958  28.632  1.00  0.00     0.010 A 
ATOM     39  C   UNL A   1      40.384  26.728  29.288  1.00  0.00     0.010 A 
ATOM     40  C   UNL A   1      41.265  27.800  29.495  1.00  0.00    -0.014 A 
BRANCH  40  41
ATOM     41  C   UNL A   1      41.045  28.737  30.628  1.00  0.00     0.031 A 
ATOM     42  C   UNL A   1      41.900  28.649  31.866  1.00  0.00     0.074 A 
ATOM     43  C   UNL A   1      40.051  29.646  30.562  1.00  0.00     0.049 A 
ATOM     44  N   UNL A   1      41.840  29.361  32.963  1.00  0.00    -0.248 NA
ATOM     45  C   UNL A   1      42.941  27.609  31.884  1.00  0.00     0.031 C 
ATOM     46  C   UNL A   1      39.125  29.806  29.438  1.00  0.00     0.029 A 
ATOM     47  N   UNL A   1      39.652  30.605  31.459  1.00  0.00    -0.354 N 
ATOM     48  C   UNL A   1      42.822  28.849  33.803  1.00  0.00     0.074 A 
ATOM     49  C   UNL A   1      43.428  27.732  33.111  1.00  0.00     0.031 C 
ATOM     50  C   UNL A   1      38.287  30.821  29.701  1.00  0.00     0.029 A 
ATOM     51  C   UNL A   1      38.591  31.361  31.021  1.00  0.00     0.049 A 
ATOM     52  H   UNL A   1      40.086  30.738  32.332  1.00  0.00     0.167 HD
ATOM     53  C   UNL A   1      43.202  29.279  35.031  1.00  0.00     0.031 A 
ATOM     54  C   UNL A   1      37.934  32.376  31.616  1.00  0.00     0.031 A 
ATOM     55  C   UNL A   1      42.608  30.398  35.714  1.00  0.00     0.049 A 
ATOM     56  C   UNL A   1      38.381  32.844  32.973  1.00  0.00     0.074 A 
ATOM     57  C   UNL A   1      42.954  30.941  36.939  1.00  0.00     0.029 A 
ATOM     58  N   UNL A   1      41.549  31.149  35.228  1.00  0.00    -0.354 N 
ATOM     59  N   UNL A   1      39.349  32.380  33.727  1.00  0.00    -0.248 NA
ATOM     60  C   UNL A   1      37.657  33.985  33.552  1.00  0.00     0.031 C 
ATOM     61  C   UNL A   1      42.074  31.994  37.214  1.00  0.00     0.029 A 
ATOM     62  C   UNL A   1      41.216  32.142  36.135  1.00  0.00     0.049 A 
ATOM     63  H   UNL A   1      41.098  30.998  34.366  1.00  0.00     0.167 HD
ATOM     64  C   UNL A   1      39.367  33.189  34.858  1.00  0.00     0.074 A 
ATOM     65  C   UNL A   1      38.326  34.180  34.680  1.00  0.00     0.031 C 
ATOM     66  C   UNL A   1      40.174  33.118  35.945  1.00  0.00     0.031 A 
BRANCH  53  67
ATOM     67  C   UNL A   1      44.317  28.530  35.715  1.00  0.00    -0.014 A 
ATOM     68  C   UNL A   1      44.086  27.278  36.315  1.00  0.00     0.010 A 
ATOM     69  C   UNL A   1      45.616  29.067  35.734  1.00  0.00     0.010 A 
ATOM     70  C   UNL A   1      45.123  26.601  36.962  1.00  0.00     0.020 A 
ATOM     71  C   UNL A   1      46.663  28.379  36.356  1.00  0.00     0.020 A 
ATOM     72  C   UNL A   1      46.404  27.158  36.983  1.00  0.00     0.054 A 
BRANCH  72  73
ATOM     73  S   UNL A   1      47.734  26.253  37.821  1.00  0.00     0.124 S 
ATOM     74  O   UNL A   1      48.569  27.342  38.323  1.00  0.00    -0.237 OA
ATOM     75  O   UNL A   1      47.014  25.495  38.841  1.00  0.00    -0.237 OA
ATOM     76  O   UNL A   1      48.331  25.450  36.759  1.00  0.00    -0.744 OA
ENDBRANCH  72  73
ENDBRANCH  53  67
BRANCH  54  77
ATOM     77  C   UNL A   1      36.796  33.033  30.917  1.00  0.00    -0.014 A 
ATOM     78  C   UNL A   1      35.475  32.827  31.351  1.00  0.00     0.010 A 
ATOM     79  C   UNL A   1      37.031  33.883  29.821  1.00  0.00     0.010 A 
ATOM     80  C   UNL A   1      34.407  33.442  30.690  1.00  0.00     0.020 A 
ATOM     81  C   UNL A   1      35.969  34.521  29.174  1.00  0.00     0.020 A 
ATOM     82  C   UNL A   1      34.662  34.286  29.605  1.00  0.00     0.054 A 
BRANCH  82  83
ATOM     83  S   UNL A   1      33.268  35.116  28.793  1.00  0.00     0.124 S 
ATOM     84  O   UNL A   1      32.466  35.548  29.933  1.00  0.00    -0.237 OA
ATOM     85  O   UNL A   1      33.927  36.181  28.040  1.00  0.00    -0.237 OA
ATOM     86  O   UNL A   1      32.675  34.061  27.973  1.00  0.00    -0.744 OA
ENDBRANCH  82  83
ENDBRANCH  54  77
BRANCH  66  87
ATOM     87  C   UNL A   1      39.987  34.164  37.013  1.00  0.00    -0.014 A 
ATOM     88  C   UNL A   1      40.695  35.379  36.975  1.00  0.00     0.010 A 
ATOM     89  C   UNL A   1      39.062  33.940  38.048  1.00  0.00     0.010 A 
ATOM     90  C   UNL A   1      40.510  36.334  37.978  1.00  0.00     0.020 A 
ATOM     91  C   UNL A   1      38.854  34.903  39.038  1.00  0.00     0.020 A 
ATOM     92  C   UNL A   1      39.594  36.088  39.006  1.00  0.00     0.054 A 
BRANCH  92  93
ATOM     93  S   UNL A   1      39.351  37.353  40.283  1.00  0.00     0.124 S 
ATOM     94  O   UNL A   1      38.513  38.327  39.590  1.00  0.00    -0.237 OA
ATOM     95  O   UNL A   1      38.695  36.608  41.355  1.00  0.00    -0.237 OA
ATOM     96  O   UNL A   1      40.709  37.803  40.587  1.00  0.00    -0.744 OA
ENDBRANCH  92  93
ENDBRANCH  66  87
ENDBRANCH  40  41
ENDBRANCH  32  35
ENDBRANCH  30  31
ENDBRANCH  29  30
ENDBRANCH  28  29
ENDBRANCH   1  28
TORSDOF 19
ENDMDL
MODEL 2
REMARK VINA RESULT:     -11.0      1.234      1.896
REMARK SMILES Cc1nn(C)c(C)c1CNC(=O)N[C@H]1CC[C@@H](C(=O)NCCCCCCNC(=O)c2ccc(-c3c4nc(c(-c5ccc(S(=O)(=O)[O-])cc5)c5ccc([nH]5)c(-c5ccc(S(=O)(=O)[O-])cc5)c5nc(c(-c6ccc(S(=O)(=O)[O-])cc6)c6ccc3[nH]6)C=C5)C=C4)cc2)C1
REMARK SMILES IDX 23 1 22 2 21 3 20 4 18 5 19 6 17 8 14 9 15 10 90 11 16 12
REMARK SMILES IDX 13 13 10 14 11 15 12 17 9 19 8 20 1 21 2 22 3 23 4 24 6 25
REMARK SMILES IDX 5 26 7 27 24 28 25 29 26 30 27 31 28 32 29 34 30 35 31 36
REMARK SMILES IDX 89 37 32 38 88 39 33 40 34 41 35 42 82 43 36 44 87 45 81 46
REMARK SMILES IDX 83 47 37 48 86 49 80 50 79 51 38 53 68 54 49 55 67 56 50 57
REMARK SMILES IDX 53 58 66 59 84 60 51 61 52 62 65 64 85 65 54 66 39 67 40 68
REMARK SMILES IDX 48 69 41 70 47 71 42 72 43 73 44 74 45 75 46 76 69 77 70 78
REMARK SMILES IDX 78 79 71 80 77 81 72 82 73 83 74 84 75 85 76 86 55 87 56 88
REMARK SMILES IDX 64 89 57 90 63 91 58 92 59 93 60 94 61 95 62 96
REMARK H PARENT 20 7 10 16 13 18 27 33 83 52 53 63
REMARK Flexibility Score: inf
ROOT
ATOM      1  C   UNL A   1      39.662  21.382  26.397  1.00  0.00     0.002 C 
ENDROOT
BRANCH   1   2
ATOM      2  C   UNL A   1      39.179  20.088  25.737  1.00  0.00     0.021 C 
BRANCH   2   3
ATOM      3  C   UNL A   1      37.800  20.176  25.087  1.00  0.00     0.116 C 
BRANCH   3   4
ATOM      4  N   UNL A   1      37.610  21.380  24.308  1.00  0.00    -0.356 N 
ATOM      5  C   UNL A   1      36.640  22.324  24.291  1.00  0.00     0.223 C 
ATOM      6  O   UNL A   1      36.881  23.329  23.607  1.00  0.00    -0.275 OA
ATOM      7  H   UNL A   1      38.331  21.545  23.658  1.00  0.00     0.163 HD
BRANCH   5   8
ATOM      8  C   UNL A   1      35.322  22.282  25.071  1.00  0.00     0.080 C 
ATOM      9  C   UNL A   1      33.299  23.668  24.892  1.00  0.00     0.084 C 
ATOM     10  C   UNL A   1      32.913  22.199  24.733  1.00  0.00     0.026 C 
ATOM     11  C   UNL A   1      34.653  23.548  25.619  1.00  0.00     0.038 C 
ATOM     12  C   UNL A   1      34.222  21.532  24.303  1.00  0.00     0.015 C 
BRANCH   9  13
ATOM     13  N   UNL A   1      33.368  24.270  23.560  1.00  0.00    -0.335 N 
ATOM     14  N   UNL A   1      33.545  26.609  23.793  1.00  0.00    -0.334 N 
ATOM     15  C   UNL A   1      33.581  25.494  23.067  1.00  0.00     0.315 C 
ATOM     16  H   UNL A   1      34.172  27.313  23.507  1.00  0.00     0.165 HD
ATOM     17  O   UNL A   1      33.875  25.572  21.874  1.00  0.00    -0.249 OA
ATOM     18  H   UNL A   1      33.219  23.607  22.848  1.00  0.00     0.165 HD
BRANCH  14  19
ATOM     19  C   UNL A   1      32.734  26.942  24.931  1.00  0.00     0.157 C 
BRANCH  19  20
ATOM     20  C   UNL A   1      31.901  28.153  24.691  1.00  0.00     0.015 A 
ATOM     21  C   UNL A   1      32.830  29.605  26.669  1.00  0.00     0.069 C 
ATOM     22  C   UNL A   1      31.961  29.329  25.497  1.00  0.00     0.065 A 
ATOM     23  N   UNL A   1      31.092  30.257  25.095  1.00  0.00    -0.178 NA
ATOM     24  N   UNL A   1      30.436  29.681  24.078  1.00  0.00    -0.272 N 
ATOM     25  C   UNL A   1      30.943  28.452  23.726  1.00  0.00     0.040 A 
ATOM     26  C   UNL A   1      29.306  30.388  23.520  1.00  0.00     0.174 C 
ATOM     27  C   UNL A   1      30.437  27.696  22.551  1.00  0.00     0.067 C 
ENDBRANCH  19  20
ENDBRANCH  14  19
ENDBRANCH   9  13
ENDBRANCH   5   8
ENDBRANCH   3   4
ENDBRANCH   2   3
ENDBRANCH   1   2
BRANCH   1  28
ATOM     28  C   UNL A   1      40.962  21.278  27.205  1.00  0.00     0.002 C 
BRANCH  28  29
ATOM     29  C   UNL A   1      41.297  22.477  28.096  1.00  0.00     0.021 C 
BRANCH  29  30
ATOM     30  C   UNL A   1      42.394  23.405  27.587  1.00  0.00     0.116 C 
BRANCH  30  31
ATOM     31  N   UNL A   1      42.002  24.125  26.390  1.00  0.00    -0.352 N 
ATOM     32  C   UNL A   1      41.383  25.337  26.245  1.00  0.00     0.251 C 
ATOM     33  H   UNL A   1      42.215  23.667  25.544  1.00  0.00     0.163 HD
ATOM     34  O   UNL A   1      40.983  25.677  25.129  1.00  0.00    -0.269 OA
BRANCH  32  35
ATOM     35  C   UNL A   1      41.177  26.239  27.402  1.00  0.00     0.039 A 
ATOM     36  C   UNL A   1      42.073  27.297  27.589  1.00  0.00     0.014 A 
ATOM     37  C   UNL A   1      40.154  26.026  28.331  1.00  0.00     0.014 A 
ATOM     38  C   UNL A   1      41.920  28.159  28.679  1.00  0.00     0.010 A 
ATOM     39  C   UNL A   1      39.957  26.929  29.375  1.00  0.00     0.010 A 
ATOM     40  C   UNL A   1      40.847  27.996  29.569  1.00  0.00    -0.014 A 
BRANCH  40  41
ATOM     41  C   UNL A   1      40.660  28.922  30.717  1.00  0.00     0.031 A 
ATOM     42  C   UNL A   1      41.514  28.787  31.951  1.00  0.00     0.074 A 
ATOM     43  C   UNL A   1      39.697  29.864  30.666  1.00  0.00     0.049 A 
ATOM     44  N   UNL A   1      41.479  29.483  33.059  1.00  0.00    -0.248 NA
ATOM     45  C   UNL A   1      42.520  27.713  31.950  1.00  0.00     0.031 C 
ATOM     46  C   UNL A   1      38.775  30.073  29.547  1.00  0.00     0.029 A 
ATOM     47  N   UNL A   1      39.332  30.822  31.578  1.00  0.00    -0.354 N 
ATOM     48  C   UNL A   1      42.445  28.926  33.889  1.00  0.00     0.074 A 
ATOM     49  C   UNL A   1      43.012  27.801  33.178  1.00  0.00     0.031 C 
ATOM     50  C   UNL A   1      37.971  31.111  29.827  1.00  0.00     0.029 A 
ATOM     51  C   UNL A   1      38.295  31.620  31.155  1.00  0.00     0.049 A 
ATOM     52  H   UNL A   1      39.771  30.928  32.453  1.00  0.00     0.167 HD
ATOM     53  C   UNL A   1      42.842  29.325  35.122  1.00  0.00     0.031 A 
ATOM     54  C   UNL A   1      37.674  32.648  31.767  1.00  0.00     0.031 A 
ATOM     55  C   UNL A   1      42.287  30.452  35.823  1.00  0.00     0.049 A 
ATOM     56  C   UNL A   1      38.139  33.079  33.130  1.00  0.00     0.074 A 
ATOM     57  C   UNL A   1      42.652  30.964  37.056  1.00  0.00     0.029 A 
ATOM     58  N   UNL A   1      41.252  31.245  35.352  1.00  0.00    -0.354 N 
ATOM     59  N   UNL A   1      39.092  32.572  33.875  1.00  0.00    -0.248 NA
ATOM     60  C   UNL A   1      37.454  34.234  33.728  1.00  0.00     0.031 C 
ATOM     61  C   UNL A   1      41.808  32.042  37.348  1.00  0.00     0.029 A 
ATOM     62  C   UNL A   1      40.955  32.235  36.274  1.00  0.00     0.049 A 
ATOM     63  H   UNL A   1      40.795  31.122  34.488  1.00  0.00     0.167 HD
ATOM     64  C   UNL A   1      39.139  33.362  35.017  1.00  0.00     0.074 A 
ATOM     65  C   UNL A   1      38.131  34.390  34.857  1.00  0.00     0.031 C 
ATOM     66  C   UNL A   1      39.946  33.248  36.102  1.00  0.00     0.031 A 
BRANCH  53  67
ATOM     67  C   UNL A   1      43.932  28.528  35.792  1.00  0.00    -0.014 A 
ATOM     68  C   UNL A   1      45.287  28.859  35.610  1.00  0.00     0.010 A 
ATOM     69  C   UNL A   1      43.598  27.454  36.636  1.00  0.00     0.010 A 
ATOM     70  C   UNL A   1      46.290  28.102  36.222  1.00  0.00     0.020 A 
ATOM     71  C   UNL A   1      44.598  26.711  37.273  1.00  0.00     0.020 A 
ATOM     72  C   UNL A   1      45.939  27.029  37.046  1.00  0.00     0.054 A 
BRANCH  72  73
ATOM     73  S   UNL A   1      47.260  26.069  37.835  1.00  0.00     0.124 S 
ATOM     74  O   UNL A   1      46.598  24.789  38.078  1.00  0.00    -0.237 OA
ATOM     75  O   UNL A   1      48.301  26.051  36.811  1.00  0.00    -0.237 OA
ATOM     76  O   UNL A   1      47.582  26.840  39.032  1.00  0.00    -0.744 OA
ENDBRANCH  72  73
ENDBRANCH  53  67
BRANCH  54  77
ATOM     77  C   UNL A   1      36.558  33.353  31.080  1.00  0.00    -0.014 A 
ATOM     78  C   UNL A   1      35.319  33.526  31.722  1.00  0.00     0.010 A 
ATOM     79  C   UNL A   1      36.734  33.870  29.784  1.00  0.00     0.010 A 
ATOM     80  C   UNL A   1      34.270  34.185  31.073  1.00  0.00     0.020 A 
ATOM     81  C   UNL A   1      35.698  34.553  29.143  1.00  0.00     0.020 A 
ATOM     82  C   UNL A   1      34.467  34.695  29.786  1.00  0.00     0.054 A 
BRANCH  82  83
ATOM     83  S   UNL A   1      33.111  35.593  28.982  1.00  0.00     0.124 S 
ATOM     84  O   UNL A   1      32.483  34.543  28.186  1.00  0.00    -0.237 OA
ATOM     85  O   UNL A   1      32.332  36.077  30.120  1.00  0.00    -0.237 OA
ATOM     86  O   UNL A   1      33.797  36.633  28.219  1.00  0.00    -0.744 OA
ENDBRANCH  82  83
ENDBRANCH  54  77
BRANCH  66  87
ATOM     87  C   UNL A   1      39.795  34.283  37.185  1.00  0.00    -0.014 A 
ATOM     88  C   UNL A   1      40.318  35.580  37.033  1.00  0.00     0.010 A 
ATOM     89  C   UNL A   1      39.089  33.961  38.358  1.00  0.00     0.010 A 
ATOM     90  C   UNL A   1      40.171  36.524  38.052  1.00  0.00     0.020 A 
ATOM     91  C   UNL A   1      38.917  34.910  39.368  1.00  0.00     0.020 A 
ATOM     92  C   UNL A   1      39.476  36.181  39.216  1.00  0.00     0.054 A 
BRANCH  92  93
ATOM     93  S   UNL A   1      39.276  37.431  40.515  1.00  0.00     0.124 S 
ATOM     94  O   UNL A   1      40.611  38.019  40.579  1.00  0.00    -0.237 OA
ATOM     95  O   UNL A   1      38.232  38.297  39.972  1.00  0.00    -0.237 OA
ATOM     96  O   UNL A   1      38.881  36.652  41.688  1.00  0.00    -0.744 OA
ENDBRANCH  92  93
ENDBRANCH  66  87
ENDBRANCH  40  41
ENDBRANCH  32  35
ENDBRANCH  30  31
ENDBRANCH  29  30
ENDBRANCH  28  29
ENDBRANCH   1  28
TORSDOF 19
ENDMDL
MODEL 3
REMARK VINA RESULT:     -10.9      1.288      1.959
REMARK SMILES Cc1nn(C)c(C)c1CNC(=O)N[C@H]1CC[C@@H](C(=O)NCCCCCCNC(=O)c2ccc(-c3c4nc(c(-c5ccc(S(=O)(=O)[O-])cc5)c5ccc([nH]5)c(-c5ccc(S(=O)(=O)[O-])cc5)c5nc(c(-c6ccc(S(=O)(=O)[O-])cc6)c6ccc3[nH]6)C=C5)C=C4)cc2)C1
REMARK SMILES IDX 23 1 22 2 21 3 20 4 18 5 19 6 17 8 14 9 15 10 90 11 16 12
REMARK SMILES IDX 13 13 10 14 11 15 12 17 9 19 8 20 1 21 2 22 3 23 4 24 6 25
REMARK SMILES IDX 5 26 7 27 24 28 25 29 26 30 27 31 28 32 29 34 30 35 31 36
REMARK SMILES IDX 89 37 32 38 88 39 33 40 34 41 35 42 82 43 36 44 87 45 81 46
REMARK SMILES IDX 83 47 37 48 86 49 80 50 79 51 38 53 68 54 49 55 67 56 50 57
REMARK SMILES IDX 53 58 66 59 84 60 51 61 52 62 65 64 85 65 54 66 39 67 40 68
REMARK SMILES IDX 48 69 41 70 47 71 42 72 43 73 44 74 45 75 46 76 69 77 70 78
REMARK SMILES IDX 78 79 71 80 77 81 72 82 73 83 74 84 75 85 76 86 55 87 56 88
REMARK SMILES IDX 64 89 57 90 63 91 58 92 59 93 60 94 61 95 62 96
REMARK H PARENT 20 7 10 16 13 18 27 33 83 52 53 63
REMARK Flexibility Score: inf
ROOT
ATOM      1  C   UNL A   1      41.145  21.625  27.549  1.00  0.00     0.002 C 
ENDROOT
BRANCH   1   2
ATOM      2  C   UNL A   1      40.151  21.506  26.390  1.00  0.00     0.021 C 
BRANCH   2   3
ATOM      3  C   UNL A   1      38.971  22.474  26.457  1.00  0.00     0.116 C 
BRANCH   3   4
ATOM      4  N   UNL A   1      38.347  22.706  25.173  1.00  0.00    -0.356 N 
ATOM      5  C   UNL A   1      37.056  22.778  24.774  1.00  0.00     0.223 C 
ATOM      6  O   UNL A   1      36.873  23.167  23.612  1.00  0.00    -0.275 OA
ATOM      7  H   UNL A   1      38.992  22.836  24.440  1.00  0.00     0.163 HD
BRANCH   5   8
ATOM      8  C   UNL A   1      35.825  22.479  25.636  1.00  0.00     0.080 C 
ATOM      9  C   UNL A   1      33.427  22.784  25.183  1.00  0.00     0.084 C 
ATOM     10  C   UNL A   1      33.682  21.326  25.558  1.00  0.00     0.026 C 
ATOM     11  C   UNL A   1      34.667  23.473  25.786  1.00  0.00     0.038 C 
ATOM     12  C   UNL A   1      35.172  21.138  25.263  1.00  0.00     0.015 C 
BRANCH   9  13
ATOM     13  N   UNL A   1      33.325  22.870  23.726  1.00  0.00    -0.335 N 
ATOM     14  N   UNL A   1      33.725  25.098  23.068  1.00  0.00    -0.334 N 
ATOM     15  C   UNL A   1      33.551  23.806  22.799  1.00  0.00     0.315 C 
ATOM     16  H   UNL A   1      34.350  25.568  22.470  1.00  0.00     0.165 HD
ATOM     17  O   UNL A   1      33.651  23.424  21.632  1.00  0.00    -0.249 OA
ATOM     18  H   UNL A   1      33.009  22.027  23.328  1.00  0.00     0.165 HD
BRANCH  14  19
ATOM     19  C   UNL A   1      33.141  25.911  24.098  1.00  0.00     0.157 C 
BRANCH  19  20
ATOM     20  C   UNL A   1      32.211  26.935  23.545  1.00  0.00     0.015 A 
ATOM     21  C   UNL A   1      34.029  28.614  22.673  1.00  0.00     0.069 C 
ATOM     22  C   UNL A   1      32.643  28.143  22.921  1.00  0.00     0.065 A 
ATOM     23  N   UNL A   1      31.617  28.906  22.541  1.00  0.00    -0.178 NA
ATOM     24  N   UNL A   1      30.533  28.236  22.958  1.00  0.00    -0.272 N 
ATOM     25  C   UNL A   1      30.821  26.999  23.482  1.00  0.00     0.040 A 
ATOM     26  C   UNL A   1      29.249  28.888  22.830  1.00  0.00     0.174 C 
ATOM     27  C   UNL A   1      29.757  26.048  23.896  1.00  0.00     0.067 C 
ENDBRANCH  19  20
ENDBRANCH  14  19
ENDBRANCH   9  13
ENDBRANCH   5   8
ENDBRANCH   3   4
ENDBRANCH   2   3
ENDBRANCH   1   2
BRANCH   1  28
ATOM     28  C   UNL A   1      42.615  21.814  27.154  1.00  0.00     0.002 C 
BRANCH  28  29
ATOM     29  C   UNL A   1      43.403  22.841  27.970  1.00  0.00     0.021 C 
BRANCH  29  30
ATOM     30  C   UNL A   1      44.063  23.964  27.179  1.00  0.00     0.116 C 
BRANCH  30  31
ATOM     31  N   UNL A   1      43.245  24.418  26.071  1.00  0.00    -0.352 N 
ATOM     32  C   UNL A   1      42.257  25.364  26.026  1.00  0.00     0.251 C 
ATOM     33  H   UNL A   1      43.430  23.974  25.212  1.00  0.00     0.163 HD
ATOM     34  O   UNL A   1      41.568  25.463  25.008  1.00  0.00    -0.269 OA
BRANCH  32  35
ATOM     35  C   UNL A   1      41.995  26.260  27.176  1.00  0.00     0.039 A 
ATOM     36  C   UNL A   1      41.019  25.884  28.105  1.00  0.00     0.014 A 
ATOM     37  C   UNL A   1      42.654  27.485  27.321  1.00  0.00     0.014 A 
ATOM     38  C   UNL A   1      40.734  26.712  29.194  1.00  0.00     0.010 A 
ATOM     39  C   UNL A   1      42.422  28.274  28.447  1.00  0.00     0.010 A 
ATOM     40  C   UNL A   1      41.449  27.904  29.387  1.00  0.00    -0.014 A 
BRANCH  40  41
ATOM     41  C   UNL A   1      41.171  28.780  30.556  1.00  0.00     0.031 A 
ATOM     42  C   UNL A   1      41.997  28.661  31.810  1.00  0.00     0.074 A 
ATOM     43  C   UNL A   1      40.149  29.658  30.506  1.00  0.00     0.049 A 
ATOM     44  N   UNL A   1      41.887  29.318  32.937  1.00  0.00    -0.248 NA
ATOM     45  C   UNL A   1      43.072  27.655  31.806  1.00  0.00     0.031 C 
ATOM     46  C   UNL A   1      39.246  29.842  29.367  1.00  0.00     0.029 A 
ATOM     47  N   UNL A   1      39.698  30.561  31.435  1.00  0.00    -0.354 N 
ATOM     48  C   UNL A   1      42.865  28.799  33.777  1.00  0.00     0.074 A 
ATOM     49  C   UNL A   1      43.524  27.736  33.050  1.00  0.00     0.031 C 
ATOM     50  C   UNL A   1      38.369  30.817  29.654  1.00  0.00     0.029 A 
ATOM     51  C   UNL A   1      38.622  31.303  31.006  1.00  0.00     0.049 A 
ATOM     52  H   UNL A   1      40.105  30.668  32.325  1.00  0.00     0.167 HD
ATOM     53  C   UNL A   1      43.202  29.183  35.033  1.00  0.00     0.031 A 
ATOM     54  C   UNL A   1      37.918  32.268  31.630  1.00  0.00     0.031 A 
ATOM     55  C   UNL A   1      42.555  30.249  35.751  1.00  0.00     0.049 A 
ATOM     56  C   UNL A   1      38.317  32.686  33.018  1.00  0.00     0.074 A 
ATOM     57  C   UNL A   1      42.852  30.744  37.008  1.00  0.00     0.029 A 
ATOM     58  N   UNL A   1      41.483  30.988  35.273  1.00  0.00    -0.354 N 
ATOM     59  N   UNL A   1      39.281  32.218  33.775  1.00  0.00    -0.248 NA
ATOM     60  C   UNL A   1      37.542  33.774  33.630  1.00  0.00     0.031 C 
ATOM     61  C   UNL A   1      41.932  31.755  37.308  1.00  0.00     0.029 A 
ATOM     62  C   UNL A   1      41.097  31.926  36.216  1.00  0.00     0.049 A 
ATOM     63  H   UNL A   1      41.058  30.863  34.394  1.00  0.00     0.167 HD
ATOM     64  C   UNL A   1      39.245  32.973  34.941  1.00  0.00     0.074 A 
ATOM     65  C   UNL A   1      38.177  33.938  34.783  1.00  0.00     0.031 C 
ATOM     66  C   UNL A   1      40.028  32.877  36.045  1.00  0.00     0.031 A 
BRANCH  53  67
ATOM     67  C   UNL A   1      44.323  28.438  35.710  1.00  0.00    -0.014 A 
ATOM     68  C   UNL A   1      45.657  28.866  35.584  1.00  0.00     0.010 A 
ATOM     69  C   UNL A   1      44.039  27.313  36.505  1.00  0.00     0.010 A 
ATOM     70  C   UNL A   1      46.691  28.157  36.202  1.00  0.00     0.020 A 
ATOM     71  C   UNL A   1      45.068  26.617  37.148  1.00  0.00     0.020 A 
ATOM     72  C   UNL A   1      46.390  27.033  36.976  1.00  0.00     0.054 A 
BRANCH  72  73
ATOM     73  S   UNL A   1      47.749  26.136  37.774  1.00  0.00     0.124 S 
ATOM     74  O   UNL A   1      48.073  27.015  38.895  1.00  0.00    -0.237 OA
ATOM     75  O   UNL A   1      47.127  24.864  38.134  1.00  0.00    -0.237 OA
ATOM     76  O   UNL A   1      48.770  26.053  36.733  1.00  0.00    -0.744 OA
ENDBRANCH  72  73
ENDBRANCH  53  67
BRANCH  54  77
ATOM     77  C   UNL A   1      36.777  32.921  30.933  1.00  0.00    -0.014 A 
ATOM     78  C   UNL A   1      35.453  32.651  31.321  1.00  0.00     0.010 A 
ATOM     79  C   UNL A   1      37.011  33.829  29.885  1.00  0.00     0.010 A 
ATOM     80  C   UNL A   1      34.382  33.263  30.662  1.00  0.00     0.020 A 
ATOM     81  C   UNL A   1      35.944  34.463  29.241  1.00  0.00     0.020 A 
ATOM     82  C   UNL A   1      34.636  34.166  29.625  1.00  0.00     0.054 A 
BRANCH  82  83
ATOM     83  S   UNL A   1      33.235  34.988  28.817  1.00  0.00     0.124 S 
ATOM     84  O   UNL A   1      33.888  36.100  28.134  1.00  0.00    -0.237 OA
ATOM     85  O   UNL A   1      32.705  33.935  27.952  1.00  0.00    -0.237 OA
ATOM     86  O   UNL A   1      32.368  35.359  29.933  1.00  0.00    -0.744 OA
ENDBRANCH  82  83
ENDBRANCH  54  77
BRANCH  66  87
ATOM     87  C   UNL A   1      39.781  33.865  37.154  1.00  0.00    -0.014 A 
ATOM     88  C   UNL A   1      39.033  33.512  38.292  1.00  0.00     0.010 A 
ATOM     89  C   UNL A   1      40.336  35.155  37.070  1.00  0.00     0.010 A 
ATOM     90  C   UNL A   1      38.811  34.446  39.308  1.00  0.00     0.020 A 
ATOM     91  C   UNL A   1      40.139  36.082  38.096  1.00  0.00     0.020 A 
ATOM     92  C   UNL A   1      39.362  35.727  39.201  1.00  0.00     0.054 A 
BRANCH  92  93
ATOM     93  S   UNL A   1      39.082  36.914  40.543  1.00  0.00     0.124 S 
ATOM     94  O   UNL A   1      38.431  38.017  39.843  1.00  0.00    -0.237 OA
ATOM     95  O   UNL A   1      38.232  36.164  41.465  1.00  0.00    -0.237 OA
ATOM     96  O   UNL A   1      40.428  37.198  41.039  1.00  0.00    -0.744 OA
ENDBRANCH  92  93
ENDBRANCH  66  87
ENDBRANCH  40  41
ENDBRANCH  32  35
ENDBRANCH  30  31
ENDBRANCH  29  30
ENDBRANCH  28  29
ENDBRANCH   1  28
TORSDOF 19
ENDMDL
