MODEL 1
REMARK VINA RESULT:     -11.1      0.000      0.000
REMARK SMILES Cc1cc(-c2cncc(C(=O)NCCCCCCNC(=O)c3ccc(-c4c5nc(c(-c6ccc(S(=O)(=O)[O-])cc6)c6ccc([nH]6)c(-c6ccc(S(=O)(=O)[O-])cc6)c6nc(c(-c7ccc(S(=O)(=O)[O-])cc7)c7ccc4[nH]7)C=C6)C=C5)cc3)c2)ccc1F
REMARK SMILES IDX 16 1 15 2 14 3 13 4 12 5 10 6 11 7 9 9 5 10 6 11 82 12 7 13
REMARK SMILES IDX 8 14 4 15 1 16 2 17 3 18 85 19 84 20 86 21 83 22 17 23 18 24
REMARK SMILES IDX 19 25 20 26 21 28 22 29 23 30 81 31 24 32 80 33 25 34 26 35
REMARK SMILES IDX 27 36 74 37 28 38 79 39 73 40 75 41 29 42 78 43 72 44 71 45
REMARK SMILES IDX 30 47 60 48 41 49 59 50 42 51 45 52 58 53 76 54 43 55 44 56
REMARK SMILES IDX 57 58 77 59 46 60 31 61 32 62 40 63 33 64 39 65 34 66 35 67
REMARK SMILES IDX 36 68 37 69 38 70 61 71 62 72 70 73 63 74 69 75 64 76 65 77
REMARK SMILES IDX 66 78 67 79 68 80 47 81 48 82 56 83 49 84 55 85 50 86 51 87
REMARK SMILES IDX 52 88 53 89 54 90
REMARK H PARENT 12 8 19 27 75 46 45 57
REMARK Flexibility Score: inf
ROOT
ATOM      1  C   UNL A   1      35.128  21.902  24.670  1.00  0.00     0.002 C 
ENDROOT
BRANCH   1   2
ATOM      2  C   UNL A   1      34.595  20.877  25.679  1.00  0.00     0.002 C 
BRANCH   2   3
ATOM      3  C   UNL A   1      33.221  20.286  25.330  1.00  0.00     0.021 C 
BRANCH   3   4
ATOM      4  C   UNL A   1      32.208  21.346  24.894  1.00  0.00     0.116 C 
BRANCH   4   5
ATOM      5  N   UNL A   1      31.420  21.782  26.033  1.00  0.00    -0.352 N 
ATOM      6  C   UNL A   1      30.969  23.006  26.456  1.00  0.00     0.252 C 
ATOM      7  O   UNL A   1      30.316  23.037  27.501  1.00  0.00    -0.269 OA
ATOM      8  H   UNL A   1      31.154  21.043  26.628  1.00  0.00     0.163 HD
BRANCH   6   9
ATOM      9  C   UNL A   1      31.166  24.268  25.703  1.00  0.00     0.058 A 
ATOM     10  C   UNL A   1      31.851  26.581  25.413  1.00  0.00     0.001 A 
ATOM     11  C   UNL A   1      31.638  26.416  24.047  1.00  0.00     0.119 A 
ATOM     12  C   UNL A   1      31.538  25.495  26.244  1.00  0.00     0.025 A 
ATOM     13  N   UNL A   1      31.184  25.273  23.485  1.00  0.00    -0.263 NA
ATOM     14  C   UNL A   1      30.976  24.226  24.325  1.00  0.00     0.124 A 
BRANCH  10  15
ATOM     15  C   UNL A   1      32.461  27.786  25.976  1.00  0.00    -0.016 A 
ATOM     16  C   UNL A   1      31.513  31.462  26.483  1.00  0.00     0.047 C 
ATOM     17  C   UNL A   1      32.289  30.180  26.475  1.00  0.00    -0.015 A 
ATOM     18  C   UNL A   1      31.726  28.990  25.998  1.00  0.00     0.015 A 
ATOM     19  C   UNL A   1      33.603  30.151  26.942  1.00  0.00     0.126 A 
ATOM     20  C   UNL A   1      34.344  28.972  26.943  1.00  0.00     0.040 A 
ATOM     21  F   UNL A   1      34.174  31.274  27.397  1.00  0.00    -0.207 F 
ATOM     22  C   UNL A   1      33.774  27.790  26.464  1.00  0.00     0.012 A 
ENDBRANCH  10  15
ENDBRANCH   6   9
ENDBRANCH   4   5
ENDBRANCH   3   4
ENDBRANCH   2   3
ENDBRANCH   1   2
BRANCH   1  23
ATOM     23  C   UNL A   1      35.361  23.306  25.237  1.00  0.00     0.021 C 
BRANCH  23  24
ATOM     24  C   UNL A   1      36.793  23.810  25.095  1.00  0.00     0.116 C 
BRANCH  24  25
ATOM     25  N   UNL A   1      37.758  22.781  25.451  1.00  0.00    -0.352 N 
ATOM     26  C   UNL A   1      38.971  22.907  26.081  1.00  0.00     0.251 C 
ATOM     27  H   UNL A   1      37.504  21.862  25.205  1.00  0.00     0.163 HD
ATOM     28  O   UNL A   1      39.762  21.969  26.080  1.00  0.00    -0.269 OA
BRANCH  26  29
ATOM     29  C   UNL A   1      39.324  24.177  26.751  1.00  0.00     0.039 A 
ATOM     30  C   UNL A   1      38.894  24.394  28.063  1.00  0.00     0.014 A 
ATOM     31  C   UNL A   1      40.059  25.159  26.080  1.00  0.00     0.014 A 
ATOM     32  C   UNL A   1      39.246  25.575  28.718  1.00  0.00     0.010 A 
ATOM     33  C   UNL A   1      40.466  26.304  26.758  1.00  0.00     0.010 A 
ATOM     34  C   UNL A   1      40.059  26.528  28.082  1.00  0.00    -0.014 A 
BRANCH  34  35
ATOM     35  C   UNL A   1      40.495  27.761  28.786  1.00  0.00     0.031 A 
ATOM     36  C   UNL A   1      41.852  27.823  29.437  1.00  0.00     0.074 A 
ATOM     37  C   UNL A   1      39.642  28.801  28.895  1.00  0.00     0.049 A 
ATOM     38  N   UNL A   1      42.383  28.790  30.140  1.00  0.00    -0.248 NA
ATOM     39  C   UNL A   1      42.717  26.639  29.299  1.00  0.00     0.031 C 
ATOM     40  C   UNL A   1      38.284  28.846  28.345  1.00  0.00     0.029 A 
ATOM     41  N   UNL A   1      39.787  30.018  29.512  1.00  0.00    -0.354 N 
ATOM     42  C   UNL A   1      43.627  28.322  30.551  1.00  0.00     0.074 A 
ATOM     43  C   UNL A   1      43.760  26.974  30.047  1.00  0.00     0.031 C 
ATOM     44  C   UNL A   1      37.732  30.037  28.629  1.00  0.00     0.029 A 
ATOM     45  C   UNL A   1      38.676  30.824  29.415  1.00  0.00     0.049 A 
ATOM     46  H   UNL A   1      40.610  30.290  29.979  1.00  0.00     0.167 HD
ATOM     47  C   UNL A   1      44.577  28.965  31.270  1.00  0.00     0.031 A 
ATOM     48  C   UNL A   1      38.439  32.054  29.914  1.00  0.00     0.031 A 
ATOM     49  C   UNL A   1      44.454  30.319  31.741  1.00  0.00     0.049 A 
ATOM     50  C   UNL A   1      39.518  32.743  30.706  1.00  0.00     0.074 A 
ATOM     51  C   UNL A   1      45.398  31.085  32.403  1.00  0.00     0.029 A 
ATOM     52  N   UNL A   1      43.322  31.106  31.605  1.00  0.00    -0.354 N 
ATOM     53  N   UNL A   1      40.723  32.316  31.003  1.00  0.00    -0.248 NA
ATOM     54  C   UNL A   1      39.209  34.083  31.223  1.00  0.00     0.031 C 
ATOM     55  C   UNL A   1      44.815  32.315  32.720  1.00  0.00     0.029 A 
ATOM     56  C   UNL A   1      43.532  32.339  32.200  1.00  0.00     0.049 A 
ATOM     57  H   UNL A   1      42.492  30.831  31.154  1.00  0.00     0.167 HD
ATOM     58  C   UNL A   1      41.325  33.351  31.710  1.00  0.00     0.074 A 
ATOM     59  C   UNL A   1      40.360  34.428  31.783  1.00  0.00     0.031 C 
ATOM     60  C   UNL A   1      42.567  33.405  32.252  1.00  0.00     0.031 A 
BRANCH  47  61
ATOM     61  C   UNL A   1      45.843  28.221  31.603  1.00  0.00    -0.014 A 
ATOM     62  C   UNL A   1      46.977  28.305  30.777  1.00  0.00     0.010 A 
ATOM     63  C   UNL A   1      45.927  27.504  32.812  1.00  0.00     0.010 A 
ATOM     64  C   UNL A   1      48.169  27.675  31.147  1.00  0.00     0.020 A 
ATOM     65  C   UNL A   1      47.124  26.894  33.197  1.00  0.00     0.020 A 
ATOM     66  C   UNL A   1      48.236  26.978  32.357  1.00  0.00     0.054 A 
BRANCH  66  67
ATOM     67  S   UNL A   1      49.816  26.230  32.843  1.00  0.00     0.124 S 
ATOM     68  O   UNL A   1      50.762  26.947  31.993  1.00  0.00    -0.237 OA
ATOM     69  O   UNL A   1      49.892  26.542  34.268  1.00  0.00    -0.237 OA
ATOM     70  O   UNL A   1      49.644  24.814  32.526  1.00  0.00    -0.744 OA
ENDBRANCH  66  67
ENDBRANCH  47  61
BRANCH  48  71
ATOM     71  C   UNL A   1      37.127  32.722  29.686  1.00  0.00    -0.014 A 
ATOM     72  C   UNL A   1      36.949  33.604  28.606  1.00  0.00     0.010 A 
ATOM     73  C   UNL A   1      36.059  32.509  30.577  1.00  0.00     0.010 A 
ATOM     74  C   UNL A   1      35.744  34.294  28.444  1.00  0.00     0.020 A 
ATOM     75  C   UNL A   1      34.841  33.174  30.400  1.00  0.00     0.020 A 
ATOM     76  C   UNL A   1      34.700  34.079  29.348  1.00  0.00     0.054 A 
BRANCH  76  77
ATOM     77  S   UNL A   1      33.144  34.984  29.122  1.00  0.00     0.124 S 
ATOM     78  O   UNL A   1      32.469  34.177  28.110  1.00  0.00    -0.237 OA
ATOM     79  O   UNL A   1      32.558  34.943  30.459  1.00  0.00    -0.237 OA
ATOM     80  O   UNL A   1      33.580  36.307  28.681  1.00  0.00    -0.744 OA
ENDBRANCH  76  77
ENDBRANCH  48  71
BRANCH  60  81
ATOM     81  C   UNL A   1      42.974  34.687  32.929  1.00  0.00    -0.014 A 
ATOM     82  C   UNL A   1      42.793  34.874  34.311  1.00  0.00     0.010 A 
ATOM     83  C   UNL A   1      43.599  35.697  32.176  1.00  0.00     0.010 A 
ATOM     84  C   UNL A   1      43.200  36.064  34.920  1.00  0.00     0.020 A 
ATOM     85  C   UNL A   1      44.035  36.875  32.787  1.00  0.00     0.020 A 
ATOM     86  C   UNL A   1      43.819  37.057  34.154  1.00  0.00     0.054 A 
BRANCH  86  87
ATOM     87  S   UNL A   1      44.376  38.573  34.975  1.00  0.00     0.124 S 
ATOM     88  O   UNL A   1      43.511  39.583  34.371  1.00  0.00    -0.237 OA
ATOM     89  O   UNL A   1      44.119  38.287  36.385  1.00  0.00    -0.237 OA
ATOM     90  O   UNL A   1      45.788  38.667  34.612  1.00  0.00    -0.744 OA
ENDBRANCH  86  87
ENDBRANCH  60  81
ENDBRANCH  34  35
ENDBRANCH  26  29
ENDBRANCH  24  25
ENDBRANCH  23  24
ENDBRANCH   1  23
TORSDOF 17
ENDMDL
MODEL 2
REMARK VINA RESULT:     -10.8      4.101      9.922
REMARK SMILES Cc1cc(-c2cncc(C(=O)NCCCCCCNC(=O)c3ccc(-c4c5nc(c(-c6ccc(S(=O)(=O)[O-])cc6)c6ccc([nH]6)c(-c6ccc(S(=O)(=O)[O-])cc6)c6nc(c(-c7ccc(S(=O)(=O)[O-])cc7)c7ccc4[nH]7)C=C6)C=C5)cc3)c2)ccc1F
REMARK SMILES IDX 16 1 15 2 14 3 13 4 12 5 10 6 11 7 9 9 5 10 6 11 82 12 7 13
REMARK SMILES IDX 8 14 4 15 1 16 2 17 3 18 85 19 84 20 86 21 83 22 17 23 18 24
REMARK SMILES IDX 19 25 20 26 21 28 22 29 23 30 81 31 24 32 80 33 25 34 26 35
REMARK SMILES IDX 27 36 74 37 28 38 79 39 73 40 75 41 29 42 78 43 72 44 71 45
REMARK SMILES IDX 30 47 60 48 41 49 59 50 42 51 45 52 58 53 76 54 43 55 44 56
REMARK SMILES IDX 57 58 77 59 46 60 31 61 32 62 40 63 33 64 39 65 34 66 35 67
REMARK SMILES IDX 36 68 37 69 38 70 61 71 62 72 70 73 63 74 69 75 64 76 65 77
REMARK SMILES IDX 66 78 67 79 68 80 47 81 48 82 56 83 49 84 55 85 50 86 51 87
REMARK SMILES IDX 52 88 53 89 54 90
REMARK H PARENT 12 8 19 27 75 46 45 57
REMARK Flexibility Score: inf
ROOT
ATOM      1  C   UNL A   1      34.405  34.908  27.901  1.00  0.00     0.002 C 
ENDROOT
BRANCH   1   2
ATOM      2  C   UNL A   1      33.897  36.093  28.734  1.00  0.00     0.002 C 
BRANCH   2   3
ATOM      3  C   UNL A   1      33.109  35.702  29.993  1.00  0.00     0.021 C 
BRANCH   3   4
ATOM      4  C   UNL A   1      34.006  35.467  31.211  1.00  0.00     0.116 C 
BRANCH   4   5
ATOM      5  N   UNL A   1      33.444  34.425  32.050  1.00  0.00    -0.352 N 
ATOM      6  C   UNL A   1      33.982  33.557  32.966  1.00  0.00     0.252 C 
ATOM      7  O   UNL A   1      33.214  32.765  33.513  1.00  0.00    -0.269 OA
ATOM      8  H   UNL A   1      32.471  34.317  31.938  1.00  0.00     0.163 HD
BRANCH   6   9
ATOM      9  C   UNL A   1      35.408  33.563  33.376  1.00  0.00     0.058 A 
ATOM     10  C   UNL A   1      37.612  32.597  33.709  1.00  0.00     0.001 A 
ATOM     11  C   UNL A   1      38.072  33.881  33.990  1.00  0.00     0.119 A 
ATOM     12  C   UNL A   1      36.238  32.450  33.466  1.00  0.00     0.025 A 
ATOM     13  N   UNL A   1      37.284  34.980  34.010  1.00  0.00    -0.263 NA
ATOM     14  C   UNL A   1      35.978  34.794  33.686  1.00  0.00     0.124 A 
BRANCH  10  15
ATOM     15  C   UNL A   1      38.510  31.449  33.573  1.00  0.00    -0.016 A 
ATOM     16  C   UNL A   1      38.280  27.800  32.436  1.00  0.00     0.047 C 
ATOM     17  C   UNL A   1      38.817  29.095  32.966  1.00  0.00    -0.015 A 
ATOM     18  C   UNL A   1      38.009  30.235  33.060  1.00  0.00     0.015 A 
ATOM     19  C   UNL A   1      40.143  29.186  33.386  1.00  0.00     0.126 A 
ATOM     20  C   UNL A   1      40.664  30.378  33.883  1.00  0.00     0.040 A 
ATOM     21  F   UNL A   1      40.940  28.111  33.317  1.00  0.00    -0.207 F 
ATOM     22  C   UNL A   1      39.850  31.510  33.975  1.00  0.00     0.012 A 
ENDBRANCH  10  15
ENDBRANCH   6   9
ENDBRANCH   4   5
ENDBRANCH   3   4
ENDBRANCH   2   3
ENDBRANCH   1   2
BRANCH   1  23
ATOM     23  C   UNL A   1      33.585  33.622  28.040  1.00  0.00     0.021 C 
BRANCH  23  24
ATOM     24  C   UNL A   1      34.382  32.421  28.539  1.00  0.00     0.116 C 
BRANCH  24  25
ATOM     25  N   UNL A   1      33.793  31.168  28.094  1.00  0.00    -0.352 N 
ATOM     26  C   UNL A   1      34.411  29.992  27.745  1.00  0.00     0.251 C 
ATOM     27  H   UNL A   1      32.810  31.161  28.036  1.00  0.00     0.163 HD
ATOM     28  O   UNL A   1      33.778  29.119  27.160  1.00  0.00    -0.269 OA
BRANCH  26  29
ATOM     29  C   UNL A   1      35.839  29.788  28.068  1.00  0.00     0.039 A 
ATOM     30  C   UNL A   1      36.190  29.366  29.352  1.00  0.00     0.014 A 
ATOM     31  C   UNL A   1      36.830  30.030  27.111  1.00  0.00     0.014 A 
ATOM     32  C   UNL A   1      37.533  29.139  29.662  1.00  0.00     0.010 A 
ATOM     33  C   UNL A   1      38.159  29.738  27.401  1.00  0.00     0.010 A 
ATOM     34  C   UNL A   1      38.526  29.294  28.680  1.00  0.00    -0.014 A 
BRANCH  34  35
ATOM     35  C   UNL A   1      39.952  28.997  28.974  1.00  0.00     0.031 A 
ATOM     36  C   UNL A   1      40.541  27.663  28.597  1.00  0.00     0.074 A 
ATOM     37  C   UNL A   1      40.696  29.905  29.639  1.00  0.00     0.049 A 
ATOM     38  N   UNL A   1      41.745  27.204  28.820  1.00  0.00    -0.248 NA
ATOM     39  C   UNL A   1      39.659  26.714  27.897  1.00  0.00     0.031 C 
ATOM     40  C   UNL A   1      40.227  31.216  30.097  1.00  0.00     0.029 A 
ATOM     41  N   UNL A   1      42.004  29.860  30.054  1.00  0.00    -0.354 N 
ATOM     42  C   UNL A   1      41.757  25.908  28.316  1.00  0.00     0.074 A 
ATOM     43  C   UNL A   1      40.431  25.640  27.805  1.00  0.00     0.031 C 
ATOM     44  C   UNL A   1      41.238  31.857  30.706  1.00  0.00     0.029 A 
ATOM     45  C   UNL A   1      42.412  30.992  30.721  1.00  0.00     0.049 A 
ATOM     46  H   UNL A   1      42.595  29.090  29.887  1.00  0.00     0.167 HD
ATOM     47  C   UNL A   1      42.784  25.027  28.271  1.00  0.00     0.031 A 
ATOM     48  C   UNL A   1      43.595  31.294  31.293  1.00  0.00     0.031 A 
ATOM     49  C   UNL A   1      44.111  25.310  28.752  1.00  0.00     0.049 A 
ATOM     50  C   UNL A   1      44.718  30.294  31.222  1.00  0.00     0.074 A 
ATOM     51  C   UNL A   1      45.239  24.513  28.671  1.00  0.00     0.029 A 
ATOM     52  N   UNL A   1      44.487  26.474  29.403  1.00  0.00    -0.354 N 
ATOM     53  N   UNL A   1      44.733  29.109  30.658  1.00  0.00    -0.248 NA
ATOM     54  C   UNL A   1      45.988  30.674  31.857  1.00  0.00     0.031 C 
ATOM     55  C   UNL A   1      46.284  25.169  29.327  1.00  0.00     0.029 A 
ATOM     56  C   UNL A   1      45.823  26.402  29.759  1.00  0.00     0.049 A 
ATOM     57  H   UNL A   1      43.894  27.238  29.586  1.00  0.00     0.167 HD
ATOM     58  C   UNL A   1      46.023  28.621  30.841  1.00  0.00     0.074 A 
ATOM     59  C   UNL A   1      46.762  29.643  31.552  1.00  0.00     0.031 C 
ATOM     60  C   UNL A   1      46.548  27.433  30.454  1.00  0.00     0.031 A 
BRANCH  47  61
ATOM     61  C   UNL A   1      42.528  23.664  27.686  1.00  0.00    -0.014 A 
ATOM     62  C   UNL A   1      42.751  23.402  26.323  1.00  0.00     0.010 A 
ATOM     63  C   UNL A   1      42.150  22.606  28.534  1.00  0.00     0.010 A 
ATOM     64  C   UNL A   1      42.588  22.109  25.816  1.00  0.00     0.020 A 
ATOM     65  C   UNL A   1      42.011  21.308  28.036  1.00  0.00     0.020 A 
ATOM     66  C   UNL A   1      42.224  21.070  26.676  1.00  0.00     0.054 A 
BRANCH  66  67
ATOM     67  S   UNL A   1      42.089  19.390  26.003  1.00  0.00     0.124 S 
ATOM     68  O   UNL A   1      40.663  19.301  25.703  1.00  0.00    -0.237 OA
ATOM     69  O   UNL A   1      42.973  19.441  24.841  1.00  0.00    -0.237 OA
ATOM     70  O   UNL A   1      42.549  18.538  27.097  1.00  0.00    -0.744 OA
ENDBRANCH  66  67
ENDBRANCH  47  61
BRANCH  48  71
ATOM     71  C   UNL A   1      43.789  32.597  31.986  1.00  0.00    -0.014 A 
ATOM     72  C   UNL A   1      43.550  32.718  33.367  1.00  0.00     0.010 A 
ATOM     73  C   UNL A   1      44.176  33.738  31.259  1.00  0.00     0.010 A 
ATOM     74  C   UNL A   1      43.650  33.961  33.999  1.00  0.00     0.020 A 
ATOM     75  C   UNL A   1      44.309  34.977  31.894  1.00  0.00     0.020 A 
ATOM     76  C   UNL A   1      44.022  35.084  33.255  1.00  0.00     0.054 A 
BRANCH  76  77
ATOM     77  S   UNL A   1      44.148  36.689  34.093  1.00  0.00     0.124 S 
ATOM     78  O   UNL A   1      45.382  37.228  33.529  1.00  0.00    -0.237 OA
ATOM     79  O   UNL A   1      42.917  37.358  33.680  1.00  0.00    -0.237 OA
ATOM     80  O   UNL A   1      44.209  36.330  35.508  1.00  0.00    -0.744 OA
ENDBRANCH  76  77
ENDBRANCH  48  71
BRANCH  60  81
ATOM     81  C   UNL A   1      48.005  27.189  30.747  1.00  0.00    -0.014 A 
ATOM     82  C   UNL A   1      49.003  27.498  29.805  1.00  0.00     0.010 A 
ATOM     83  C   UNL A   1      48.382  26.694  32.008  1.00  0.00     0.010 A 
ATOM     84  C   UNL A   1      50.349  27.284  30.110  1.00  0.00     0.020 A 
ATOM     85  C   UNL A   1      49.729  26.507  32.327  1.00  0.00     0.020 A 
ATOM     86  C   UNL A   1      50.704  26.790  31.369  1.00  0.00     0.054 A 
BRANCH  86  87
ATOM     87  S   UNL A   1      52.460  26.560  31.754  1.00  0.00     0.124 S 
ATOM     88  O   UNL A   1      52.990  26.072  30.483  1.00  0.00    -0.237 OA
ATOM     89  O   UNL A   1      52.883  27.906  32.136  1.00  0.00    -0.237 OA
ATOM     90  O   UNL A   1      52.453  25.583  32.841  1.00  0.00    -0.744 OA
ENDBRANCH  86  87
ENDBRANCH  60  81
ENDBRANCH  34  35
ENDBRANCH  26  29
ENDBRANCH  24  25
ENDBRANCH  23  24
ENDBRANCH   1  23
TORSDOF 17
ENDMDL
MODEL 3
REMARK VINA RESULT:     -10.7      3.347      4.550
REMARK SMILES Cc1cc(-c2cncc(C(=O)NCCCCCCNC(=O)c3ccc(-c4c5nc(c(-c6ccc(S(=O)(=O)[O-])cc6)c6ccc([nH]6)c(-c6ccc(S(=O)(=O)[O-])cc6)c6nc(c(-c7ccc(S(=O)(=O)[O-])cc7)c7ccc4[nH]7)C=C6)C=C5)cc3)c2)ccc1F
REMARK SMILES IDX 16 1 15 2 14 3 13 4 12 5 10 6 11 7 9 9 5 10 6 11 82 12 7 13
REMARK SMILES IDX 8 14 4 15 1 16 2 17 3 18 85 19 84 20 86 21 83 22 17 23 18 24
REMARK SMILES IDX 19 25 20 26 21 28 22 29 23 30 81 31 24 32 80 33 25 34 26 35
REMARK SMILES IDX 27 36 74 37 28 38 79 39 73 40 75 41 29 42 78 43 72 44 71 45
REMARK SMILES IDX 30 47 60 48 41 49 59 50 42 51 45 52 58 53 76 54 43 55 44 56
REMARK SMILES IDX 57 58 77 59 46 60 31 61 32 62 40 63 33 64 39 65 34 66 35 67
REMARK SMILES IDX 36 68 37 69 38 70 61 71 62 72 70 73 63 74 69 75 64 76 65 77
REMARK SMILES IDX 66 78 67 79 68 80 47 81 48 82 56 83 49 84 55 85 50 86 51 87
REMARK SMILES IDX 52 88 53 89 54 90
REMARK H PARENT 12 8 19 27 75 46 45 57
REMARK Flexibility Score: inf
ROOT
ATOM      1  C   UNL A   1      41.211  21.797  26.258  1.00  0.00     0.002 C 
ENDROOT
BRANCH   1   2
ATOM      2  C   UNL A   1      39.692  21.996  26.170  1.00  0.00     0.002 C 
BRANCH   2   3
ATOM      3  C   UNL A   1      39.188  23.343  26.707  1.00  0.00     0.021 C 
BRANCH   3   4
ATOM      4  C   UNL A   1      37.804  23.720  26.172  1.00  0.00     0.116 C 
BRANCH   4   5
ATOM      5  N   UNL A   1      37.696  23.356  24.771  1.00  0.00    -0.352 N 
ATOM      6  C   UNL A   1      36.634  23.186  23.920  1.00  0.00     0.252 C 
ATOM      7  O   UNL A   1      36.887  22.854  22.760  1.00  0.00    -0.269 OA
ATOM      8  H   UNL A   1      38.567  23.196  24.342  1.00  0.00     0.163 HD
BRANCH   6   9
ATOM      9  C   UNL A   1      35.221  23.439  24.294  1.00  0.00     0.058 A 
ATOM     10  C   UNL A   1      33.268  24.814  24.739  1.00  0.00     0.001 A 
ATOM     11  C   UNL A   1      32.521  23.641  24.791  1.00  0.00     0.119 A 
ATOM     12  C   UNL A   1      34.653  24.682  24.552  1.00  0.00     0.025 A 
ATOM     13  N   UNL A   1      33.045  22.403  24.643  1.00  0.00    -0.263 NA
ATOM     14  C   UNL A   1      34.377  22.336  24.382  1.00  0.00     0.124 A 
BRANCH  10  15
ATOM     15  C   UNL A   1      32.655  26.143  24.779  1.00  0.00    -0.016 A 
ATOM     16  C   UNL A   1      31.664  28.721  27.431  1.00  0.00     0.047 C 
ATOM     17  C   UNL A   1      31.855  28.038  26.111  1.00  0.00    -0.015 A 
ATOM     18  C   UNL A   1      32.488  26.792  26.019  1.00  0.00     0.015 A 
ATOM     19  C   UNL A   1      31.396  28.635  24.937  1.00  0.00     0.126 A 
ATOM     20  C   UNL A   1      31.561  28.020  23.700  1.00  0.00     0.040 A 
ATOM     21  F   UNL A   1      30.778  29.823  24.992  1.00  0.00    -0.207 F 
ATOM     22  C   UNL A   1      32.191  26.776  23.618  1.00  0.00     0.012 A 
ENDBRANCH  10  15
ENDBRANCH   6   9
ENDBRANCH   4   5
ENDBRANCH   3   4
ENDBRANCH   2   3
ENDBRANCH   1   2
BRANCH   1  23
ATOM     23  C   UNL A   1      41.841  22.212  27.591  1.00  0.00     0.021 C 
BRANCH  23  24
ATOM     24  C   UNL A   1      42.923  23.280  27.467  1.00  0.00     0.116 C 
BRANCH  24  25
ATOM     25  N   UNL A   1      42.758  24.068  26.256  1.00  0.00    -0.352 N 
ATOM     26  C   UNL A   1      42.242  25.332  26.105  1.00  0.00     0.251 C 
ATOM     27  H   UNL A   1      43.059  23.634  25.426  1.00  0.00     0.163 HD
ATOM     28  O   UNL A   1      41.951  25.744  24.987  1.00  0.00    -0.269 OA
BRANCH  26  29
ATOM     29  C   UNL A   1      42.033  26.188  27.292  1.00  0.00     0.039 A 
ATOM     30  C   UNL A   1      42.926  27.232  27.542  1.00  0.00     0.014 A 
ATOM     31  C   UNL A   1      40.968  25.947  28.167  1.00  0.00     0.014 A 
ATOM     32  C   UNL A   1      42.722  28.067  28.643  1.00  0.00     0.010 A 
ATOM     33  C   UNL A   1      40.728  26.821  29.223  1.00  0.00     0.010 A 
ATOM     34  C   UNL A   1      41.605  27.887  29.476  1.00  0.00    -0.014 A 
BRANCH  34  35
ATOM     35  C   UNL A   1      41.339  28.804  30.614  1.00  0.00     0.031 A 
ATOM     36  C   UNL A   1      42.159  28.707  31.874  1.00  0.00     0.074 A 
ATOM     37  C   UNL A   1      40.315  29.679  30.537  1.00  0.00     0.049 A 
ATOM     38  N   UNL A   1      42.038  29.381  32.988  1.00  0.00    -0.248 NA
ATOM     39  C   UNL A   1      43.243  27.709  31.893  1.00  0.00     0.031 C 
ATOM     40  C   UNL A   1      39.419  29.839  29.387  1.00  0.00     0.029 A 
ATOM     41  N   UNL A   1      39.848  30.594  31.447  1.00  0.00    -0.354 N 
ATOM     42  C   UNL A   1      43.006  28.873  33.847  1.00  0.00     0.074 A 
ATOM     43  C   UNL A   1      43.685  27.811  33.139  1.00  0.00     0.031 C 
ATOM     44  C   UNL A   1      38.530  30.808  29.653  1.00  0.00     0.029 A 
ATOM     45  C   UNL A   1      38.761  31.311  31.003  1.00  0.00     0.049 A 
ATOM     46  H   UNL A   1      40.255  30.727  32.334  1.00  0.00     0.167 HD
ATOM     47  C   UNL A   1      43.310  29.266  35.106  1.00  0.00     0.031 A 
ATOM     48  C   UNL A   1      38.025  32.258  31.618  1.00  0.00     0.031 A 
ATOM     49  C   UNL A   1      42.653  30.346  35.795  1.00  0.00     0.049 A 
ATOM     50  C   UNL A   1      38.391  32.676  33.018  1.00  0.00     0.074 A 
ATOM     51  C   UNL A   1      42.949  30.874  37.039  1.00  0.00     0.029 A 
ATOM     52  N   UNL A   1      41.572  31.058  35.304  1.00  0.00    -0.354 N 
ATOM     53  N   UNL A   1      39.371  32.244  33.777  1.00  0.00    -0.248 NA
ATOM     54  C   UNL A   1      37.559  33.714  33.641  1.00  0.00     0.031 C 
ATOM     55  C   UNL A   1      42.008  31.867  37.326  1.00  0.00     0.029 A 
ATOM     56  C   UNL A   1      41.167  32.000  36.234  1.00  0.00     0.049 A 
ATOM     57  H   UNL A   1      41.152  30.916  34.424  1.00  0.00     0.167 HD
ATOM     58  C   UNL A   1      39.291  32.985  34.951  1.00  0.00     0.074 A 
ATOM     59  C   UNL A   1      38.181  33.901  34.796  1.00  0.00     0.031 C 
ATOM     60  C   UNL A   1      40.068  32.913  36.060  1.00  0.00     0.031 A 
BRANCH  47  61
ATOM     61  C   UNL A   1      44.401  28.530  35.838  1.00  0.00    -0.014 A 
ATOM     62  C   UNL A   1      45.735  28.969  35.792  1.00  0.00     0.010 A 
ATOM     63  C   UNL A   1      44.066  27.439  36.663  1.00  0.00     0.010 A 
ATOM     64  C   UNL A   1      46.718  28.321  36.546  1.00  0.00     0.020 A 
ATOM     65  C   UNL A   1      45.042  26.806  37.437  1.00  0.00     0.020 A 
ATOM     66  C   UNL A   1      46.365  27.247  37.368  1.00  0.00     0.054 A 
BRANCH  66  67
ATOM     67  S   UNL A   1      47.650  26.473  38.388  1.00  0.00     0.124 S 
ATOM     68  O   UNL A   1      48.692  27.496  38.386  1.00  0.00    -0.237 OA
ATOM     69  O   UNL A   1      46.967  26.273  39.664  1.00  0.00    -0.237 OA
ATOM     70  O   UNL A   1      47.980  25.248  37.662  1.00  0.00    -0.744 OA
ENDBRANCH  66  67
ENDBRANCH  47  61
BRANCH  48  71
ATOM     71  C   UNL A   1      36.864  32.882  30.925  1.00  0.00    -0.014 A 
ATOM     72  C   UNL A   1      37.062  33.793  29.872  1.00  0.00     0.010 A 
ATOM     73  C   UNL A   1      35.550  32.598  31.343  1.00  0.00     0.010 A 
ATOM     74  C   UNL A   1      35.973  34.442  29.280  1.00  0.00     0.020 A 
ATOM     75  C   UNL A   1      34.458  33.221  30.732  1.00  0.00     0.020 A 
ATOM     76  C   UNL A   1      34.678  34.156  29.720  1.00  0.00     0.054 A 
BRANCH  76  77
ATOM     77  S   UNL A   1      33.278  35.007  28.941  1.00  0.00     0.124 S 
ATOM     78  O   UNL A   1      32.422  35.292  30.088  1.00  0.00    -0.237 OA
ATOM     79  O   UNL A   1      33.917  36.166  28.323  1.00  0.00    -0.237 OA
ATOM     80  O   UNL A   1      32.758  34.016  28.000  1.00  0.00    -0.744 OA
ENDBRANCH  76  77
ENDBRANCH  48  71
BRANCH  60  81
ATOM     81  C   UNL A   1      39.779  33.883  37.175  1.00  0.00    -0.014 A 
ATOM     82  C   UNL A   1      39.039  33.497  38.307  1.00  0.00     0.010 A 
ATOM     83  C   UNL A   1      40.305  35.186  37.111  1.00  0.00     0.010 A 
ATOM     84  C   UNL A   1      38.804  34.409  39.338  1.00  0.00     0.020 A 
ATOM     85  C   UNL A   1      40.098  36.090  38.155  1.00  0.00     0.020 A 
ATOM     86  C   UNL A   1      39.334  35.700  39.256  1.00  0.00     0.054 A 
BRANCH  86  87
ATOM     87  S   UNL A   1      39.050  36.850  40.628  1.00  0.00     0.124 S 
ATOM     88  O   UNL A   1      38.273  37.906  39.984  1.00  0.00    -0.237 OA
ATOM     89  O   UNL A   1      38.317  36.028  41.589  1.00  0.00    -0.237 OA
ATOM     90  O   UNL A   1      40.397  37.234  41.044  1.00  0.00    -0.744 OA
ENDBRANCH  86  87
ENDBRANCH  60  81
ENDBRANCH  34  35
ENDBRANCH  26  29
ENDBRANCH  24  25
ENDBRANCH  23  24
ENDBRANCH   1  23
TORSDOF 17
ENDMDL
