MODEL 1
REMARK VINA RESULT:      -9.9      0.000      0.000
REMARK SMILES O=C(CCN1C(=O)S/C(=C\c2ccccc2F)C1=O)Nc1ccc(C(=O)NCCCCCCNC(=O)c2ccc(-c3c4nc(c(-c5ccc(S(=O)(=O)[O-])cc5)c5ccc([nH]5)c(-c5ccc(S(=O)(=O)[O-])cc5)c5nc(c(-c6ccc(S(=O)(=O)[O-])cc6)c6ccc3[nH]6)C=C5)C=C4)cc2)c(O)c1
REMARK SMILES IDX 29 1 28 2 27 3 25 4 26 5 24 7 21 8 22 9 99 10 23 11 97 12
REMARK SMILES IDX 20 13 1 14 2 15 3 17 4 18 5 19 6 20 18 21 7 22 8 23 9 24
REMARK SMILES IDX 19 25 10 26 11 27 12 28 16 29 13 30 15 31 17 32 14 33 98 34
REMARK SMILES IDX 30 36 31 37 32 38 33 39 34 40 35 41 36 43 37 44 38 45 96 46
REMARK SMILES IDX 39 47 95 48 40 49 41 50 42 51 89 52 43 53 94 54 88 55 90 56
REMARK SMILES IDX 44 57 93 58 87 59 86 60 45 62 75 63 56 64 74 65 57 66 60 67
REMARK SMILES IDX 73 68 91 69 58 70 59 71 72 73 92 74 61 75 46 76 47 77 55 78
REMARK SMILES IDX 48 79 54 80 49 81 50 82 51 83 52 84 53 85 76 86 77 87 85 88
REMARK SMILES IDX 78 89 84 90 79 91 80 92 81 93 82 94 83 95 62 96 63 97 71 98
REMARK SMILES IDX 64 99 70 100 65 101 66 102 67 103 68 104 69 105
REMARK H PARENT 27 6 20 16 98 35 34 42 90 61 60 72
REMARK Flexibility Score: inf
ROOT
ATOM      1  C   UNL A   1      39.825  24.731  26.114  1.00  0.00     0.021 C 
ENDROOT
BRANCH   1   2
ATOM      2  C   UNL A   1      38.887  23.740  26.798  1.00  0.00     0.116 C 
BRANCH   2   3
ATOM      3  N   UNL A   1      38.915  22.403  26.227  1.00  0.00    -0.352 N 
ATOM      4  C   UNL A   1      37.947  21.709  25.537  1.00  0.00     0.255 C 
ATOM      5  O   UNL A   1      38.179  20.553  25.188  1.00  0.00    -0.269 OA
ATOM      6  H   UNL A   1      39.761  21.917  26.353  1.00  0.00     0.163 HD
BRANCH   4   7
ATOM      7  C   UNL A   1      36.624  22.304  25.225  1.00  0.00     0.081 A 
ATOM      8  C   UNL A   1      34.169  23.432  24.419  1.00  0.00     0.044 A 
ATOM      9  C   UNL A   1      35.331  23.716  23.708  1.00  0.00     0.027 A 
ATOM     10  C   UNL A   1      34.251  22.638  25.568  1.00  0.00     0.073 A 
ATOM     11  C   UNL A   1      36.552  23.160  24.114  1.00  0.00     0.020 A 
ATOM     12  C   UNL A   1      35.470  22.104  25.983  1.00  0.00     0.130 A 
BRANCH   8  13
ATOM     13  N   UNL A   1      32.894  23.914  24.081  1.00  0.00    -0.326 N 
ATOM     14  O   UNL A   1      32.273  22.578  22.280  1.00  0.00    -0.275 OA
ATOM     15  C   UNL A   1      32.043  23.471  23.090  1.00  0.00     0.226 C 
ATOM     16  H   UNL A   1      32.564  24.667  24.622  1.00  0.00     0.169 HD
BRANCH  15  17
ATOM     17  C   UNL A   1      30.732  24.241  23.058  1.00  0.00     0.122 C 
BRANCH  17  18
ATOM     18  C   UNL A   1      30.827  25.621  22.393  1.00  0.00     0.140 C 
BRANCH  18  19
ATOM     19  N   UNL A   1      31.680  26.574  23.099  1.00  0.00    -0.268 N 
ATOM     20  C   UNL A   1      32.857  27.019  22.550  1.00  0.00     0.293 C 
ATOM     21  C   UNL A   1      31.324  27.104  24.322  1.00  0.00     0.268 C 
ATOM     22  O   UNL A   1      33.324  26.694  21.473  1.00  0.00    -0.261 OA
ATOM     23  S   UNL A   1      33.687  28.061  23.682  1.00  0.00    -0.022 SA
ATOM     24  C   UNL A   1      32.420  27.968  24.841  1.00  0.00     0.083 C 
ATOM     25  O   UNL A   1      30.299  26.853  24.939  1.00  0.00    -0.268 OA
ATOM     26  C   UNL A   1      32.389  28.477  26.081  1.00  0.00     0.032 C 
BRANCH  26  27
ATOM     27  C   UNL A   1      33.462  29.251  26.722  1.00  0.00     0.012 A 
ATOM     28  C   UNL A   1      34.687  28.624  26.992  1.00  0.00     0.011 A 
ATOM     29  C   UNL A   1      33.300  30.590  27.093  1.00  0.00     0.130 A 
ATOM     30  C   UNL A   1      35.731  29.340  27.586  1.00  0.00     0.001 A 
ATOM     31  C   UNL A   1      34.339  31.309  27.679  1.00  0.00     0.040 A 
ATOM     32  F   UNL A   1      32.126  31.209  26.890  1.00  0.00    -0.206 F 
ATOM     33  C   UNL A   1      35.560  30.683  27.922  1.00  0.00     0.003 A 
ENDBRANCH  26  27
ENDBRANCH  18  19
ENDBRANCH  17  18
ENDBRANCH  15  17
ENDBRANCH   8  13
BRANCH  12  34
ATOM     34  O   UNL A   1      35.437  21.437  27.176  1.00  0.00    -0.507 OA
ATOM     35  H   UNL A   1      34.845  20.722  27.297  1.00  0.00     0.293 HD
ENDBRANCH  12  34
ENDBRANCH   4   7
ENDBRANCH   2   3
ENDBRANCH   1   2
BRANCH   1  36
ATOM     36  C   UNL A   1      40.319  25.902  26.969  1.00  0.00     0.002 C 
BRANCH  36  37
ATOM     37  C   UNL A   1      41.136  26.983  26.256  1.00  0.00     0.002 C 
BRANCH  37  38
ATOM     38  C   UNL A   1      42.014  26.518  25.093  1.00  0.00     0.021 C 
BRANCH  38  39
ATOM     39  C   UNL A   1      43.520  26.635  25.307  1.00  0.00     0.116 C 
BRANCH  39  40
ATOM     40  N   UNL A   1      44.077  25.514  26.043  1.00  0.00    -0.352 N 
ATOM     41  C   UNL A   1      44.309  25.379  27.389  1.00  0.00     0.251 C 
ATOM     42  H   UNL A   1      44.324  24.735  25.494  1.00  0.00     0.163 HD
ATOM     43  O   UNL A   1      44.924  24.400  27.806  1.00  0.00    -0.269 OA
BRANCH  41  44
ATOM     44  C   UNL A   1      43.848  26.421  28.336  1.00  0.00     0.039 A 
ATOM     45  C   UNL A   1      42.929  26.069  29.327  1.00  0.00     0.014 A 
ATOM     46  C   UNL A   1      44.311  27.737  28.247  1.00  0.00     0.014 A 
ATOM     47  C   UNL A   1      42.522  27.020  30.266  1.00  0.00     0.010 A 
ATOM     48  C   UNL A   1      43.968  28.661  29.231  1.00  0.00     0.010 A 
ATOM     49  C   UNL A   1      43.065  28.315  30.248  1.00  0.00    -0.014 A 
BRANCH  49  50
ATOM     50  C   UNL A   1      42.708  29.312  31.292  1.00  0.00     0.031 A 
ATOM     51  C   UNL A   1      43.493  29.389  32.573  1.00  0.00     0.074 A 
ATOM     52  C   UNL A   1      41.634  30.106  31.113  1.00  0.00     0.049 A 
ATOM     53  N   UNL A   1      43.307  30.168  33.609  1.00  0.00    -0.248 NA
ATOM     54  C   UNL A   1      44.617  28.453  32.723  1.00  0.00     0.031 C 
ATOM     55  C   UNL A   1      40.760  30.095  29.937  1.00  0.00     0.029 A 
ATOM     56  N   UNL A   1      41.088  31.072  31.922  1.00  0.00    -0.354 N 
ATOM     57  C   UNL A   1      44.273  29.802  34.539  1.00  0.00     0.074 A 
ATOM     58  C   UNL A   1      45.010  28.698  33.965  1.00  0.00     0.031 C 
ATOM     59  C   UNL A   1      39.806  31.025  30.090  1.00  0.00     0.029 A 
ATOM     60  C   UNL A   1      39.968  31.667  31.392  1.00  0.00     0.049 A 
ATOM     61  H   UNL A   1      41.463  31.315  32.799  1.00  0.00     0.167 HD
ATOM     62  C   UNL A   1      44.532  30.343  35.754  1.00  0.00     0.031 A 
ATOM     63  C   UNL A   1      39.151  32.613  31.896  1.00  0.00     0.031 A 
ATOM     64  C   UNL A   1      43.793  31.441  36.320  1.00  0.00     0.049 A 
ATOM     65  C   UNL A   1      39.452  33.199  33.247  1.00  0.00     0.074 A 
ATOM     66  C   UNL A   1      44.020  32.108  37.511  1.00  0.00     0.029 A 
ATOM     67  N   UNL A   1      42.671  32.023  35.746  1.00  0.00    -0.354 N 
ATOM     68  N   UNL A   1      40.425  32.898  34.074  1.00  0.00    -0.248 NA
ATOM     69  C   UNL A   1      38.555  34.259  33.726  1.00  0.00     0.031 C 
ATOM     70  C   UNL A   1      42.995  33.041  37.693  1.00  0.00     0.029 A 
ATOM     71  C   UNL A   1      42.172  33.013  36.577  1.00  0.00     0.049 A 
ATOM     72  H   UNL A   1      42.286  31.770  34.875  1.00  0.00     0.167 HD
ATOM     73  C   UNL A   1      40.271  33.749  35.164  1.00  0.00     0.074 A 
ATOM     74  C   UNL A   1      39.123  34.586  34.880  1.00  0.00     0.031 C 
ATOM     75  C   UNL A   1      41.018  33.831  36.293  1.00  0.00     0.031 A 
BRANCH  62  76
ATOM     76  C   UNL A   1      45.647  29.729  36.566  1.00  0.00    -0.014 A 
ATOM     77  C   UNL A   1      45.395  28.728  37.523  1.00  0.00     0.010 A 
ATOM     78  C   UNL A   1      46.972  30.152  36.356  1.00  0.00     0.010 A 
ATOM     79  C   UNL A   1      46.438  28.210  38.298  1.00  0.00     0.020 A 
ATOM     80  C   UNL A   1      48.022  29.609  37.102  1.00  0.00     0.020 A 
ATOM     81  C   UNL A   1      47.744  28.659  38.086  1.00  0.00     0.054 A 
BRANCH  81  82
ATOM     82  S   UNL A   1      49.075  27.976  39.110  1.00  0.00     0.124 S 
ATOM     83  O   UNL A   1      50.000  27.464  38.100  1.00  0.00    -0.237 OA
ATOM     84  O   UNL A   1      49.541  29.145  39.851  1.00  0.00    -0.237 OA
ATOM     85  O   UNL A   1      48.407  26.956  39.915  1.00  0.00    -0.744 OA
ENDBRANCH  81  82
ENDBRANCH  62  76
BRANCH  63  86
ATOM     86  C   UNL A   1      37.973  33.059  31.101  1.00  0.00    -0.014 A 
ATOM     87  C   UNL A   1      36.676  32.631  31.432  1.00  0.00     0.010 A 
ATOM     88  C   UNL A   1      38.144  33.965  30.037  1.00  0.00     0.010 A 
ATOM     89  C   UNL A   1      35.571  33.104  30.717  1.00  0.00     0.020 A 
ATOM     90  C   UNL A   1      37.041  34.461  29.340  1.00  0.00     0.020 A 
ATOM     91  C   UNL A   1      35.760  34.026  29.683  1.00  0.00     0.054 A 
BRANCH  91  92
ATOM     92  S   UNL A   1      34.305  34.699  28.834  1.00  0.00     0.124 S 
ATOM     93  O   UNL A   1      34.244  36.058  29.362  1.00  0.00    -0.237 OA
ATOM     94  O   UNL A   1      34.681  34.580  27.428  1.00  0.00    -0.237 OA
ATOM     95  O   UNL A   1      33.223  33.812  29.257  1.00  0.00    -0.744 OA
ENDBRANCH  91  92
ENDBRANCH  63  86
BRANCH  75  96
ATOM     96  C   UNL A   1      40.635  34.881  37.305  1.00  0.00    -0.014 A 
ATOM     97  C   UNL A   1      41.223  36.158  37.299  1.00  0.00     0.010 A 
ATOM     98  C   UNL A   1      39.624  34.598  38.245  1.00  0.00     0.010 A 
ATOM     99  C   UNL A   1      40.832  37.121  38.234  1.00  0.00     0.020 A 
ATOM    100  C   UNL A   1      39.208  35.569  39.159  1.00  0.00     0.020 A 
ATOM    101  C   UNL A   1      39.825  36.821  39.156  1.00  0.00     0.054 A 
BRANCH 101 102
ATOM    102  S   UNL A   1      39.307  38.102  40.330  1.00  0.00     0.124 S 
ATOM    103  O   UNL A   1      38.156  38.690  39.652  1.00  0.00    -0.237 OA
ATOM    104  O   UNL A   1      39.003  37.330  41.532  1.00  0.00    -0.237 OA
ATOM    105  O   UNL A   1      40.478  38.970  40.436  1.00  0.00    -0.744 OA
ENDBRANCH 101 102
ENDBRANCH  75  96
ENDBRANCH  49  50
ENDBRANCH  41  44
ENDBRANCH  39  40
ENDBRANCH  38  39
ENDBRANCH  37  38
ENDBRANCH  36  37
ENDBRANCH   1  36
TORSDOF 22
ENDMDL
MODEL 2
REMARK VINA RESULT:      -9.9      1.643      2.284
REMARK SMILES O=C(CCN1C(=O)S/C(=C\c2ccccc2F)C1=O)Nc1ccc(C(=O)NCCCCCCNC(=O)c2ccc(-c3c4nc(c(-c5ccc(S(=O)(=O)[O-])cc5)c5ccc([nH]5)c(-c5ccc(S(=O)(=O)[O-])cc5)c5nc(c(-c6ccc(S(=O)(=O)[O-])cc6)c6ccc3[nH]6)C=C5)C=C4)cc2)c(O)c1
REMARK SMILES IDX 29 1 28 2 27 3 25 4 26 5 24 7 21 8 22 9 99 10 23 11 97 12
REMARK SMILES IDX 20 13 1 14 2 15 3 17 4 18 5 19 6 20 18 21 7 22 8 23 9 24
REMARK SMILES IDX 19 25 10 26 11 27 12 28 16 29 13 30 15 31 17 32 14 33 98 34
REMARK SMILES IDX 30 36 31 37 32 38 33 39 34 40 35 41 36 43 37 44 38 45 96 46
REMARK SMILES IDX 39 47 95 48 40 49 41 50 42 51 89 52 43 53 94 54 88 55 90 56
REMARK SMILES IDX 44 57 93 58 87 59 86 60 45 62 75 63 56 64 74 65 57 66 60 67
REMARK SMILES IDX 73 68 91 69 58 70 59 71 72 73 92 74 61 75 46 76 47 77 55 78
REMARK SMILES IDX 48 79 54 80 49 81 50 82 51 83 52 84 53 85 76 86 77 87 85 88
REMARK SMILES IDX 78 89 84 90 79 91 80 92 81 93 82 94 83 95 62 96 63 97 71 98
REMARK SMILES IDX 64 99 70 100 65 101 66 102 67 103 68 104 69 105
REMARK H PARENT 27 6 20 16 98 35 34 42 90 61 60 72
REMARK Flexibility Score: inf
ROOT
ATOM      1  C   UNL A   1      39.993  25.032  26.637  1.00  0.00     0.021 C 
ENDROOT
BRANCH   1   2
ATOM      2  C   UNL A   1      38.806  24.081  26.763  1.00  0.00     0.116 C 
BRANCH   2   3
ATOM      3  N   UNL A   1      39.023  22.776  26.157  1.00  0.00    -0.352 N 
ATOM      4  C   UNL A   1      38.142  21.930  25.526  1.00  0.00     0.255 C 
ATOM      5  O   UNL A   1      38.545  20.837  25.131  1.00  0.00    -0.269 OA
ATOM      6  H   UNL A   1      39.949  22.447  26.206  1.00  0.00     0.163 HD
BRANCH   4   7
ATOM      7  C   UNL A   1      36.714  22.284  25.330  1.00  0.00     0.081 A 
ATOM      8  C   UNL A   1      34.070  23.146  24.866  1.00  0.00     0.044 A 
ATOM      9  C   UNL A   1      35.069  24.079  25.130  1.00  0.00     0.027 A 
ATOM     10  C   UNL A   1      34.385  21.783  24.900  1.00  0.00     0.073 A 
ATOM     11  C   UNL A   1      36.381  23.648  25.368  1.00  0.00     0.020 A 
ATOM     12  C   UNL A   1      35.686  21.356  25.158  1.00  0.00     0.130 A 
BRANCH   8  13
ATOM     13  N   UNL A   1      32.733  23.472  24.588  1.00  0.00    -0.326 N 
ATOM     14  O   UNL A   1      32.774  24.040  22.332  1.00  0.00    -0.275 OA
ATOM     15  C   UNL A   1      32.175  23.864  23.389  1.00  0.00     0.226 C 
ATOM     16  H   UNL A   1      32.111  23.415  25.349  1.00  0.00     0.169 HD
BRANCH  15  17
ATOM     17  C   UNL A   1      30.677  24.105  23.491  1.00  0.00     0.122 C 
BRANCH  17  18
ATOM     18  C   UNL A   1      30.282  25.584  23.601  1.00  0.00     0.140 C 
BRANCH  18  19
ATOM     19  N   UNL A   1      31.024  26.334  24.611  1.00  0.00    -0.268 N 
ATOM     20  C   UNL A   1      30.718  26.230  25.945  1.00  0.00     0.293 C 
ATOM     21  C   UNL A   1      32.091  27.145  24.279  1.00  0.00     0.268 C 
ATOM     22  O   UNL A   1      29.836  25.546  26.435  1.00  0.00    -0.261 OA
ATOM     23  S   UNL A   1      31.712  27.326  26.875  1.00  0.00    -0.022 SA
ATOM     24  C   UNL A   1      32.591  27.850  25.492  1.00  0.00     0.083 C 
ATOM     25  O   UNL A   1      32.528  27.327  23.153  1.00  0.00    -0.268 OA
ATOM     26  C   UNL A   1      33.520  28.814  25.414  1.00  0.00     0.032 C 
BRANCH  26  27
ATOM     27  C   UNL A   1      34.002  29.638  26.531  1.00  0.00     0.012 A 
ATOM     28  C   UNL A   1      35.174  29.259  27.202  1.00  0.00     0.011 A 
ATOM     29  C   UNL A   1      33.322  30.781  26.966  1.00  0.00     0.130 A 
ATOM     30  C   UNL A   1      35.665  30.033  28.258  1.00  0.00     0.001 A 
ATOM     31  C   UNL A   1      33.811  31.558  28.013  1.00  0.00     0.040 A 
ATOM     32  F   UNL A   1      32.174  31.149  26.376  1.00  0.00    -0.206 F 
ATOM     33  C   UNL A   1      34.989  31.186  28.658  1.00  0.00     0.003 A 
ENDBRANCH  26  27
ENDBRANCH  18  19
ENDBRANCH  17  18
ENDBRANCH  15  17
ENDBRANCH   8  13
BRANCH  12  34
ATOM     34  O   UNL A   1      35.843  20.003  25.271  1.00  0.00    -0.507 OA
ATOM     35  H   UNL A   1      35.251  19.504  25.798  1.00  0.00     0.293 HD
ENDBRANCH  12  34
ENDBRANCH   4   7
ENDBRANCH   2   3
ENDBRANCH   1   2
BRANCH   1  36
ATOM     36  C   UNL A   1      40.123  26.105  27.724  1.00  0.00     0.002 C 
BRANCH  36  37
ATOM     37  C   UNL A   1      40.454  27.525  27.257  1.00  0.00     0.002 C 
BRANCH  37  38
ATOM     38  C   UNL A   1      41.301  27.647  25.989  1.00  0.00     0.021 C 
BRANCH  38  39
ATOM     39  C   UNL A   1      42.740  28.109  26.192  1.00  0.00     0.116 C 
BRANCH  39  40
ATOM     40  N   UNL A   1      43.622  27.041  26.630  1.00  0.00    -0.352 N 
ATOM     41  C   UNL A   1      44.142  26.790  27.875  1.00  0.00     0.251 C 
ATOM     42  H   UNL A   1      43.885  26.402  25.928  1.00  0.00     0.163 HD
ATOM     43  O   UNL A   1      44.990  25.912  28.015  1.00  0.00    -0.269 OA
BRANCH  41  44
ATOM     44  C   UNL A   1      43.709  27.593  29.042  1.00  0.00     0.039 A 
ATOM     45  C   UNL A   1      42.869  27.002  29.990  1.00  0.00     0.014 A 
ATOM     46  C   UNL A   1      44.120  28.919  29.202  1.00  0.00     0.014 A 
ATOM     47  C   UNL A   1      42.493  27.720  31.126  1.00  0.00     0.010 A 
ATOM     48  C   UNL A   1      43.810  29.605  30.375  1.00  0.00     0.010 A 
ATOM     49  C   UNL A   1      42.989  29.016  31.348  1.00  0.00    -0.014 A 
BRANCH  49  50
ATOM     50  C   UNL A   1      42.667  29.759  32.595  1.00  0.00     0.031 A 
ATOM     51  C   UNL A   1      43.551  29.637  33.805  1.00  0.00     0.074 A 
ATOM     52  C   UNL A   1      41.539  30.495  32.657  1.00  0.00     0.049 A 
ATOM     53  N   UNL A   1      43.410  30.181  34.988  1.00  0.00    -0.248 NA
ATOM     54  C   UNL A   1      44.734  28.771  33.682  1.00  0.00     0.031 C 
ATOM     55  C   UNL A   1      40.571  30.654  31.569  1.00  0.00     0.029 A 
ATOM     56  N   UNL A   1      41.011  31.241  33.682  1.00  0.00    -0.354 N 
ATOM     57  C   UNL A   1      44.470  29.708  35.753  1.00  0.00     0.074 A 
ATOM     58  C   UNL A   1      45.216  28.794  34.916  1.00  0.00     0.031 C 
ATOM     59  C   UNL A   1      39.583  31.466  31.975  1.00  0.00     0.029 A 
ATOM     60  C   UNL A   1      39.819  31.848  33.365  1.00  0.00     0.049 A 
ATOM     61  H   UNL A   1      41.445  31.332  34.561  1.00  0.00     0.167 HD
ATOM     62  C   UNL A   1      44.801  30.015  37.030  1.00  0.00     0.031 A 
ATOM     63  C   UNL A   1      38.996  32.616  34.107  1.00  0.00     0.031 A 
ATOM     64  C   UNL A   1      44.052  30.925  37.858  1.00  0.00     0.049 A 
ATOM     65  C   UNL A   1      39.378  32.943  35.523  1.00  0.00     0.074 A 
ATOM     66  C   UNL A   1      44.342  31.358  39.141  1.00  0.00     0.029 A 
ATOM     67  N   UNL A   1      42.856  31.528  37.496  1.00  0.00    -0.354 N 
ATOM     68  N   UNL A   1      40.432  32.555  36.201  1.00  0.00    -0.248 NA
ATOM     69  C   UNL A   1      38.468  33.822  36.270  1.00  0.00     0.031 C 
ATOM     70  C   UNL A   1      43.286  32.162  39.580  1.00  0.00     0.029 A 
ATOM     71  C   UNL A   1      42.375  32.297  38.543  1.00  0.00     0.049 A 
ATOM     72  H   UNL A   1      42.414  31.426  36.622  1.00  0.00     0.167 HD
ATOM     73  C   UNL A   1      40.324  33.160  37.449  1.00  0.00     0.074 A 
ATOM     74  C   UNL A   1      39.112  33.954  37.422  1.00  0.00     0.031 C 
ATOM     75  C   UNL A   1      41.158  33.071  38.515  1.00  0.00     0.031 A 
BRANCH  62  76
ATOM     76  C   UNL A   1      46.012  29.334  37.619  1.00  0.00    -0.014 A 
ATOM     77  C   UNL A   1      47.298  29.895  37.510  1.00  0.00     0.010 A 
ATOM     78  C   UNL A   1      45.857  28.117  38.308  1.00  0.00     0.010 A 
ATOM     79  C   UNL A   1      48.411  29.221  38.022  1.00  0.00     0.020 A 
ATOM     80  C   UNL A   1      46.962  27.458  38.854  1.00  0.00     0.020 A 
ATOM     81  C   UNL A   1      48.236  28.003  38.685  1.00  0.00     0.054 A 
BRANCH  81  82
ATOM     82  S   UNL A   1      49.698  27.147  39.331  1.00  0.00     0.124 S 
ATOM     83  O   UNL A   1      49.097  26.026  40.052  1.00  0.00    -0.237 OA
ATOM     84  O   UNL A   1      50.425  26.792  38.115  1.00  0.00    -0.237 OA
ATOM     85  O   UNL A   1      50.347  28.150  40.171  1.00  0.00    -0.744 OA
ENDBRANCH  81  82
ENDBRANCH  62  76
BRANCH  63  86
ATOM     86  C   UNL A   1      37.734  33.125  33.505  1.00  0.00    -0.014 A 
ATOM     87  C   UNL A   1      36.533  32.406  33.632  1.00  0.00     0.010 A 
ATOM     88  C   UNL A   1      37.719  34.370  32.847  1.00  0.00     0.010 A 
ATOM     89  C   UNL A   1      35.340  32.922  33.115  1.00  0.00     0.020 A 
ATOM     90  C   UNL A   1      36.525  34.902  32.356  1.00  0.00     0.020 A 
ATOM     91  C   UNL A   1      35.342  34.174  32.492  1.00  0.00     0.054 A 
BRANCH  91  92
ATOM     92  S   UNL A   1      33.768  34.868  31.916  1.00  0.00     0.124 S 
ATOM     93  O   UNL A   1      33.710  34.391  30.538  1.00  0.00    -0.237 OA
ATOM     94  O   UNL A   1      32.807  34.268  32.837  1.00  0.00    -0.237 OA
ATOM     95  O   UNL A   1      33.953  36.309  32.074  1.00  0.00    -0.744 OA
ENDBRANCH  91  92
ENDBRANCH  63  86
BRANCH  75  96
ATOM     96  C   UNL A   1      40.805  33.871  39.743  1.00  0.00    -0.014 A 
ATOM     97  C   UNL A   1      40.103  33.296  40.817  1.00  0.00     0.010 A 
ATOM     98  C   UNL A   1      41.236  35.208  39.845  1.00  0.00     0.010 A 
ATOM     99  C   UNL A   1      39.809  34.053  41.955  1.00  0.00     0.020 A 
ATOM    100  C   UNL A   1      40.973  35.957  40.994  1.00  0.00     0.020 A 
ATOM    101  C   UNL A   1      40.248  35.378  42.037  1.00  0.00     0.054 A 
BRANCH 101 102
ATOM    102  S   UNL A   1      39.889  36.324  43.541  1.00  0.00     0.124 S 
ATOM    103  O   UNL A   1      40.230  37.685  43.134  1.00  0.00    -0.237 OA
ATOM    104  O   UNL A   1      38.467  36.067  43.749  1.00  0.00    -0.237 OA
ATOM    105  O   UNL A   1      40.776  35.734  44.543  1.00  0.00    -0.744 OA
ENDBRANCH 101 102
ENDBRANCH  75  96
ENDBRANCH  49  50
ENDBRANCH  41  44
ENDBRANCH  39  40
ENDBRANCH  38  39
ENDBRANCH  37  38
ENDBRANCH  36  37
ENDBRANCH   1  36
TORSDOF 22
ENDMDL
MODEL 3
REMARK VINA RESULT:      -9.7      1.914      7.980
REMARK SMILES O=C(CCN1C(=O)S/C(=C\c2ccccc2F)C1=O)Nc1ccc(C(=O)NCCCCCCNC(=O)c2ccc(-c3c4nc(c(-c5ccc(S(=O)(=O)[O-])cc5)c5ccc([nH]5)c(-c5ccc(S(=O)(=O)[O-])cc5)c5nc(c(-c6ccc(S(=O)(=O)[O-])cc6)c6ccc3[nH]6)C=C5)C=C4)cc2)c(O)c1
REMARK SMILES IDX 29 1 28 2 27 3 25 4 26 5 24 7 21 8 22 9 99 10 23 11 97 12
REMARK SMILES IDX 20 13 1 14 2 15 3 17 4 18 5 19 6 20 18 21 7 22 8 23 9 24
REMARK SMILES IDX 19 25 10 26 11 27 12 28 16 29 13 30 15 31 17 32 14 33 98 34
REMARK SMILES IDX 30 36 31 37 32 38 33 39 34 40 35 41 36 43 37 44 38 45 96 46
REMARK SMILES IDX 39 47 95 48 40 49 41 50 42 51 89 52 43 53 94 54 88 55 90 56
REMARK SMILES IDX 44 57 93 58 87 59 86 60 45 62 75 63 56 64 74 65 57 66 60 67
REMARK SMILES IDX 73 68 91 69 58 70 59 71 72 73 92 74 61 75 46 76 47 77 55 78
REMARK SMILES IDX 48 79 54 80 49 81 50 82 51 83 52 84 53 85 76 86 77 87 85 88
REMARK SMILES IDX 78 89 84 90 79 91 80 92 81 93 82 94 83 95 62 96 63 97 71 98
REMARK SMILES IDX 64 99 70 100 65 101 66 102 67 103 68 104 69 105
REMARK H PARENT 27 6 20 16 98 35 34 42 90 61 60 72
REMARK Flexibility Score: inf
ROOT
ATOM      1  C   UNL A   1      39.554  25.391  27.305  1.00  0.00     0.021 C 
ENDROOT
BRANCH   1   2
ATOM      2  C   UNL A   1      38.729  24.130  27.548  1.00  0.00     0.116 C 
BRANCH   2   3
ATOM      3  N   UNL A   1      39.088  23.010  26.693  1.00  0.00    -0.352 N 
ATOM      4  C   UNL A   1      38.310  22.240  25.859  1.00  0.00     0.255 C 
ATOM      5  O   UNL A   1      38.829  21.298  25.263  1.00  0.00    -0.269 OA
ATOM      6  H   UNL A   1      40.041  22.763  26.714  1.00  0.00     0.163 HD
BRANCH   4   7
ATOM      7  C   UNL A   1      36.860  22.496  25.678  1.00  0.00     0.081 A 
ATOM      8  C   UNL A   1      34.159  23.182  25.252  1.00  0.00     0.044 A 
ATOM      9  C   UNL A   1      35.083  24.170  25.581  1.00  0.00     0.027 A 
ATOM     10  C   UNL A   1      34.577  21.848  25.202  1.00  0.00     0.073 A 
ATOM     11  C   UNL A   1      36.424  23.826  25.799  1.00  0.00     0.020 A 
ATOM     12  C   UNL A   1      35.906  21.506  25.441  1.00  0.00     0.130 A 
BRANCH   8  13
ATOM     13  N   UNL A   1      32.801  23.423  24.988  1.00  0.00    -0.326 N 
ATOM     14  O   UNL A   1      32.714  23.523  22.664  1.00  0.00    -0.275 OA
ATOM     15  C   UNL A   1      32.174  23.554  23.766  1.00  0.00     0.226 C 
ATOM     16  H   UNL A   1      32.220  23.509  25.778  1.00  0.00     0.169 HD
BRANCH  15  17
ATOM     17  C   UNL A   1      30.676  23.785  23.899  1.00  0.00     0.122 C 
BRANCH  17  18
ATOM     18  C   UNL A   1      30.210  25.176  23.447  1.00  0.00     0.140 C 
BRANCH  18  19
ATOM     19  N   UNL A   1      31.022  26.280  23.953  1.00  0.00    -0.268 N 
ATOM     20  C   UNL A   1      31.848  26.995  23.123  1.00  0.00     0.293 C 
ATOM     21  C   UNL A   1      30.964  26.682  25.272  1.00  0.00     0.268 C 
ATOM     22  O   UNL A   1      32.012  26.813  21.929  1.00  0.00    -0.261 OA
ATOM     23  S   UNL A   1      32.754  28.169  24.049  1.00  0.00    -0.022 SA
ATOM     24  C   UNL A   1      31.961  27.760  25.519  1.00  0.00     0.083 C 
ATOM     25  O   UNL A   1      30.260  26.188  26.140  1.00  0.00    -0.268 OA
ATOM     26  C   UNL A   1      32.215  28.216  26.755  1.00  0.00     0.032 C 
BRANCH  26  27
ATOM     27  C   UNL A   1      33.248  29.197  27.116  1.00  0.00     0.012 A 
ATOM     28  C   UNL A   1      34.559  28.754  27.343  1.00  0.00     0.011 A 
ATOM     29  C   UNL A   1      32.967  30.560  27.263  1.00  0.00     0.130 A 
ATOM     30  C   UNL A   1      35.566  29.667  27.672  1.00  0.00     0.001 A 
ATOM     31  C   UNL A   1      33.967  31.473  27.585  1.00  0.00     0.040 A 
ATOM     32  F   UNL A   1      31.714  31.012  27.097  1.00  0.00    -0.206 F 
ATOM     33  C   UNL A   1      35.272  31.026  27.786  1.00  0.00     0.003 A 
ENDBRANCH  26  27
ENDBRANCH  18  19
ENDBRANCH  17  18
ENDBRANCH  15  17
ENDBRANCH   8  13
BRANCH  12  34
ATOM     34  O   UNL A   1      36.166  20.164  25.469  1.00  0.00    -0.507 OA
ATOM     35  H   UNL A   1      36.760  19.788  24.851  1.00  0.00     0.293 HD
ENDBRANCH  12  34
ENDBRANCH   4   7
ENDBRANCH   2   3
ENDBRANCH   1   2
BRANCH   1  36
ATOM     36  C   UNL A   1      39.800  26.289  28.523  1.00  0.00     0.002 C 
BRANCH  36  37
ATOM     37  C   UNL A   1      39.769  27.800  28.284  1.00  0.00     0.002 C 
BRANCH  37  38
ATOM     38  C   UNL A   1      40.282  28.288  26.928  1.00  0.00     0.021 C 
BRANCH  38  39
ATOM     39  C   UNL A   1      41.677  28.905  26.927  1.00  0.00     0.116 C 
BRANCH  39  40
ATOM     40  N   UNL A   1      42.736  27.912  26.969  1.00  0.00    -0.352 N 
ATOM     41  C   UNL A   1      43.572  27.567  28.002  1.00  0.00     0.251 C 
ATOM     42  H   UNL A   1      42.875  27.413  26.132  1.00  0.00     0.163 HD
ATOM     43  O   UNL A   1      44.506  26.796  27.797  1.00  0.00    -0.269 OA
BRANCH  41  44
ATOM     44  C   UNL A   1      43.369  28.141  29.352  1.00  0.00     0.039 A 
ATOM     45  C   UNL A   1      43.852  29.425  29.615  1.00  0.00     0.014 A 
ATOM     46  C   UNL A   1      42.712  27.422  30.355  1.00  0.00     0.014 A 
ATOM     47  C   UNL A   1      43.623  30.010  30.863  1.00  0.00     0.010 A 
ATOM     48  C   UNL A   1      42.414  28.038  31.569  1.00  0.00     0.010 A 
ATOM     49  C   UNL A   1      42.871  29.336  31.839  1.00  0.00    -0.014 A 
BRANCH  49  50
ATOM     50  C   UNL A   1      42.545  29.981  33.139  1.00  0.00     0.031 A 
ATOM     51  C   UNL A   1      41.290  30.795  33.293  1.00  0.00     0.074 A 
ATOM     52  C   UNL A   1      43.415  29.885  34.164  1.00  0.00     0.049 A 
ATOM     53  N   UNL A   1      40.859  31.457  34.337  1.00  0.00    -0.248 NA
ATOM     54  C   UNL A   1      40.416  30.902  32.115  1.00  0.00     0.031 C 
ATOM     55  C   UNL A   1      44.691  29.167  34.127  1.00  0.00     0.029 A 
ATOM     56  N   UNL A   1      43.363  30.402  35.436  1.00  0.00    -0.354 N 
ATOM     57  C   UNL A   1      39.681  32.075  33.936  1.00  0.00     0.074 A 
ATOM     58  C   UNL A   1      39.491  31.750  32.540  1.00  0.00     0.031 C 
ATOM     59  C   UNL A   1      45.287  29.267  35.325  1.00  0.00     0.029 A 
ATOM     60  C   UNL A   1      44.462  30.095  36.201  1.00  0.00     0.049 A 
ATOM     61  H   UNL A   1      42.609  30.942  35.767  1.00  0.00     0.167 HD
ATOM     62  C   UNL A   1      38.827  32.833  34.666  1.00  0.00     0.031 A 
ATOM     63  C   UNL A   1      44.783  30.446  37.462  1.00  0.00     0.031 A 
ATOM     64  C   UNL A   1      39.023  33.155  36.055  1.00  0.00     0.049 A 
ATOM     65  C   UNL A   1      43.825  31.290  38.255  1.00  0.00     0.074 A 
ATOM     66  C   UNL A   1      38.183  33.855  36.903  1.00  0.00     0.029 A 
ATOM     67  N   UNL A   1      40.145  32.815  36.798  1.00  0.00    -0.354 N 
ATOM     68  N   UNL A   1      42.672  31.793  37.884  1.00  0.00    -0.248 NA
ATOM     69  C   UNL A   1      44.205  31.603  39.639  1.00  0.00     0.031 C 
ATOM     70  C   UNL A   1      38.829  34.003  38.135  1.00  0.00     0.029 A 
ATOM     71  C   UNL A   1      40.037  33.325  38.082  1.00  0.00     0.049 A 
ATOM     72  H   UNL A   1      40.906  32.287  36.463  1.00  0.00     0.167 HD
ATOM     73  C   UNL A   1      42.176  32.464  38.996  1.00  0.00     0.074 A 
ATOM     74  C   UNL A   1      43.147  32.286  40.057  1.00  0.00     0.031 C 
ATOM     75  C   UNL A   1      41.017  33.157  39.127  1.00  0.00     0.031 A 
BRANCH  62  76
ATOM     76  C   UNL A   1      37.616  33.393  33.960  1.00  0.00    -0.014 A 
ATOM     77  C   UNL A   1      37.730  34.414  32.999  1.00  0.00     0.010 A 
ATOM     78  C   UNL A   1      36.341  32.876  34.254  1.00  0.00     0.010 A 
ATOM     79  C   UNL A   1      36.589  34.951  32.395  1.00  0.00     0.020 A 
ATOM     80  C   UNL A   1      35.201  33.384  33.625  1.00  0.00     0.020 A 
ATOM     81  C   UNL A   1      35.331  34.436  32.717  1.00  0.00     0.054 A 
BRANCH  81  82
ATOM     82  S   UNL A   1      33.867  35.156  31.924  1.00  0.00     0.124 S 
ATOM     83  O   UNL A   1      32.781  34.445  32.596  1.00  0.00    -0.237 OA
ATOM     84  O   UNL A   1      33.988  36.573  32.256  1.00  0.00    -0.237 OA
ATOM     85  O   UNL A   1      34.042  34.832  30.511  1.00  0.00    -0.744 OA
ENDBRANCH  81  82
ENDBRANCH  62  76
BRANCH  63  86
ATOM     86  C   UNL A   1      46.075  29.985  38.042  1.00  0.00    -0.014 A 
ATOM     87  C   UNL A   1      47.229  30.784  37.958  1.00  0.00     0.010 A 
ATOM     88  C   UNL A   1      46.140  28.760  38.732  1.00  0.00     0.010 A 
ATOM     89  C   UNL A   1      48.422  30.370  38.558  1.00  0.00     0.020 A 
ATOM     90  C   UNL A   1      47.322  28.357  39.357  1.00  0.00     0.020 A 
ATOM     91  C   UNL A   1      48.457  29.164  39.265  1.00  0.00     0.054 A 
BRANCH  91  92
ATOM     92  S   UNL A   1      49.989  28.693  40.117  1.00  0.00     0.124 S 
ATOM     93  O   UNL A   1      49.519  28.445  41.475  1.00  0.00    -0.237 OA
ATOM     94  O   UNL A   1      50.414  27.515  39.366  1.00  0.00    -0.237 OA
ATOM     95  O   UNL A   1      50.844  29.867  39.953  1.00  0.00    -0.744 OA
ENDBRANCH  91  92
ENDBRANCH  63  86
BRANCH  75  96
ATOM     96  C   UNL A   1      40.718  33.763  40.475  1.00  0.00    -0.014 A 
ATOM     97  C   UNL A   1      41.128  35.068  40.802  1.00  0.00     0.010 A 
ATOM     98  C   UNL A   1      39.961  33.030  41.409  1.00  0.00     0.010 A 
ATOM     99  C   UNL A   1      40.816  35.614  42.050  1.00  0.00     0.020 A 
ATOM    100  C   UNL A   1      39.620  33.586  42.645  1.00  0.00     0.020 A 
ATOM    101  C   UNL A   1      40.061  34.870  42.963  1.00  0.00     0.054 A 
BRANCH 101 102
ATOM    102  S   UNL A   1      39.635  35.619  44.558  1.00  0.00     0.124 S 
ATOM    103  O   UNL A   1      39.899  34.525  45.489  1.00  0.00    -0.237 OA
ATOM    104  O   UNL A   1      40.558  36.748  44.638  1.00  0.00    -0.237 OA
ATOM    105  O   UNL A   1      38.227  35.983  44.407  1.00  0.00    -0.744 OA
ENDBRANCH 101 102
ENDBRANCH  75  96
ENDBRANCH  49  50
ENDBRANCH  41  44
ENDBRANCH  39  40
ENDBRANCH  38  39
ENDBRANCH  37  38
ENDBRANCH  36  37
ENDBRANCH   1  36
TORSDOF 22
ENDMDL
