MODEL 1
REMARK VINA RESULT:     -10.4      0.000      0.000
REMARK SMILES CC[NH+](CC)[C@](C)(C(=O)NCCCCCCNC(=O)c1ccc(-c2c3nc(c(-c4ccc(S(=O)(=O)[O-])cc4)c4ccc([nH]4)c(-c4ccc(S(=O)(=O)[O-])cc4)c4nc(c(-c5ccc(S(=O)(=O)[O-])cc5)c5ccc2[nH]5)C=C4)C=C3)cc1)c1cc(F)c(C)cc1F
REMARK SMILES IDX 14 1 13 2 12 3 11 4 10 5 8 6 9 7 6 9 7 10 3 11 2 13 1 14
REMARK SMILES IDX 4 15 5 16 80 17 81 18 87 19 82 20 86 21 88 22 83 23 84 24
REMARK SMILES IDX 85 25 15 26 16 27 17 28 18 29 19 31 20 32 21 33 79 34 22 35
REMARK SMILES IDX 78 36 23 37 24 38 25 39 72 40 26 41 77 42 71 43 73 44 27 45
REMARK SMILES IDX 76 46 70 47 69 48 28 50 58 51 39 52 57 53 40 54 43 55 56 56
REMARK SMILES IDX 74 57 41 58 42 59 55 61 75 62 44 63 29 64 30 65 38 66 31 67
REMARK SMILES IDX 37 68 32 69 33 70 34 71 35 72 36 73 59 74 60 75 68 76 61 77
REMARK SMILES IDX 67 78 62 79 63 80 64 81 65 82 66 83 45 84 46 85 54 86 47 87
REMARK SMILES IDX 53 88 48 89 49 90 50 91 51 92 52 93
REMARK H PARENT 10 8 3 12 17 30 73 49 43 60
REMARK Flexibility Score: inf
ROOT
ATOM      1  C   UNL A   1      31.563  28.362  26.194  1.00  0.00     0.002 C 
ENDROOT
BRANCH   1   2
ATOM      2  C   UNL A   1      31.092  27.510  25.008  1.00  0.00     0.002 C 
BRANCH   2   3
ATOM      3  C   UNL A   1      30.379  26.202  25.363  1.00  0.00     0.021 C 
BRANCH   3   4
ATOM      4  C   UNL A   1      30.720  25.028  24.454  1.00  0.00     0.116 C 
BRANCH   4   5
ATOM      5  N   UNL A   1      30.461  23.747  25.074  1.00  0.00    -0.350 N 
ATOM      6  C   UNL A   1      31.158  22.578  25.192  1.00  0.00     0.286 C 
ATOM      7  O   UNL A   1      30.572  21.760  25.920  1.00  0.00    -0.267 OA
ATOM      8  H   UNL A   1      29.580  23.708  25.512  1.00  0.00     0.163 HD
BRANCH   6   9
ATOM      9  C   UNL A   1      32.511  22.209  24.404  1.00  0.00     0.202 C 
ATOM     10  C   UNL A   1      32.292  22.692  22.941  1.00  0.00     0.096 C 
BRANCH   9  11
ATOM     11  N   UNL A   1      33.804  22.731  25.021  1.00  0.00    -0.319 N 
ATOM     12  H   UNL A   1      34.013  21.989  25.690  1.00  0.00     0.349 HD
BRANCH  11  13
ATOM     13  C   UNL A   1      33.759  23.898  25.900  1.00  0.00     0.259 C 
ATOM     14  C   UNL A   1      34.369  25.170  25.314  1.00  0.00     0.071 C 
ENDBRANCH  11  13
BRANCH  11  15
ATOM     15  C   UNL A   1      34.885  22.850  24.011  1.00  0.00     0.259 C 
ATOM     16  C   UNL A   1      36.140  22.013  24.266  1.00  0.00     0.071 C 
ENDBRANCH  11  15
ENDBRANCH   9  11
BRANCH   9  17
ATOM     17  C   UNL A   1      32.629  20.634  24.406  1.00  0.00     0.060 A 
ATOM     18  C   UNL A   1      32.350  19.838  23.275  1.00  0.00     0.053 A 
ATOM     19  C   UNL A   1      33.061  19.950  25.559  1.00  0.00     0.133 A 
ATOM     20  C   UNL A   1      32.469  18.449  23.318  1.00  0.00     0.126 A 
ATOM     21  C   UNL A   1      33.150  18.552  25.606  1.00  0.00     0.046 A 
ATOM     22  F   UNL A   1      33.409  20.627  26.664  1.00  0.00    -0.206 F 
ATOM     23  F   UNL A   1      32.215  17.749  22.203  1.00  0.00    -0.207 F 
ATOM     24  C   UNL A   1      32.844  17.784  24.481  1.00  0.00    -0.012 A 
ATOM     25  C   UNL A   1      32.937  16.291  24.487  1.00  0.00     0.047 C 
ENDBRANCH   9  17
ENDBRANCH   6   9
ENDBRANCH   4   5
ENDBRANCH   3   4
ENDBRANCH   2   3
ENDBRANCH   1   2
BRANCH   1  26
ATOM     26  C   UNL A   1      32.958  28.049  26.738  1.00  0.00     0.021 C 
BRANCH  26  27
ATOM     27  C   UNL A   1      34.066  28.992  26.285  1.00  0.00     0.116 C 
BRANCH  27  28
ATOM     28  N   UNL A   1      33.845  30.362  26.701  1.00  0.00    -0.352 N 
ATOM     29  C   UNL A   1      34.552  31.116  27.613  1.00  0.00     0.251 C 
ATOM     30  H   UNL A   1      33.084  30.817  26.274  1.00  0.00     0.163 HD
ATOM     31  O   UNL A   1      34.152  32.225  27.936  1.00  0.00    -0.269 OA
BRANCH  29  32
ATOM     32  C   UNL A   1      35.777  30.554  28.223  1.00  0.00     0.039 A 
ATOM     33  C   UNL A   1      37.015  30.908  27.683  1.00  0.00     0.014 A 
ATOM     34  C   UNL A   1      35.705  29.700  29.328  1.00  0.00     0.014 A 
ATOM     35  C   UNL A   1      38.188  30.458  28.293  1.00  0.00     0.010 A 
ATOM     36  C   UNL A   1      36.875  29.308  29.973  1.00  0.00     0.010 A 
ATOM     37  C   UNL A   1      38.127  29.685  29.465  1.00  0.00    -0.014 A 
BRANCH  37  38
ATOM     38  C   UNL A   1      39.362  29.277  30.181  1.00  0.00     0.031 A 
ATOM     39  C   UNL A   1      39.796  30.012  31.419  1.00  0.00     0.074 A 
ATOM     40  C   UNL A   1      40.128  28.290  29.676  1.00  0.00     0.049 A 
ATOM     41  N   UNL A   1      40.878  29.849  32.136  1.00  0.00    -0.248 NA
ATOM     42  C   UNL A   1      38.910  31.084  31.901  1.00  0.00     0.031 C 
ATOM     43  C   UNL A   1      39.832  27.525  28.461  1.00  0.00     0.029 A 
ATOM     44  N   UNL A   1      41.318  27.766  30.114  1.00  0.00    -0.354 N 
ATOM     45  C   UNL A   1      40.813  30.806  33.141  1.00  0.00     0.074 A 
ATOM     46  C   UNL A   1      39.608  31.574  32.916  1.00  0.00     0.031 C 
ATOM     47  C   UNL A   1      40.803  26.618  28.265  1.00  0.00     0.029 A 
ATOM     48  C   UNL A   1      41.809  26.763  29.311  1.00  0.00     0.049 A 
ATOM     49  H   UNL A   1      41.777  28.079  30.927  1.00  0.00     0.167 HD
ATOM     50  C   UNL A   1      41.671  31.015  34.169  1.00  0.00     0.031 A 
ATOM     51  C   UNL A   1      42.947  26.047  29.399  1.00  0.00     0.031 A 
ATOM     52  C   UNL A   1      42.863  30.242  34.395  1.00  0.00     0.049 A 
ATOM     53  C   UNL A   1      43.893  26.311  30.539  1.00  0.00     0.074 A 
ATOM     54  C   UNL A   1      43.767  30.341  35.438  1.00  0.00     0.029 A 
ATOM     55  N   UNL A   1      43.322  29.232  33.562  1.00  0.00    -0.354 N 
ATOM     56  N   UNL A   1      43.781  27.179  31.516  1.00  0.00    -0.248 NA
ATOM     57  C   UNL A   1      45.112  25.494  30.592  1.00  0.00     0.031 C 
ATOM     58  C   UNL A   1      44.798  29.425  35.211  1.00  0.00     0.029 A 
ATOM     59  C   UNL A   1      44.509  28.717  34.054  1.00  0.00     0.049 A 
ATOM     60  H   UNL A   1      42.870  28.927  32.743  1.00  0.00     0.167 HD
ATOM     61  C   UNL A   1      44.905  26.996  32.314  1.00  0.00     0.074 A 
ATOM     62  C   UNL A   1      45.675  25.926  31.712  1.00  0.00     0.031 C 
ATOM     63  C   UNL A   1      45.265  27.653  33.443  1.00  0.00     0.031 A 
BRANCH  50  64
ATOM     64  C   UNL A   1      41.351  32.134  35.126  1.00  0.00    -0.014 A 
ATOM     65  C   UNL A   1      40.784  31.871  36.387  1.00  0.00     0.010 A 
ATOM     66  C   UNL A   1      41.654  33.462  34.775  1.00  0.00     0.010 A 
ATOM     67  C   UNL A   1      40.489  32.920  37.262  1.00  0.00     0.020 A 
ATOM     68  C   UNL A   1      41.385  34.511  35.659  1.00  0.00     0.020 A 
ATOM     69  C   UNL A   1      40.787  34.234  36.890  1.00  0.00     0.054 A 
BRANCH  69  70
ATOM     70  S   UNL A   1      40.408  35.574  38.052  1.00  0.00     0.124 S 
ATOM     71  O   UNL A   1      41.702  35.787  38.695  1.00  0.00    -0.237 OA
ATOM     72  O   UNL A   1      39.962  36.649  37.169  1.00  0.00    -0.237 OA
ATOM     73  O   UNL A   1      39.372  35.007  38.911  1.00  0.00    -0.744 OA
ENDBRANCH  69  70
ENDBRANCH  50  64
BRANCH  51  74
ATOM     74  C   UNL A   1      43.251  25.010  28.378  1.00  0.00    -0.014 A 
ATOM     75  C   UNL A   1      42.913  23.664  28.605  1.00  0.00     0.010 A 
ATOM     76  C   UNL A   1      43.866  25.365  27.162  1.00  0.00     0.010 A 
ATOM     77  C   UNL A   1      43.197  22.690  27.643  1.00  0.00     0.020 A 
ATOM     78  C   UNL A   1      44.127  24.398  26.187  1.00  0.00     0.020 A 
ATOM     79  C   UNL A   1      43.801  23.064  26.439  1.00  0.00     0.054 A 
BRANCH  79  80
ATOM     80  S   UNL A   1      44.109  21.792  25.181  1.00  0.00     0.124 S 
ATOM     81  O   UNL A   1      43.028  20.846  25.437  1.00  0.00    -0.237 OA
ATOM     82  O   UNL A   1      44.009  22.549  23.936  1.00  0.00    -0.237 OA
ATOM     83  O   UNL A   1      45.451  21.313  25.504  1.00  0.00    -0.744 OA
ENDBRANCH  79  80
ENDBRANCH  51  74
BRANCH  63  84
ATOM     84  C   UNL A   1      46.537  27.222  34.121  1.00  0.00    -0.014 A 
ATOM     85  C   UNL A   1      46.537  26.194  35.081  1.00  0.00     0.010 A 
ATOM     86  C   UNL A   1      47.760  27.807  33.741  1.00  0.00     0.010 A 
ATOM     87  C   UNL A   1      47.735  25.776  35.667  1.00  0.00     0.020 A 
ATOM     88  C   UNL A   1      48.961  27.373  34.305  1.00  0.00     0.020 A 
ATOM     89  C   UNL A   1      48.940  26.367  35.273  1.00  0.00     0.054 A 
BRANCH  89  90
ATOM     90  S   UNL A   1      50.486  25.766  36.005  1.00  0.00     0.124 S 
ATOM     91  O   UNL A   1      50.915  24.764  35.034  1.00  0.00    -0.237 OA
ATOM     92  O   UNL A   1      51.304  26.975  36.065  1.00  0.00    -0.237 OA
ATOM     93  O   UNL A   1      50.072  25.238  37.304  1.00  0.00    -0.744 OA
ENDBRANCH  89  90
ENDBRANCH  63  84
ENDBRANCH  37  38
ENDBRANCH  29  32
ENDBRANCH  27  28
ENDBRANCH  26  27
ENDBRANCH   1  26
TORSDOF 20
ENDMDL
MODEL 2
REMARK VINA RESULT:     -10.3      2.224      2.942
REMARK SMILES CC[NH+](CC)[C@](C)(C(=O)NCCCCCCNC(=O)c1ccc(-c2c3nc(c(-c4ccc(S(=O)(=O)[O-])cc4)c4ccc([nH]4)c(-c4ccc(S(=O)(=O)[O-])cc4)c4nc(c(-c5ccc(S(=O)(=O)[O-])cc5)c5ccc2[nH]5)C=C4)C=C3)cc1)c1cc(F)c(C)cc1F
REMARK SMILES IDX 14 1 13 2 12 3 11 4 10 5 8 6 9 7 6 9 7 10 3 11 2 13 1 14
REMARK SMILES IDX 4 15 5 16 80 17 81 18 87 19 82 20 86 21 88 22 83 23 84 24
REMARK SMILES IDX 85 25 15 26 16 27 17 28 18 29 19 31 20 32 21 33 79 34 22 35
REMARK SMILES IDX 78 36 23 37 24 38 25 39 72 40 26 41 77 42 71 43 73 44 27 45
REMARK SMILES IDX 76 46 70 47 69 48 28 50 58 51 39 52 57 53 40 54 43 55 56 56
REMARK SMILES IDX 74 57 41 58 42 59 55 61 75 62 44 63 29 64 30 65 38 66 31 67
REMARK SMILES IDX 37 68 32 69 33 70 34 71 35 72 36 73 59 74 60 75 68 76 61 77
REMARK SMILES IDX 67 78 62 79 63 80 64 81 65 82 66 83 45 84 46 85 54 86 47 87
REMARK SMILES IDX 53 88 48 89 49 90 50 91 51 92 52 93
REMARK H PARENT 10 8 3 12 17 30 73 49 43 60
REMARK Flexibility Score: inf
ROOT
ATOM      1  C   UNL A   1      31.421  28.323  26.438  1.00  0.00     0.002 C 
ENDROOT
BRANCH   1   2
ATOM      2  C   UNL A   1      30.850  27.494  25.280  1.00  0.00     0.002 C 
BRANCH   2   3
ATOM      3  C   UNL A   1      30.509  26.036  25.603  1.00  0.00     0.021 C 
BRANCH   3   4
ATOM      4  C   UNL A   1      31.054  25.023  24.604  1.00  0.00     0.116 C 
BRANCH   4   5
ATOM      5  N   UNL A   1      30.851  23.655  25.028  1.00  0.00    -0.350 N 
ATOM      6  C   UNL A   1      31.593  22.509  24.965  1.00  0.00     0.286 C 
ATOM      7  O   UNL A   1      31.047  21.571  25.568  1.00  0.00    -0.267 OA
ATOM      8  H   UNL A   1      29.977  23.518  25.462  1.00  0.00     0.163 HD
BRANCH   6   9
ATOM      9  C   UNL A   1      32.948  22.314  24.121  1.00  0.00     0.202 C 
ATOM     10  C   UNL A   1      32.668  22.945  22.725  1.00  0.00     0.096 C 
BRANCH   9  11
ATOM     11  N   UNL A   1      34.221  22.842  24.773  1.00  0.00    -0.319 N 
ATOM     12  H   UNL A   1      34.664  21.970  25.064  1.00  0.00     0.349 HD
BRANCH  11  13
ATOM     13  C   UNL A   1      34.132  23.552  26.048  1.00  0.00     0.259 C 
ATOM     14  C   UNL A   1      34.548  22.737  27.270  1.00  0.00     0.071 C 
ENDBRANCH  11  13
BRANCH  11  15
ATOM     15  C   UNL A   1      35.075  23.569  23.802  1.00  0.00     0.259 C 
ATOM     16  C   UNL A   1      36.438  22.942  23.503  1.00  0.00     0.071 C 
ENDBRANCH  11  15
ENDBRANCH   9  11
BRANCH   9  17
ATOM     17  C   UNL A   1      33.157  20.759  23.942  1.00  0.00     0.060 A 
ATOM     18  C   UNL A   1      34.125  20.023  24.658  1.00  0.00     0.053 A 
ATOM     19  C   UNL A   1      32.341  20.024  23.060  1.00  0.00     0.133 A 
ATOM     20  C   UNL A   1      34.275  18.649  24.471  1.00  0.00     0.126 A 
ATOM     21  C   UNL A   1      32.516  18.650  22.853  1.00  0.00     0.046 A 
ATOM     22  F   UNL A   1      31.352  20.628  22.382  1.00  0.00    -0.206 F 
ATOM     23  F   UNL A   1      35.195  18.000  25.200  1.00  0.00    -0.207 F 
ATOM     24  C   UNL A   1      33.498  17.947  23.556  1.00  0.00    -0.012 A 
ATOM     25  C   UNL A   1      33.709  16.477  23.372  1.00  0.00     0.047 C 
ENDBRANCH   9  17
ENDBRANCH   6   9
ENDBRANCH   4   5
ENDBRANCH   3   4
ENDBRANCH   2   3
ENDBRANCH   1   2
BRANCH   1  26
ATOM     26  C   UNL A   1      32.764  27.857  27.004  1.00  0.00     0.021 C 
BRANCH  26  27
ATOM     27  C   UNL A   1      33.969  28.706  26.620  1.00  0.00     0.116 C 
BRANCH  27  28
ATOM     28  N   UNL A   1      33.868  30.072  27.091  1.00  0.00    -0.352 N 
ATOM     29  C   UNL A   1      34.755  30.791  27.864  1.00  0.00     0.251 C 
ATOM     30  H   UNL A   1      33.053  30.554  26.822  1.00  0.00     0.163 HD
ATOM     31  O   UNL A   1      34.453  31.903  28.273  1.00  0.00    -0.269 OA
BRANCH  29  32
ATOM     32  C   UNL A   1      36.057  30.188  28.222  1.00  0.00     0.039 A 
ATOM     33  C   UNL A   1      37.095  30.235  27.289  1.00  0.00     0.014 A 
ATOM     34  C   UNL A   1      36.258  29.599  29.474  1.00  0.00     0.014 A 
ATOM     35  C   UNL A   1      38.357  29.748  27.635  1.00  0.00     0.010 A 
ATOM     36  C   UNL A   1      37.533  29.175  29.840  1.00  0.00     0.010 A 
ATOM     37  C   UNL A   1      38.595  29.249  28.927  1.00  0.00    -0.014 A 
BRANCH  37  38
ATOM     38  C   UNL A   1      39.952  28.815  29.344  1.00  0.00     0.031 A 
ATOM     39  C   UNL A   1      40.854  29.762  30.085  1.00  0.00     0.074 A 
ATOM     40  C   UNL A   1      40.396  27.591  28.994  1.00  0.00     0.049 A 
ATOM     41  N   UNL A   1      42.094  29.589  30.467  1.00  0.00    -0.248 NA
ATOM     42  C   UNL A   1      40.299  31.083  30.421  1.00  0.00     0.031 C 
ATOM     43  C   UNL A   1      39.627  26.594  28.243  1.00  0.00     0.029 A 
ATOM     44  N   UNL A   1      41.605  26.980  29.212  1.00  0.00    -0.354 N 
ATOM     45  C   UNL A   1      42.472  30.782  31.072  1.00  0.00     0.074 A 
ATOM     46  C   UNL A   1      41.347  31.685  30.967  1.00  0.00     0.031 C 
ATOM     47  C   UNL A   1      40.377  25.491  28.084  1.00  0.00     0.029 A 
ATOM     48  C   UNL A   1      41.688  25.714  28.681  1.00  0.00     0.049 A 
ATOM     49  H   UNL A   1      42.342  27.407  29.705  1.00  0.00     0.167 HD
ATOM     50  C   UNL A   1      43.646  31.091  31.674  1.00  0.00     0.031 A 
ATOM     51  C   UNL A   1      42.710  24.836  28.665  1.00  0.00     0.031 A 
ATOM     52  C   UNL A   1      44.759  30.186  31.785  1.00  0.00     0.049 A 
ATOM     53  C   UNL A   1      44.009  25.209  29.325  1.00  0.00     0.074 A 
ATOM     54  C   UNL A   1      45.969  30.387  32.425  1.00  0.00     0.029 A 
ATOM     55  N   UNL A   1      44.801  28.912  31.238  1.00  0.00    -0.354 N 
ATOM     56  N   UNL A   1      44.325  26.320  29.947  1.00  0.00    -0.248 NA
ATOM     57  C   UNL A   1      45.084  24.209  29.287  1.00  0.00     0.031 C 
ATOM     58  C   UNL A   1      46.763  29.253  32.223  1.00  0.00     0.029 A 
ATOM     59  C   UNL A   1      46.026  28.325  31.504  1.00  0.00     0.049 A 
ATOM     60  H   UNL A   1      44.069  28.488  30.736  1.00  0.00     0.167 HD
ATOM     61  C   UNL A   1      45.629  26.142  30.396  1.00  0.00     0.074 A 
ATOM     62  C   UNL A   1      46.036  24.813  29.986  1.00  0.00     0.031 C 
ATOM     63  C   UNL A   1      46.417  27.002  31.087  1.00  0.00     0.031 A 
BRANCH  50  64
ATOM     64  C   UNL A   1      43.786  32.473  32.257  1.00  0.00    -0.014 A 
ATOM     65  C   UNL A   1      43.437  32.737  33.593  1.00  0.00     0.010 A 
ATOM     66  C   UNL A   1      44.308  33.514  31.467  1.00  0.00     0.010 A 
ATOM     67  C   UNL A   1      43.569  34.026  34.118  1.00  0.00     0.020 A 
ATOM     68  C   UNL A   1      44.466  34.798  31.996  1.00  0.00     0.020 A 
ATOM     69  C   UNL A   1      44.078  35.049  33.314  1.00  0.00     0.054 A 
BRANCH  69  70
ATOM     70  S   UNL A   1      44.255  36.709  34.026  1.00  0.00     0.124 S 
ATOM     71  O   UNL A   1      43.236  37.457  33.294  1.00  0.00    -0.237 OA
ATOM     72  O   UNL A   1      43.973  36.483  35.441  1.00  0.00    -0.237 OA
ATOM     73  O   UNL A   1      45.635  37.073  33.719  1.00  0.00    -0.744 OA
ENDBRANCH  69  70
ENDBRANCH  50  64
BRANCH  51  74
ATOM     74  C   UNL A   1      42.540  23.514  28.003  1.00  0.00    -0.014 A 
ATOM     75  C   UNL A   1      43.108  23.270  26.740  1.00  0.00     0.010 A 
ATOM     76  C   UNL A   1      41.823  22.485  28.642  1.00  0.00     0.010 A 
ATOM     77  C   UNL A   1      42.950  22.027  26.121  1.00  0.00     0.020 A 
ATOM     78  C   UNL A   1      41.686  21.232  28.037  1.00  0.00     0.020 A 
ATOM     79  C   UNL A   1      42.241  21.015  26.774  1.00  0.00     0.054 A 
BRANCH  79  80
ATOM     80  S   UNL A   1      42.096  19.391  25.977  1.00  0.00     0.124 S 
ATOM     81  O   UNL A   1      42.905  19.571  24.776  1.00  0.00    -0.237 OA
ATOM     82  O   UNL A   1      42.651  18.493  26.987  1.00  0.00    -0.237 OA
ATOM     83  O   UNL A   1      40.660  19.250  25.750  1.00  0.00    -0.744 OA
ENDBRANCH  79  80
ENDBRANCH  51  74
BRANCH  63  84
ATOM     84  C   UNL A   1      47.794  26.527  31.467  1.00  0.00    -0.014 A 
ATOM     85  C   UNL A   1      48.901  26.764  30.633  1.00  0.00     0.010 A 
ATOM     86  C   UNL A   1      47.992  25.897  32.710  1.00  0.00     0.010 A 
ATOM     87  C   UNL A   1      50.179  26.356  31.024  1.00  0.00     0.020 A 
ATOM     88  C   UNL A   1      49.272  25.512  33.115  1.00  0.00     0.020 A 
ATOM     89  C   UNL A   1      50.356  25.735  32.265  1.00  0.00     0.054 A 
BRANCH  89  90
ATOM     90  S   UNL A   1      52.033  25.268  32.774  1.00  0.00     0.124 S 
ATOM     91  O   UNL A   1      51.957  25.396  34.226  1.00  0.00    -0.237 OA
ATOM     92  O   UNL A   1      52.153  23.902  32.269  1.00  0.00    -0.237 OA
ATOM     93  O   UNL A   1      52.885  26.249  32.105  1.00  0.00    -0.744 OA
ENDBRANCH  89  90
ENDBRANCH  63  84
ENDBRANCH  37  38
ENDBRANCH  29  32
ENDBRANCH  27  28
ENDBRANCH  26  27
ENDBRANCH   1  26
TORSDOF 20
ENDMDL
MODEL 3
REMARK VINA RESULT:     -10.1      2.446      8.151
REMARK SMILES CC[NH+](CC)[C@](C)(C(=O)NCCCCCCNC(=O)c1ccc(-c2c3nc(c(-c4ccc(S(=O)(=O)[O-])cc4)c4ccc([nH]4)c(-c4ccc(S(=O)(=O)[O-])cc4)c4nc(c(-c5ccc(S(=O)(=O)[O-])cc5)c5ccc2[nH]5)C=C4)C=C3)cc1)c1cc(F)c(C)cc1F
REMARK SMILES IDX 14 1 13 2 12 3 11 4 10 5 8 6 9 7 6 9 7 10 3 11 2 13 1 14
REMARK SMILES IDX 4 15 5 16 80 17 81 18 87 19 82 20 86 21 88 22 83 23 84 24
REMARK SMILES IDX 85 25 15 26 16 27 17 28 18 29 19 31 20 32 21 33 79 34 22 35
REMARK SMILES IDX 78 36 23 37 24 38 25 39 72 40 26 41 77 42 71 43 73 44 27 45
REMARK SMILES IDX 76 46 70 47 69 48 28 50 58 51 39 52 57 53 40 54 43 55 56 56
REMARK SMILES IDX 74 57 41 58 42 59 55 61 75 62 44 63 29 64 30 65 38 66 31 67
REMARK SMILES IDX 37 68 32 69 33 70 34 71 35 72 36 73 59 74 60 75 68 76 61 77
REMARK SMILES IDX 67 78 62 79 63 80 64 81 65 82 66 83 45 84 46 85 54 86 47 87
REMARK SMILES IDX 53 88 48 89 49 90 50 91 51 92 52 93
REMARK H PARENT 10 8 3 12 17 30 73 49 43 60
REMARK Flexibility Score: inf
ROOT
ATOM      1  C   UNL A   1      31.570  28.367  25.636  1.00  0.00     0.002 C 
ENDROOT
BRANCH   1   2
ATOM      2  C   UNL A   1      30.831  27.697  24.470  1.00  0.00     0.002 C 
BRANCH   2   3
ATOM      3  C   UNL A   1      30.191  26.339  24.773  1.00  0.00     0.021 C 
BRANCH   3   4
ATOM      4  C   UNL A   1      30.914  25.148  24.156  1.00  0.00     0.116 C 
BRANCH   4   5
ATOM      5  N   UNL A   1      30.614  23.903  24.830  1.00  0.00    -0.350 N 
ATOM      6  C   UNL A   1      31.266  22.711  24.979  1.00  0.00     0.286 C 
ATOM      7  O   UNL A   1      30.660  21.946  25.749  1.00  0.00    -0.267 OA
ATOM      8  H   UNL A   1      29.741  23.917  25.284  1.00  0.00     0.163 HD
BRANCH   6   9
ATOM      9  C   UNL A   1      32.587  22.257  24.183  1.00  0.00     0.202 C 
ATOM     10  C   UNL A   1      32.347  22.670  22.701  1.00  0.00     0.096 C 
BRANCH   9  11
ATOM     11  N   UNL A   1      33.910  22.768  24.741  1.00  0.00    -0.319 N 
ATOM     12  H   UNL A   1      34.110  22.057  25.445  1.00  0.00     0.349 HD
BRANCH  11  13
ATOM     13  C   UNL A   1      33.923  23.982  25.555  1.00  0.00     0.259 C 
ATOM     14  C   UNL A   1      33.643  23.765  27.041  1.00  0.00     0.071 C 
ENDBRANCH  11  13
BRANCH  11  15
ATOM     15  C   UNL A   1      34.970  22.796  23.703  1.00  0.00     0.259 C 
ATOM     16  C   UNL A   1      36.309  22.166  24.092  1.00  0.00     0.071 C 
ENDBRANCH  11  15
ENDBRANCH   9  11
BRANCH   9  17
ATOM     17  C   UNL A   1      32.654  20.681  24.265  1.00  0.00     0.060 A 
ATOM     18  C   UNL A   1      32.340  19.837  23.180  1.00  0.00     0.053 A 
ATOM     19  C   UNL A   1      33.075  20.044  25.449  1.00  0.00     0.133 A 
ATOM     20  C   UNL A   1      32.416  18.449  23.294  1.00  0.00     0.126 A 
ATOM     21  C   UNL A   1      33.120  18.649  25.569  1.00  0.00     0.046 A 
ATOM     22  F   UNL A   1      33.455  20.766  26.515  1.00  0.00    -0.206 F 
ATOM     23  F   UNL A   1      32.130  17.701  22.219  1.00  0.00    -0.207 F 
ATOM     24  C   UNL A   1      32.780  17.834  24.487  1.00  0.00    -0.012 A 
ATOM     25  C   UNL A   1      32.826  16.341  24.571  1.00  0.00     0.047 C 
ENDBRANCH   9  17
ENDBRANCH   6   9
ENDBRANCH   4   5
ENDBRANCH   3   4
ENDBRANCH   2   3
ENDBRANCH   1   2
BRANCH   1  26
ATOM     26  C   UNL A   1      32.510  27.469  26.444  1.00  0.00     0.021 C 
BRANCH  26  27
ATOM     27  C   UNL A   1      33.778  28.140  26.957  1.00  0.00     0.116 C 
BRANCH  27  28
ATOM     28  N   UNL A   1      33.561  29.509  27.375  1.00  0.00    -0.352 N 
ATOM     29  C   UNL A   1      34.429  30.368  28.015  1.00  0.00     0.251 C 
ATOM     30  H   UNL A   1      32.671  29.878  27.174  1.00  0.00     0.163 HD
ATOM     31  O   UNL A   1      34.039  31.459  28.404  1.00  0.00    -0.269 OA
BRANCH  29  32
ATOM     32  C   UNL A   1      35.824  29.940  28.258  1.00  0.00     0.039 A 
ATOM     33  C   UNL A   1      36.744  30.038  27.213  1.00  0.00     0.014 A 
ATOM     34  C   UNL A   1      36.224  29.465  29.511  1.00  0.00     0.014 A 
ATOM     35  C   UNL A   1      38.085  29.721  27.441  1.00  0.00     0.010 A 
ATOM     36  C   UNL A   1      37.571  29.212  29.754  1.00  0.00     0.010 A 
ATOM     37  C   UNL A   1      38.516  29.341  28.724  1.00  0.00    -0.014 A 
BRANCH  37  38
ATOM     38  C   UNL A   1      39.950  29.091  29.010  1.00  0.00     0.031 A 
ATOM     39  C   UNL A   1      40.565  27.759  28.686  1.00  0.00     0.074 A 
ATOM     40  C   UNL A   1      40.680  30.042  29.626  1.00  0.00     0.049 A 
ATOM     41  N   UNL A   1      41.778  27.330  28.928  1.00  0.00    -0.248 NA
ATOM     42  C   UNL A   1      39.699  26.770  28.024  1.00  0.00     0.031 C 
ATOM     43  C   UNL A   1      40.187  31.364  30.024  1.00  0.00     0.029 A 
ATOM     44  N   UNL A   1      41.990  30.042  30.036  1.00  0.00    -0.354 N 
ATOM     45  C   UNL A   1      41.816  26.021  28.465  1.00  0.00     0.074 A 
ATOM     46  C   UNL A   1      40.493  25.710  27.968  1.00  0.00     0.031 C 
ATOM     47  C   UNL A   1      41.188  32.051  30.600  1.00  0.00     0.029 A 
ATOM     48  C   UNL A   1      42.377  31.209  30.651  1.00  0.00     0.049 A 
ATOM     49  H   UNL A   1      42.595  29.277  29.900  1.00  0.00     0.167 HD
ATOM     50  C   UNL A   1      42.862  25.160  28.441  1.00  0.00     0.031 A 
ATOM     51  C   UNL A   1      43.554  31.559  31.206  1.00  0.00     0.031 A 
ATOM     52  C   UNL A   1      44.179  25.478  28.928  1.00  0.00     0.049 A 
ATOM     53  C   UNL A   1      44.696  30.580  31.183  1.00  0.00     0.074 A 
ATOM     54  C   UNL A   1      45.318  24.694  28.897  1.00  0.00     0.029 A 
ATOM     55  N   UNL A   1      44.531  26.672  29.539  1.00  0.00    -0.354 N 
ATOM     56  N   UNL A   1      44.729  29.367  30.683  1.00  0.00    -0.248 NA
ATOM     57  C   UNL A   1      45.959  31.018  31.791  1.00  0.00     0.031 C 
ATOM     58  C   UNL A   1      46.348  25.394  29.533  1.00  0.00     0.029 A 
ATOM     59  C   UNL A   1      45.863  26.637  29.912  1.00  0.00     0.049 A 
ATOM     60  H   UNL A   1      43.923  27.432  29.685  1.00  0.00     0.167 HD
ATOM     61  C   UNL A   1      46.024  28.907  30.896  1.00  0.00     0.074 A 
ATOM     62  C   UNL A   1      46.745  29.976  31.557  1.00  0.00     0.031 C 
ATOM     63  C   UNL A   1      46.566  27.708  30.571  1.00  0.00     0.031 A 
BRANCH  50  64
ATOM     64  C   UNL A   1      42.621  23.786  27.874  1.00  0.00    -0.014 A 
ATOM     65  C   UNL A   1      42.206  22.723  28.696  1.00  0.00     0.010 A 
ATOM     66  C   UNL A   1      42.776  23.563  26.493  1.00  0.00     0.010 A 
ATOM     67  C   UNL A   1      41.990  21.453  28.155  1.00  0.00     0.020 A 
ATOM     68  C   UNL A   1      42.536  22.301  25.945  1.00  0.00     0.020 A 
ATOM     69  C   UNL A   1      42.161  21.249  26.783  1.00  0.00     0.054 A 
BRANCH  69  70
ATOM     70  S   UNL A   1      41.858  19.593  26.105  1.00  0.00     0.124 S 
ATOM     71  O   UNL A   1      42.732  19.585  24.935  1.00  0.00    -0.237 OA
ATOM     72  O   UNL A   1      42.267  18.718  27.201  1.00  0.00    -0.237 OA
ATOM     73  O   UNL A   1      40.427  19.594  25.813  1.00  0.00    -0.744 OA
ENDBRANCH  69  70
ENDBRANCH  50  64
BRANCH  51  74
ATOM     74  C   UNL A   1      43.711  32.902  31.826  1.00  0.00    -0.014 A 
ATOM     75  C   UNL A   1      43.433  33.096  33.190  1.00  0.00     0.010 A 
ATOM     76  C   UNL A   1      44.158  33.993  31.057  1.00  0.00     0.010 A 
ATOM     77  C   UNL A   1      43.583  34.358  33.772  1.00  0.00     0.020 A 
ATOM     78  C   UNL A   1      44.336  35.251  31.641  1.00  0.00     0.020 A 
ATOM     79  C   UNL A   1      44.035  35.427  32.994  1.00  0.00     0.054 A 
BRANCH  79  80
ATOM     80  S   UNL A   1      44.277  37.044  33.782  1.00  0.00     0.124 S 
ATOM     81  O   UNL A   1      44.844  37.830  32.691  1.00  0.00    -0.237 OA
ATOM     82  O   UNL A   1      42.920  37.405  34.184  1.00  0.00    -0.237 OA
ATOM     83  O   UNL A   1      45.189  36.753  34.885  1.00  0.00    -0.744 OA
ENDBRANCH  79  80
ENDBRANCH  51  74
BRANCH  63  84
ATOM     84  C   UNL A   1      48.018  27.491  30.903  1.00  0.00    -0.014 A 
ATOM     85  C   UNL A   1      48.405  26.863  32.100  1.00  0.00     0.010 A 
ATOM     86  C   UNL A   1      49.006  27.859  29.970  1.00  0.00     0.010 A 
ATOM     87  C   UNL A   1      49.756  26.630  32.370  1.00  0.00     0.020 A 
ATOM     88  C   UNL A   1      50.355  27.603  30.225  1.00  0.00     0.020 A 
ATOM     89  C   UNL A   1      50.722  26.999  31.429  1.00  0.00     0.054 A 
BRANCH  89  90
ATOM     90  S   UNL A   1      52.464  26.632  31.777  1.00  0.00     0.124 S 
ATOM     91  O   UNL A   1      53.122  27.090  30.557  1.00  0.00    -0.237 OA
ATOM     92  O   UNL A   1      52.727  27.431  32.972  1.00  0.00    -0.237 OA
ATOM     93  O   UNL A   1      52.478  25.186  31.988  1.00  0.00    -0.744 OA
ENDBRANCH  89  90
ENDBRANCH  63  84
ENDBRANCH  37  38
ENDBRANCH  29  32
ENDBRANCH  27  28
ENDBRANCH  26  27
ENDBRANCH   1  26
TORSDOF 20
ENDMDL
