MODEL 1
REMARK VINA RESULT:     -12.1      0.000      0.000
REMARK SMILES O=C(NCCCCCCNC(=O)C1CCN(C(=O)CCN2C(=O)[C@H]3Cc4ccccc4CN3C2=O)CC1)c1ccc(-c2c3nc(c(-c4ccc(S(=O)(=O)[O-])cc4)c4ccc([nH]4)c(-c4ccc(S(=O)(=O)[O-])cc4)c4nc(c(-c5ccc(S(=O)(=O)[O-])cc5)c5ccc2[nH]5)C=C4)C=C3)cc1
REMARK SMILES IDX 6 1 5 2 4 3 3 4 1 5 2 6 38 8 39 9 97 10 40 11 96 12 41 13
REMARK SMILES IDX 42 14 43 15 90 16 44 17 95 18 89 19 91 20 45 21 94 22 88 23
REMARK SMILES IDX 87 24 46 26 76 27 57 28 75 29 58 30 61 31 74 32 92 33 59 34
REMARK SMILES IDX 60 35 73 37 93 38 62 39 47 40 48 41 56 42 49 43 55 44 50 45
REMARK SMILES IDX 51 46 52 47 53 48 54 49 77 50 78 51 86 52 79 53 85 54 80 55
REMARK SMILES IDX 81 56 82 57 83 58 84 59 63 60 64 61 72 62 65 63 71 64 66 65
REMARK SMILES IDX 67 66 68 67 69 68 70 69 7 70 8 71 9 72 10 73 11 74 12 76
REMARK SMILES IDX 13 77 14 78 37 79 15 80 36 81 16 82 17 83 18 84 19 85 20 86
REMARK SMILES IDX 21 87 22 88 34 89 23 90 24 91 33 92 35 93 25 94 32 95 26 96
REMARK SMILES IDX 31 97 27 98 30 99 28 100 29 101
REMARK H PARENT 3 7 91 25 61 36 10 75
REMARK Flexibility Score: inf
ROOT
ATOM      1  C   UNL A   1      34.583  32.310  28.746  1.00  0.00     0.002 C 
ENDROOT
BRANCH   1   2
ATOM      2  C   UNL A   1      36.024  32.812  28.626  1.00  0.00     0.021 C 
BRANCH   2   3
ATOM      3  C   UNL A   1      36.843  32.667  29.898  1.00  0.00     0.116 C 
BRANCH   3   4
ATOM      4  N   UNL A   1      36.426  31.501  30.646  1.00  0.00    -0.352 N 
ATOM      5  O   UNL A   1      36.291  29.283  30.994  1.00  0.00    -0.269 OA
ATOM      6  C   UNL A   1      36.947  30.236  30.589  1.00  0.00     0.251 C 
ATOM      7  H   UNL A   1      35.677  31.632  31.271  1.00  0.00     0.163 HD
BRANCH   6   8
ATOM      8  C   UNL A   1      38.312  30.038  30.055  1.00  0.00     0.039 A 
ATOM      9  C   UNL A   1      38.487  29.881  28.679  1.00  0.00     0.014 A 
ATOM     10  C   UNL A   1      39.404  29.934  30.924  1.00  0.00     0.014 A 
ATOM     11  C   UNL A   1      39.755  29.590  28.177  1.00  0.00     0.010 A 
ATOM     12  C   UNL A   1      40.680  29.731  30.417  1.00  0.00     0.010 A 
ATOM     13  C   UNL A   1      40.855  29.495  29.046  1.00  0.00    -0.014 A 
BRANCH  13  14
ATOM     14  C   UNL A   1      42.165  28.996  28.573  1.00  0.00     0.031 A 
ATOM     15  C   UNL A   1      43.324  29.958  28.513  1.00  0.00     0.074 A 
ATOM     16  C   UNL A   1      42.313  27.715  28.188  1.00  0.00     0.049 A 
ATOM     17  N   UNL A   1      44.532  29.765  28.054  1.00  0.00    -0.248 NA
ATOM     18  C   UNL A   1      43.086  31.326  29.012  1.00  0.00     0.031 C 
ATOM     19  C   UNL A   1      41.258  26.701  28.210  1.00  0.00     0.029 A 
ATOM     20  N   UNL A   1      43.411  27.048  27.709  1.00  0.00    -0.354 N 
ATOM     21  C   UNL A   1      45.184  30.985  28.191  1.00  0.00     0.074 A 
ATOM     22  C   UNL A   1      44.228  31.929  28.717  1.00  0.00     0.031 C 
ATOM     23  C   UNL A   1      41.770  25.531  27.795  1.00  0.00     0.029 A 
ATOM     24  C   UNL A   1      43.174  25.722  27.435  1.00  0.00     0.049 A 
ATOM     25  H   UNL A   1      44.286  27.478  27.574  1.00  0.00     0.167 HD
ATOM     26  C   UNL A   1      46.478  31.282  27.935  1.00  0.00     0.031 A 
ATOM     27  C   UNL A   1      43.996  24.769  26.950  1.00  0.00     0.031 A 
ATOM     28  C   UNL A   1      47.432  30.318  27.460  1.00  0.00     0.049 A 
ATOM     29  C   UNL A   1      45.429  25.125  26.658  1.00  0.00     0.074 A 
ATOM     30  C   UNL A   1      48.779  30.505  27.207  1.00  0.00     0.029 A 
ATOM     31  N   UNL A   1      47.149  28.988  27.191  1.00  0.00    -0.354 N 
ATOM     32  N   UNL A   1      46.035  26.278  26.812  1.00  0.00    -0.248 NA
ATOM     33  C   UNL A   1      46.293  24.056  26.136  1.00  0.00     0.031 C 
ATOM     34  C   UNL A   1      49.297  29.301  26.731  1.00  0.00     0.029 A 
ATOM     35  C   UNL A   1      48.292  28.346  26.756  1.00  0.00     0.049 A 
ATOM     36  H   UNL A   1      46.266  28.566  27.294  1.00  0.00     0.167 HD
ATOM     37  C   UNL A   1      47.357  26.068  26.432  1.00  0.00     0.074 A 
ATOM     38  C   UNL A   1      47.465  24.676  26.049  1.00  0.00     0.031 C 
ATOM     39  C   UNL A   1      48.384  26.950  26.399  1.00  0.00     0.031 A 
BRANCH  26  40
ATOM     40  C   UNL A   1      46.958  32.686  28.190  1.00  0.00    -0.014 A 
ATOM     41  C   UNL A   1      46.863  33.654  27.174  1.00  0.00     0.010 A 
ATOM     42  C   UNL A   1      47.609  33.016  29.393  1.00  0.00     0.010 A 
ATOM     43  C   UNL A   1      47.445  34.914  27.339  1.00  0.00     0.020 A 
ATOM     44  C   UNL A   1      48.164  34.286  29.573  1.00  0.00     0.020 A 
ATOM     45  C   UNL A   1      48.103  35.217  28.534  1.00  0.00     0.054 A 
BRANCH  45  46
ATOM     46  S   UNL A   1      48.889  36.841  28.713  1.00  0.00     0.124 S 
ATOM     47  O   UNL A   1      48.902  37.019  30.162  1.00  0.00    -0.237 OA
ATOM     48  O   UNL A   1      50.194  36.634  28.089  1.00  0.00    -0.237 OA
ATOM     49  O   UNL A   1      47.996  37.736  27.981  1.00  0.00    -0.744 OA
ENDBRANCH  45  46
ENDBRANCH  26  40
BRANCH  27  50
ATOM     50  C   UNL A   1      43.477  23.386  26.763  1.00  0.00    -0.014 A 
ATOM     51  C   UNL A   1      43.143  22.590  27.875  1.00  0.00     0.010 A 
ATOM     52  C   UNL A   1      43.396  22.826  25.477  1.00  0.00     0.010 A 
ATOM     53  C   UNL A   1      42.791  21.248  27.709  1.00  0.00     0.020 A 
ATOM     54  C   UNL A   1      43.015  21.490  25.303  1.00  0.00     0.020 A 
ATOM     55  C   UNL A   1      42.743  20.702  26.423  1.00  0.00     0.054 A 
BRANCH  55  56
ATOM     56  S   UNL A   1      42.338  18.944  26.236  1.00  0.00     0.124 S 
ATOM     57  O   UNL A   1      42.557  18.442  27.590  1.00  0.00    -0.237 OA
ATOM     58  O   UNL A   1      40.945  18.982  25.798  1.00  0.00    -0.237 OA
ATOM     59  O   UNL A   1      43.291  18.478  25.234  1.00  0.00    -0.744 OA
ENDBRANCH  55  56
ENDBRANCH  27  50
BRANCH  39  60
ATOM     60  C   UNL A   1      49.737  26.466  25.954  1.00  0.00    -0.014 A 
ATOM     61  C   UNL A   1      50.595  25.855  26.888  1.00  0.00     0.010 A 
ATOM     62  C   UNL A   1      50.226  26.785  24.676  1.00  0.00     0.010 A 
ATOM     63  C   UNL A   1      51.935  25.624  26.573  1.00  0.00     0.020 A 
ATOM     64  C   UNL A   1      51.560  26.527  24.347  1.00  0.00     0.020 A 
ATOM     65  C   UNL A   1      52.414  25.979  25.310  1.00  0.00     0.054 A 
BRANCH  65  66
ATOM     66  S   UNL A   1      54.174  25.745  24.946  1.00  0.00     0.124 S 
ATOM     67  O   UNL A   1      54.810  26.602  25.941  1.00  0.00    -0.237 OA
ATOM     68  O   UNL A   1      54.353  24.308  25.143  1.00  0.00    -0.237 OA
ATOM     69  O   UNL A   1      54.300  26.196  23.562  1.00  0.00    -0.744 OA
ENDBRANCH  65  66
ENDBRANCH  39  60
ENDBRANCH  13  14
ENDBRANCH   6   8
ENDBRANCH   3   4
ENDBRANCH   2   3
ENDBRANCH   1   2
BRANCH   1  70
ATOM     70  C   UNL A   1      34.120  31.366  27.634  1.00  0.00     0.002 C 
BRANCH  70  71
ATOM     71  C   UNL A   1      35.047  30.189  27.338  1.00  0.00     0.021 C 
BRANCH  71  72
ATOM     72  C   UNL A   1      34.359  28.837  27.223  1.00  0.00     0.116 C 
BRANCH  72  73
ATOM     73  N   UNL A   1      33.052  28.822  27.819  1.00  0.00    -0.356 N 
ATOM     74  C   UNL A   1      31.989  28.036  27.538  1.00  0.00     0.223 C 
ATOM     75  H   UNL A   1      32.909  29.482  28.535  1.00  0.00     0.163 HD
ATOM     76  O   UNL A   1      30.995  28.150  28.265  1.00  0.00    -0.275 OA
BRANCH  74  77
ATOM     77  C   UNL A   1      31.931  27.152  26.296  1.00  0.00     0.082 C 
ATOM     78  C   UNL A   1      31.596  27.769  24.931  1.00  0.00     0.035 C 
ATOM     79  C   UNL A   1      31.293  25.801  26.672  1.00  0.00     0.035 C 
ATOM     80  C   UNL A   1      30.412  27.131  24.214  1.00  0.00     0.120 C 
ATOM     81  C   UNL A   1      30.215  25.265  25.748  1.00  0.00     0.120 C 
ATOM     82  N   UNL A   1      30.446  25.682  24.381  1.00  0.00    -0.343 N 
ATOM     83  C   UNL A   1      30.757  24.877  23.297  1.00  0.00     0.224 C 
ATOM     84  O   UNL A   1      30.912  25.343  22.165  1.00  0.00    -0.275 OA
BRANCH  83  85
ATOM     85  C   UNL A   1      30.914  23.376  23.484  1.00  0.00     0.122 C 
BRANCH  85  86
ATOM     86  C   UNL A   1      32.087  22.819  22.672  1.00  0.00     0.140 C 
BRANCH  86  87
ATOM     87  N   UNL A   1      33.332  22.748  23.425  1.00  0.00    -0.262 N 
ATOM     88  C   UNL A   1      33.846  21.623  24.026  1.00  0.00     0.253 C 
ATOM     89  C   UNL A   1      34.163  23.815  23.625  1.00  0.00     0.327 C 
ATOM     90  O   UNL A   1      33.375  20.495  23.982  1.00  0.00    -0.272 OA
ATOM     91  C   UNL A   1      35.050  22.035  24.871  1.00  0.00     0.181 C 
ATOM     92  N   UNL A   1      35.197  23.399  24.432  1.00  0.00    -0.308 N 
ATOM     93  O   UNL A   1      34.018  24.950  23.199  1.00  0.00    -0.248 OA
ATOM     94  C   UNL A   1      36.365  21.289  24.705  1.00  0.00     0.071 C 
ATOM     95  C   UNL A   1      36.201  24.240  25.029  1.00  0.00     0.158 C 
ATOM     96  C   UNL A   1      37.469  22.062  25.418  1.00  0.00    -0.040 A 
ATOM     97  C   UNL A   1      37.373  23.464  25.562  1.00  0.00    -0.025 A 
ATOM     98  C   UNL A   1      38.582  21.408  25.955  1.00  0.00     0.004 A 
ATOM     99  C   UNL A   1      38.337  24.169  26.299  1.00  0.00     0.006 A 
ATOM    100  C   UNL A   1      39.545  22.124  26.675  1.00  0.00     0.000 A 
ATOM    101  C   UNL A   1      39.415  23.499  26.862  1.00  0.00     0.000 A 
ENDBRANCH  86  87
ENDBRANCH  85  86
ENDBRANCH  83  85
ENDBRANCH  74  77
ENDBRANCH  72  73
ENDBRANCH  71  72
ENDBRANCH  70  71
ENDBRANCH   1  70
TORSDOF 19
ENDMDL
MODEL 2
REMARK VINA RESULT:     -10.7      4.735      8.745
REMARK SMILES O=C(NCCCCCCNC(=O)C1CCN(C(=O)CCN2C(=O)[C@H]3Cc4ccccc4CN3C2=O)CC1)c1ccc(-c2c3nc(c(-c4ccc(S(=O)(=O)[O-])cc4)c4ccc([nH]4)c(-c4ccc(S(=O)(=O)[O-])cc4)c4nc(c(-c5ccc(S(=O)(=O)[O-])cc5)c5ccc2[nH]5)C=C4)C=C3)cc1
REMARK SMILES IDX 6 1 5 2 4 3 3 4 1 5 2 6 38 8 39 9 97 10 40 11 96 12 41 13
REMARK SMILES IDX 42 14 43 15 90 16 44 17 95 18 89 19 91 20 45 21 94 22 88 23
REMARK SMILES IDX 87 24 46 26 76 27 57 28 75 29 58 30 61 31 74 32 92 33 59 34
REMARK SMILES IDX 60 35 73 37 93 38 62 39 47 40 48 41 56 42 49 43 55 44 50 45
REMARK SMILES IDX 51 46 52 47 53 48 54 49 77 50 78 51 86 52 79 53 85 54 80 55
REMARK SMILES IDX 81 56 82 57 83 58 84 59 63 60 64 61 72 62 65 63 71 64 66 65
REMARK SMILES IDX 67 66 68 67 69 68 70 69 7 70 8 71 9 72 10 73 11 74 12 76
REMARK SMILES IDX 13 77 14 78 37 79 15 80 36 81 16 82 17 83 18 84 19 85 20 86
REMARK SMILES IDX 21 87 22 88 34 89 23 90 24 91 33 92 35 93 25 94 32 95 26 96
REMARK SMILES IDX 31 97 27 98 30 99 28 100 29 101
REMARK H PARENT 3 7 91 25 61 36 10 75
REMARK Flexibility Score: inf
ROOT
ATOM      1  C   UNL A   1      33.695  27.617  25.223  1.00  0.00     0.002 C 
ENDROOT
BRANCH   1   2
ATOM      2  C   UNL A   1      33.828  28.488  26.474  1.00  0.00     0.021 C 
BRANCH   2   3
ATOM      3  C   UNL A   1      34.843  29.612  26.347  1.00  0.00     0.116 C 
BRANCH   3   4
ATOM      4  N   UNL A   1      34.445  30.754  27.142  1.00  0.00    -0.352 N 
ATOM      5  O   UNL A   1      34.275  31.893  29.074  1.00  0.00    -0.269 OA
ATOM      6  C   UNL A   1      34.928  31.135  28.365  1.00  0.00     0.251 C 
ATOM      7  H   UNL A   1      33.742  31.326  26.757  1.00  0.00     0.163 HD
BRANCH   6   8
ATOM      8  C   UNL A   1      36.249  30.641  28.809  1.00  0.00     0.039 A 
ATOM      9  C   UNL A   1      36.311  29.533  29.656  1.00  0.00     0.014 A 
ATOM     10  C   UNL A   1      37.418  31.320  28.445  1.00  0.00     0.014 A 
ATOM     11  C   UNL A   1      37.544  29.124  30.163  1.00  0.00     0.010 A 
ATOM     12  C   UNL A   1      38.653  30.860  28.879  1.00  0.00     0.010 A 
ATOM     13  C   UNL A   1      38.719  29.797  29.791  1.00  0.00    -0.014 A 
BRANCH  13  14
ATOM     14  C   UNL A   1      40.009  29.515  30.460  1.00  0.00     0.031 A 
ATOM     15  C   UNL A   1      40.925  28.483  29.855  1.00  0.00     0.074 A 
ATOM     16  C   UNL A   1      40.347  30.155  31.595  1.00  0.00     0.049 A 
ATOM     17  N   UNL A   1      42.056  28.016  30.312  1.00  0.00    -0.248 NA
ATOM     18  C   UNL A   1      40.501  27.877  28.578  1.00  0.00     0.031 C 
ATOM     19  C   UNL A   1      39.536  31.174  32.263  1.00  0.00     0.029 A 
ATOM     20  N   UNL A   1      41.464  30.046  32.382  1.00  0.00    -0.354 N 
ATOM     21  C   UNL A   1      42.463  27.054  29.394  1.00  0.00     0.074 A 
ATOM     22  C   UNL A   1      41.435  26.957  28.386  1.00  0.00     0.031 C 
ATOM     23  C   UNL A   1      40.198  31.620  33.342  1.00  0.00     0.029 A 
ATOM     24  C   UNL A   1      41.458  30.889  33.469  1.00  0.00     0.049 A 
ATOM     25  H   UNL A   1      42.201  29.423  32.189  1.00  0.00     0.167 HD
ATOM     26  C   UNL A   1      43.611  26.342  29.375  1.00  0.00     0.031 A 
ATOM     27  C   UNL A   1      42.364  31.053  34.453  1.00  0.00     0.031 A 
ATOM     28  C   UNL A   1      44.650  26.486  30.357  1.00  0.00     0.049 A 
ATOM     29  C   UNL A   1      43.629  30.238  34.420  1.00  0.00     0.074 A 
ATOM     30  C   UNL A   1      45.872  25.840  30.408  1.00  0.00     0.029 A 
ATOM     31  N   UNL A   1      44.600  27.347  31.442  1.00  0.00    -0.354 N 
ATOM     32  N   UNL A   1      44.008  29.348  33.534  1.00  0.00    -0.248 NA
ATOM     33  C   UNL A   1      44.594  30.452  35.508  1.00  0.00     0.031 C 
ATOM     34  C   UNL A   1      46.538  26.271  31.555  1.00  0.00     0.029 A 
ATOM     35  C   UNL A   1      45.763  27.236  32.180  1.00  0.00     0.049 A 
ATOM     36  H   UNL A   1      43.849  27.946  31.655  1.00  0.00     0.167 HD
ATOM     37  C   UNL A   1      45.265  28.914  33.942  1.00  0.00     0.074 A 
ATOM     38  C   UNL A   1      45.587  29.646  35.149  1.00  0.00     0.031 C 
ATOM     39  C   UNL A   1      46.075  27.991  33.370  1.00  0.00     0.031 A 
BRANCH  26  40
ATOM     40  C   UNL A   1      43.834  25.367  28.248  1.00  0.00    -0.014 A 
ATOM     41  C   UNL A   1      43.903  23.989  28.517  1.00  0.00     0.010 A 
ATOM     42  C   UNL A   1      44.092  25.824  26.942  1.00  0.00     0.010 A 
ATOM     43  C   UNL A   1      44.265  23.087  27.513  1.00  0.00     0.020 A 
ATOM     44  C   UNL A   1      44.422  24.922  25.927  1.00  0.00     0.020 A 
ATOM     45  C   UNL A   1      44.534  23.562  26.227  1.00  0.00     0.054 A 
BRANCH  45  46
ATOM     46  S   UNL A   1      45.044  22.383  24.947  1.00  0.00     0.124 S 
ATOM     47  O   UNL A   1      46.204  21.745  25.560  1.00  0.00    -0.237 OA
ATOM     48  O   UNL A   1      43.860  21.539  24.802  1.00  0.00    -0.237 OA
ATOM     49  O   UNL A   1      45.333  23.234  23.794  1.00  0.00    -0.744 OA
ENDBRANCH  45  46
ENDBRANCH  26  40
BRANCH  27  50
ATOM     50  C   UNL A   1      42.111  32.066  35.515  1.00  0.00    -0.014 A 
ATOM     51  C   UNL A   1      41.315  31.749  36.632  1.00  0.00     0.010 A 
ATOM     52  C   UNL A   1      42.592  33.379  35.373  1.00  0.00     0.010 A 
ATOM     53  C   UNL A   1      40.962  32.736  37.556  1.00  0.00     0.020 A 
ATOM     54  C   UNL A   1      42.265  34.364  36.312  1.00  0.00     0.020 A 
ATOM     55  C   UNL A   1      41.427  34.041  37.381  1.00  0.00     0.054 A 
BRANCH  55  56
ATOM     56  S   UNL A   1      40.909  35.317  38.563  1.00  0.00     0.124 S 
ATOM     57  O   UNL A   1      39.881  36.026  37.805  1.00  0.00    -0.237 OA
ATOM     58  O   UNL A   1      40.425  34.529  39.693  1.00  0.00    -0.237 OA
ATOM     59  O   UNL A   1      42.135  36.071  38.811  1.00  0.00    -0.744 OA
ENDBRANCH  55  56
ENDBRANCH  27  50
BRANCH  39  60
ATOM     60  C   UNL A   1      47.407  27.705  34.009  1.00  0.00    -0.014 A 
ATOM     61  C   UNL A   1      48.555  28.374  33.542  1.00  0.00     0.010 A 
ATOM     62  C   UNL A   1      47.549  26.650  34.925  1.00  0.00     0.010 A 
ATOM     63  C   UNL A   1      49.827  27.954  33.936  1.00  0.00     0.020 A 
ATOM     64  C   UNL A   1      48.820  26.247  35.345  1.00  0.00     0.020 A 
ATOM     65  C   UNL A   1      49.951  26.881  34.821  1.00  0.00     0.054 A 
BRANCH  65  66
ATOM     66  S   UNL A   1      51.612  26.300  35.259  1.00  0.00     0.124 S 
ATOM     67  O   UNL A   1      52.317  26.395  33.985  1.00  0.00    -0.237 OA
ATOM     68  O   UNL A   1      52.026  27.256  36.283  1.00  0.00    -0.237 OA
ATOM     69  O   UNL A   1      51.381  24.940  35.745  1.00  0.00    -0.744 OA
ENDBRANCH  65  66
ENDBRANCH  39  60
ENDBRANCH  13  14
ENDBRANCH   6   8
ENDBRANCH   3   4
ENDBRANCH   2   3
ENDBRANCH   1   2
BRANCH   1  70
ATOM     70  C   UNL A   1      33.608  28.379  23.897  1.00  0.00     0.002 C 
BRANCH  70  71
ATOM     71  C   UNL A   1      32.212  28.481  23.286  1.00  0.00     0.021 C 
BRANCH  71  72
ATOM     72  C   UNL A   1      31.091  28.758  24.276  1.00  0.00     0.116 C 
BRANCH  72  73
ATOM     73  N   UNL A   1      29.787  28.493  23.736  1.00  0.00    -0.356 N 
ATOM     74  C   UNL A   1      29.030  27.377  23.825  1.00  0.00     0.223 C 
ATOM     75  H   UNL A   1      29.387  29.233  23.224  1.00  0.00     0.163 HD
ATOM     76  O   UNL A   1      27.889  27.430  23.352  1.00  0.00    -0.275 OA
BRANCH  74  77
ATOM     77  C   UNL A   1      29.585  26.052  24.338  1.00  0.00     0.082 C 
ATOM     78  C   UNL A   1      30.125  25.950  25.771  1.00  0.00     0.035 C 
ATOM     79  C   UNL A   1      30.367  25.364  23.203  1.00  0.00     0.035 C 
ATOM     80  C   UNL A   1      31.559  25.443  25.880  1.00  0.00     0.120 C 
ATOM     81  C   UNL A   1      31.734  24.800  23.550  1.00  0.00     0.120 C 
ATOM     82  N   UNL A   1      31.780  24.359  24.928  1.00  0.00    -0.343 N 
ATOM     83  C   UNL A   1      31.930  23.062  25.393  1.00  0.00     0.224 C 
ATOM     84  O   UNL A   1      31.978  22.807  26.599  1.00  0.00    -0.275 OA
BRANCH  83  85
ATOM     85  C   UNL A   1      32.042  21.910  24.409  1.00  0.00     0.122 C 
BRANCH  85  86
ATOM     86  C   UNL A   1      33.259  22.060  23.490  1.00  0.00     0.140 C 
BRANCH  86  87
ATOM     87  N   UNL A   1      34.524  22.122  24.208  1.00  0.00    -0.262 N 
ATOM     88  C   UNL A   1      35.180  21.056  24.778  1.00  0.00     0.253 C 
ATOM     89  C   UNL A   1      35.234  23.275  24.402  1.00  0.00     0.327 C 
ATOM     90  O   UNL A   1      34.841  19.882  24.728  1.00  0.00    -0.272 OA
ATOM     91  C   UNL A   1      36.353  21.593  25.596  1.00  0.00     0.181 C 
ATOM     92  N   UNL A   1      36.331  22.970  25.175  1.00  0.00    -0.308 N 
ATOM     93  O   UNL A   1      34.948  24.391  23.999  1.00  0.00    -0.248 OA
ATOM     94  C   UNL A   1      37.739  21.005  25.384  1.00  0.00     0.071 C 
ATOM     95  C   UNL A   1      37.248  23.913  25.758  1.00  0.00     0.158 C 
ATOM     96  C   UNL A   1      38.767  21.890  26.079  1.00  0.00    -0.040 A 
ATOM     97  C   UNL A   1      38.516  23.270  26.247  1.00  0.00    -0.025 A 
ATOM     98  C   UNL A   1      39.963  21.361  26.576  1.00  0.00     0.004 A 
ATOM     99  C   UNL A   1      39.414  24.071  26.970  1.00  0.00     0.006 A 
ATOM    100  C   UNL A   1      40.858  22.173  27.281  1.00  0.00     0.000 A 
ATOM    101  C   UNL A   1      40.577  23.522  27.493  1.00  0.00     0.000 A 
ENDBRANCH  86  87
ENDBRANCH  85  86
ENDBRANCH  83  85
ENDBRANCH  74  77
ENDBRANCH  72  73
ENDBRANCH  71  72
ENDBRANCH  70  71
ENDBRANCH   1  70
TORSDOF 19
ENDMDL
MODEL 3
REMARK VINA RESULT:     -10.6      5.667     13.085
REMARK SMILES O=C(NCCCCCCNC(=O)C1CCN(C(=O)CCN2C(=O)[C@H]3Cc4ccccc4CN3C2=O)CC1)c1ccc(-c2c3nc(c(-c4ccc(S(=O)(=O)[O-])cc4)c4ccc([nH]4)c(-c4ccc(S(=O)(=O)[O-])cc4)c4nc(c(-c5ccc(S(=O)(=O)[O-])cc5)c5ccc2[nH]5)C=C4)C=C3)cc1
REMARK SMILES IDX 6 1 5 2 4 3 3 4 1 5 2 6 38 8 39 9 97 10 40 11 96 12 41 13
REMARK SMILES IDX 42 14 43 15 90 16 44 17 95 18 89 19 91 20 45 21 94 22 88 23
REMARK SMILES IDX 87 24 46 26 76 27 57 28 75 29 58 30 61 31 74 32 92 33 59 34
REMARK SMILES IDX 60 35 73 37 93 38 62 39 47 40 48 41 56 42 49 43 55 44 50 45
REMARK SMILES IDX 51 46 52 47 53 48 54 49 77 50 78 51 86 52 79 53 85 54 80 55
REMARK SMILES IDX 81 56 82 57 83 58 84 59 63 60 64 61 72 62 65 63 71 64 66 65
REMARK SMILES IDX 67 66 68 67 69 68 70 69 7 70 8 71 9 72 10 73 11 74 12 76
REMARK SMILES IDX 13 77 14 78 37 79 15 80 36 81 16 82 17 83 18 84 19 85 20 86
REMARK SMILES IDX 21 87 22 88 34 89 23 90 24 91 33 92 35 93 25 94 32 95 26 96
REMARK SMILES IDX 31 97 27 98 30 99 28 100 29 101
REMARK H PARENT 3 7 91 25 61 36 10 75
REMARK Flexibility Score: inf
ROOT
ATOM      1  C   UNL A   1      45.255  24.482  26.130  1.00  0.00     0.002 C 
ENDROOT
BRANCH   1   2
ATOM      2  C   UNL A   1      46.334  24.203  25.080  1.00  0.00     0.021 C 
BRANCH   2   3
ATOM      3  C   UNL A   1      47.705  24.759  25.432  1.00  0.00     0.116 C 
BRANCH   3   4
ATOM      4  N   UNL A   1      48.229  25.554  24.343  1.00  0.00    -0.352 N 
ATOM      5  O   UNL A   1      48.148  27.270  22.891  1.00  0.00    -0.269 OA
ATOM      6  C   UNL A   1      47.909  26.845  24.016  1.00  0.00     0.251 C 
ATOM      7  H   UNL A   1      48.896  25.115  23.767  1.00  0.00     0.163 HD
BRANCH   6   8
ATOM      8  C   UNL A   1      47.294  27.720  25.037  1.00  0.00     0.039 A 
ATOM      9  C   UNL A   1      48.119  28.386  25.946  1.00  0.00     0.014 A 
ATOM     10  C   UNL A   1      45.902  27.821  25.137  1.00  0.00     0.014 A 
ATOM     11  C   UNL A   1      47.544  29.130  26.976  1.00  0.00     0.010 A 
ATOM     12  C   UNL A   1      45.332  28.632  26.109  1.00  0.00     0.010 A 
ATOM     13  C   UNL A   1      46.147  29.242  27.073  1.00  0.00    -0.014 A 
BRANCH  13  14
ATOM     14  C   UNL A   1      45.508  29.854  28.259  1.00  0.00     0.031 A 
ATOM     15  C   UNL A   1      45.386  29.032  29.517  1.00  0.00     0.074 A 
ATOM     16  C   UNL A   1      45.030  31.111  28.209  1.00  0.00     0.049 A 
ATOM     17  N   UNL A   1      44.790  29.330  30.641  1.00  0.00    -0.248 NA
ATOM     18  C   UNL A   1      45.991  27.687  29.501  1.00  0.00     0.031 C 
ATOM     19  C   UNL A   1      45.100  31.994  27.044  1.00  0.00     0.029 A 
ATOM     20  N   UNL A   1      44.397  31.865  29.163  1.00  0.00    -0.354 N 
ATOM     21  C   UNL A   1      44.933  28.209  31.450  1.00  0.00     0.074 A 
ATOM     22  C   UNL A   1      45.616  27.201  30.674  1.00  0.00     0.031 C 
ATOM     23  C   UNL A   1      44.561  33.181  27.364  1.00  0.00     0.029 A 
ATOM     24  C   UNL A   1      44.068  33.130  28.738  1.00  0.00     0.049 A 
ATOM     25  H   UNL A   1      44.197  31.531  30.067  1.00  0.00     0.167 HD
ATOM     26  C   UNL A   1      44.560  28.047  32.739  1.00  0.00     0.031 A 
ATOM     27  C   UNL A   1      43.440  34.133  29.384  1.00  0.00     0.031 A 
ATOM     28  C   UNL A   1      43.928  29.077  33.515  1.00  0.00     0.049 A 
ATOM     29  C   UNL A   1      43.020  33.927  30.815  1.00  0.00     0.074 A 
ATOM     30  C   UNL A   1      43.545  29.031  34.843  1.00  0.00     0.029 A 
ATOM     31  N   UNL A   1      43.608  30.342  33.044  1.00  0.00    -0.354 N 
ATOM     32  N   UNL A   1      43.181  32.867  31.572  1.00  0.00    -0.248 NA
ATOM     33  C   UNL A   1      42.344  35.047  31.485  1.00  0.00     0.031 C 
ATOM     34  C   UNL A   1      42.943  30.249  35.160  1.00  0.00     0.029 A 
ATOM     35  C   UNL A   1      43.015  31.079  34.051  1.00  0.00     0.049 A 
ATOM     36  H   UNL A   1      43.778  30.664  32.130  1.00  0.00     0.167 HD
ATOM     37  C   UNL A   1      42.651  33.201  32.813  1.00  0.00     0.074 A 
ATOM     38  C   UNL A   1      42.173  34.564  32.710  1.00  0.00     0.031 C 
ATOM     39  C   UNL A   1      42.565  32.445  33.934  1.00  0.00     0.031 A 
BRANCH  26  40
ATOM     40  C   UNL A   1      44.850  26.732  33.412  1.00  0.00    -0.014 A 
ATOM     41  C   UNL A   1      46.091  26.525  34.042  1.00  0.00     0.010 A 
ATOM     42  C   UNL A   1      43.943  25.660  33.317  1.00  0.00     0.010 A 
ATOM     43  C   UNL A   1      46.436  25.263  34.532  1.00  0.00     0.020 A 
ATOM     44  C   UNL A   1      44.273  24.404  33.835  1.00  0.00     0.020 A 
ATOM     45  C   UNL A   1      45.529  24.208  34.413  1.00  0.00     0.054 A 
BRANCH  45  46
ATOM     46  S   UNL A   1      46.011  22.566  35.015  1.00  0.00     0.124 S 
ATOM     47  O   UNL A   1      45.361  22.513  36.320  1.00  0.00    -0.237 OA
ATOM     48  O   UNL A   1      45.458  21.678  33.996  1.00  0.00    -0.237 OA
ATOM     49  O   UNL A   1      47.471  22.629  35.045  1.00  0.00    -0.744 OA
ENDBRANCH  45  46
ENDBRANCH  26  40
BRANCH  27  50
ATOM     50  C   UNL A   1      43.223  35.428  28.682  1.00  0.00    -0.014 A 
ATOM     51  C   UNL A   1      44.155  36.475  28.807  1.00  0.00     0.010 A 
ATOM     52  C   UNL A   1      42.041  35.653  27.955  1.00  0.00     0.010 A 
ATOM     53  C   UNL A   1      43.887  37.735  28.265  1.00  0.00     0.020 A 
ATOM     54  C   UNL A   1      41.781  36.905  27.386  1.00  0.00     0.020 A 
ATOM     55  C   UNL A   1      42.693  37.946  27.571  1.00  0.00     0.054 A 
BRANCH  55  56
ATOM     56  S   UNL A   1      42.340  39.604  26.925  1.00  0.00     0.124 S 
ATOM     57  O   UNL A   1      41.137  39.365  26.132  1.00  0.00    -0.237 OA
ATOM     58  O   UNL A   1      42.145  40.387  28.143  1.00  0.00    -0.237 OA
ATOM     59  O   UNL A   1      43.539  39.935  26.160  1.00  0.00    -0.744 OA
ENDBRANCH  55  56
ENDBRANCH  27  50
BRANCH  39  60
ATOM     60  C   UNL A   1      41.949  33.050  35.166  1.00  0.00    -0.014 A 
ATOM     61  C   UNL A   1      40.587  32.820  35.443  1.00  0.00     0.010 A 
ATOM     62  C   UNL A   1      42.658  33.989  35.934  1.00  0.00     0.010 A 
ATOM     63  C   UNL A   1      39.930  33.560  36.428  1.00  0.00     0.020 A 
ATOM     64  C   UNL A   1      42.010  34.711  36.941  1.00  0.00     0.020 A 
ATOM     65  C   UNL A   1      40.643  34.515  37.157  1.00  0.00     0.054 A 
BRANCH  65  66
ATOM     66  S   UNL A   1      39.755  35.522  38.376  1.00  0.00     0.124 S 
ATOM     67  O   UNL A   1      38.495  34.798  38.512  1.00  0.00    -0.237 OA
ATOM     68  O   UNL A   1      40.639  35.472  39.538  1.00  0.00    -0.237 OA
ATOM     69  O   UNL A   1      39.658  36.830  37.732  1.00  0.00    -0.744 OA
ENDBRANCH  65  66
ENDBRANCH  39  60
ENDBRANCH  13  14
ENDBRANCH   6   8
ENDBRANCH   3   4
ENDBRANCH   2   3
ENDBRANCH   1   2
BRANCH   1  70
ATOM     70  C   UNL A   1      43.814  24.252  25.669  1.00  0.00     0.002 C 
BRANCH  70  71
ATOM     71  C   UNL A   1      42.746  24.378  26.754  1.00  0.00     0.021 C 
BRANCH  71  72
ATOM     72  C   UNL A   1      41.503  25.157  26.350  1.00  0.00     0.116 C 
BRANCH  72  73
ATOM     73  N   UNL A   1      41.779  26.199  25.401  1.00  0.00    -0.356 N 
ATOM     74  C   UNL A   1      41.949  27.524  25.605  1.00  0.00     0.223 C 
ATOM     75  H   UNL A   1      41.854  25.905  24.464  1.00  0.00     0.163 HD
ATOM     76  O   UNL A   1      42.278  28.208  24.629  1.00  0.00    -0.275 OA
BRANCH  74  77
ATOM     77  C   UNL A   1      41.606  28.197  26.931  1.00  0.00     0.082 C 
ATOM     78  C   UNL A   1      42.437  27.891  28.184  1.00  0.00     0.035 C 
ATOM     79  C   UNL A   1      40.074  28.288  27.064  1.00  0.00     0.035 C 
ATOM     80  C   UNL A   1      41.632  27.391  29.379  1.00  0.00     0.120 C 
ATOM     81  C   UNL A   1      39.470  27.867  28.392  1.00  0.00     0.120 C 
ATOM     82  N   UNL A   1      40.381  28.135  29.486  1.00  0.00    -0.343 N 
ATOM     83  C   UNL A   1      40.210  29.039  30.522  1.00  0.00     0.224 C 
ATOM     84  O   UNL A   1      41.049  29.167  31.417  1.00  0.00    -0.275 OA
BRANCH  83  85
ATOM     85  C   UNL A   1      38.962  29.905  30.577  1.00  0.00     0.122 C 
BRANCH  85  86
ATOM     86  C   UNL A   1      39.254  31.355  30.176  1.00  0.00     0.140 C 
BRANCH  86  87
ATOM     87  N   UNL A   1      38.156  32.268  30.458  1.00  0.00    -0.262 N 
ATOM     88  C   UNL A   1      37.255  32.753  29.538  1.00  0.00     0.253 C 
ATOM     89  C   UNL A   1      37.874  32.760  31.703  1.00  0.00     0.327 C 
ATOM     90  O   UNL A   1      37.196  32.458  28.353  1.00  0.00    -0.272 OA
ATOM     91  C   UNL A   1      36.405  33.826  30.216  1.00  0.00     0.181 C 
ATOM     92  N   UNL A   1      36.822  33.638  31.581  1.00  0.00    -0.308 N 
ATOM     93  O   UNL A   1      38.458  32.504  32.743  1.00  0.00    -0.248 OA
ATOM     94  C   UNL A   1      34.890  33.746  30.117  1.00  0.00     0.071 C 
ATOM     95  C   UNL A   1      36.318  34.508  32.611  1.00  0.00     0.158 C 
ATOM     96  C   UNL A   1      34.275  34.733  31.103  1.00  0.00    -0.040 A 
ATOM     97  C   UNL A   1      34.968  35.083  32.282  1.00  0.00    -0.025 A 
ATOM     98  C   UNL A   1      33.030  35.323  30.857  1.00  0.00     0.004 A 
ATOM     99  C   UNL A   1      34.451  36.061  33.145  1.00  0.00     0.006 A 
ATOM    100  C   UNL A   1      32.518  36.286  31.733  1.00  0.00     0.000 A 
ATOM    101  C   UNL A   1      33.234  36.668  32.866  1.00  0.00     0.000 A 
ENDBRANCH  86  87
ENDBRANCH  85  86
ENDBRANCH  83  85
ENDBRANCH  74  77
ENDBRANCH  72  73
ENDBRANCH  71  72
ENDBRANCH  70  71
ENDBRANCH   1  70
TORSDOF 19
ENDMDL
