MODEL 1
REMARK VINA RESULT:     -14.5      0.000      0.000
REMARK SMILES Cc1ccc([C@@]23C[C@@H]4C[C@@H](C[C@@](C(=O)N5CCC(C(=O)NCCCCCCNC(=O)c6ccc(-c7c8nc(c(-c9ccc(S(=O)(=O)[O-])cc9)c9ccc([nH]9)c(-c9ccc(S(=O)(=O)[O-])cc9)c9nc(c(-c%10ccc(S(=O)(=O)[O-])cc%10)c%10ccc7[nH]%10)C=C9)C=C8)cc6)CC5)(C4)C2)C3)cc1
REMARK SMILES IDX 25 1 24 2 23 3 22 4 21 5 19 6 20 7 18 9 13 10 14 11 15 12
REMARK SMILES IDX 16 13 92 14 17 15 91 16 12 17 6 18 7 19 94 20 95 21 8 22
REMARK SMILES IDX 10 23 9 24 93 25 11 26 5 27 1 28 2 29 3 30 97 31 4 32 96 33
REMARK SMILES IDX 26 34 27 35 28 36 29 37 30 39 31 40 32 41 90 42 33 43 89 44
REMARK SMILES IDX 34 45 35 46 36 47 83 48 37 49 88 50 82 51 84 52 38 53 87 54
REMARK SMILES IDX 81 55 80 56 39 58 69 59 50 60 68 61 51 62 54 63 67 64 85 65
REMARK SMILES IDX 52 66 53 67 66 69 86 70 55 71 40 72 41 73 49 74 42 75 48 76
REMARK SMILES IDX 43 77 44 78 45 79 46 80 47 81 70 82 71 83 79 84 72 85 78 86
REMARK SMILES IDX 73 87 74 88 75 89 76 90 77 91 56 92 57 93 65 94 58 95 64 96
REMARK SMILES IDX 59 97 60 98 61 99 62 100 63 101
REMARK H PARENT 21 8 28 38 84 57 54 68
REMARK Flexibility Score: inf
ROOT
ATOM      1  C   UNL A   1      36.855  22.774  24.226  1.00  0.00     0.002 C 
ENDROOT
BRANCH   1   2
ATOM      2  C   UNL A   1      37.323  21.312  24.279  1.00  0.00     0.002 C 
BRANCH   2   3
ATOM      3  C   UNL A   1      36.376  20.308  24.947  1.00  0.00     0.021 C 
BRANCH   3   4
ATOM      4  C   UNL A   1      34.994  20.847  25.303  1.00  0.00     0.116 C 
BRANCH   4   5
ATOM      5  N   UNL A   1      34.026  19.793  25.570  1.00  0.00    -0.356 N 
ATOM      6  C   UNL A   1      32.722  19.671  25.203  1.00  0.00     0.223 C 
ATOM      7  O   UNL A   1      32.137  18.616  25.461  1.00  0.00    -0.275 OA
ATOM      8  H   UNL A   1      34.374  19.045  26.106  1.00  0.00     0.163 HD
BRANCH   6   9
ATOM      9  C   UNL A   1      31.977  20.800  24.506  1.00  0.00     0.082 C 
ATOM     10  C   UNL A   1      33.122  24.528  23.582  1.00  0.00     0.228 C 
ATOM     11  O   UNL A   1      34.056  24.438  22.778  1.00  0.00    -0.274 OA
ATOM     12  N   UNL A   1      32.159  23.521  23.649  1.00  0.00    -0.342 N 
ATOM     13  C   UNL A   1      32.140  22.501  22.610  1.00  0.00     0.120 C 
ATOM     14  C   UNL A   1      31.246  23.215  24.750  1.00  0.00     0.120 C 
ATOM     15  C   UNL A   1      32.622  21.165  23.157  1.00  0.00     0.035 C 
ATOM     16  C   UNL A   1      31.729  21.969  25.475  1.00  0.00     0.035 C 
BRANCH  10  17
ATOM     17  C   UNL A   1      32.981  25.802  24.451  1.00  0.00     0.051 C 
ATOM     18  C   UNL A   1      31.656  28.010  24.597  1.00  0.00    -0.003 C 
ATOM     19  C   UNL A   1      31.323  27.600  26.064  1.00  0.00     0.015 C 
ATOM     20  C   UNL A   1      31.909  26.703  23.811  1.00  0.00     0.028 C 
ATOM     21  C   UNL A   1      32.987  28.803  24.592  1.00  0.00     0.015 C 
ATOM     22  C   UNL A   1      32.477  26.806  26.709  1.00  0.00    -0.009 C 
ATOM     23  C   UNL A   1      34.123  27.961  25.208  1.00  0.00    -0.009 C 
ATOM     24  C   UNL A   1      33.764  27.641  26.666  1.00  0.00     0.007 C 
ATOM     25  C   UNL A   1      32.704  25.499  25.936  1.00  0.00     0.020 C 
ATOM     26  C   UNL A   1      34.297  26.642  24.423  1.00  0.00     0.020 C 
BRANCH  18  27
ATOM     27  C   UNL A   1      30.512  28.829  23.970  1.00  0.00    -0.042 A 
ATOM     28  C   UNL A   1      27.422  31.177  22.018  1.00  0.00     0.044 C 
ATOM     29  C   UNL A   1      28.464  30.348  22.705  1.00  0.00    -0.051 A 
ATOM     30  C   UNL A   1      29.319  30.944  23.628  1.00  0.00     0.004 A 
ATOM     31  C   UNL A   1      28.616  28.987  22.433  1.00  0.00     0.004 A 
ATOM     32  C   UNL A   1      30.318  30.196  24.254  1.00  0.00     0.004 A 
ATOM     33  C   UNL A   1      29.621  28.238  23.060  1.00  0.00     0.004 A 
ENDBRANCH  18  27
ENDBRANCH  10  17
ENDBRANCH   6   9
ENDBRANCH   4   5
ENDBRANCH   3   4
ENDBRANCH   2   3
ENDBRANCH   1   2
BRANCH   1  34
ATOM     34  C   UNL A   1      37.552  23.749  25.179  1.00  0.00     0.021 C 
BRANCH  34  35
ATOM     35  C   UNL A   1      37.760  23.198  26.584  1.00  0.00     0.116 C 
BRANCH  35  36
ATOM     36  N   UNL A   1      39.154  22.950  26.914  1.00  0.00    -0.352 N 
ATOM     37  C   UNL A   1      40.130  23.894  27.183  1.00  0.00     0.251 C 
ATOM     38  H   UNL A   1      39.435  22.008  26.950  1.00  0.00     0.163 HD
ATOM     39  O   UNL A   1      41.320  23.625  27.193  1.00  0.00    -0.269 OA
BRANCH  37  40
ATOM     40  C   UNL A   1      39.660  25.233  27.599  1.00  0.00     0.039 A 
ATOM     41  C   UNL A   1      40.025  26.314  26.788  1.00  0.00     0.014 A 
ATOM     42  C   UNL A   1      39.125  25.434  28.868  1.00  0.00     0.014 A 
ATOM     43  C   UNL A   1      40.004  27.604  27.315  1.00  0.00     0.010 A 
ATOM     44  C   UNL A   1      39.188  26.703  29.417  1.00  0.00     0.010 A 
ATOM     45  C   UNL A   1      39.666  27.781  28.657  1.00  0.00    -0.014 A 
BRANCH  45  46
ATOM     46  C   UNL A   1      39.869  29.035  29.378  1.00  0.00     0.031 A 
ATOM     47  C   UNL A   1      38.845  30.106  29.338  1.00  0.00     0.074 A 
ATOM     48  C   UNL A   1      40.962  29.213  30.154  1.00  0.00     0.049 A 
ATOM     49  N   UNL A   1      39.096  31.361  29.529  1.00  0.00    -0.248 NA
ATOM     50  C   UNL A   1      37.444  29.841  29.029  1.00  0.00     0.031 C 
ATOM     51  C   UNL A   1      41.143  30.245  31.172  1.00  0.00     0.029 A 
ATOM     52  N   UNL A   1      42.227  28.635  30.036  1.00  0.00    -0.354 N 
ATOM     53  C   UNL A   1      37.887  32.001  29.685  1.00  0.00     0.074 A 
ATOM     54  C   UNL A   1      36.893  31.034  29.273  1.00  0.00     0.031 C 
ATOM     55  C   UNL A   1      42.456  30.441  31.357  1.00  0.00     0.029 A 
ATOM     56  C   UNL A   1      43.155  29.636  30.370  1.00  0.00     0.049 A 
ATOM     57  H   UNL A   1      42.430  27.709  29.770  1.00  0.00     0.167 HD
ATOM     58  C   UNL A   1      37.826  33.218  30.295  1.00  0.00     0.031 A 
ATOM     59  C   UNL A   1      44.158  30.076  29.557  1.00  0.00     0.031 A 
ATOM     60  C   UNL A   1      39.145  33.723  30.665  1.00  0.00     0.049 A 
ATOM     61  C   UNL A   1      44.137  31.572  29.331  1.00  0.00     0.074 A 
ATOM     62  C   UNL A   1      39.832  33.763  31.868  1.00  0.00     0.029 A 
ATOM     63  N   UNL A   1      40.059  34.058  29.676  1.00  0.00    -0.354 N 
ATOM     64  N   UNL A   1      43.126  32.335  29.635  1.00  0.00    -0.248 NA
ATOM     65  C   UNL A   1      45.217  32.317  28.687  1.00  0.00     0.031 C 
ATOM     66  C   UNL A   1      41.182  34.088  31.594  1.00  0.00     0.029 A 
ATOM     67  C   UNL A   1      41.311  34.254  30.226  1.00  0.00     0.049 A 
ATOM     68  H   UNL A   1      39.847  34.143  28.719  1.00  0.00     0.167 HD
ATOM     69  C   UNL A   1      43.374  33.620  29.226  1.00  0.00     0.074 A 
ATOM     70  C   UNL A   1      44.707  33.562  28.656  1.00  0.00     0.031 C 
ATOM     71  C   UNL A   1      42.443  34.607  29.380  1.00  0.00     0.031 A 
BRANCH  58  72
ATOM     72  C   UNL A   1      36.537  33.796  30.843  1.00  0.00    -0.014 A 
ATOM     73  C   UNL A   1      35.423  33.946  29.989  1.00  0.00     0.010 A 
ATOM     74  C   UNL A   1      36.375  34.260  32.161  1.00  0.00     0.010 A 
ATOM     75  C   UNL A   1      34.269  34.636  30.384  1.00  0.00     0.020 A 
ATOM     76  C   UNL A   1      35.243  34.989  32.559  1.00  0.00     0.020 A 
ATOM     77  C   UNL A   1      34.202  35.188  31.659  1.00  0.00     0.054 A 
BRANCH  77  78
ATOM     78  S   UNL A   1      32.756  36.182  32.108  1.00  0.00     0.124 S 
ATOM     79  O   UNL A   1      33.261  36.993  33.214  1.00  0.00    -0.237 OA
ATOM     80  O   UNL A   1      32.477  36.908  30.872  1.00  0.00    -0.237 OA
ATOM     81  O   UNL A   1      31.754  35.187  32.484  1.00  0.00    -0.744 OA
ENDBRANCH  77  78
ENDBRANCH  58  72
BRANCH  59  82
ATOM     82  C   UNL A   1      44.623  29.077  28.560  1.00  0.00    -0.014 A 
ATOM     83  C   UNL A   1      44.048  29.131  27.272  1.00  0.00     0.010 A 
ATOM     84  C   UNL A   1      45.857  28.429  28.734  1.00  0.00     0.010 A 
ATOM     85  C   UNL A   1      44.773  28.704  26.158  1.00  0.00     0.020 A 
ATOM     86  C   UNL A   1      46.583  27.995  27.616  1.00  0.00     0.020 A 
ATOM     87  C   UNL A   1      46.062  28.198  26.334  1.00  0.00     0.054 A 
BRANCH  87  88
ATOM     88  S   UNL A   1      47.108  28.003  24.861  1.00  0.00     0.124 S 
ATOM     89  O   UNL A   1      46.793  26.644  24.433  1.00  0.00    -0.237 OA
ATOM     90  O   UNL A   1      46.607  29.069  23.994  1.00  0.00    -0.237 OA
ATOM     91  O   UNL A   1      48.457  28.204  25.380  1.00  0.00    -0.744 OA
ENDBRANCH  87  88
ENDBRANCH  59  82
BRANCH  71  92
ATOM     92  C   UNL A   1      42.511  36.014  28.833  1.00  0.00    -0.014 A 
ATOM     93  C   UNL A   1      43.050  37.112  29.519  1.00  0.00     0.010 A 
ATOM     94  C   UNL A   1      42.115  36.236  27.489  1.00  0.00     0.010 A 
ATOM     95  C   UNL A   1      43.140  38.378  28.917  1.00  0.00     0.020 A 
ATOM     96  C   UNL A   1      42.237  37.482  26.866  1.00  0.00     0.020 A 
ATOM     97  C   UNL A   1      42.730  38.555  27.594  1.00  0.00     0.054 A 
BRANCH  97  98
ATOM     98  S   UNL A   1      42.917  40.173  26.800  1.00  0.00     0.124 S 
ATOM     99  O   UNL A   1      43.277  41.024  27.932  1.00  0.00    -0.237 OA
ATOM    100  O   UNL A   1      43.982  39.942  25.827  1.00  0.00    -0.237 OA
ATOM    101  O   UNL A   1      41.599  40.422  26.222  1.00  0.00    -0.744 OA
ENDBRANCH  97  98
ENDBRANCH  71  92
ENDBRANCH  45  46
ENDBRANCH  37  40
ENDBRANCH  35  36
ENDBRANCH  34  35
ENDBRANCH   1  34
TORSDOF 18
ENDMDL
MODEL 2
REMARK VINA RESULT:     -12.5      5.801     15.545
REMARK SMILES Cc1ccc([C@@]23C[C@@H]4C[C@@H](C[C@@](C(=O)N5CCC(C(=O)NCCCCCCNC(=O)c6ccc(-c7c8nc(c(-c9ccc(S(=O)(=O)[O-])cc9)c9ccc([nH]9)c(-c9ccc(S(=O)(=O)[O-])cc9)c9nc(c(-c%10ccc(S(=O)(=O)[O-])cc%10)c%10ccc7[nH]%10)C=C9)C=C8)cc6)CC5)(C4)C2)C3)cc1
REMARK SMILES IDX 25 1 24 2 23 3 22 4 21 5 19 6 20 7 18 9 13 10 14 11 15 12
REMARK SMILES IDX 16 13 92 14 17 15 91 16 12 17 6 18 7 19 94 20 95 21 8 22
REMARK SMILES IDX 10 23 9 24 93 25 11 26 5 27 1 28 2 29 3 30 97 31 4 32 96 33
REMARK SMILES IDX 26 34 27 35 28 36 29 37 30 39 31 40 32 41 90 42 33 43 89 44
REMARK SMILES IDX 34 45 35 46 36 47 83 48 37 49 88 50 82 51 84 52 38 53 87 54
REMARK SMILES IDX 81 55 80 56 39 58 69 59 50 60 68 61 51 62 54 63 67 64 85 65
REMARK SMILES IDX 52 66 53 67 66 69 86 70 55 71 40 72 41 73 49 74 42 75 48 76
REMARK SMILES IDX 43 77 44 78 45 79 46 80 47 81 70 82 71 83 79 84 72 85 78 86
REMARK SMILES IDX 73 87 74 88 75 89 76 90 77 91 56 92 57 93 65 94 58 95 64 96
REMARK SMILES IDX 59 97 60 98 61 99 62 100 63 101
REMARK H PARENT 21 8 28 38 84 57 54 68
REMARK Flexibility Score: inf
ROOT
ATOM      1  C   UNL A   1      40.192  33.086  30.866  1.00  0.00     0.002 C 
ENDROOT
BRANCH   1   2
ATOM      2  C   UNL A   1      41.284  33.515  29.874  1.00  0.00     0.002 C 
BRANCH   2   3
ATOM      3  C   UNL A   1      41.683  34.995  29.884  1.00  0.00     0.021 C 
BRANCH   3   4
ATOM      4  C   UNL A   1      41.434  35.751  28.583  1.00  0.00     0.116 C 
BRANCH   4   5
ATOM      5  N   UNL A   1      42.575  35.714  27.680  1.00  0.00    -0.356 N 
ATOM      6  C   UNL A   1      43.405  36.706  27.255  1.00  0.00     0.223 C 
ATOM      7  O   UNL A   1      44.382  36.398  26.567  1.00  0.00    -0.275 OA
ATOM      8  H   UNL A   1      42.780  34.824  27.315  1.00  0.00     0.163 HD
BRANCH   6   9
ATOM      9  C   UNL A   1      43.145  38.167  27.594  1.00  0.00     0.082 C 
ATOM     10  C   UNL A   1      43.131  41.439  25.281  1.00  0.00     0.228 C 
ATOM     11  O   UNL A   1      42.218  41.306  24.459  1.00  0.00    -0.274 OA
ATOM     12  N   UNL A   1      43.046  40.816  26.526  1.00  0.00    -0.342 N 
ATOM     13  C   UNL A   1      41.780  40.215  26.924  1.00  0.00     0.120 C 
ATOM     14  C   UNL A   1      44.131  40.498  27.454  1.00  0.00     0.120 C 
ATOM     15  C   UNL A   1      41.874  38.697  26.907  1.00  0.00     0.035 C 
ATOM     16  C   UNL A   1      44.420  39.006  27.400  1.00  0.00     0.035 C 
BRANCH  10  17
ATOM     17  C   UNL A   1      44.324  42.370  24.954  1.00  0.00     0.051 C 
ATOM     18  C   UNL A   1      45.263  43.865  23.075  1.00  0.00    -0.003 C 
ATOM     19  C   UNL A   1      45.346  44.994  24.147  1.00  0.00     0.015 C 
ATOM     20  C   UNL A   1      44.140  42.902  23.521  1.00  0.00     0.028 C 
ATOM     21  C   UNL A   1      46.586  43.058  23.100  1.00  0.00     0.015 C 
ATOM     22  C   UNL A   1      45.656  44.428  25.547  1.00  0.00    -0.009 C 
ATOM     23  C   UNL A   1      46.839  42.477  24.505  1.00  0.00    -0.009 C 
ATOM     24  C   UNL A   1      46.970  43.636  25.502  1.00  0.00     0.007 C 
ATOM     25  C   UNL A   1      44.523  43.492  25.992  1.00  0.00     0.020 C 
ATOM     26  C   UNL A   1      45.664  41.568  24.929  1.00  0.00     0.020 C 
BRANCH  18  27
ATOM     27  C   UNL A   1      44.983  44.442  21.674  1.00  0.00    -0.042 A 
ATOM     28  C   UNL A   1      44.304  45.883  17.633  1.00  0.00     0.044 C 
ATOM     29  C   UNL A   1      44.509  45.400  19.036  1.00  0.00    -0.051 A 
ATOM     30  C   UNL A   1      45.603  45.854  19.768  1.00  0.00     0.004 A 
ATOM     31  C   UNL A   1      43.638  44.486  19.632  1.00  0.00     0.004 A 
ATOM     32  C   UNL A   1      45.829  45.390  21.064  1.00  0.00     0.004 A 
ATOM     33  C   UNL A   1      43.869  44.018  20.933  1.00  0.00     0.004 A 
ENDBRANCH  18  27
ENDBRANCH  10  17
ENDBRANCH   6   9
ENDBRANCH   4   5
ENDBRANCH   3   4
ENDBRANCH   2   3
ENDBRANCH   1   2
BRANCH   1  34
ATOM     34  C   UNL A   1      38.751  33.435  30.487  1.00  0.00     0.021 C 
BRANCH  34  35
ATOM     35  C   UNL A   1      38.291  32.822  29.169  1.00  0.00     0.116 C 
BRANCH  35  36
ATOM     36  N   UNL A   1      36.871  32.515  29.131  1.00  0.00    -0.352 N 
ATOM     37  C   UNL A   1      36.277  31.363  28.644  1.00  0.00     0.251 C 
ATOM     38  H   UNL A   1      36.264  33.201  29.491  1.00  0.00     0.163 HD
ATOM     39  O   UNL A   1      35.083  31.289  28.407  1.00  0.00    -0.269 OA
BRANCH  37  40
ATOM     40  C   UNL A   1      37.137  30.164  28.547  1.00  0.00     0.039 A 
ATOM     41  C   UNL A   1      37.287  29.395  29.707  1.00  0.00     0.014 A 
ATOM     42  C   UNL A   1      37.968  29.974  27.446  1.00  0.00     0.014 A 
ATOM     43  C   UNL A   1      38.379  28.537  29.826  1.00  0.00     0.010 A 
ATOM     44  C   UNL A   1      39.097  29.189  27.599  1.00  0.00     0.010 A 
ATOM     45  C   UNL A   1      39.326  28.504  28.802  1.00  0.00    -0.014 A 
BRANCH  45  46
ATOM     46  C   UNL A   1      40.630  27.858  28.935  1.00  0.00     0.031 A 
ATOM     47  C   UNL A   1      40.793  26.415  28.635  1.00  0.00     0.074 A 
ATOM     48  C   UNL A   1      41.725  28.580  29.263  1.00  0.00     0.049 A 
ATOM     49  N   UNL A   1      41.725  25.669  29.134  1.00  0.00    -0.248 NA
ATOM     50  C   UNL A   1      39.875  25.684  27.769  1.00  0.00     0.031 C 
ATOM     51  C   UNL A   1      43.117  28.159  29.113  1.00  0.00     0.029 A 
ATOM     52  N   UNL A   1      41.811  29.759  30.004  1.00  0.00    -0.354 N 
ATOM     53  C   UNL A   1      41.723  24.486  28.431  1.00  0.00     0.074 A 
ATOM     54  C   UNL A   1      40.499  24.508  27.661  1.00  0.00     0.031 C 
ATOM     55  C   UNL A   1      43.872  28.859  29.972  1.00  0.00     0.029 A 
ATOM     56  C   UNL A   1      42.970  29.652  30.789  1.00  0.00     0.049 A 
ATOM     57  H   UNL A   1      41.182  30.517  29.981  1.00  0.00     0.167 HD
ATOM     58  C   UNL A   1      42.822  23.679  28.438  1.00  0.00     0.031 A 
ATOM     59  C   UNL A   1      43.003  29.737  32.151  1.00  0.00     0.031 A 
ATOM     60  C   UNL A   1      43.886  24.194  29.294  1.00  0.00     0.049 A 
ATOM     61  C   UNL A   1      43.655  28.542  32.812  1.00  0.00     0.074 A 
ATOM     62  C   UNL A   1      45.063  24.875  29.024  1.00  0.00     0.029 A 
ATOM     63  N   UNL A   1      43.697  24.261  30.668  1.00  0.00    -0.354 N 
ATOM     64  N   UNL A   1      43.908  27.423  32.195  1.00  0.00    -0.248 NA
ATOM     65  C   UNL A   1      44.011  28.484  34.228  1.00  0.00     0.031 C 
ATOM     66  C   UNL A   1      45.565  25.389  30.244  1.00  0.00     0.029 A 
ATOM     67  C   UNL A   1      44.698  25.011  31.255  1.00  0.00     0.049 A 
ATOM     68  H   UNL A   1      42.955  23.835  31.155  1.00  0.00     0.167 HD
ATOM     69  C   UNL A   1      44.412  26.507  33.082  1.00  0.00     0.074 A 
ATOM     70  C   UNL A   1      44.478  27.227  34.340  1.00  0.00     0.031 C 
ATOM     71  C   UNL A   1      44.708  25.232  32.694  1.00  0.00     0.031 A 
BRANCH  58  72
ATOM     72  C   UNL A   1      43.043  22.589  27.410  1.00  0.00    -0.014 A 
ATOM     73  C   UNL A   1      42.403  21.342  27.568  1.00  0.00     0.010 A 
ATOM     74  C   UNL A   1      43.907  22.707  26.306  1.00  0.00     0.010 A 
ATOM     75  C   UNL A   1      42.707  20.239  26.758  1.00  0.00     0.020 A 
ATOM     76  C   UNL A   1      44.253  21.603  25.510  1.00  0.00     0.020 A 
ATOM     77  C   UNL A   1      43.662  20.368  25.754  1.00  0.00     0.054 A 
BRANCH  77  78
ATOM     78  S   UNL A   1      44.132  18.902  24.799  1.00  0.00     0.124 S 
ATOM     79  O   UNL A   1      43.026  17.984  25.066  1.00  0.00    -0.237 OA
ATOM     80  O   UNL A   1      44.203  19.423  23.437  1.00  0.00    -0.237 OA
ATOM     81  O   UNL A   1      45.413  18.506  25.381  1.00  0.00    -0.744 OA
ENDBRANCH  77  78
ENDBRANCH  58  72
BRANCH  59  82
ATOM     82  C   UNL A   1      41.897  30.532  32.744  1.00  0.00    -0.014 A 
ATOM     83  C   UNL A   1      40.624  29.928  32.803  1.00  0.00     0.010 A 
ATOM     84  C   UNL A   1      42.184  31.614  33.593  1.00  0.00     0.010 A 
ATOM     85  C   UNL A   1      39.722  30.279  33.809  1.00  0.00     0.020 A 
ATOM     86  C   UNL A   1      41.276  31.972  34.600  1.00  0.00     0.020 A 
ATOM     87  C   UNL A   1      40.083  31.256  34.739  1.00  0.00     0.054 A 
BRANCH  87  88
ATOM     88  S   UNL A   1      39.063  31.426  36.233  1.00  0.00     0.124 S 
ATOM     89  O   UNL A   1      38.611  30.056  36.459  1.00  0.00    -0.237 OA
ATOM     90  O   UNL A   1      40.032  31.937  37.202  1.00  0.00    -0.237 OA
ATOM     91  O   UNL A   1      38.029  32.372  35.827  1.00  0.00    -0.744 OA
ENDBRANCH  87  88
ENDBRANCH  59  82
BRANCH  71  92
ATOM     92  C   UNL A   1      45.109  24.080  33.588  1.00  0.00    -0.014 A 
ATOM     93  C   UNL A   1      44.255  23.037  33.975  1.00  0.00     0.010 A 
ATOM     94  C   UNL A   1      46.468  23.967  33.976  1.00  0.00     0.010 A 
ATOM     95  C   UNL A   1      44.719  21.964  34.754  1.00  0.00     0.020 A 
ATOM     96  C   UNL A   1      46.950  22.884  34.717  1.00  0.00     0.020 A 
ATOM     97  C   UNL A   1      46.064  21.896  35.122  1.00  0.00     0.054 A 
BRANCH  97  98
ATOM     98  S   UNL A   1      46.672  20.473  36.065  1.00  0.00     0.124 S 
ATOM     99  O   UNL A   1      46.643  19.413  35.060  1.00  0.00    -0.237 OA
ATOM    100  O   UNL A   1      48.004  20.900  36.485  1.00  0.00    -0.237 OA
ATOM    101  O   UNL A   1      45.699  20.340  37.146  1.00  0.00    -0.744 OA
ENDBRANCH  97  98
ENDBRANCH  71  92
ENDBRANCH  45  46
ENDBRANCH  37  40
ENDBRANCH  35  36
ENDBRANCH  34  35
ENDBRANCH   1  34
TORSDOF 18
ENDMDL
MODEL 3
REMARK VINA RESULT:     -12.4      3.925      5.515
REMARK SMILES Cc1ccc([C@@]23C[C@@H]4C[C@@H](C[C@@](C(=O)N5CCC(C(=O)NCCCCCCNC(=O)c6ccc(-c7c8nc(c(-c9ccc(S(=O)(=O)[O-])cc9)c9ccc([nH]9)c(-c9ccc(S(=O)(=O)[O-])cc9)c9nc(c(-c%10ccc(S(=O)(=O)[O-])cc%10)c%10ccc7[nH]%10)C=C9)C=C8)cc6)CC5)(C4)C2)C3)cc1
REMARK SMILES IDX 25 1 24 2 23 3 22 4 21 5 19 6 20 7 18 9 13 10 14 11 15 12
REMARK SMILES IDX 16 13 92 14 17 15 91 16 12 17 6 18 7 19 94 20 95 21 8 22
REMARK SMILES IDX 10 23 9 24 93 25 11 26 5 27 1 28 2 29 3 30 97 31 4 32 96 33
REMARK SMILES IDX 26 34 27 35 28 36 29 37 30 39 31 40 32 41 90 42 33 43 89 44
REMARK SMILES IDX 34 45 35 46 36 47 83 48 37 49 88 50 82 51 84 52 38 53 87 54
REMARK SMILES IDX 81 55 80 56 39 58 69 59 50 60 68 61 51 62 54 63 67 64 85 65
REMARK SMILES IDX 52 66 53 67 66 69 86 70 55 71 40 72 41 73 49 74 42 75 48 76
REMARK SMILES IDX 43 77 44 78 45 79 46 80 47 81 70 82 71 83 79 84 72 85 78 86
REMARK SMILES IDX 73 87 74 88 75 89 76 90 77 91 56 92 57 93 65 94 58 95 64 96
REMARK SMILES IDX 59 97 60 98 61 99 62 100 63 101
REMARK H PARENT 21 8 28 38 84 57 54 68
REMARK Flexibility Score: inf
ROOT
ATOM      1  C   UNL A   1      42.248  22.558  27.360  1.00  0.00     0.002 C 
ENDROOT
BRANCH   1   2
ATOM      2  C   UNL A   1      41.000  21.722  27.685  1.00  0.00     0.002 C 
BRANCH   2   3
ATOM      3  C   UNL A   1      40.451  20.837  26.561  1.00  0.00     0.021 C 
BRANCH   3   4
ATOM      4  C   UNL A   1      39.229  21.385  25.831  1.00  0.00     0.116 C 
BRANCH   4   5
ATOM      5  N   UNL A   1      39.085  22.827  25.970  1.00  0.00    -0.356 N 
ATOM      6  C   UNL A   1      37.980  23.619  25.922  1.00  0.00     0.223 C 
ATOM      7  O   UNL A   1      38.105  24.818  26.184  1.00  0.00    -0.275 OA
ATOM      8  H   UNL A   1      39.929  23.309  26.126  1.00  0.00     0.163 HD
BRANCH   6   9
ATOM      9  C   UNL A   1      36.615  23.065  25.538  1.00  0.00     0.082 C 
ATOM     10  C   UNL A   1      33.621  24.683  23.422  1.00  0.00     0.228 C 
ATOM     11  O   UNL A   1      34.040  24.872  22.275  1.00  0.00    -0.274 OA
ATOM     12  N   UNL A   1      34.159  23.660  24.203  1.00  0.00    -0.342 N 
ATOM     13  C   UNL A   1      35.036  22.684  23.569  1.00  0.00     0.120 C 
ATOM     14  C   UNL A   1      34.124  23.519  25.658  1.00  0.00     0.120 C 
ATOM     15  C   UNL A   1      36.477  22.885  24.016  1.00  0.00     0.035 C 
ATOM     16  C   UNL A   1      35.492  23.856  26.230  1.00  0.00     0.035 C 
BRANCH  10  17
ATOM     17  C   UNL A   1      32.440  25.531  23.954  1.00  0.00     0.051 C 
ATOM     18  C   UNL A   1      31.931  27.602  25.403  1.00  0.00    -0.003 C 
ATOM     19  C   UNL A   1      31.083  28.116  24.200  1.00  0.00     0.015 C 
ATOM     20  C   UNL A   1      33.014  26.665  24.822  1.00  0.00     0.028 C 
ATOM     21  C   UNL A   1      31.027  26.736  26.316  1.00  0.00     0.015 C 
ATOM     22  C   UNL A   1      30.423  26.953  23.432  1.00  0.00    -0.009 C 
ATOM     23  C   UNL A   1      30.419  25.564  25.521  1.00  0.00    -0.009 C 
ATOM     24  C   UNL A   1      29.550  26.132  24.391  1.00  0.00     0.007 C 
ATOM     25  C   UNL A   1      31.506  26.041  22.838  1.00  0.00     0.020 C 
ATOM     26  C   UNL A   1      31.540  24.690  24.913  1.00  0.00     0.020 C 
BRANCH  18  27
ATOM     27  C   UNL A   1      32.562  28.772  26.184  1.00  0.00    -0.042 A 
ATOM     28  C   UNL A   1      34.437  32.140  28.185  1.00  0.00     0.044 C 
ATOM     29  C   UNL A   1      33.765  30.981  27.517  1.00  0.00    -0.051 A 
ATOM     30  C   UNL A   1      34.391  29.737  27.501  1.00  0.00     0.004 A 
ATOM     31  C   UNL A   1      32.525  31.113  26.887  1.00  0.00     0.004 A 
ATOM     32  C   UNL A   1      33.797  28.652  26.854  1.00  0.00     0.004 A 
ATOM     33  C   UNL A   1      31.931  30.024  26.236  1.00  0.00     0.004 A 
ENDBRANCH  18  27
ENDBRANCH  10  17
ENDBRANCH   6   9
ENDBRANCH   4   5
ENDBRANCH   3   4
ENDBRANCH   2   3
ENDBRANCH   1   2
BRANCH   1  34
ATOM     34  C   UNL A   1      42.366  23.911  28.065  1.00  0.00     0.021 C 
BRANCH  34  35
ATOM     35  C   UNL A   1      41.534  25.017  27.428  1.00  0.00     0.116 C 
BRANCH  35  36
ATOM     36  N   UNL A   1      42.164  25.629  26.269  1.00  0.00    -0.352 N 
ATOM     37  C   UNL A   1      41.900  26.880  25.737  1.00  0.00     0.251 C 
ATOM     38  H   UNL A   1      42.854  25.096  25.813  1.00  0.00     0.163 HD
ATOM     39  O   UNL A   1      42.275  27.213  24.626  1.00  0.00    -0.269 OA
BRANCH  37  40
ATOM     40  C   UNL A   1      41.252  27.858  26.636  1.00  0.00     0.039 A 
ATOM     41  C   UNL A   1      42.088  28.767  27.296  1.00  0.00     0.014 A 
ATOM     42  C   UNL A   1      39.921  27.700  27.015  1.00  0.00     0.014 A 
ATOM     43  C   UNL A   1      41.634  29.406  28.448  1.00  0.00     0.010 A 
ATOM     44  C   UNL A   1      39.502  28.268  28.205  1.00  0.00     0.010 A 
ATOM     45  C   UNL A   1      40.369  29.087  28.944  1.00  0.00    -0.014 A 
BRANCH  45  46
ATOM     46  C   UNL A   1      39.904  29.484  30.271  1.00  0.00     0.031 A 
ATOM     47  C   UNL A   1      39.189  30.767  30.469  1.00  0.00     0.074 A 
ATOM     48  C   UNL A   1      40.052  28.655  31.329  1.00  0.00     0.049 A 
ATOM     49  N   UNL A   1      39.147  31.411  31.590  1.00  0.00    -0.248 NA
ATOM     50  C   UNL A   1      38.494  31.455  29.386  1.00  0.00     0.031 C 
ATOM     51  C   UNL A   1      39.362  28.757  32.613  1.00  0.00     0.029 A 
ATOM     52  N   UNL A   1      41.018  27.671  31.546  1.00  0.00    -0.354 N 
ATOM     53  C   UNL A   1      38.188  32.391  31.465  1.00  0.00     0.074 A 
ATOM     54  C   UNL A   1      37.880  32.436  30.052  1.00  0.00     0.031 C 
ATOM     55  C   UNL A   1      40.094  28.130  33.545  1.00  0.00     0.029 A 
ATOM     56  C   UNL A   1      41.337  27.722  32.913  1.00  0.00     0.049 A 
ATOM     57  H   UNL A   1      41.400  27.062  30.874  1.00  0.00     0.167 HD
ATOM     58  C   UNL A   1      37.629  32.953  32.573  1.00  0.00     0.031 A 
ATOM     59  C   UNL A   1      42.587  27.932  33.416  1.00  0.00     0.031 A 
ATOM     60  C   UNL A   1      38.211  32.443  33.811  1.00  0.00     0.049 A 
ATOM     61  C   UNL A   1      42.659  29.094  34.383  1.00  0.00     0.074 A 
ATOM     62  C   UNL A   1      37.778  31.507  34.737  1.00  0.00     0.029 A 
ATOM     63  N   UNL A   1      39.538  32.715  34.114  1.00  0.00    -0.354 N 
ATOM     64  N   UNL A   1      41.716  29.982  34.517  1.00  0.00    -0.248 NA
ATOM     65  C   UNL A   1      43.819  29.390  35.220  1.00  0.00     0.031 C 
ATOM     66  C   UNL A   1      38.868  31.185  35.581  1.00  0.00     0.029 A 
ATOM     67  C   UNL A   1      39.959  31.933  35.173  1.00  0.00     0.049 A 
ATOM     68  H   UNL A   1      40.100  33.371  33.643  1.00  0.00     0.167 HD
ATOM     69  C   UNL A   1      42.116  30.955  35.396  1.00  0.00     0.074 A 
ATOM     70  C   UNL A   1      43.433  30.528  35.827  1.00  0.00     0.031 C 
ATOM     71  C   UNL A   1      41.324  32.034  35.669  1.00  0.00     0.031 A 
BRANCH  58  72
ATOM     72  C   UNL A   1      36.329  33.730  32.530  1.00  0.00    -0.014 A 
ATOM     73  C   UNL A   1      35.445  33.548  31.445  1.00  0.00     0.010 A 
ATOM     74  C   UNL A   1      35.948  34.688  33.487  1.00  0.00     0.010 A 
ATOM     75  C   UNL A   1      34.321  34.364  31.255  1.00  0.00     0.020 A 
ATOM     76  C   UNL A   1      34.849  35.539  33.290  1.00  0.00     0.020 A 
ATOM     77  C   UNL A   1      34.051  35.383  32.162  1.00  0.00     0.054 A 
BRANCH  77  78
ATOM     78  S   UNL A   1      32.668  36.504  31.833  1.00  0.00     0.124 S 
ATOM     79  O   UNL A   1      31.587  35.582  31.490  1.00  0.00    -0.237 OA
ATOM     80  O   UNL A   1      32.519  37.203  33.106  1.00  0.00    -0.237 OA
ATOM     81  O   UNL A   1      33.146  37.328  30.723  1.00  0.00    -0.744 OA
ENDBRANCH  77  78
ENDBRANCH  58  72
BRANCH  59  82
ATOM     82  C   UNL A   1      43.691  27.512  32.514  1.00  0.00    -0.014 A 
ATOM     83  C   UNL A   1      44.424  28.531  31.870  1.00  0.00     0.010 A 
ATOM     84  C   UNL A   1      44.261  26.234  32.644  1.00  0.00     0.010 A 
ATOM     85  C   UNL A   1      45.761  28.327  31.523  1.00  0.00     0.020 A 
ATOM     86  C   UNL A   1      45.602  26.027  32.291  1.00  0.00     0.020 A 
ATOM     87  C   UNL A   1      46.357  27.095  31.796  1.00  0.00     0.054 A 
BRANCH  87  88
ATOM     88  S   UNL A   1      48.167  26.981  31.680  1.00  0.00     0.124 S 
ATOM     89  O   UNL A   1      48.351  26.073  30.552  1.00  0.00    -0.237 OA
ATOM     90  O   UNL A   1      48.540  28.374  31.436  1.00  0.00    -0.237 OA
ATOM     91  O   UNL A   1      48.553  26.452  32.984  1.00  0.00    -0.744 OA
ENDBRANCH  87  88
ENDBRANCH  59  82
BRANCH  71  92
ATOM     92  C   UNL A   1      41.699  33.254  36.479  1.00  0.00    -0.014 A 
ATOM     93  C   UNL A   1      42.851  34.026  36.272  1.00  0.00     0.010 A 
ATOM     94  C   UNL A   1      40.776  33.735  37.443  1.00  0.00     0.010 A 
ATOM     95  C   UNL A   1      43.097  35.187  37.023  1.00  0.00     0.020 A 
ATOM     96  C   UNL A   1      40.990  34.911  38.167  1.00  0.00     0.020 A 
ATOM     97  C   UNL A   1      42.166  35.621  37.968  1.00  0.00     0.054 A 
BRANCH  97  98
ATOM     98  S   UNL A   1      42.455  37.159  38.881  1.00  0.00     0.124 S 
ATOM     99  O   UNL A   1      43.198  37.953  37.905  1.00  0.00    -0.237 OA
ATOM    100  O   UNL A   1      41.102  37.630  39.170  1.00  0.00    -0.237 OA
ATOM    101  O   UNL A   1      43.218  36.724  40.048  1.00  0.00    -0.744 OA
ENDBRANCH  97  98
ENDBRANCH  71  92
ENDBRANCH  45  46
ENDBRANCH  37  40
ENDBRANCH  35  36
ENDBRANCH  34  35
ENDBRANCH   1  34
TORSDOF 18
ENDMDL
