MODEL 1
REMARK VINA RESULT:     -12.3      0.000      0.000
REMARK SMILES C[NH+]1CCC(C(=O)N2C[C@@H](C(=O)NCCCCCCNC(=O)c3ccc(-c4c5nc(c(-c6ccc(S(=O)(=O)[O-])cc6)c6ccc([nH]6)c(-c6ccc(S(=O)(=O)[O-])cc6)c6nc(c(-c7ccc(S(=O)(=O)[O-])cc7)c7ccc4[nH]7)C=C6)C=C5)cc3)[C@H](c3ccc4c(c3)OCO4)C2)CC1
REMARK SMILES IDX 17 1 16 2 15 3 14 4 13 5 11 6 12 7 10 9 8 10 9 11 93 12
REMARK SMILES IDX 83 13 6 14 7 15 5 16 1 17 2 18 3 19 95 20 4 22 94 23 84 24
REMARK SMILES IDX 85 25 89 26 86 27 88 28 87 29 90 30 92 31 91 32 18 33 19 34
REMARK SMILES IDX 20 35 21 36 22 38 23 39 24 40 82 41 25 42 81 43 26 44 27 45
REMARK SMILES IDX 28 46 75 47 29 48 80 49 74 50 76 51 30 52 79 53 73 54 72 55
REMARK SMILES IDX 31 57 61 58 42 59 60 60 43 61 46 62 59 63 77 64 44 65 45 66
REMARK SMILES IDX 58 68 78 69 47 70 32 71 33 72 41 73 34 74 40 75 35 76 36 77
REMARK SMILES IDX 37 78 38 79 39 80 62 81 63 82 71 83 64 84 70 85 65 86 66 87
REMARK SMILES IDX 67 88 68 89 69 90 48 91 49 92 57 93 50 94 56 95 51 96 52 97
REMARK SMILES IDX 53 98 54 99 55 100
REMARK H PARENT 13 8 2 21 20 37 76 56 46 67
REMARK Flexibility Score: inf
ROOT
ATOM      1  C   UNL A   1      34.656  29.622  27.588  1.00  0.00     0.002 C 
ENDROOT
BRANCH   1   2
ATOM      2  C   UNL A   1      33.231  29.082  27.427  1.00  0.00     0.002 C 
BRANCH   2   3
ATOM      3  C   UNL A   1      32.193  30.066  26.872  1.00  0.00     0.021 C 
BRANCH   3   4
ATOM      4  C   UNL A   1      31.777  29.829  25.423  1.00  0.00     0.116 C 
BRANCH   4   5
ATOM      5  N   UNL A   1      32.910  29.720  24.518  1.00  0.00    -0.356 N 
ATOM      6  C   UNL A   1      33.279  28.694  23.699  1.00  0.00     0.225 C 
ATOM      7  O   UNL A   1      34.218  28.875  22.921  1.00  0.00    -0.275 OA
ATOM      8  H   UNL A   1      33.500  30.508  24.492  1.00  0.00     0.163 HD
BRANCH   6   9
ATOM      9  C   UNL A   1      32.539  27.377  23.760  1.00  0.00     0.107 C 
ATOM     10  N   UNL A   1      32.655  25.092  23.454  1.00  0.00    -0.341 N 
ATOM     11  C   UNL A   1      33.513  26.216  23.758  1.00  0.00     0.133 C 
ATOM     12  C   UNL A   1      31.635  25.515  22.495  1.00  0.00     0.128 C 
ATOM     13  C   UNL A   1      31.690  27.064  22.507  1.00  0.00     0.053 C 
BRANCH  10  14
ATOM     14  C   UNL A   1      32.701  23.795  23.898  1.00  0.00     0.226 C 
ATOM     15  O   UNL A   1      31.672  23.251  24.317  1.00  0.00    -0.275 OA
BRANCH  14  16
ATOM     16  C   UNL A   1      34.045  23.107  24.167  1.00  0.00     0.090 C 
ATOM     17  C   UNL A   1      38.022  22.309  25.593  1.00  0.00     0.332 C 
ATOM     18  N   UNL A   1      36.782  22.940  25.146  1.00  0.00    -0.337 N 
ATOM     19  C   UNL A   1      35.672  22.587  26.038  1.00  0.00     0.262 C 
ATOM     20  C   UNL A   1      36.475  22.577  23.755  1.00  0.00     0.262 C 
ATOM     21  H   UNL A   1      36.912  23.952  25.181  1.00  0.00     0.347 HD
ATOM     22  C   UNL A   1      34.407  23.343  25.641  1.00  0.00     0.075 C 
ATOM     23  C   UNL A   1      35.255  23.371  23.274  1.00  0.00     0.075 C 
ENDBRANCH  14  16
ENDBRANCH  10  14
BRANCH  13  24
ATOM     24  C   UNL A   1      30.386  27.838  22.549  1.00  0.00    -0.038 A 
ATOM     25  C   UNL A   1      29.243  27.372  23.238  1.00  0.00     0.008 A 
ATOM     26  C   UNL A   1      30.382  29.146  22.025  1.00  0.00     0.054 A 
ATOM     27  C   UNL A   1      28.132  28.203  23.437  1.00  0.00     0.051 A 
ATOM     28  C   UNL A   1      29.291  29.951  22.270  1.00  0.00     0.166 A 
ATOM     29  C   UNL A   1      28.199  29.495  22.965  1.00  0.00     0.165 A 
ATOM     30  O   UNL A   1      29.192  31.269  21.952  1.00  0.00    -0.454 OA
ATOM     31  O   UNL A   1      27.271  30.467  23.166  1.00  0.00    -0.454 OA
ATOM     32  C   UNL A   1      27.948  31.608  22.602  1.00  0.00     0.468 C 
ENDBRANCH  13  24
ENDBRANCH   6   9
ENDBRANCH   4   5
ENDBRANCH   3   4
ENDBRANCH   2   3
ENDBRANCH   1   2
BRANCH   1  33
ATOM     33  C   UNL A   1      34.794  31.145  27.615  1.00  0.00     0.021 C 
BRANCH  33  34
ATOM     34  C   UNL A   1      35.891  31.691  28.523  1.00  0.00     0.116 C 
BRANCH  34  35
ATOM     35  N   UNL A   1      35.704  31.309  29.913  1.00  0.00    -0.352 N 
ATOM     36  C   UNL A   1      36.484  30.525  30.727  1.00  0.00     0.251 C 
ATOM     37  H   UNL A   1      34.890  31.668  30.337  1.00  0.00     0.163 HD
ATOM     38  O   UNL A   1      36.047  30.184  31.830  1.00  0.00    -0.269 OA
BRANCH  36  39
ATOM     39  C   UNL A   1      37.826  30.066  30.297  1.00  0.00     0.039 A 
ATOM     40  C   UNL A   1      38.105  29.981  28.929  1.00  0.00     0.014 A 
ATOM     41  C   UNL A   1      38.801  29.682  31.222  1.00  0.00     0.014 A 
ATOM     42  C   UNL A   1      39.371  29.573  28.493  1.00  0.00     0.010 A 
ATOM     43  C   UNL A   1      40.084  29.348  30.790  1.00  0.00     0.010 A 
ATOM     44  C   UNL A   1      40.383  29.282  29.421  1.00  0.00    -0.014 A 
BRANCH  44  45
ATOM     45  C   UNL A   1      41.753  28.899  28.981  1.00  0.00     0.031 A 
ATOM     46  C   UNL A   1      42.840  29.940  28.888  1.00  0.00     0.074 A 
ATOM     47  C   UNL A   1      42.005  27.631  28.597  1.00  0.00     0.049 A 
ATOM     48  N   UNL A   1      44.065  29.815  28.444  1.00  0.00    -0.248 NA
ATOM     49  C   UNL A   1      42.498  31.306  29.322  1.00  0.00     0.031 C 
ATOM     50  C   UNL A   1      41.031  26.536  28.587  1.00  0.00     0.029 A 
ATOM     51  N   UNL A   1      43.155  27.050  28.119  1.00  0.00    -0.354 N 
ATOM     52  C   UNL A   1      44.626  31.086  28.512  1.00  0.00     0.074 A 
ATOM     53  C   UNL A   1      43.600  31.974  29.011  1.00  0.00     0.031 C 
ATOM     54  C   UNL A   1      41.627  25.418  28.141  1.00  0.00     0.029 A 
ATOM     55  C   UNL A   1      43.013  25.720  27.797  1.00  0.00     0.049 A 
ATOM     56  H   UNL A   1      44.003  27.540  28.019  1.00  0.00     0.167 HD
ATOM     57  C   UNL A   1      45.885  31.476  28.203  1.00  0.00     0.031 A 
ATOM     58  C   UNL A   1      43.891  24.843  27.271  1.00  0.00     0.031 A 
ATOM     59  C   UNL A   1      46.921  30.585  27.751  1.00  0.00     0.049 A 
ATOM     60  C   UNL A   1      45.295  25.296  26.971  1.00  0.00     0.074 A 
ATOM     61  C   UNL A   1      48.251  30.873  27.502  1.00  0.00     0.029 A 
ATOM     62  N   UNL A   1      46.748  29.236  27.487  1.00  0.00    -0.354 N 
ATOM     63  N   UNL A   1      45.827  26.486  27.124  1.00  0.00    -0.248 NA
ATOM     64  C   UNL A   1      46.222  24.286  26.440  1.00  0.00     0.031 C 
ATOM     65  C   UNL A   1      48.873  29.708  27.042  1.00  0.00     0.029 A 
ATOM     66  C   UNL A   1      47.940  28.684  27.055  1.00  0.00     0.049 A 
ATOM     67  H   UNL A   1      45.901  28.743  27.591  1.00  0.00     0.167 HD
ATOM     68  C   UNL A   1      47.156  26.358  26.734  1.00  0.00     0.074 A 
ATOM     69  C   UNL A   1      47.351  24.974  26.355  1.00  0.00     0.031 C 
ATOM     70  C   UNL A   1      48.125  27.303  26.692  1.00  0.00     0.031 A 
BRANCH  57  71
ATOM     71  C   UNL A   1      46.229  32.934  28.342  1.00  0.00    -0.014 A 
ATOM     72  C   UNL A   1      46.030  33.833  27.279  1.00  0.00     0.010 A 
ATOM     73  C   UNL A   1      46.676  33.428  29.582  1.00  0.00     0.010 A 
ATOM     74  C   UNL A   1      46.291  35.196  27.447  1.00  0.00     0.020 A 
ATOM     75  C   UNL A   1      46.915  34.793  29.762  1.00  0.00     0.020 A 
ATOM     76  C   UNL A   1      46.730  35.668  28.689  1.00  0.00     0.054 A 
BRANCH  76  77
ATOM     77  S   UNL A   1      47.005  37.449  28.895  1.00  0.00     0.124 S 
ATOM     78  O   UNL A   1      48.381  37.597  28.430  1.00  0.00    -0.237 OA
ATOM     79  O   UNL A   1      45.983  38.033  28.031  1.00  0.00    -0.237 OA
ATOM     80  O   UNL A   1      46.805  37.667  30.326  1.00  0.00    -0.744 OA
ENDBRANCH  76  77
ENDBRANCH  57  71
BRANCH  58  81
ATOM     81  C   UNL A   1      43.473  23.444  26.983  1.00  0.00    -0.014 A 
ATOM     82  C   UNL A   1      43.387  22.979  25.659  1.00  0.00     0.010 A 
ATOM     83  C   UNL A   1      43.136  22.574  28.036  1.00  0.00     0.010 A 
ATOM     84  C   UNL A   1      42.936  21.682  25.392  1.00  0.00     0.020 A 
ATOM     85  C   UNL A   1      42.713  21.268  27.774  1.00  0.00     0.020 A 
ATOM     86  C   UNL A   1      42.597  20.837  26.452  1.00  0.00     0.054 A 
BRANCH  86  87
ATOM     87  S   UNL A   1      42.034  19.151  26.088  1.00  0.00     0.124 S 
ATOM     88  O   UNL A   1      40.601  19.346  25.895  1.00  0.00    -0.237 OA
ATOM     89  O   UNL A   1      42.794  18.815  24.887  1.00  0.00    -0.237 OA
ATOM     90  O   UNL A   1      42.411  18.401  27.284  1.00  0.00    -0.744 OA
ENDBRANCH  86  87
ENDBRANCH  58  81
BRANCH  70  91
ATOM     91  C   UNL A   1      49.500  26.871  26.259  1.00  0.00    -0.014 A 
ATOM     92  C   UNL A   1      49.908  26.979  24.918  1.00  0.00     0.010 A 
ATOM     93  C   UNL A   1      50.415  26.405  27.220  1.00  0.00     0.010 A 
ATOM     94  C   UNL A   1      51.199  26.601  24.541  1.00  0.00     0.020 A 
ATOM     95  C   UNL A   1      51.715  26.050  26.851  1.00  0.00     0.020 A 
ATOM     96  C   UNL A   1      52.094  26.139  25.510  1.00  0.00     0.054 A 
BRANCH  96  97
ATOM     97  S   UNL A   1      53.780  25.698  25.006  1.00  0.00     0.124 S 
ATOM     98  O   UNL A   1      53.843  24.283  25.362  1.00  0.00    -0.237 OA
ATOM     99  O   UNL A   1      53.774  25.985  23.574  1.00  0.00    -0.237 OA
ATOM    100  O   UNL A   1      54.623  26.580  25.809  1.00  0.00    -0.744 OA
ENDBRANCH  96  97
ENDBRANCH  70  91
ENDBRANCH  44  45
ENDBRANCH  36  39
ENDBRANCH  34  35
ENDBRANCH  33  34
ENDBRANCH   1  33
TORSDOF 19
ENDMDL
MODEL 2
REMARK VINA RESULT:     -12.3      1.215      7.880
REMARK SMILES C[NH+]1CCC(C(=O)N2C[C@@H](C(=O)NCCCCCCNC(=O)c3ccc(-c4c5nc(c(-c6ccc(S(=O)(=O)[O-])cc6)c6ccc([nH]6)c(-c6ccc(S(=O)(=O)[O-])cc6)c6nc(c(-c7ccc(S(=O)(=O)[O-])cc7)c7ccc4[nH]7)C=C6)C=C5)cc3)[C@H](c3ccc4c(c3)OCO4)C2)CC1
REMARK SMILES IDX 17 1 16 2 15 3 14 4 13 5 11 6 12 7 10 9 8 10 9 11 93 12
REMARK SMILES IDX 83 13 6 14 7 15 5 16 1 17 2 18 3 19 95 20 4 22 94 23 84 24
REMARK SMILES IDX 85 25 89 26 86 27 88 28 87 29 90 30 92 31 91 32 18 33 19 34
REMARK SMILES IDX 20 35 21 36 22 38 23 39 24 40 82 41 25 42 81 43 26 44 27 45
REMARK SMILES IDX 28 46 75 47 29 48 80 49 74 50 76 51 30 52 79 53 73 54 72 55
REMARK SMILES IDX 31 57 61 58 42 59 60 60 43 61 46 62 59 63 77 64 44 65 45 66
REMARK SMILES IDX 58 68 78 69 47 70 32 71 33 72 41 73 34 74 40 75 35 76 36 77
REMARK SMILES IDX 37 78 38 79 39 80 62 81 63 82 71 83 64 84 70 85 65 86 66 87
REMARK SMILES IDX 67 88 68 89 69 90 48 91 49 92 57 93 50 94 56 95 51 96 52 97
REMARK SMILES IDX 53 98 54 99 55 100
REMARK H PARENT 13 8 2 21 20 37 76 56 46 67
REMARK Flexibility Score: inf
ROOT
ATOM      1  C   UNL A   1      34.977  30.187  27.506  1.00  0.00     0.002 C 
ENDROOT
BRANCH   1   2
ATOM      2  C   UNL A   1      33.663  29.436  27.262  1.00  0.00     0.002 C 
BRANCH   2   3
ATOM      3  C   UNL A   1      32.419  30.305  27.043  1.00  0.00     0.021 C 
BRANCH   3   4
ATOM      4  C   UNL A   1      31.765  30.176  25.670  1.00  0.00     0.116 C 
BRANCH   4   5
ATOM      5  N   UNL A   1      32.659  29.620  24.666  1.00  0.00    -0.356 N 
ATOM      6  C   UNL A   1      32.601  28.426  24.011  1.00  0.00     0.225 C 
ATOM      7  O   UNL A   1      33.408  28.217  23.102  1.00  0.00    -0.275 OA
ATOM      8  H   UNL A   1      33.421  30.193  24.424  1.00  0.00     0.163 HD
BRANCH   6   9
ATOM      9  C   UNL A   1      31.563  27.399  24.404  1.00  0.00     0.107 C 
ATOM     10  N   UNL A   1      31.125  25.169  24.809  1.00  0.00    -0.341 N 
ATOM     11  C   UNL A   1      32.227  26.105  24.831  1.00  0.00     0.133 C 
ATOM     12  C   UNL A   1      30.244  25.493  23.687  1.00  0.00     0.128 C 
ATOM     13  C   UNL A   1      30.673  26.914  23.238  1.00  0.00     0.053 C 
BRANCH  10  14
ATOM     14  C   UNL A   1      30.851  24.100  25.625  1.00  0.00     0.226 C 
ATOM     15  O   UNL A   1      30.293  24.284  26.713  1.00  0.00    -0.275 OA
BRANCH  14  16
ATOM     16  C   UNL A   1      31.487  22.730  25.358  1.00  0.00     0.090 C 
ATOM     17  C   UNL A   1      34.380  19.606  24.762  1.00  0.00     0.332 C 
ATOM     18  N   UNL A   1      33.681  20.887  24.844  1.00  0.00    -0.337 N 
ATOM     19  C   UNL A   1      33.282  21.168  26.228  1.00  0.00     0.262 C 
ATOM     20  C   UNL A   1      32.518  20.915  23.945  1.00  0.00     0.262 C 
ATOM     21  H   UNL A   1      34.326  21.618  24.542  1.00  0.00     0.347 HD
ATOM     22  C   UNL A   1      32.663  22.559  26.332  1.00  0.00     0.075 C 
ATOM     23  C   UNL A   1      31.902  22.318  23.948  1.00  0.00     0.075 C 
ENDBRANCH  14  16
ENDBRANCH  10  14
BRANCH  13  24
ATOM     24  C   UNL A   1      29.595  27.937  22.937  1.00  0.00    -0.038 A 
ATOM     25  C   UNL A   1      28.257  27.789  23.370  1.00  0.00     0.008 A 
ATOM     26  C   UNL A   1      29.993  29.158  22.357  1.00  0.00     0.054 A 
ATOM     27  C   UNL A   1      27.343  28.844  23.264  1.00  0.00     0.051 A 
ATOM     28  C   UNL A   1      29.081  30.190  22.301  1.00  0.00     0.166 A 
ATOM     29  C   UNL A   1      27.794  30.040  22.752  1.00  0.00     0.165 A 
ATOM     30  O   UNL A   1      29.347  31.461  21.899  1.00  0.00    -0.454 OA
ATOM     31  O   UNL A   1      27.084  31.197  22.682  1.00  0.00    -0.454 OA
ATOM     32  C   UNL A   1      28.101  32.112  22.227  1.00  0.00     0.468 C 
ENDBRANCH  13  24
ENDBRANCH   6   9
ENDBRANCH   4   5
ENDBRANCH   3   4
ENDBRANCH   2   3
ENDBRANCH   1   2
BRANCH   1  33
ATOM     33  C   UNL A   1      34.842  31.607  28.058  1.00  0.00     0.021 C 
BRANCH  33  34
ATOM     34  C   UNL A   1      35.889  32.015  29.089  1.00  0.00     0.116 C 
BRANCH  34  35
ATOM     35  N   UNL A   1      35.766  31.269  30.331  1.00  0.00    -0.352 N 
ATOM     36  C   UNL A   1      36.613  30.347  30.896  1.00  0.00     0.251 C 
ATOM     37  H   UNL A   1      34.949  31.453  30.848  1.00  0.00     0.163 HD
ATOM     38  O   UNL A   1      36.230  29.701  31.875  1.00  0.00    -0.269 OA
BRANCH  36  39
ATOM     39  C   UNL A   1      37.964  30.099  30.338  1.00  0.00     0.039 A 
ATOM     40  C   UNL A   1      39.023  29.852  31.218  1.00  0.00     0.014 A 
ATOM     41  C   UNL A   1      38.208  30.143  28.963  1.00  0.00     0.014 A 
ATOM     42  C   UNL A   1      40.305  29.592  30.719  1.00  0.00     0.010 A 
ATOM     43  C   UNL A   1      39.468  29.809  28.464  1.00  0.00     0.010 A 
ATOM     44  C   UNL A   1      40.533  29.537  29.335  1.00  0.00    -0.014 A 
BRANCH  44  45
ATOM     45  C   UNL A   1      41.875  29.208  28.781  1.00  0.00     0.031 A 
ATOM     46  C   UNL A   1      42.163  27.822  28.261  1.00  0.00     0.074 A 
ATOM     47  C   UNL A   1      42.859  30.130  28.811  1.00  0.00     0.049 A 
ATOM     48  N   UNL A   1      43.292  27.324  27.824  1.00  0.00    -0.248 NA
ATOM     49  C   UNL A   1      41.046  26.862  28.259  1.00  0.00     0.031 C 
ATOM     50  C   UNL A   1      42.732  31.493  29.335  1.00  0.00     0.029 A 
ATOM     51  N   UNL A   1      44.170  30.056  28.407  1.00  0.00    -0.354 N 
ATOM     52  C   UNL A   1      43.030  25.990  27.529  1.00  0.00     0.074 A 
ATOM     53  C   UNL A   1      41.645  25.747  27.865  1.00  0.00     0.031 C 
ATOM     54  C   UNL A   1      43.908  32.127  29.209  1.00  0.00     0.029 A 
ATOM     55  C   UNL A   1      44.886  31.210  28.631  1.00  0.00     0.049 A 
ATOM     56  H   UNL A   1      44.561  29.253  27.994  1.00  0.00     0.167 HD
ATOM     57  C   UNL A   1      43.862  25.057  27.010  1.00  0.00     0.031 A 
ATOM     58  C   UNL A   1      46.184  31.497  28.410  1.00  0.00     0.031 A 
ATOM     59  C   UNL A   1      45.227  25.309  26.631  1.00  0.00     0.049 A 
ATOM     60  C   UNL A   1      47.077  30.450  27.799  1.00  0.00     0.074 A 
ATOM     61  C   UNL A   1      46.119  24.449  26.013  1.00  0.00     0.029 A 
ATOM     62  N   UNL A   1      45.897  26.505  26.828  1.00  0.00    -0.354 N 
ATOM     63  N   UNL A   1      46.784  29.220  27.449  1.00  0.00    -0.248 NA
ATOM     64  C   UNL A   1      48.472  30.834  27.539  1.00  0.00     0.031 C 
ATOM     65  C   UNL A   1      47.343  25.111  25.878  1.00  0.00     0.029 A 
ATOM     66  C   UNL A   1      47.196  26.400  26.365  1.00  0.00     0.049 A 
ATOM     67  H   UNL A   1      45.506  27.312  27.237  1.00  0.00     0.167 HD
ATOM     68  C   UNL A   1      47.951  28.695  26.905  1.00  0.00     0.074 A 
ATOM     69  C   UNL A   1      48.948  29.743  26.955  1.00  0.00     0.031 C 
ATOM     70  C   UNL A   1      48.175  27.454  26.410  1.00  0.00     0.031 A 
BRANCH  57  71
ATOM     71  C   UNL A   1      43.328  23.663  26.813  1.00  0.00    -0.014 A 
ATOM     72  C   UNL A   1      42.931  23.210  25.543  1.00  0.00     0.010 A 
ATOM     73  C   UNL A   1      43.305  22.767  27.898  1.00  0.00     0.010 A 
ATOM     74  C   UNL A   1      42.501  21.892  25.365  1.00  0.00     0.020 A 
ATOM     75  C   UNL A   1      42.899  21.442  27.721  1.00  0.00     0.020 A 
ATOM     76  C   UNL A   1      42.489  21.015  26.455  1.00  0.00     0.054 A 
BRANCH  76  77
ATOM     77  S   UNL A   1      41.982  19.295  26.183  1.00  0.00     0.124 S 
ATOM     78  O   UNL A   1      42.798  18.920  25.031  1.00  0.00    -0.237 OA
ATOM     79  O   UNL A   1      42.342  18.652  27.443  1.00  0.00    -0.237 OA
ATOM     80  O   UNL A   1      40.548  19.393  25.924  1.00  0.00    -0.744 OA
ENDBRANCH  76  77
ENDBRANCH  57  71
BRANCH  58  81
ATOM     81  C   UNL A   1      46.729  32.833  28.774  1.00  0.00    -0.014 A 
ATOM     82  C   UNL A   1      46.667  33.905  27.865  1.00  0.00     0.010 A 
ATOM     83  C   UNL A   1      47.337  33.034  30.026  1.00  0.00     0.010 A 
ATOM     84  C   UNL A   1      47.235  35.142  28.189  1.00  0.00     0.020 A 
ATOM     85  C   UNL A   1      47.879  34.277  30.365  1.00  0.00     0.020 A 
ATOM     86  C   UNL A   1      47.841  35.318  29.435  1.00  0.00     0.054 A 
BRANCH  86  87
ATOM     87  S   UNL A   1      48.553  36.935  29.847  1.00  0.00     0.124 S 
ATOM     88  O   UNL A   1      49.097  36.695  31.180  1.00  0.00    -0.237 OA
ATOM     89  O   UNL A   1      49.540  37.127  28.786  1.00  0.00    -0.237 OA
ATOM     90  O   UNL A   1      47.406  37.837  29.790  1.00  0.00    -0.744 OA
ENDBRANCH  86  87
ENDBRANCH  58  81
BRANCH  70  91
ATOM     91  C   UNL A   1      49.540  27.167  25.844  1.00  0.00    -0.014 A 
ATOM     92  C   UNL A   1      50.540  26.563  26.626  1.00  0.00     0.010 A 
ATOM     93  C   UNL A   1      49.804  27.454  24.493  1.00  0.00     0.010 A 
ATOM     94  C   UNL A   1      51.790  26.277  26.073  1.00  0.00     0.020 A 
ATOM     95  C   UNL A   1      51.044  27.146  23.929  1.00  0.00     0.020 A 
ATOM     96  C   UNL A   1      52.035  26.571  24.728  1.00  0.00     0.054 A 
BRANCH  96  97
ATOM     97  S   UNL A   1      53.650  26.148  24.019  1.00  0.00     0.124 S 
ATOM     98  O   UNL A   1      54.471  27.280  24.439  1.00  0.00    -0.237 OA
ATOM     99  O   UNL A   1      53.961  24.875  24.662  1.00  0.00    -0.237 OA
ATOM    100  O   UNL A   1      53.388  26.068  22.584  1.00  0.00    -0.744 OA
ENDBRANCH  96  97
ENDBRANCH  70  91
ENDBRANCH  44  45
ENDBRANCH  36  39
ENDBRANCH  34  35
ENDBRANCH  33  34
ENDBRANCH   1  33
TORSDOF 19
ENDMDL
MODEL 3
REMARK VINA RESULT:     -12.2      5.990     12.064
REMARK SMILES C[NH+]1CCC(C(=O)N2C[C@@H](C(=O)NCCCCCCNC(=O)c3ccc(-c4c5nc(c(-c6ccc(S(=O)(=O)[O-])cc6)c6ccc([nH]6)c(-c6ccc(S(=O)(=O)[O-])cc6)c6nc(c(-c7ccc(S(=O)(=O)[O-])cc7)c7ccc4[nH]7)C=C6)C=C5)cc3)[C@H](c3ccc4c(c3)OCO4)C2)CC1
REMARK SMILES IDX 17 1 16 2 15 3 14 4 13 5 11 6 12 7 10 9 8 10 9 11 93 12
REMARK SMILES IDX 83 13 6 14 7 15 5 16 1 17 2 18 3 19 95 20 4 22 94 23 84 24
REMARK SMILES IDX 85 25 89 26 86 27 88 28 87 29 90 30 92 31 91 32 18 33 19 34
REMARK SMILES IDX 20 35 21 36 22 38 23 39 24 40 82 41 25 42 81 43 26 44 27 45
REMARK SMILES IDX 28 46 75 47 29 48 80 49 74 50 76 51 30 52 79 53 73 54 72 55
REMARK SMILES IDX 31 57 61 58 42 59 60 60 43 61 46 62 59 63 77 64 44 65 45 66
REMARK SMILES IDX 58 68 78 69 47 70 32 71 33 72 41 73 34 74 40 75 35 76 36 77
REMARK SMILES IDX 37 78 38 79 39 80 62 81 63 82 71 83 64 84 70 85 65 86 66 87
REMARK SMILES IDX 67 88 68 89 69 90 48 91 49 92 57 93 50 94 56 95 51 96 52 97
REMARK SMILES IDX 53 98 54 99 55 100
REMARK H PARENT 13 8 2 21 20 37 76 56 46 67
REMARK Flexibility Score: inf
ROOT
ATOM      1  C   UNL A   1      39.283  22.433  26.414  1.00  0.00     0.002 C 
ENDROOT
BRANCH   1   2
ATOM      2  C   UNL A   1      38.587  21.446  25.471  1.00  0.00     0.002 C 
BRANCH   2   3
ATOM      3  C   UNL A   1      37.195  21.855  24.972  1.00  0.00     0.021 C 
BRANCH   3   4
ATOM      4  C   UNL A   1      36.056  20.922  25.374  1.00  0.00     0.116 C 
BRANCH   4   5
ATOM      5  N   UNL A   1      35.303  21.408  26.521  1.00  0.00    -0.356 N 
ATOM      6  C   UNL A   1      34.178  22.178  26.564  1.00  0.00     0.225 C 
ATOM      7  O   UNL A   1      33.640  22.366  27.657  1.00  0.00    -0.275 OA
ATOM      8  H   UNL A   1      35.660  21.141  27.398  1.00  0.00     0.163 HD
BRANCH   6   9
ATOM      9  C   UNL A   1      33.622  22.774  25.290  1.00  0.00     0.107 C 
ATOM     10  N   UNL A   1      32.597  24.595  24.309  1.00  0.00    -0.341 N 
ATOM     11  C   UNL A   1      33.449  24.272  25.433  1.00  0.00     0.133 C 
ATOM     12  C   UNL A   1      31.633  23.512  24.114  1.00  0.00     0.128 C 
ATOM     13  C   UNL A   1      32.180  22.331  24.956  1.00  0.00     0.053 C 
BRANCH  10  14
ATOM     14  C   UNL A   1      32.575  25.703  23.500  1.00  0.00     0.226 C 
ATOM     15  O   UNL A   1      33.432  25.837  22.618  1.00  0.00    -0.275 OA
BRANCH  14  16
ATOM     16  C   UNL A   1      31.705  26.914  23.858  1.00  0.00     0.090 C 
ATOM     17  C   UNL A   1      29.489  30.587  23.578  1.00  0.00     0.332 C 
ATOM     18  N   UNL A   1      30.435  29.491  23.384  1.00  0.00    -0.337 N 
ATOM     19  C   UNL A   1      29.729  28.258  23.018  1.00  0.00     0.262 C 
ATOM     20  C   UNL A   1      31.261  29.287  24.584  1.00  0.00     0.262 C 
ATOM     21  H   UNL A   1      31.058  29.743  22.617  1.00  0.00     0.347 HD
ATOM     22  C   UNL A   1      30.725  27.147  22.698  1.00  0.00     0.075 C 
ATOM     23  C   UNL A   1      32.336  28.233  24.293  1.00  0.00     0.075 C 
ENDBRANCH  14  16
ENDBRANCH  10  14
BRANCH  13  24
ATOM     24  C   UNL A   1      32.184  20.943  24.346  1.00  0.00    -0.038 A 
ATOM     25  C   UNL A   1      32.143  20.721  22.950  1.00  0.00     0.008 A 
ATOM     26  C   UNL A   1      32.413  19.848  25.203  1.00  0.00     0.054 A 
ATOM     27  C   UNL A   1      32.364  19.446  22.414  1.00  0.00     0.051 A 
ATOM     28  C   UNL A   1      32.664  18.614  24.645  1.00  0.00     0.166 A 
ATOM     29  C   UNL A   1      32.650  18.420  23.287  1.00  0.00     0.165 A 
ATOM     30  O   UNL A   1      33.035  17.497  25.326  1.00  0.00    -0.454 OA
ATOM     31  O   UNL A   1      33.001  17.154  22.942  1.00  0.00    -0.454 OA
ATOM     32  C   UNL A   1      33.331  16.603  24.232  1.00  0.00     0.468 C 
ENDBRANCH  13  24
ENDBRANCH   6   9
ENDBRANCH   4   5
ENDBRANCH   3   4
ENDBRANCH   2   3
ENDBRANCH   1   2
BRANCH   1  33
ATOM     33  C   UNL A   1      40.447  21.868  27.231  1.00  0.00     0.021 C 
BRANCH  33  34
ATOM     34  C   UNL A   1      41.624  22.815  27.442  1.00  0.00     0.116 C 
BRANCH  34  35
ATOM     35  N   UNL A   1      41.900  23.628  26.269  1.00  0.00    -0.352 N 
ATOM     36  C   UNL A   1      41.861  24.992  26.110  1.00  0.00     0.251 C 
ATOM     37  H   UNL A   1      42.155  23.123  25.463  1.00  0.00     0.163 HD
ATOM     38  O   UNL A   1      41.963  25.467  24.976  1.00  0.00    -0.269 OA
BRANCH  36  39
ATOM     39  C   UNL A   1      41.678  25.897  27.269  1.00  0.00     0.039 A 
ATOM     40  C   UNL A   1      42.659  26.857  27.538  1.00  0.00     0.014 A 
ATOM     41  C   UNL A   1      40.571  25.790  28.115  1.00  0.00     0.014 A 
ATOM     42  C   UNL A   1      42.501  27.742  28.612  1.00  0.00     0.010 A 
ATOM     43  C   UNL A   1      40.378  26.719  29.137  1.00  0.00     0.010 A 
ATOM     44  C   UNL A   1      41.343  27.701  29.403  1.00  0.00    -0.014 A 
BRANCH  44  45
ATOM     45  C   UNL A   1      41.128  28.667  30.516  1.00  0.00     0.031 A 
ATOM     46  C   UNL A   1      41.941  28.559  31.782  1.00  0.00     0.074 A 
ATOM     47  C   UNL A   1      40.155  29.596  30.422  1.00  0.00     0.049 A 
ATOM     48  N   UNL A   1      41.836  29.249  32.890  1.00  0.00    -0.248 NA
ATOM     49  C   UNL A   1      42.986  27.522  31.821  1.00  0.00     0.031 C 
ATOM     50  C   UNL A   1      39.261  29.777  29.275  1.00  0.00     0.029 A 
ATOM     51  N   UNL A   1      39.740  30.554  31.315  1.00  0.00    -0.354 N 
ATOM     52  C   UNL A   1      42.774  28.709  33.764  1.00  0.00     0.074 A 
ATOM     53  C   UNL A   1      43.416  27.615  33.072  1.00  0.00     0.031 C 
ATOM     54  C   UNL A   1      38.415  30.788  29.528  1.00  0.00     0.029 A 
ATOM     55  C   UNL A   1      38.678  31.306  30.867  1.00  0.00     0.049 A 
ATOM     56  H   UNL A   1      40.164  30.691  32.192  1.00  0.00     0.167 HD
ATOM     57  C   UNL A   1      43.082  29.099  35.023  1.00  0.00     0.031 A 
ATOM     58  C   UNL A   1      37.984  32.293  31.469  1.00  0.00     0.031 A 
ATOM     59  C   UNL A   1      42.477  30.218  35.697  1.00  0.00     0.049 A 
ATOM     60  C   UNL A   1      38.373  32.729  32.855  1.00  0.00     0.074 A 
ATOM     61  C   UNL A   1      42.791  30.744  36.938  1.00  0.00     0.029 A 
ATOM     62  N   UNL A   1      41.442  30.984  35.188  1.00  0.00    -0.354 N 
ATOM     63  N   UNL A   1      39.321  32.258  33.631  1.00  0.00    -0.248 NA
ATOM     64  C   UNL A   1      37.609  33.839  33.444  1.00  0.00     0.031 C 
ATOM     65  C   UNL A   1      41.914  31.800  37.200  1.00  0.00     0.029 A 
ATOM     66  C   UNL A   1      41.089  31.964  36.099  1.00  0.00     0.049 A 
ATOM     67  H   UNL A   1      41.019  30.852  34.308  1.00  0.00     0.167 HD
ATOM     68  C   UNL A   1      39.283  33.033  34.786  1.00  0.00     0.074 A 
ATOM     69  C   UNL A   1      38.232  34.012  34.601  1.00  0.00     0.031 C 
ATOM     70  C   UNL A   1      40.049  32.939  35.899  1.00  0.00     0.031 A 
BRANCH  57  71
ATOM     71  C   UNL A   1      44.129  28.317  35.770  1.00  0.00    -0.014 A 
ATOM     72  C   UNL A   1      43.782  27.206  36.559  1.00  0.00     0.010 A 
ATOM     73  C   UNL A   1      45.488  28.645  35.610  1.00  0.00     0.010 A 
ATOM     74  C   UNL A   1      44.773  26.450  37.191  1.00  0.00     0.020 A 
ATOM     75  C   UNL A   1      46.484  27.878  36.220  1.00  0.00     0.020 A 
ATOM     76  C   UNL A   1      46.119  26.789  37.016  1.00  0.00     0.054 A 
BRANCH  76  77
ATOM     77  S   UNL A   1      47.386  25.755  37.800  1.00  0.00     0.124 S 
ATOM     78  O   UNL A   1      46.604  24.605  38.242  1.00  0.00    -0.237 OA
ATOM     79  O   UNL A   1      48.315  25.500  36.704  1.00  0.00    -0.237 OA
ATOM     80  O   UNL A   1      47.909  26.601  38.872  1.00  0.00    -0.744 OA
ENDBRANCH  76  77
ENDBRANCH  57  71
BRANCH  58  81
ATOM     81  C   UNL A   1      36.838  32.937  30.770  1.00  0.00    -0.014 A 
ATOM     82  C   UNL A   1      37.057  33.943  29.812  1.00  0.00     0.010 A 
ATOM     83  C   UNL A   1      35.518  32.563  31.079  1.00  0.00     0.010 A 
ATOM     84  C   UNL A   1      35.976  34.587  29.202  1.00  0.00     0.020 A 
ATOM     85  C   UNL A   1      34.435  33.185  30.450  1.00  0.00     0.020 A 
ATOM     86  C   UNL A   1      34.672  34.207  29.529  1.00  0.00     0.054 A 
BRANCH  86  87
ATOM     87  S   UNL A   1      33.281  35.039  28.713  1.00  0.00     0.124 S 
ATOM     88  O   UNL A   1      32.516  35.536  29.852  1.00  0.00    -0.237 OA
ATOM     89  O   UNL A   1      33.949  36.058  27.906  1.00  0.00    -0.237 OA
ATOM     90  O   UNL A   1      32.646  33.969  27.948  1.00  0.00    -0.744 OA
ENDBRANCH  86  87
ENDBRANCH  58  81
BRANCH  70  91
ATOM     91  C   UNL A   1      39.812  33.944  36.993  1.00  0.00    -0.014 A 
ATOM     92  C   UNL A   1      39.000  33.638  38.100  1.00  0.00     0.010 A 
ATOM     93  C   UNL A   1      40.459  35.192  36.941  1.00  0.00     0.010 A 
ATOM     94  C   UNL A   1      38.817  34.573  39.120  1.00  0.00     0.020 A 
ATOM     95  C   UNL A   1      40.299  36.121  37.972  1.00  0.00     0.020 A 
ATOM     96  C   UNL A   1      39.467  35.809  39.050  1.00  0.00     0.054 A 
BRANCH  96  97
ATOM     97  S   UNL A   1      39.251  36.990  40.409  1.00  0.00     0.124 S 
ATOM     98  O   UNL A   1      38.562  36.180  41.409  1.00  0.00    -0.237 OA
ATOM     99  O   UNL A   1      40.626  37.358  40.739  1.00  0.00    -0.237 OA
ATOM    100  O   UNL A   1      38.452  38.060  39.816  1.00  0.00    -0.744 OA
ENDBRANCH  96  97
ENDBRANCH  70  91
ENDBRANCH  44  45
ENDBRANCH  36  39
ENDBRANCH  34  35
ENDBRANCH  33  34
ENDBRANCH   1  33
TORSDOF 19
ENDMDL
