MODEL 1
REMARK VINA RESULT:     -10.4      0.000      0.000
REMARK SMILES O=C(NCCCCCCNC(=O)[C@@H]1C[NH2+]C[C@H]1c1ccncc1)c1ccc(-c2c3nc(c(-c4ccc(S(=O)(=O)[O-])cc4)c4ccc([nH]4)c(-c4ccc(S(=O)(=O)[O-])cc4)c4nc(c(-c5ccc(S(=O)(=O)[O-])cc5)c5ccc2[nH]5)C=C4)C=C3)cc1
REMARK SMILES IDX 5 1 4 2 3 3 1 4 2 5 24 7 25 8 83 9 26 10 82 11 27 12 28 13
REMARK SMILES IDX 29 14 76 15 30 16 81 17 75 18 77 19 31 20 80 21 74 22 73 23
REMARK SMILES IDX 32 25 62 26 43 27 61 28 44 29 47 30 60 31 78 32 45 33 46 34
REMARK SMILES IDX 59 36 79 37 48 38 33 39 34 40 42 41 35 42 41 43 36 44 37 45
REMARK SMILES IDX 38 46 39 47 40 48 63 49 64 50 72 51 65 52 71 53 66 54 67 55
REMARK SMILES IDX 68 56 69 57 70 58 49 59 50 60 58 61 51 62 57 63 52 64 53 65
REMARK SMILES IDX 54 66 55 67 56 68 6 69 7 70 8 71 9 72 10 73 11 74 12 76
REMARK SMILES IDX 13 77 14 78 17 79 15 80 16 81 18 84 19 85 23 86 20 87 22 88
REMARK SMILES IDX 21 89
REMARK H PARENT 3 6 77 24 47 35 10 75 15 82 15 83
REMARK Flexibility Score: inf
ROOT
ATOM      1  C   UNL A   1      35.230  23.171  25.463  1.00  0.00     0.021 C 
ENDROOT
BRANCH   1   2
ATOM      2  C   UNL A   1      36.588  23.797  25.750  1.00  0.00     0.116 C 
BRANCH   2   3
ATOM      3  N   UNL A   1      37.594  22.771  25.970  1.00  0.00    -0.352 N 
ATOM      4  O   UNL A   1      39.718  22.034  26.189  1.00  0.00    -0.269 OA
ATOM      5  C   UNL A   1      38.905  22.945  26.331  1.00  0.00     0.251 C 
ATOM      6  H   UNL A   1      37.300  21.840  25.844  1.00  0.00     0.163 HD
BRANCH   5   7
ATOM      7  C   UNL A   1      39.316  24.243  26.896  1.00  0.00     0.039 A 
ATOM      8  C   UNL A   1      39.017  24.537  28.232  1.00  0.00     0.014 A 
ATOM      9  C   UNL A   1      40.006  25.161  26.104  1.00  0.00     0.014 A 
ATOM     10  C   UNL A   1      39.327  25.785  28.749  1.00  0.00     0.010 A 
ATOM     11  C   UNL A   1      40.400  26.382  26.654  1.00  0.00     0.010 A 
ATOM     12  C   UNL A   1      40.067  26.698  27.982  1.00  0.00    -0.014 A 
BRANCH  12  13
ATOM     13  C   UNL A   1      40.625  27.898  28.646  1.00  0.00     0.031 A 
ATOM     14  C   UNL A   1      42.036  27.935  29.152  1.00  0.00     0.074 A 
ATOM     15  C   UNL A   1      39.808  28.961  28.796  1.00  0.00     0.049 A 
ATOM     16  N   UNL A   1      42.651  28.905  29.776  1.00  0.00    -0.248 NA
ATOM     17  C   UNL A   1      42.864  26.736  28.940  1.00  0.00     0.031 C 
ATOM     18  C   UNL A   1      38.410  29.018  28.350  1.00  0.00     0.029 A 
ATOM     19  N   UNL A   1      40.024  30.193  29.351  1.00  0.00    -0.354 N 
ATOM     20  C   UNL A   1      43.928  28.432  30.056  1.00  0.00     0.074 A 
ATOM     21  C   UNL A   1      43.999  27.082  29.538  1.00  0.00     0.031 C 
ATOM     22  C   UNL A   1      37.907  30.229  28.621  1.00  0.00     0.029 A 
ATOM     23  C   UNL A   1      38.914  31.006  29.330  1.00  0.00     0.049 A 
ATOM     24  H   UNL A   1      40.889  30.471  29.730  1.00  0.00     0.167 HD
ATOM     25  C   UNL A   1      44.936  29.071  30.693  1.00  0.00     0.031 A 
ATOM     26  C   UNL A   1      38.709  32.224  29.862  1.00  0.00     0.031 A 
ATOM     27  C   UNL A   1      44.843  30.419  31.197  1.00  0.00     0.049 A 
ATOM     28  C   UNL A   1      39.837  32.883  30.601  1.00  0.00     0.074 A 
ATOM     29  C   UNL A   1      45.833  31.177  31.799  1.00  0.00     0.029 A 
ATOM     30  N   UNL A   1      43.696  31.200  31.181  1.00  0.00    -0.354 N 
ATOM     31  N   UNL A   1      41.062  32.451  30.780  1.00  0.00    -0.248 NA
ATOM     32  C   UNL A   1      39.556  34.187  31.213  1.00  0.00     0.031 C 
ATOM     33  C   UNL A   1      45.266  32.386  32.213  1.00  0.00     0.029 A 
ATOM     34  C   UNL A   1      43.941  32.410  31.808  1.00  0.00     0.049 A 
ATOM     35  H   UNL A   1      42.838  30.932  30.781  1.00  0.00     0.167 HD
ATOM     36  C   UNL A   1      41.702  33.437  31.520  1.00  0.00     0.074 A 
ATOM     37  C   UNL A   1      40.739  34.501  31.722  1.00  0.00     0.031 C 
ATOM     38  C   UNL A   1      42.968  33.455  32.003  1.00  0.00     0.031 A 
BRANCH  25  39
ATOM     39  C   UNL A   1      46.227  28.333  30.921  1.00  0.00    -0.014 A 
ATOM     40  C   UNL A   1      46.390  27.459  32.010  1.00  0.00     0.010 A 
ATOM     41  C   UNL A   1      47.249  28.418  29.956  1.00  0.00     0.010 A 
ATOM     42  C   UNL A   1      47.551  26.688  32.130  1.00  0.00     0.020 A 
ATOM     43  C   UNL A   1      48.400  27.633  30.059  1.00  0.00     0.020 A 
ATOM     44  C   UNL A   1      48.544  26.774  31.149  1.00  0.00     0.054 A 
BRANCH  44  45
ATOM     45  S   UNL A   1      50.001  25.700  31.291  1.00  0.00     0.124 S 
ATOM     46  O   UNL A   1      49.617  24.816  32.388  1.00  0.00    -0.237 OA
ATOM     47  O   UNL A   1      50.063  25.073  29.972  1.00  0.00    -0.237 OA
ATOM     48  O   UNL A   1      51.090  26.627  31.590  1.00  0.00    -0.744 OA
ENDBRANCH  44  45
ENDBRANCH  25  39
BRANCH  26  49
ATOM     49  C   UNL A   1      37.366  32.861  29.778  1.00  0.00    -0.014 A 
ATOM     50  C   UNL A   1      36.957  33.536  28.616  1.00  0.00     0.010 A 
ATOM     51  C   UNL A   1      36.492  32.807  30.881  1.00  0.00     0.010 A 
ATOM     52  C   UNL A   1      35.717  34.181  28.575  1.00  0.00     0.020 A 
ATOM     53  C   UNL A   1      35.237  33.416  30.831  1.00  0.00     0.020 A 
ATOM     54  C   UNL A   1      34.868  34.120  29.685  1.00  0.00     0.054 A 
BRANCH  54  55
ATOM     55  S   UNL A   1      33.266  34.966  29.610  1.00  0.00     0.124 S 
ATOM     56  O   UNL A   1      32.819  34.886  30.997  1.00  0.00    -0.237 OA
ATOM     57  O   UNL A   1      33.635  36.298  29.137  1.00  0.00    -0.237 OA
ATOM     58  O   UNL A   1      32.501  34.165  28.657  1.00  0.00    -0.744 OA
ENDBRANCH  54  55
ENDBRANCH  26  49
BRANCH  38  59
ATOM     59  C   UNL A   1      43.386  34.669  32.785  1.00  0.00    -0.014 A 
ATOM     60  C   UNL A   1      43.875  35.815  32.132  1.00  0.00     0.010 A 
ATOM     61  C   UNL A   1      43.238  34.685  34.183  1.00  0.00     0.010 A 
ATOM     62  C   UNL A   1      44.233  36.946  32.867  1.00  0.00     0.020 A 
ATOM     63  C   UNL A   1      43.564  35.826  34.919  1.00  0.00     0.020 A 
ATOM     64  C   UNL A   1      44.070  36.946  34.256  1.00  0.00     0.054 A 
BRANCH  64  65
ATOM     65  S   UNL A   1      44.487  38.449  35.179  1.00  0.00     0.124 S 
ATOM     66  O   UNL A   1      44.177  38.059  36.552  1.00  0.00    -0.237 OA
ATOM     67  O   UNL A   1      45.907  38.624  34.880  1.00  0.00    -0.237 OA
ATOM     68  O   UNL A   1      43.606  39.464  34.607  1.00  0.00    -0.744 OA
ENDBRANCH  64  65
ENDBRANCH  38  59
ENDBRANCH  12  13
ENDBRANCH   5   7
ENDBRANCH   2   3
ENDBRANCH   1   2
BRANCH   1  69
ATOM     69  C   UNL A   1      34.084  23.849  26.215  1.00  0.00     0.002 C 
BRANCH  69  70
ATOM     70  C   UNL A   1      32.970  22.892  26.655  1.00  0.00     0.002 C 
BRANCH  70  71
ATOM     71  C   UNL A   1      31.639  23.585  26.975  1.00  0.00     0.021 C 
BRANCH  71  72
ATOM     72  C   UNL A   1      31.214  24.583  25.895  1.00  0.00     0.116 C 
BRANCH  72  73
ATOM     73  N   UNL A   1      31.084  25.904  26.472  1.00  0.00    -0.356 N 
ATOM     74  C   UNL A   1      31.384  27.133  25.988  1.00  0.00     0.229 C 
ATOM     75  H   UNL A   1      30.708  25.911  27.382  1.00  0.00     0.163 HD
ATOM     76  O   UNL A   1      31.326  28.070  26.793  1.00  0.00    -0.275 OA
BRANCH  74  77
ATOM     77  C   UNL A   1      31.685  27.427  24.527  1.00  0.00     0.146 C 
ATOM     78  C   UNL A   1      33.167  27.195  24.279  1.00  0.00     0.274 C 
ATOM     79  C   UNL A   1      31.424  28.804  23.904  1.00  0.00     0.092 C 
ATOM     80  N   UNL A   1      33.399  27.721  22.934  1.00  0.00    -0.345 N 
ATOM     81  C   UNL A   1      32.507  28.885  22.801  1.00  0.00     0.269 C 
ATOM     82  H   UNL A   1      33.170  27.016  22.232  1.00  0.00     0.346 HD
ATOM     83  H   UNL A   1      34.376  27.977  22.793  1.00  0.00     0.346 HD
BRANCH  79  84
ATOM     84  C   UNL A   1      29.990  29.119  23.513  1.00  0.00    -0.035 A 
ATOM     85  C   UNL A   1      29.073  28.084  23.274  1.00  0.00     0.024 A 
ATOM     86  C   UNL A   1      29.476  30.422  23.543  1.00  0.00     0.024 A 
ATOM     87  C   UNL A   1      27.732  28.385  23.083  1.00  0.00     0.111 A 
ATOM     88  C   UNL A   1      28.120  30.627  23.321  1.00  0.00     0.111 A 
ATOM     89  N   UNL A   1      27.236  29.636  23.093  1.00  0.00    -0.265 NA
ENDBRANCH  79  84
ENDBRANCH  74  77
ENDBRANCH  72  73
ENDBRANCH  71  72
ENDBRANCH  70  71
ENDBRANCH  69  70
ENDBRANCH   1  69
TORSDOF 17
ENDMDL
MODEL 2
REMARK VINA RESULT:     -10.4      3.877      9.243
REMARK SMILES O=C(NCCCCCCNC(=O)[C@@H]1C[NH2+]C[C@H]1c1ccncc1)c1ccc(-c2c3nc(c(-c4ccc(S(=O)(=O)[O-])cc4)c4ccc([nH]4)c(-c4ccc(S(=O)(=O)[O-])cc4)c4nc(c(-c5ccc(S(=O)(=O)[O-])cc5)c5ccc2[nH]5)C=C4)C=C3)cc1
REMARK SMILES IDX 5 1 4 2 3 3 1 4 2 5 24 7 25 8 83 9 26 10 82 11 27 12 28 13
REMARK SMILES IDX 29 14 76 15 30 16 81 17 75 18 77 19 31 20 80 21 74 22 73 23
REMARK SMILES IDX 32 25 62 26 43 27 61 28 44 29 47 30 60 31 78 32 45 33 46 34
REMARK SMILES IDX 59 36 79 37 48 38 33 39 34 40 42 41 35 42 41 43 36 44 37 45
REMARK SMILES IDX 38 46 39 47 40 48 63 49 64 50 72 51 65 52 71 53 66 54 67 55
REMARK SMILES IDX 68 56 69 57 70 58 49 59 50 60 58 61 51 62 57 63 52 64 53 65
REMARK SMILES IDX 54 66 55 67 56 68 6 69 7 70 8 71 9 72 10 73 11 74 12 76
REMARK SMILES IDX 13 77 14 78 17 79 15 80 16 81 18 84 19 85 23 86 20 87 22 88
REMARK SMILES IDX 21 89
REMARK H PARENT 3 6 77 24 47 35 10 75 15 82 15 83
REMARK Flexibility Score: inf
ROOT
ATOM      1  C   UNL A   1      31.866  31.309  26.878  1.00  0.00     0.021 C 
ENDROOT
BRANCH   1   2
ATOM      2  C   UNL A   1      33.114  32.073  27.295  1.00  0.00     0.116 C 
BRANCH   2   3
ATOM      3  N   UNL A   1      32.825  33.489  27.456  1.00  0.00    -0.352 N 
ATOM      4  O   UNL A   1      32.684  35.403  28.647  1.00  0.00    -0.269 OA
ATOM      5  C   UNL A   1      33.237  34.320  28.465  1.00  0.00     0.251 C 
ATOM      6  H   UNL A   1      32.268  33.900  26.756  1.00  0.00     0.163 HD
BRANCH   5   7
ATOM      7  C   UNL A   1      34.357  33.890  29.322  1.00  0.00     0.039 A 
ATOM      8  C   UNL A   1      34.096  33.108  30.453  1.00  0.00     0.014 A 
ATOM      9  C   UNL A   1      35.663  34.253  28.994  1.00  0.00     0.014 A 
ATOM     10  C   UNL A   1      35.133  32.766  31.308  1.00  0.00     0.010 A 
ATOM     11  C   UNL A   1      36.717  33.830  29.806  1.00  0.00     0.010 A 
ATOM     12  C   UNL A   1      36.458  33.079  30.965  1.00  0.00    -0.014 A 
BRANCH  12  13
ATOM     13  C   UNL A   1      37.558  32.463  31.741  1.00  0.00     0.031 A 
ATOM     14  C   UNL A   1      37.954  32.978  33.092  1.00  0.00     0.074 A 
ATOM     15  C   UNL A   1      38.206  31.422  31.179  1.00  0.00     0.049 A 
ATOM     16  N   UNL A   1      38.912  32.555  33.875  1.00  0.00    -0.248 NA
ATOM     17  C   UNL A   1      37.188  34.111  33.638  1.00  0.00     0.031 C 
ATOM     18  C   UNL A   1      37.905  30.856  29.858  1.00  0.00     0.029 A 
ATOM     19  N   UNL A   1      39.241  30.651  31.636  1.00  0.00    -0.354 N 
ATOM     20  C   UNL A   1      38.887  33.381  34.992  1.00  0.00     0.074 A 
ATOM     21  C   UNL A   1      37.819  34.336  34.785  1.00  0.00     0.031 C 
ATOM     22  C   UNL A   1      38.713  29.812  29.629  1.00  0.00     0.029 A 
ATOM     23  C   UNL A   1      39.641  29.685  30.743  1.00  0.00     0.049 A 
ATOM     24  H   UNL A   1      39.659  30.776  32.519  1.00  0.00     0.167 HD
ATOM     25  C   UNL A   1      39.689  33.340  36.081  1.00  0.00     0.031 A 
ATOM     26  C   UNL A   1      40.670  28.820  30.789  1.00  0.00     0.031 A 
ATOM     27  C   UNL A   1      40.745  32.376  36.267  1.00  0.00     0.049 A 
ATOM     28  C   UNL A   1      41.565  28.834  31.992  1.00  0.00     0.074 A 
ATOM     29  C   UNL A   1      41.570  32.213  37.367  1.00  0.00     0.029 A 
ATOM     30  N   UNL A   1      41.137  31.431  35.330  1.00  0.00    -0.354 N 
ATOM     31  N   UNL A   1      41.470  29.567  33.076  1.00  0.00    -0.248 NA
ATOM     32  C   UNL A   1      42.708  27.913  31.980  1.00  0.00     0.031 C 
ATOM     33  C   UNL A   1      42.508  31.221  37.066  1.00  0.00     0.029 A 
ATOM     34  C   UNL A   1      42.224  30.718  35.806  1.00  0.00     0.049 A 
ATOM     35  H   UNL A   1      40.705  31.289  34.458  1.00  0.00     0.167 HD
ATOM     36  C   UNL A   1      42.539  29.189  33.879  1.00  0.00     0.074 A 
ATOM     37  C   UNL A   1      43.242  28.138  33.172  1.00  0.00     0.031 C 
ATOM     38  C   UNL A   1      42.913  29.677  35.086  1.00  0.00     0.031 A 
BRANCH  25  39
ATOM     39  C   UNL A   1      39.498  34.376  37.156  1.00  0.00    -0.014 A 
ATOM     40  C   UNL A   1      38.757  34.099  38.317  1.00  0.00     0.010 A 
ATOM     41  C   UNL A   1      40.180  35.604  37.058  1.00  0.00     0.010 A 
ATOM     42  C   UNL A   1      38.699  35.031  39.359  1.00  0.00     0.020 A 
ATOM     43  C   UNL A   1      40.145  36.529  38.105  1.00  0.00     0.020 A 
ATOM     44  C   UNL A   1      39.401  36.237  39.249  1.00  0.00     0.054 A 
BRANCH  44  45
ATOM     45  S   UNL A   1      39.374  37.390  40.651  1.00  0.00     0.124 S 
ATOM     46  O   UNL A   1      40.779  37.775  40.749  1.00  0.00    -0.237 OA
ATOM     47  O   UNL A   1      38.466  38.435  40.184  1.00  0.00    -0.237 OA
ATOM     48  O   UNL A   1      38.872  36.580  41.758  1.00  0.00    -0.744 OA
ENDBRANCH  44  45
ENDBRANCH  25  39
BRANCH  26  49
ATOM     49  C   UNL A   1      40.947  27.924  29.632  1.00  0.00    -0.014 A 
ATOM     50  C   UNL A   1      40.153  26.792  29.387  1.00  0.00     0.010 A 
ATOM     51  C   UNL A   1      42.030  28.198  28.775  1.00  0.00     0.010 A 
ATOM     52  C   UNL A   1      40.462  25.927  28.333  1.00  0.00     0.020 A 
ATOM     53  C   UNL A   1      42.320  27.359  27.698  1.00  0.00     0.020 A 
ATOM     54  C   UNL A   1      41.548  26.215  27.498  1.00  0.00     0.054 A 
BRANCH  54  55
ATOM     55  S   UNL A   1      41.933  25.079  26.139  1.00  0.00     0.124 S 
ATOM     56  O   UNL A   1      43.337  24.772  26.393  1.00  0.00    -0.237 OA
ATOM     57  O   UNL A   1      40.993  23.984  26.367  1.00  0.00    -0.237 OA
ATOM     58  O   UNL A   1      41.671  25.876  24.943  1.00  0.00    -0.744 OA
ENDBRANCH  54  55
ENDBRANCH  26  49
BRANCH  38  59
ATOM     59  C   UNL A   1      44.132  29.068  35.723  1.00  0.00    -0.014 A 
ATOM     60  C   UNL A   1      45.405  29.636  35.533  1.00  0.00     0.010 A 
ATOM     61  C   UNL A   1      43.996  27.949  36.563  1.00  0.00     0.010 A 
ATOM     62  C   UNL A   1      46.524  29.077  36.153  1.00  0.00     0.020 A 
ATOM     63  C   UNL A   1      45.108  27.409  37.212  1.00  0.00     0.020 A 
ATOM     64  C   UNL A   1      46.367  27.970  36.993  1.00  0.00     0.054 A 
BRANCH  64  65
ATOM     65  S   UNL A   1      47.830  27.303  37.832  1.00  0.00     0.124 S 
ATOM     66  O   UNL A   1      47.634  25.863  37.686  1.00  0.00    -0.237 OA
ATOM     67  O   UNL A   1      48.930  27.870  37.054  1.00  0.00    -0.237 OA
ATOM     68  O   UNL A   1      47.710  27.812  39.195  1.00  0.00    -0.744 OA
ENDBRANCH  64  65
ENDBRANCH  38  59
ENDBRANCH  12  13
ENDBRANCH   5   7
ENDBRANCH   2   3
ENDBRANCH   1   2
BRANCH   1  69
ATOM     69  C   UNL A   1      32.147  30.207  25.857  1.00  0.00     0.002 C 
BRANCH  69  70
ATOM     70  C   UNL A   1      33.403  29.380  26.156  1.00  0.00     0.002 C 
BRANCH  70  71
ATOM     71  C   UNL A   1      33.775  28.382  25.051  1.00  0.00     0.021 C 
BRANCH  71  72
ATOM     72  C   UNL A   1      33.753  26.929  25.531  1.00  0.00     0.116 C 
BRANCH  72  73
ATOM     73  N   UNL A   1      32.496  26.652  26.196  1.00  0.00    -0.356 N 
ATOM     74  C   UNL A   1      31.256  26.404  25.712  1.00  0.00     0.229 C 
ATOM     75  H   UNL A   1      32.554  26.641  27.179  1.00  0.00     0.163 HD
ATOM     76  O   UNL A   1      30.337  26.380  26.540  1.00  0.00    -0.275 OA
BRANCH  74  77
ATOM     77  C   UNL A   1      30.955  26.067  24.260  1.00  0.00     0.146 C 
ATOM     78  C   UNL A   1      31.864  24.928  23.827  1.00  0.00     0.274 C 
ATOM     79  C   UNL A   1      31.107  27.101  23.138  1.00  0.00     0.092 C 
ATOM     80  N   UNL A   1      31.670  24.837  22.379  1.00  0.00    -0.345 N 
ATOM     81  C   UNL A   1      31.467  26.220  21.916  1.00  0.00     0.269 C 
ATOM     82  H   UNL A   1      30.851  24.267  22.165  1.00  0.00     0.346 HD
ATOM     83  H   UNL A   1      32.468  24.399  21.920  1.00  0.00     0.346 HD
BRANCH  79  84
ATOM     84  C   UNL A   1      29.982  28.109  22.976  1.00  0.00    -0.035 A 
ATOM     85  C   UNL A   1      28.647  27.723  23.169  1.00  0.00     0.024 A 
ATOM     86  C   UNL A   1      30.224  29.478  22.806  1.00  0.00     0.024 A 
ATOM     87  C   UNL A   1      27.648  28.688  23.184  1.00  0.00     0.111 A 
ATOM     88  C   UNL A   1      29.157  30.368  22.815  1.00  0.00     0.111 A 
ATOM     89  N   UNL A   1      27.874  30.002  23.002  1.00  0.00    -0.265 NA
ENDBRANCH  79  84
ENDBRANCH  74  77
ENDBRANCH  72  73
ENDBRANCH  71  72
ENDBRANCH  70  71
ENDBRANCH  69  70
ENDBRANCH   1  69
TORSDOF 17
ENDMDL
MODEL 3
REMARK VINA RESULT:     -10.4      1.387      2.619
REMARK SMILES O=C(NCCCCCCNC(=O)[C@@H]1C[NH2+]C[C@H]1c1ccncc1)c1ccc(-c2c3nc(c(-c4ccc(S(=O)(=O)[O-])cc4)c4ccc([nH]4)c(-c4ccc(S(=O)(=O)[O-])cc4)c4nc(c(-c5ccc(S(=O)(=O)[O-])cc5)c5ccc2[nH]5)C=C4)C=C3)cc1
REMARK SMILES IDX 5 1 4 2 3 3 1 4 2 5 24 7 25 8 83 9 26 10 82 11 27 12 28 13
REMARK SMILES IDX 29 14 76 15 30 16 81 17 75 18 77 19 31 20 80 21 74 22 73 23
REMARK SMILES IDX 32 25 62 26 43 27 61 28 44 29 47 30 60 31 78 32 45 33 46 34
REMARK SMILES IDX 59 36 79 37 48 38 33 39 34 40 42 41 35 42 41 43 36 44 37 45
REMARK SMILES IDX 38 46 39 47 40 48 63 49 64 50 72 51 65 52 71 53 66 54 67 55
REMARK SMILES IDX 68 56 69 57 70 58 49 59 50 60 58 61 51 62 57 63 52 64 53 65
REMARK SMILES IDX 54 66 55 67 56 68 6 69 7 70 8 71 9 72 10 73 11 74 12 76
REMARK SMILES IDX 13 77 14 78 17 79 15 80 16 81 18 84 19 85 23 86 20 87 22 88
REMARK SMILES IDX 21 89
REMARK H PARENT 3 6 77 24 47 35 10 75 15 82 15 83
REMARK Flexibility Score: inf
ROOT
ATOM      1  C   UNL A   1      36.111  23.826  24.629  1.00  0.00     0.021 C 
ENDROOT
BRANCH   1   2
ATOM      2  C   UNL A   1      36.676  23.734  26.039  1.00  0.00     0.116 C 
BRANCH   2   3
ATOM      3  N   UNL A   1      37.756  22.762  26.101  1.00  0.00    -0.352 N 
ATOM      4  O   UNL A   1      39.930  22.149  26.096  1.00  0.00    -0.269 OA
ATOM      5  C   UNL A   1      39.080  22.994  26.369  1.00  0.00     0.251 C 
ATOM      6  H   UNL A   1      37.507  21.825  25.930  1.00  0.00     0.163 HD
BRANCH   5   7
ATOM      7  C   UNL A   1      39.460  24.273  26.996  1.00  0.00     0.039 A 
ATOM      8  C   UNL A   1      39.132  24.507  28.337  1.00  0.00     0.014 A 
ATOM      9  C   UNL A   1      40.151  25.233  26.256  1.00  0.00     0.014 A 
ATOM     10  C   UNL A   1      39.412  25.737  28.911  1.00  0.00     0.010 A 
ATOM     11  C   UNL A   1      40.516  26.436  26.864  1.00  0.00     0.010 A 
ATOM     12  C   UNL A   1      40.153  26.692  28.196  1.00  0.00    -0.014 A 
BRANCH  12  13
ATOM     13  C   UNL A   1      40.680  27.871  28.921  1.00  0.00     0.031 A 
ATOM     14  C   UNL A   1      42.044  27.870  29.543  1.00  0.00     0.074 A 
ATOM     15  C   UNL A   1      39.877  28.951  29.016  1.00  0.00     0.049 A 
ATOM     16  N   UNL A   1      42.626  28.819  30.228  1.00  0.00    -0.248 NA
ATOM     17  C   UNL A   1      42.861  26.655  29.384  1.00  0.00     0.031 C 
ATOM     18  C   UNL A   1      38.521  29.044  28.457  1.00  0.00     0.029 A 
ATOM     19  N   UNL A   1      40.072  30.171  29.604  1.00  0.00    -0.354 N 
ATOM     20  C   UNL A   1      43.864  28.313  30.606  1.00  0.00     0.074 A 
ATOM     21  C   UNL A   1      43.949  26.968  30.079  1.00  0.00     0.031 C 
ATOM     22  C   UNL A   1      38.025  30.264  28.702  1.00  0.00     0.029 A 
ATOM     23  C   UNL A   1      38.986  31.009  29.502  1.00  0.00     0.049 A 
ATOM     24  H   UNL A   1      40.908  30.425  30.057  1.00  0.00     0.167 HD
ATOM     25  C   UNL A   1      44.830  28.922  31.333  1.00  0.00     0.031 A 
ATOM     26  C   UNL A   1      38.764  32.225  30.031  1.00  0.00     0.031 A 
ATOM     27  C   UNL A   1      44.724  30.265  31.846  1.00  0.00     0.049 A 
ATOM     28  C   UNL A   1      39.840  32.850  30.869  1.00  0.00     0.074 A 
ATOM     29  C   UNL A   1      45.678  30.994  32.538  1.00  0.00     0.029 A 
ATOM     30  N   UNL A   1      43.601  31.072  31.745  1.00  0.00    -0.354 N 
ATOM     31  N   UNL A   1      41.037  32.388  31.143  1.00  0.00    -0.248 NA
ATOM     32  C   UNL A   1      39.538  34.153  31.473  1.00  0.00     0.031 C 
ATOM     33  C   UNL A   1      45.104  32.210  32.920  1.00  0.00     0.029 A 
ATOM     34  C   UNL A   1      43.819  32.269  32.406  1.00  0.00     0.049 A 
ATOM     35  H   UNL A   1      42.772  30.829  31.272  1.00  0.00     0.167 HD
ATOM     36  C   UNL A   1      41.634  33.351  31.948  1.00  0.00     0.074 A 
ATOM     37  C   UNL A   1      40.681  34.434  32.083  1.00  0.00     0.031 C 
ATOM     38  C   UNL A   1      42.856  33.334  32.533  1.00  0.00     0.031 A 
BRANCH  25  39
ATOM     39  C   UNL A   1      46.081  28.152  31.658  1.00  0.00    -0.014 A 
ATOM     40  C   UNL A   1      46.150  27.302  32.775  1.00  0.00     0.010 A 
ATOM     41  C   UNL A   1      47.162  28.182  30.755  1.00  0.00     0.010 A 
ATOM     42  C   UNL A   1      47.277  26.500  32.985  1.00  0.00     0.020 A 
ATOM     43  C   UNL A   1      48.279  27.365  30.948  1.00  0.00     0.020 A 
ATOM     44  C   UNL A   1      48.330  26.531  32.065  1.00  0.00     0.054 A 
BRANCH  44  45
ATOM     45  S   UNL A   1      49.741  25.418  32.321  1.00  0.00     0.124 S 
ATOM     46  O   UNL A   1      49.186  24.439  33.252  1.00  0.00    -0.237 OA
ATOM     47  O   UNL A   1      50.005  24.924  30.972  1.00  0.00    -0.237 OA
ATOM     48  O   UNL A   1      50.776  26.288  32.877  1.00  0.00    -0.744 OA
ENDBRANCH  44  45
ENDBRANCH  25  39
BRANCH  26  49
ATOM     49  C   UNL A   1      37.447  32.893  29.845  1.00  0.00    -0.014 A 
ATOM     50  C   UNL A   1      36.434  32.779  30.812  1.00  0.00     0.010 A 
ATOM     51  C   UNL A   1      37.196  33.639  28.677  1.00  0.00     0.010 A 
ATOM     52  C   UNL A   1      35.182  33.362  30.594  1.00  0.00     0.020 A 
ATOM     53  C   UNL A   1      35.959  34.255  28.473  1.00  0.00     0.020 A 
ATOM     54  C   UNL A   1      34.952  34.092  29.424  1.00  0.00     0.054 A 
BRANCH  54  55
ATOM     55  S   UNL A   1      33.320  34.837  29.161  1.00  0.00     0.124 S 
ATOM     56  O   UNL A   1      32.739  34.765  30.498  1.00  0.00    -0.237 OA
ATOM     57  O   UNL A   1      33.658  36.176  28.687  1.00  0.00    -0.237 OA
ATOM     58  O   UNL A   1      32.704  33.968  28.161  1.00  0.00    -0.744 OA
ENDBRANCH  54  55
ENDBRANCH  26  49
BRANCH  38  59
ATOM     59  C   UNL A   1      43.234  34.529  33.364  1.00  0.00    -0.014 A 
ATOM     60  C   UNL A   1      42.954  34.569  34.741  1.00  0.00     0.010 A 
ATOM     61  C   UNL A   1      43.925  35.601  32.771  1.00  0.00     0.010 A 
ATOM     62  C   UNL A   1      43.335  35.673  35.506  1.00  0.00     0.020 A 
ATOM     63  C   UNL A   1      44.337  36.691  33.539  1.00  0.00     0.020 A 
ATOM     64  C   UNL A   1      44.029  36.725  34.901  1.00  0.00     0.054 A 
BRANCH  64  65
ATOM     65  S   UNL A   1      44.565  38.118  35.931  1.00  0.00     0.124 S 
ATOM     66  O   UNL A   1      46.016  37.951  35.937  1.00  0.00    -0.237 OA
ATOM     67  O   UNL A   1      44.068  39.274  35.187  1.00  0.00    -0.237 OA
ATOM     68  O   UNL A   1      43.905  37.877  37.211  1.00  0.00    -0.744 OA
ENDBRANCH  64  65
ENDBRANCH  38  59
ENDBRANCH  12  13
ENDBRANCH   5   7
ENDBRANCH   2   3
ENDBRANCH   1   2
BRANCH   1  69
ATOM     69  C   UNL A   1      35.328  22.580  24.212  1.00  0.00     0.002 C 
BRANCH  69  70
ATOM     70  C   UNL A   1      34.357  22.809  23.048  1.00  0.00     0.002 C 
BRANCH  70  71
ATOM     71  C   UNL A   1      33.008  22.095  23.206  1.00  0.00     0.021 C 
BRANCH  71  72
ATOM     72  C   UNL A   1      31.823  22.966  22.782  1.00  0.00     0.116 C 
BRANCH  72  73
ATOM     73  N   UNL A   1      32.290  24.067  21.966  1.00  0.00    -0.356 N 
ATOM     74  C   UNL A   1      31.954  25.379  21.945  1.00  0.00     0.229 C 
ATOM     75  H   UNL A   1      32.977  23.817  21.307  1.00  0.00     0.163 HD
ATOM     76  O   UNL A   1      32.401  26.046  21.004  1.00  0.00    -0.275 OA
BRANCH  74  77
ATOM     77  C   UNL A   1      31.160  26.077  23.038  1.00  0.00     0.146 C 
ATOM     78  C   UNL A   1      30.843  27.491  22.581  1.00  0.00     0.274 C 
ATOM     79  C   UNL A   1      31.719  26.268  24.453  1.00  0.00     0.092 C 
ATOM     80  N   UNL A   1      30.295  28.144  23.771  1.00  0.00    -0.345 N 
ATOM     81  C   UNL A   1      31.031  27.576  24.913  1.00  0.00     0.269 C 
ATOM     82  H   UNL A   1      29.297  27.947  23.857  1.00  0.00     0.346 HD
ATOM     83  H   UNL A   1      30.397  29.158  23.724  1.00  0.00     0.346 HD
BRANCH  79  84
ATOM     84  C   UNL A   1      31.655  25.069  25.385  1.00  0.00    -0.035 A 
ATOM     85  C   UNL A   1      32.819  24.575  25.990  1.00  0.00     0.024 A 
ATOM     86  C   UNL A   1      30.439  24.521  25.814  1.00  0.00     0.024 A 
ATOM     87  C   UNL A   1      32.723  23.591  26.965  1.00  0.00     0.111 A 
ATOM     88  C   UNL A   1      30.443  23.523  26.782  1.00  0.00     0.111 A 
ATOM     89  N   UNL A   1      31.559  23.048  27.368  1.00  0.00    -0.265 NA
ENDBRANCH  79  84
ENDBRANCH  74  77
ENDBRANCH  72  73
ENDBRANCH  71  72
ENDBRANCH  70  71
ENDBRANCH  69  70
ENDBRANCH   1  69
TORSDOF 17
ENDMDL
