MODEL 1
REMARK VINA RESULT:     -10.6      0.000      0.000
REMARK SMILES Cc1ccc(Br)cc1S(=O)(=O)N[C@H]1C=C[C@H](C(=O)NCCCCCCNC(=O)c2ccc(-c3c4nc(c(-c5ccc(S(=O)(=O)[O-])cc5)c5ccc([nH]5)c(-c5ccc(S(=O)(=O)[O-])cc5)c5nc(c(-c6ccc(S(=O)(=O)[O-])cc6)c6ccc3[nH]6)C=C5)C=C4)cc2)C1
REMARK SMILES IDX 22 1 21 2 20 3 19 4 17 5 18 6 16 8 13 9 14 10 89 11 15 12
REMARK SMILES IDX 12 13 9 15 10 16 11 17 8 18 1 19 2 20 3 21 4 22 7 23 5 24
REMARK SMILES IDX 6 25 23 26 24 27 25 28 26 29 27 30 28 32 29 33 30 34 88 35
REMARK SMILES IDX 31 36 87 37 32 38 33 39 34 40 81 41 35 42 86 43 80 44 82 45
REMARK SMILES IDX 36 46 85 47 79 48 78 49 37 51 67 52 48 53 66 54 49 55 52 56
REMARK SMILES IDX 65 57 83 58 50 59 51 60 64 62 84 63 53 64 38 65 39 66 47 67
REMARK SMILES IDX 40 68 46 69 41 70 42 71 43 72 44 73 45 74 68 75 69 76 77 77
REMARK SMILES IDX 70 78 76 79 71 80 72 81 73 82 74 83 75 84 54 85 55 86 63 87
REMARK SMILES IDX 56 88 62 89 57 90 58 91 59 92 60 93 61 94
REMARK H PARENT 19 7 12 14 26 31 82 50 52 61
REMARK Flexibility Score: inf
ROOT
ATOM      1  C   UNL A   1      31.480  28.167  24.648  1.00  0.00     0.002 C 
ENDROOT
BRANCH   1   2
ATOM      2  C   UNL A   1      30.290  27.447  24.006  1.00  0.00     0.021 C 
BRANCH   2   3
ATOM      3  C   UNL A   1      30.376  27.371  22.486  1.00  0.00     0.116 C 
BRANCH   3   4
ATOM      4  N   UNL A   1      31.744  27.189  22.044  1.00  0.00    -0.356 N 
ATOM      5  C   UNL A   1      32.593  26.136  22.005  1.00  0.00     0.226 C 
ATOM      6  O   UNL A   1      33.762  26.401  21.689  1.00  0.00    -0.274 OA
ATOM      7  H   UNL A   1      32.146  28.017  21.693  1.00  0.00     0.163 HD
BRANCH   5   8
ATOM      8  C   UNL A   1      32.233  24.683  22.335  1.00  0.00     0.103 C 
ATOM      9  C   UNL A   1      33.267  23.484  24.197  1.00  0.00     0.093 C 
ATOM     10  C   UNL A   1      33.781  22.995  22.881  1.00  0.00    -0.011 C 
ATOM     11  C   UNL A   1      32.001  24.242  23.771  1.00  0.00     0.042 C 
ATOM     12  C   UNL A   1      33.256  23.690  21.864  1.00  0.00    -0.016 C 
BRANCH   9  13
ATOM     13  N   UNL A   1      32.923  22.381  25.069  1.00  0.00    -0.204 NA
ATOM     14  H   UNL A   1      31.954  22.519  25.355  1.00  0.00     0.142 HD
BRANCH  13  15
ATOM     15  S   UNL A   1      33.818  22.133  26.472  1.00  0.00     0.241 S 
ATOM     16  O   UNL A   1      33.356  20.876  27.032  1.00  0.00    -0.207 OA
ATOM     17  O   UNL A   1      33.765  23.362  27.221  1.00  0.00    -0.207 OA
BRANCH  15  18
ATOM     18  C   UNL A   1      35.501  21.907  25.923  1.00  0.00     0.086 A 
ATOM     19  C   UNL A   1      35.048  19.679  24.693  1.00  0.00     0.046 C 
ATOM     20  C   UNL A   1      35.939  20.769  25.218  1.00  0.00    -0.031 A 
ATOM     21  C   UNL A   1      37.315  20.647  24.942  1.00  0.00     0.006 A 
ATOM     22  C   UNL A   1      38.220  21.647  25.303  1.00  0.00     0.016 A 
ATOM     23  C   UNL A   1      36.412  22.925  26.262  1.00  0.00     0.037 A 
ATOM     24  C   UNL A   1      37.760  22.792  25.941  1.00  0.00     0.019 A 
ATOM     25  Br  UNL A   1      38.972  24.174  26.377  1.00  0.00    -0.051 Br
ENDBRANCH  15  18
ENDBRANCH  13  15
ENDBRANCH   9  13
ENDBRANCH   5   8
ENDBRANCH   3   4
ENDBRANCH   2   3
ENDBRANCH   1   2
BRANCH   1  26
ATOM     26  C   UNL A   1      32.308  27.312  25.616  1.00  0.00     0.002 C 
BRANCH  26  27
ATOM     27  C   UNL A   1      33.037  28.085  26.720  1.00  0.00     0.021 C 
BRANCH  27  28
ATOM     28  C   UNL A   1      34.084  29.080  26.228  1.00  0.00     0.116 C 
BRANCH  28  29
ATOM     29  N   UNL A   1      33.763  30.444  26.610  1.00  0.00    -0.352 N 
ATOM     30  C   UNL A   1      34.340  31.243  27.561  1.00  0.00     0.251 C 
ATOM     31  H   UNL A   1      33.020  30.855  26.112  1.00  0.00     0.163 HD
ATOM     32  O   UNL A   1      33.805  32.305  27.866  1.00  0.00    -0.269 OA
BRANCH  30  33
ATOM     33  C   UNL A   1      35.593  30.826  28.227  1.00  0.00     0.039 A 
ATOM     34  C   UNL A   1      35.557  29.724  29.086  1.00  0.00     0.014 A 
ATOM     35  C   UNL A   1      36.783  31.538  28.045  1.00  0.00     0.014 A 
ATOM     36  C   UNL A   1      36.723  29.316  29.738  1.00  0.00     0.010 A 
ATOM     37  C   UNL A   1      37.957  31.095  28.650  1.00  0.00     0.010 A 
ATOM     38  C   UNL A   1      37.934  29.990  29.514  1.00  0.00    -0.014 A 
BRANCH  38  39
ATOM     39  C   UNL A   1      39.177  29.564  30.204  1.00  0.00     0.031 A 
ATOM     40  C   UNL A   1      39.610  30.250  31.472  1.00  0.00     0.074 A 
ATOM     41  C   UNL A   1      39.931  28.582  29.673  1.00  0.00     0.049 A 
ATOM     42  N   UNL A   1      40.665  30.025  32.211  1.00  0.00    -0.248 NA
ATOM     43  C   UNL A   1      38.756  31.346  31.960  1.00  0.00     0.031 C 
ATOM     44  C   UNL A   1      39.639  27.869  28.427  1.00  0.00     0.029 A 
ATOM     45  N   UNL A   1      41.099  28.015  30.115  1.00  0.00    -0.354 N 
ATOM     46  C   UNL A   1      40.613  30.959  33.240  1.00  0.00     0.074 A 
ATOM     47  C   UNL A   1      39.445  31.780  33.005  1.00  0.00     0.031 C 
ATOM     48  C   UNL A   1      40.589  26.943  28.219  1.00  0.00     0.029 A 
ATOM     49  C   UNL A   1      41.568  27.014  29.299  1.00  0.00     0.049 A 
ATOM     50  H   UNL A   1      41.558  28.298  30.938  1.00  0.00     0.167 HD
ATOM     51  C   UNL A   1      41.449  31.108  34.295  1.00  0.00     0.031 A 
ATOM     52  C   UNL A   1      42.662  26.236  29.411  1.00  0.00     0.031 A 
ATOM     53  C   UNL A   1      42.599  30.280  34.535  1.00  0.00     0.049 A 
ATOM     54  C   UNL A   1      43.565  26.408  30.601  1.00  0.00     0.074 A 
ATOM     55  C   UNL A   1      43.478  30.314  35.604  1.00  0.00     0.029 A 
ATOM     56  N   UNL A   1      43.031  29.265  33.695  1.00  0.00    -0.354 N 
ATOM     57  N   UNL A   1      43.463  27.256  31.597  1.00  0.00    -0.248 NA
ATOM     58  C   UNL A   1      44.721  25.505  30.688  1.00  0.00     0.031 C 
ATOM     59  C   UNL A   1      44.464  29.343  35.391  1.00  0.00     0.029 A 
ATOM     60  C   UNL A   1      44.172  28.675  34.211  1.00  0.00     0.049 A 
ATOM     61  H   UNL A   1      42.591  29.003  32.854  1.00  0.00     0.167 HD
ATOM     62  C   UNL A   1      44.532  26.976  32.440  1.00  0.00     0.074 A 
ATOM     63  C   UNL A   1      45.256  25.869  31.847  1.00  0.00     0.031 C 
ATOM     64  C   UNL A   1      44.883  27.581  33.602  1.00  0.00     0.031 A 
BRANCH  51  65
ATOM     65  C   UNL A   1      41.142  32.216  35.267  1.00  0.00    -0.014 A 
ATOM     66  C   UNL A   1      40.261  32.012  36.344  1.00  0.00     0.010 A 
ATOM     67  C   UNL A   1      41.759  33.472  35.116  1.00  0.00     0.010 A 
ATOM     68  C   UNL A   1      39.964  33.056  37.223  1.00  0.00     0.020 A 
ATOM     69  C   UNL A   1      41.484  34.511  36.009  1.00  0.00     0.020 A 
ATOM     70  C   UNL A   1      40.572  34.302  37.046  1.00  0.00     0.054 A 
BRANCH  70  71
ATOM     71  S   UNL A   1      40.177  35.638  38.207  1.00  0.00     0.124 S 
ATOM     72  O   UNL A   1      39.832  36.731  37.301  1.00  0.00    -0.237 OA
ATOM     73  O   UNL A   1      39.063  35.084  38.973  1.00  0.00    -0.237 OA
ATOM     74  O   UNL A   1      41.416  35.821  38.960  1.00  0.00    -0.744 OA
ENDBRANCH  70  71
ENDBRANCH  51  65
BRANCH  52  75
ATOM     75  C   UNL A   1      42.946  25.205  28.378  1.00  0.00    -0.014 A 
ATOM     76  C   UNL A   1      43.748  25.514  27.266  1.00  0.00     0.010 A 
ATOM     77  C   UNL A   1      42.431  23.902  28.512  1.00  0.00     0.010 A 
ATOM     78  C   UNL A   1      44.019  24.544  26.298  1.00  0.00     0.020 A 
ATOM     79  C   UNL A   1      42.719  22.923  27.557  1.00  0.00     0.020 A 
ATOM     80  C   UNL A   1      43.504  23.254  26.449  1.00  0.00     0.054 A 
BRANCH  80  81
ATOM     81  S   UNL A   1      43.914  21.993  25.210  1.00  0.00     0.124 S 
ATOM     82  O   UNL A   1      43.741  22.727  23.961  1.00  0.00    -0.237 OA
ATOM     83  O   UNL A   1      45.291  21.645  25.555  1.00  0.00    -0.237 OA
ATOM     84  O   UNL A   1      42.933  20.939  25.461  1.00  0.00    -0.744 OA
ENDBRANCH  80  81
ENDBRANCH  52  75
BRANCH  64  85
ATOM     85  C   UNL A   1      46.093  27.042  34.314  1.00  0.00    -0.014 A 
ATOM     86  C   UNL A   1      47.373  27.569  34.069  1.00  0.00     0.010 A 
ATOM     87  C   UNL A   1      45.941  26.018  35.268  1.00  0.00     0.010 A 
ATOM     88  C   UNL A   1      48.487  27.054  34.738  1.00  0.00     0.020 A 
ATOM     89  C   UNL A   1      47.048  25.518  35.956  1.00  0.00     0.020 A 
ATOM     90  C   UNL A   1      48.318  26.028  35.672  1.00  0.00     0.054 A 
BRANCH  90  91
ATOM     91  S   UNL A   1      49.773  25.393  36.550  1.00  0.00     0.124 S 
ATOM     92  O   UNL A   1      50.844  26.214  35.992  1.00  0.00    -0.237 OA
ATOM     93  O   UNL A   1      49.447  25.653  37.950  1.00  0.00    -0.237 OA
ATOM     94  O   UNL A   1      49.812  23.981  36.178  1.00  0.00    -0.744 OA
ENDBRANCH  90  91
ENDBRANCH  64  85
ENDBRANCH  38  39
ENDBRANCH  30  33
ENDBRANCH  28  29
ENDBRANCH  27  28
ENDBRANCH  26  27
ENDBRANCH   1  26
TORSDOF 19
ENDMDL
MODEL 2
REMARK VINA RESULT:     -10.4      4.917     11.649
REMARK SMILES Cc1ccc(Br)cc1S(=O)(=O)N[C@H]1C=C[C@H](C(=O)NCCCCCCNC(=O)c2ccc(-c3c4nc(c(-c5ccc(S(=O)(=O)[O-])cc5)c5ccc([nH]5)c(-c5ccc(S(=O)(=O)[O-])cc5)c5nc(c(-c6ccc(S(=O)(=O)[O-])cc6)c6ccc3[nH]6)C=C5)C=C4)cc2)C1
REMARK SMILES IDX 22 1 21 2 20 3 19 4 17 5 18 6 16 8 13 9 14 10 89 11 15 12
REMARK SMILES IDX 12 13 9 15 10 16 11 17 8 18 1 19 2 20 3 21 4 22 7 23 5 24
REMARK SMILES IDX 6 25 23 26 24 27 25 28 26 29 27 30 28 32 29 33 30 34 88 35
REMARK SMILES IDX 31 36 87 37 32 38 33 39 34 40 81 41 35 42 86 43 80 44 82 45
REMARK SMILES IDX 36 46 85 47 79 48 78 49 37 51 67 52 48 53 66 54 49 55 52 56
REMARK SMILES IDX 65 57 83 58 50 59 51 60 64 62 84 63 53 64 38 65 39 66 47 67
REMARK SMILES IDX 40 68 46 69 41 70 42 71 43 72 44 73 45 74 68 75 69 76 77 77
REMARK SMILES IDX 70 78 76 79 71 80 72 81 73 82 74 83 75 84 54 85 55 86 63 87
REMARK SMILES IDX 56 88 62 89 57 90 58 91 59 92 60 93 61 94
REMARK H PARENT 19 7 12 14 26 31 82 50 52 61
REMARK Flexibility Score: inf
ROOT
ATOM      1  C   UNL A   1      43.171  23.424  26.866  1.00  0.00     0.002 C 
ENDROOT
BRANCH   1   2
ATOM      2  C   UNL A   1      44.296  24.371  26.436  1.00  0.00     0.021 C 
BRANCH   2   3
ATOM      3  C   UNL A   1      43.813  25.531  25.571  1.00  0.00     0.116 C 
BRANCH   3   4
ATOM      4  N   UNL A   1      44.904  26.116  24.818  1.00  0.00    -0.356 N 
ATOM      5  C   UNL A   1      45.824  27.075  25.075  1.00  0.00     0.226 C 
ATOM      6  O   UNL A   1      46.523  27.420  24.112  1.00  0.00    -0.274 OA
ATOM      7  H   UNL A   1      44.997  25.729  23.917  1.00  0.00     0.163 HD
BRANCH   5   8
ATOM      8  C   UNL A   1      46.044  27.764  26.426  1.00  0.00     0.103 C 
ATOM      9  C   UNL A   1      46.014  30.198  26.658  1.00  0.00     0.093 C 
ATOM     10  C   UNL A   1      47.402  29.656  26.776  1.00  0.00    -0.011 C 
ATOM     11  C   UNL A   1      45.170  28.930  26.861  1.00  0.00     0.042 C 
ATOM     12  C   UNL A   1      47.424  28.329  26.593  1.00  0.00    -0.016 C 
BRANCH   9  13
ATOM     13  N   UNL A   1      45.734  31.159  27.704  1.00  0.00    -0.204 NA
ATOM     14  H   UNL A   1      45.580  30.630  28.561  1.00  0.00     0.142 HD
BRANCH  13  15
ATOM     15  S   UNL A   1      44.428  32.206  27.529  1.00  0.00     0.241 S 
ATOM     16  O   UNL A   1      43.451  31.806  28.526  1.00  0.00    -0.207 OA
ATOM     17  O   UNL A   1      44.109  32.240  26.125  1.00  0.00    -0.207 OA
BRANCH  15  18
ATOM     18  C   UNL A   1      45.051  33.816  27.982  1.00  0.00     0.086 A 
ATOM     19  C   UNL A   1      42.724  34.929  28.148  1.00  0.00     0.046 C 
ATOM     20  C   UNL A   1      44.226  34.944  28.156  1.00  0.00    -0.031 A 
ATOM     21  C   UNL A   1      44.844  36.187  28.395  1.00  0.00     0.006 A 
ATOM     22  C   UNL A   1      46.230  36.299  28.515  1.00  0.00     0.016 A 
ATOM     23  C   UNL A   1      46.446  33.928  28.129  1.00  0.00     0.037 A 
ATOM     24  C   UNL A   1      47.023  35.164  28.404  1.00  0.00     0.019 A 
ATOM     25  Br  UNL A   1      48.894  35.302  28.624  1.00  0.00    -0.051 Br
ENDBRANCH  15  18
ENDBRANCH  13  15
ENDBRANCH   9  13
ENDBRANCH   5   8
ENDBRANCH   3   4
ENDBRANCH   2   3
ENDBRANCH   1   2
BRANCH   1  26
ATOM     26  C   UNL A   1      42.556  22.592  25.734  1.00  0.00     0.002 C 
BRANCH  26  27
ATOM     27  C   UNL A   1      41.822  21.321  26.174  1.00  0.00     0.021 C 
BRANCH  27  28
ATOM     28  C   UNL A   1      40.534  21.557  26.957  1.00  0.00     0.116 C 
BRANCH  28  29
ATOM     29  N   UNL A   1      39.426  21.917  26.089  1.00  0.00    -0.352 N 
ATOM     30  C   UNL A   1      38.725  23.090  26.008  1.00  0.00     0.251 C 
ATOM     31  H   UNL A   1      39.136  21.211  25.466  1.00  0.00     0.163 HD
ATOM     32  O   UNL A   1      37.697  23.138  25.339  1.00  0.00    -0.269 OA
BRANCH  30  33
ATOM     33  C   UNL A   1      39.194  24.291  26.733  1.00  0.00     0.039 A 
ATOM     34  C   UNL A   1      39.992  25.214  26.049  1.00  0.00     0.014 A 
ATOM     35  C   UNL A   1      38.891  24.489  28.083  1.00  0.00     0.014 A 
ATOM     36  C   UNL A   1      40.460  26.350  26.712  1.00  0.00     0.010 A 
ATOM     37  C   UNL A   1      39.309  25.652  28.727  1.00  0.00     0.010 A 
ATOM     38  C   UNL A   1      40.110  26.584  28.052  1.00  0.00    -0.014 A 
BRANCH  38  39
ATOM     39  C   UNL A   1      40.604  27.789  28.764  1.00  0.00     0.031 A 
ATOM     40  C   UNL A   1      42.006  27.822  29.309  1.00  0.00     0.074 A 
ATOM     41  C   UNL A   1      39.781  28.839  28.947  1.00  0.00     0.049 A 
ATOM     42  N   UNL A   1      42.613  28.777  29.965  1.00  0.00    -0.248 NA
ATOM     43  C   UNL A   1      42.826  26.615  29.109  1.00  0.00     0.031 C 
ATOM     44  C   UNL A   1      38.386  28.911  28.503  1.00  0.00     0.029 A 
ATOM     45  N   UNL A   1      39.998  30.048  29.558  1.00  0.00    -0.354 N 
ATOM     46  C   UNL A   1      43.877  28.283  30.270  1.00  0.00     0.074 A 
ATOM     47  C   UNL A   1      43.934  26.928  29.766  1.00  0.00     0.031 C 
ATOM     48  C   UNL A   1      37.883  30.111  28.833  1.00  0.00     0.029 A 
ATOM     49  C   UNL A   1      38.905  30.881  29.534  1.00  0.00     0.049 A 
ATOM     50  H   UNL A   1      40.855  30.295  29.974  1.00  0.00     0.167 HD
ATOM     51  C   UNL A   1      44.904  28.906  30.896  1.00  0.00     0.031 A 
ATOM     52  C   UNL A   1      38.747  32.128  30.017  1.00  0.00     0.031 A 
ATOM     53  C   UNL A   1      44.850  30.258  31.382  1.00  0.00     0.049 A 
ATOM     54  C   UNL A   1      39.907  32.806  30.692  1.00  0.00     0.074 A 
ATOM     55  C   UNL A   1      45.854  30.999  31.981  1.00  0.00     0.029 A 
ATOM     56  N   UNL A   1      43.732  31.075  31.323  1.00  0.00    -0.354 N 
ATOM     57  N   UNL A   1      41.114  32.344  30.915  1.00  0.00    -0.248 NA
ATOM     58  C   UNL A   1      39.686  34.179  31.165  1.00  0.00     0.031 C 
ATOM     59  C   UNL A   1      45.331  32.253  32.318  1.00  0.00     0.029 A 
ATOM     60  C   UNL A   1      44.014  32.307  31.888  1.00  0.00     0.049 A 
ATOM     61  H   UNL A   1      42.863  30.817  30.937  1.00  0.00     0.167 HD
ATOM     62  C   UNL A   1      41.804  33.378  31.539  1.00  0.00     0.074 A 
ATOM     63  C   UNL A   1      40.884  34.494  31.640  1.00  0.00     0.031 C 
ATOM     64  C   UNL A   1      43.083  33.402  31.987  1.00  0.00     0.031 A 
BRANCH  51  65
ATOM     65  C   UNL A   1      46.172  28.119  31.091  1.00  0.00    -0.014 A 
ATOM     66  C   UNL A   1      46.310  27.221  32.164  1.00  0.00     0.010 A 
ATOM     67  C   UNL A   1      47.233  28.263  30.177  1.00  0.00     0.010 A 
ATOM     68  C   UNL A   1      47.503  26.517  32.349  1.00  0.00     0.020 A 
ATOM     69  C   UNL A   1      48.418  27.541  30.345  1.00  0.00     0.020 A 
ATOM     70  C   UNL A   1      48.553  26.686  31.442  1.00  0.00     0.054 A 
BRANCH  70  71
ATOM     71  S   UNL A   1      50.087  25.754  31.698  1.00  0.00     0.124 S 
ATOM     72  O   UNL A   1      51.009  26.804  32.125  1.00  0.00    -0.237 OA
ATOM     73  O   UNL A   1      49.712  24.791  32.732  1.00  0.00    -0.237 OA
ATOM     74  O   UNL A   1      50.365  25.176  30.386  1.00  0.00    -0.744 OA
ENDBRANCH  70  71
ENDBRANCH  51  65
BRANCH  52  75
ATOM     75  C   UNL A   1      37.444  32.825  29.854  1.00  0.00    -0.014 A 
ATOM     76  C   UNL A   1      37.134  33.480  28.649  1.00  0.00     0.010 A 
ATOM     77  C   UNL A   1      36.498  32.821  30.895  1.00  0.00     0.010 A 
ATOM     78  C   UNL A   1      35.908  34.132  28.493  1.00  0.00     0.020 A 
ATOM     79  C   UNL A   1      35.262  33.454  30.734  1.00  0.00     0.020 A 
ATOM     80  C   UNL A   1      34.979  34.114  29.536  1.00  0.00     0.054 A 
BRANCH  80  81
ATOM     81  S   UNL A   1      33.370  34.918  29.293  1.00  0.00     0.124 S 
ATOM     82  O   UNL A   1      32.819  34.910  30.644  1.00  0.00    -0.237 OA
ATOM     83  O   UNL A   1      33.746  36.229  28.769  1.00  0.00    -0.237 OA
ATOM     84  O   UNL A   1      32.695  34.044  28.335  1.00  0.00    -0.744 OA
ENDBRANCH  80  81
ENDBRANCH  52  75
BRANCH  64  85
ATOM     85  C   UNL A   1      43.566  34.683  32.609  1.00  0.00    -0.014 A 
ATOM     86  C   UNL A   1      43.438  34.912  33.990  1.00  0.00     0.010 A 
ATOM     87  C   UNL A   1      44.186  35.657  31.805  1.00  0.00     0.010 A 
ATOM     88  C   UNL A   1      43.889  36.110  34.551  1.00  0.00     0.020 A 
ATOM     89  C   UNL A   1      44.660  36.845  32.365  1.00  0.00     0.020 A 
ATOM     90  C   UNL A   1      44.492  37.071  33.733  1.00  0.00     0.054 A 
BRANCH  90  91
ATOM     91  S   UNL A   1      45.095  38.607  34.485  1.00  0.00     0.124 S 
ATOM     92  O   UNL A   1      44.595  39.617  33.555  1.00  0.00    -0.237 OA
ATOM     93  O   UNL A   1      44.461  38.596  35.801  1.00  0.00    -0.237 OA
ATOM     94  O   UNL A   1      46.546  38.438  34.500  1.00  0.00    -0.744 OA
ENDBRANCH  90  91
ENDBRANCH  64  85
ENDBRANCH  38  39
ENDBRANCH  30  33
ENDBRANCH  28  29
ENDBRANCH  27  28
ENDBRANCH  26  27
ENDBRANCH   1  26
TORSDOF 19
ENDMDL
MODEL 3
REMARK VINA RESULT:     -10.3      2.687      9.386
REMARK SMILES Cc1ccc(Br)cc1S(=O)(=O)N[C@H]1C=C[C@H](C(=O)NCCCCCCNC(=O)c2ccc(-c3c4nc(c(-c5ccc(S(=O)(=O)[O-])cc5)c5ccc([nH]5)c(-c5ccc(S(=O)(=O)[O-])cc5)c5nc(c(-c6ccc(S(=O)(=O)[O-])cc6)c6ccc3[nH]6)C=C5)C=C4)cc2)C1
REMARK SMILES IDX 22 1 21 2 20 3 19 4 17 5 18 6 16 8 13 9 14 10 89 11 15 12
REMARK SMILES IDX 12 13 9 15 10 16 11 17 8 18 1 19 2 20 3 21 4 22 7 23 5 24
REMARK SMILES IDX 6 25 23 26 24 27 25 28 26 29 27 30 28 32 29 33 30 34 88 35
REMARK SMILES IDX 31 36 87 37 32 38 33 39 34 40 81 41 35 42 86 43 80 44 82 45
REMARK SMILES IDX 36 46 85 47 79 48 78 49 37 51 67 52 48 53 66 54 49 55 52 56
REMARK SMILES IDX 65 57 83 58 50 59 51 60 64 62 84 63 53 64 38 65 39 66 47 67
REMARK SMILES IDX 40 68 46 69 41 70 42 71 43 72 44 73 45 74 68 75 69 76 77 77
REMARK SMILES IDX 70 78 76 79 71 80 72 81 73 82 74 83 75 84 54 85 55 86 63 87
REMARK SMILES IDX 56 88 62 89 57 90 58 91 59 92 60 93 61 94
REMARK H PARENT 19 7 12 14 26 31 82 50 52 61
REMARK Flexibility Score: inf
ROOT
ATOM      1  C   UNL A   1      38.550  21.351  25.652  1.00  0.00     0.002 C 
ENDROOT
BRANCH   1   2
ATOM      2  C   UNL A   1      37.274  21.816  24.944  1.00  0.00     0.021 C 
BRANCH   2   3
ATOM      3  C   UNL A   1      36.002  21.524  25.733  1.00  0.00     0.116 C 
BRANCH   3   4
ATOM      4  N   UNL A   1      35.387  20.286  25.304  1.00  0.00    -0.356 N 
ATOM      5  C   UNL A   1      34.195  19.963  24.748  1.00  0.00     0.226 C 
ATOM      6  O   UNL A   1      33.958  18.751  24.653  1.00  0.00    -0.274 OA
ATOM      7  H   UNL A   1      35.966  19.501  25.447  1.00  0.00     0.163 HD
BRANCH   5   8
ATOM      8  C   UNL A   1      33.135  20.959  24.264  1.00  0.00     0.103 C 
ATOM      9  C   UNL A   1      32.985  23.228  25.161  1.00  0.00     0.093 C 
ATOM     10  C   UNL A   1      31.866  22.371  25.658  1.00  0.00    -0.011 C 
ATOM     11  C   UNL A   1      33.499  22.406  23.969  1.00  0.00     0.042 C 
ATOM     12  C   UNL A   1      31.981  21.113  25.210  1.00  0.00    -0.016 C 
BRANCH   9  13
ATOM     13  N   UNL A   1      32.501  24.516  24.710  1.00  0.00    -0.204 NA
ATOM     14  H   UNL A   1      31.892  24.343  23.911  1.00  0.00     0.142 HD
BRANCH  13  15
ATOM     15  S   UNL A   1      33.609  25.691  24.238  1.00  0.00     0.241 S 
ATOM     16  O   UNL A   1      33.557  25.740  22.788  1.00  0.00    -0.207 OA
ATOM     17  O   UNL A   1      34.833  25.415  24.944  1.00  0.00    -0.207 OA
BRANCH  15  18
ATOM     18  C   UNL A   1      32.959  27.231  24.865  1.00  0.00     0.086 A 
ATOM     19  C   UNL A   1      30.707  27.063  23.608  1.00  0.00     0.046 C 
ATOM     20  C   UNL A   1      31.718  27.765  24.469  1.00  0.00    -0.031 A 
ATOM     21  C   UNL A   1      31.366  29.045  24.941  1.00  0.00     0.006 A 
ATOM     22  C   UNL A   1      32.190  29.748  25.821  1.00  0.00     0.016 A 
ATOM     23  C   UNL A   1      33.775  27.930  25.773  1.00  0.00     0.037 A 
ATOM     24  C   UNL A   1      33.380  29.176  26.251  1.00  0.00     0.019 A 
ATOM     25  Br  UNL A   1      34.470  30.099  27.489  1.00  0.00    -0.051 Br
ENDBRANCH  15  18
ENDBRANCH  13  15
ENDBRANCH   9  13
ENDBRANCH   5   8
ENDBRANCH   3   4
ENDBRANCH   2   3
ENDBRANCH   1   2
BRANCH   1  26
ATOM     26  C   UNL A   1      39.270  22.433  26.466  1.00  0.00     0.002 C 
BRANCH  26  27
ATOM     27  C   UNL A   1      40.533  21.974  27.202  1.00  0.00     0.021 C 
BRANCH  27  28
ATOM     28  C   UNL A   1      41.564  23.068  27.460  1.00  0.00     0.116 C 
BRANCH  28  29
ATOM     29  N   UNL A   1      41.838  23.851  26.267  1.00  0.00    -0.352 N 
ATOM     30  C   UNL A   1      41.765  25.205  26.076  1.00  0.00     0.251 C 
ATOM     31  H   UNL A   1      42.117  23.331  25.479  1.00  0.00     0.163 HD
ATOM     32  O   UNL A   1      41.855  25.663  24.940  1.00  0.00    -0.269 OA
BRANCH  30  33
ATOM     33  C   UNL A   1      41.567  26.112  27.227  1.00  0.00     0.039 A 
ATOM     34  C   UNL A   1      40.438  25.934  28.031  1.00  0.00     0.014 A 
ATOM     35  C   UNL A   1      42.459  27.157  27.489  1.00  0.00     0.014 A 
ATOM     36  C   UNL A   1      40.219  26.784  29.117  1.00  0.00     0.010 A 
ATOM     37  C   UNL A   1      42.271  27.967  28.607  1.00  0.00     0.010 A 
ATOM     38  C   UNL A   1      41.141  27.798  29.421  1.00  0.00    -0.014 A 
BRANCH  38  39
ATOM     39  C   UNL A   1      40.915  28.707  30.572  1.00  0.00     0.031 A 
ATOM     40  C   UNL A   1      41.763  28.584  31.809  1.00  0.00     0.074 A 
ATOM     41  C   UNL A   1      39.928  29.621  30.516  1.00  0.00     0.049 A 
ATOM     42  N   UNL A   1      41.711  29.278  32.916  1.00  0.00    -0.248 NA
ATOM     43  C   UNL A   1      42.790  27.528  31.809  1.00  0.00     0.031 C 
ATOM     44  C   UNL A   1      39.010  29.809  29.389  1.00  0.00     0.029 A 
ATOM     45  N   UNL A   1      39.528  30.562  31.431  1.00  0.00    -0.354 N 
ATOM     46  C   UNL A   1      42.682  28.735  33.750  1.00  0.00     0.074 A 
ATOM     47  C   UNL A   1      43.279  27.626  33.037  1.00  0.00     0.031 C 
ATOM     48  C   UNL A   1      38.174  30.822  29.670  1.00  0.00     0.029 A 
ATOM     49  C   UNL A   1      38.476  31.334  31.002  1.00  0.00     0.049 A 
ATOM     50  H   UNL A   1      39.955  30.673  32.310  1.00  0.00     0.167 HD
ATOM     51  C   UNL A   1      43.058  29.133  34.989  1.00  0.00     0.031 A 
ATOM     52  C   UNL A   1      37.830  32.347  31.612  1.00  0.00     0.031 A 
ATOM     53  C   UNL A   1      42.476  30.246  35.689  1.00  0.00     0.049 A 
ATOM     54  C   UNL A   1      38.277  32.783  32.979  1.00  0.00     0.074 A 
ATOM     55  C   UNL A   1      42.822  30.765  36.924  1.00  0.00     0.029 A 
ATOM     56  N   UNL A   1      41.424  31.014  35.214  1.00  0.00    -0.354 N 
ATOM     57  N   UNL A   1      39.240  32.297  33.726  1.00  0.00    -0.248 NA
ATOM     58  C   UNL A   1      37.560  33.917  33.579  1.00  0.00     0.031 C 
ATOM     59  C   UNL A   1      41.956  31.825  37.213  1.00  0.00     0.029 A 
ATOM     60  C   UNL A   1      41.098  31.994  36.137  1.00  0.00     0.049 A 
ATOM     61  H   UNL A   1      40.974  30.883  34.348  1.00  0.00     0.167 HD
ATOM     62  C   UNL A   1      39.257  33.078  34.876  1.00  0.00     0.074 A 
ATOM     63  C   UNL A   1      38.220  34.079  34.718  1.00  0.00     0.031 C 
ATOM     64  C   UNL A   1      40.058  32.975  35.965  1.00  0.00     0.031 A 
BRANCH  51  65
ATOM     65  C   UNL A   1      44.154  28.351  35.663  1.00  0.00    -0.014 A 
ATOM     66  C   UNL A   1      43.856  27.256  36.493  1.00  0.00     0.010 A 
ATOM     67  C   UNL A   1      45.499  28.701  35.448  1.00  0.00     0.010 A 
ATOM     68  C   UNL A   1      44.880  26.555  37.135  1.00  0.00     0.020 A 
ATOM     69  C   UNL A   1      46.528  27.986  36.068  1.00  0.00     0.020 A 
ATOM     70  C   UNL A   1      46.210  26.929  36.924  1.00  0.00     0.054 A 
BRANCH  70  71
ATOM     71  S   UNL A   1      47.522  25.997  37.760  1.00  0.00     0.124 S 
ATOM     72  O   UNL A   1      48.556  25.941  36.728  1.00  0.00    -0.237 OA
ATOM     73  O   UNL A   1      47.833  26.839  38.913  1.00  0.00    -0.237 OA
ATOM     74  O   UNL A   1      46.891  24.719  38.078  1.00  0.00    -0.744 OA
ENDBRANCH  70  71
ENDBRANCH  51  65
BRANCH  52  75
ATOM     75  C   UNL A   1      36.708  33.034  30.919  1.00  0.00    -0.014 A 
ATOM     76  C   UNL A   1      35.378  32.777  31.293  1.00  0.00     0.010 A 
ATOM     77  C   UNL A   1      36.966  33.963  29.895  1.00  0.00     0.010 A 
ATOM     78  C   UNL A   1      34.323  33.426  30.645  1.00  0.00     0.020 A 
ATOM     79  C   UNL A   1      35.914  34.630  29.260  1.00  0.00     0.020 A 
ATOM     80  C   UNL A   1      34.598  34.349  29.633  1.00  0.00     0.054 A 
BRANCH  80  81
ATOM     81  S   UNL A   1      33.218  35.224  28.843  1.00  0.00     0.124 S 
ATOM     82  O   UNL A   1      33.909  36.262  28.087  1.00  0.00    -0.237 OA
ATOM     83  O   UNL A   1      32.589  34.172  28.047  1.00  0.00    -0.237 OA
ATOM     84  O   UNL A   1      32.422  35.695  29.976  1.00  0.00    -0.744 OA
ENDBRANCH  80  81
ENDBRANCH  52  75
BRANCH  64  85
ATOM     85  C   UNL A   1      39.855  33.987  37.060  1.00  0.00    -0.014 A 
ATOM     86  C   UNL A   1      40.543  35.213  37.051  1.00  0.00     0.010 A 
ATOM     87  C   UNL A   1      38.938  33.720  38.093  1.00  0.00     0.010 A 
ATOM     88  C   UNL A   1      40.345  36.139  38.078  1.00  0.00     0.020 A 
ATOM     89  C   UNL A   1      38.719  34.653  39.108  1.00  0.00     0.020 A 
ATOM     90  C   UNL A   1      39.439  35.851  39.103  1.00  0.00     0.054 A 
BRANCH  90  91
ATOM     91  S   UNL A   1      39.176  37.079  40.411  1.00  0.00     0.124 S 
ATOM     92  O   UNL A   1      38.562  36.273  41.464  1.00  0.00    -0.237 OA
ATOM     93  O   UNL A   1      40.530  37.552  40.691  1.00  0.00    -0.237 OA
ATOM     94  O   UNL A   1      38.296  38.064  39.788  1.00  0.00    -0.744 OA
ENDBRANCH  90  91
ENDBRANCH  64  85
ENDBRANCH  38  39
ENDBRANCH  30  33
ENDBRANCH  28  29
ENDBRANCH  27  28
ENDBRANCH  26  27
ENDBRANCH   1  26
TORSDOF 19
ENDMDL
