MODEL 1
REMARK VINA RESULT:     -10.4      0.000      0.000
REMARK SMILES O=C(C[C@H]1C(=O)Nc2ccccc21)NCCCCCCNC(=O)c1ccc(-c2c3nc(c(-c4ccc(S(=O)(=O)[O-])cc4)c4ccc([nH]4)c(-c4ccc(S(=O)(=O)[O-])cc4)c4nc(c(-c5ccc(S(=O)(=O)[O-])cc5)c5ccc2[nH]5)C=C4)C=C3)cc1
REMARK SMILES IDX 18 1 17 2 16 3 15 4 14 5 1 6 2 7 3 9 4 10 5 11 13 12 6 13
REMARK SMILES IDX 7 14 8 15 12 16 9 18 11 19 10 20 19 21 20 22 21 23 22 24
REMARK SMILES IDX 23 26 24 27 25 28 83 29 26 30 82 31 27 32 28 33 29 34 76 35
REMARK SMILES IDX 30 36 81 37 75 38 77 39 31 40 80 41 74 42 73 43 32 45 62 46
REMARK SMILES IDX 43 47 61 48 44 49 47 50 60 51 78 52 45 53 46 54 59 56 79 57
REMARK SMILES IDX 48 58 33 59 34 60 42 61 35 62 41 63 36 64 37 65 38 66 39 67
REMARK SMILES IDX 40 68 63 69 64 70 72 71 65 72 71 73 66 74 67 75 68 76 69 77
REMARK SMILES IDX 70 78 49 79 50 80 58 81 51 82 57 83 52 84 53 85 54 86 55 87
REMARK SMILES IDX 56 88
REMARK H PARENT 14 8 7 17 21 25 77 44 47 55
REMARK Flexibility Score: inf
ROOT
ATOM      1  C   UNL A   1      31.680  27.623  26.140  1.00  0.00     0.002 C 
ENDROOT
BRANCH   1   2
ATOM      2  C   UNL A   1      30.857  26.696  25.240  1.00  0.00     0.002 C 
BRANCH   2   3
ATOM      3  C   UNL A   1      31.143  25.197  25.408  1.00  0.00     0.021 C 
BRANCH   3   4
ATOM      4  C   UNL A   1      30.867  24.355  24.162  1.00  0.00     0.116 C 
BRANCH   4   5
ATOM      5  N   UNL A   1      32.026  23.556  23.816  1.00  0.00    -0.356 N 
ATOM      6  O   UNL A   1      31.570  21.781  25.206  1.00  0.00    -0.275 OA
ATOM      7  C   UNL A   1      32.305  22.346  24.404  1.00  0.00     0.221 C 
ATOM      8  H   UNL A   1      32.644  23.896  23.130  1.00  0.00     0.163 HD
BRANCH   7   9
ATOM      9  C   UNL A   1      33.635  21.765  23.990  1.00  0.00     0.118 C 
BRANCH   9  10
ATOM     10  C   UNL A   1      34.412  21.260  25.197  1.00  0.00     0.120 C 
ATOM     11  C   UNL A   1      35.001  19.872  24.895  1.00  0.00     0.232 C 
ATOM     12  C   UNL A   1      35.648  22.061  25.501  1.00  0.00    -0.011 A 
ATOM     13  O   UNL A   1      34.374  18.866  24.597  1.00  0.00    -0.274 OA
ATOM     14  N   UNL A   1      36.380  19.963  25.017  1.00  0.00    -0.325 N 
ATOM     15  C   UNL A   1      36.769  21.244  25.375  1.00  0.00     0.045 A 
ATOM     16  C   UNL A   1      35.776  23.387  25.870  1.00  0.00     0.007 A 
ATOM     17  H   UNL A   1      37.001  19.214  24.867  1.00  0.00     0.169 HD
ATOM     18  C   UNL A   1      38.049  21.704  25.593  1.00  0.00     0.026 A 
ATOM     19  C   UNL A   1      37.064  23.877  26.101  1.00  0.00     0.000 A 
ATOM     20  C   UNL A   1      38.191  23.044  25.961  1.00  0.00     0.002 A 
ENDBRANCH   9  10
ENDBRANCH   7   9
ENDBRANCH   4   5
ENDBRANCH   3   4
ENDBRANCH   2   3
ENDBRANCH   1   2
BRANCH   1  21
ATOM     21  C   UNL A   1      33.112  27.158  26.405  1.00  0.00     0.021 C 
BRANCH  21  22
ATOM     22  C   UNL A   1      34.179  28.228  26.197  1.00  0.00     0.116 C 
BRANCH  22  23
ATOM     23  N   UNL A   1      33.744  29.541  26.653  1.00  0.00    -0.352 N 
ATOM     24  C   UNL A   1      34.355  30.390  27.543  1.00  0.00     0.251 C 
ATOM     25  H   UNL A   1      32.896  29.864  26.270  1.00  0.00     0.163 HD
ATOM     26  O   UNL A   1      33.766  31.387  27.951  1.00  0.00    -0.269 OA
BRANCH  24  27
ATOM     27  C   UNL A   1      35.718  30.081  28.026  1.00  0.00     0.039 A 
ATOM     28  C   UNL A   1      35.893  29.642  29.341  1.00  0.00     0.014 A 
ATOM     29  C   UNL A   1      36.819  30.206  27.173  1.00  0.00     0.014 A 
ATOM     30  C   UNL A   1      37.165  29.263  29.780  1.00  0.00     0.010 A 
ATOM     31  C   UNL A   1      38.069  29.756  27.589  1.00  0.00     0.010 A 
ATOM     32  C   UNL A   1      38.257  29.283  28.897  1.00  0.00    -0.014 A 
BRANCH  32  33
ATOM     33  C   UNL A   1      39.608  28.823  29.313  1.00  0.00     0.031 A 
ATOM     34  C   UNL A   1      40.528  29.768  30.042  1.00  0.00     0.074 A 
ATOM     35  C   UNL A   1      40.039  27.592  28.967  1.00  0.00     0.049 A 
ATOM     36  N   UNL A   1      41.778  29.597  30.389  1.00  0.00    -0.248 NA
ATOM     37  C   UNL A   1      39.979  31.086  30.408  1.00  0.00     0.031 C 
ATOM     38  C   UNL A   1      39.256  26.593  28.235  1.00  0.00     0.029 A 
ATOM     39  N   UNL A   1      41.249  26.975  29.171  1.00  0.00    -0.354 N 
ATOM     40  C   UNL A   1      42.172  30.790  30.984  1.00  0.00     0.074 A 
ATOM     41  C   UNL A   1      41.043  31.691  30.919  1.00  0.00     0.031 C 
ATOM     42  C   UNL A   1      39.999  25.486  28.069  1.00  0.00     0.029 A 
ATOM     43  C   UNL A   1      41.325  25.711  28.634  1.00  0.00     0.049 A 
ATOM     44  H   UNL A   1      41.994  27.399  29.657  1.00  0.00     0.167 HD
ATOM     45  C   UNL A   1      43.362  31.103  31.546  1.00  0.00     0.031 A 
ATOM     46  C   UNL A   1      42.352  24.838  28.584  1.00  0.00     0.031 A 
ATOM     47  C   UNL A   1      44.475  30.196  31.635  1.00  0.00     0.049 A 
ATOM     48  C   UNL A   1      43.671  25.221  29.205  1.00  0.00     0.074 A 
ATOM     49  C   UNL A   1      45.699  30.398  32.248  1.00  0.00     0.029 A 
ATOM     50  N   UNL A   1      44.502  28.918  31.098  1.00  0.00    -0.354 N 
ATOM     51  N   UNL A   1      43.999  26.329  29.826  1.00  0.00    -0.248 NA
ATOM     52  C   UNL A   1      44.757  24.232  29.128  1.00  0.00     0.031 C 
ATOM     53  C   UNL A   1      46.489  29.268  32.029  1.00  0.00     0.029 A 
ATOM     54  C   UNL A   1      45.731  28.332  31.342  1.00  0.00     0.049 A 
ATOM     55  H   UNL A   1      43.757  28.492  30.614  1.00  0.00     0.167 HD
ATOM     56  C   UNL A   1      45.312  26.149  30.250  1.00  0.00     0.074 A 
ATOM     57  C   UNL A   1      45.715  24.828  29.824  1.00  0.00     0.031 C 
ATOM     58  C   UNL A   1      46.110  27.004  30.935  1.00  0.00     0.031 A 
BRANCH  45  59
ATOM     59  C   UNL A   1      43.540  32.487  32.114  1.00  0.00    -0.014 A 
ATOM     60  C   UNL A   1      43.284  32.757  33.469  1.00  0.00     0.010 A 
ATOM     61  C   UNL A   1      44.064  33.508  31.299  1.00  0.00     0.010 A 
ATOM     62  C   UNL A   1      43.534  34.027  33.996  1.00  0.00     0.020 A 
ATOM     63  C   UNL A   1      44.342  34.771  31.829  1.00  0.00     0.020 A 
ATOM     64  C   UNL A   1      44.067  35.024  33.174  1.00  0.00     0.054 A 
BRANCH  64  65
ATOM     65  S   UNL A   1      44.448  36.640  33.905  1.00  0.00     0.124 S 
ATOM     66  O   UNL A   1      43.774  36.553  35.198  1.00  0.00    -0.237 OA
ATOM     67  O   UNL A   1      45.907  36.631  33.956  1.00  0.00    -0.237 OA
ATOM     68  O   UNL A   1      43.865  37.594  32.963  1.00  0.00    -0.744 OA
ENDBRANCH  64  65
ENDBRANCH  45  59
BRANCH  46  69
ATOM     69  C   UNL A   1      42.191  23.515  27.914  1.00  0.00    -0.014 A 
ATOM     70  C   UNL A   1      41.614  22.431  28.599  1.00  0.00     0.010 A 
ATOM     71  C   UNL A   1      42.655  23.321  26.601  1.00  0.00     0.010 A 
ATOM     72  C   UNL A   1      41.546  21.168  28.001  1.00  0.00     0.020 A 
ATOM     73  C   UNL A   1      42.557  22.069  25.985  1.00  0.00     0.020 A 
ATOM     74  C   UNL A   1      42.024  20.994  26.700  1.00  0.00     0.054 A 
BRANCH  74  75
ATOM     75  S   UNL A   1      41.927  19.348  25.943  1.00  0.00     0.124 S 
ATOM     76  O   UNL A   1      42.795  19.497  24.780  1.00  0.00    -0.237 OA
ATOM     77  O   UNL A   1      42.431  18.482  27.005  1.00  0.00    -0.237 OA
ATOM     78  O   UNL A   1      40.503  19.192  25.647  1.00  0.00    -0.744 OA
ENDBRANCH  74  75
ENDBRANCH  46  69
BRANCH  58  79
ATOM     79  C   UNL A   1      47.480  26.521  31.334  1.00  0.00    -0.014 A 
ATOM     80  C   UNL A   1      47.703  25.861  32.553  1.00  0.00     0.010 A 
ATOM     81  C   UNL A   1      48.547  26.661  30.425  1.00  0.00     0.010 A 
ATOM     82  C   UNL A   1      48.973  25.369  32.868  1.00  0.00     0.020 A 
ATOM     83  C   UNL A   1      49.810  26.143  30.721  1.00  0.00     0.020 A 
ATOM     84  C   UNL A   1      50.017  25.508  31.947  1.00  0.00     0.054 A 
BRANCH  84  85
ATOM     85  S   UNL A   1      51.637  24.803  32.351  1.00  0.00     0.124 S 
ATOM     86  O   UNL A   1      51.811  25.214  33.742  1.00  0.00    -0.237 OA
ATOM     87  O   UNL A   1      51.426  23.372  32.140  1.00  0.00    -0.237 OA
ATOM     88  O   UNL A   1      52.542  25.440  31.397  1.00  0.00    -0.744 OA
ENDBRANCH  84  85
ENDBRANCH  58  79
ENDBRANCH  32  33
ENDBRANCH  24  27
ENDBRANCH  22  23
ENDBRANCH  21  22
ENDBRANCH   1  21
TORSDOF 17
ENDMDL
MODEL 2
REMARK VINA RESULT:     -10.2      2.724      9.312
REMARK SMILES O=C(C[C@H]1C(=O)Nc2ccccc21)NCCCCCCNC(=O)c1ccc(-c2c3nc(c(-c4ccc(S(=O)(=O)[O-])cc4)c4ccc([nH]4)c(-c4ccc(S(=O)(=O)[O-])cc4)c4nc(c(-c5ccc(S(=O)(=O)[O-])cc5)c5ccc2[nH]5)C=C4)C=C3)cc1
REMARK SMILES IDX 18 1 17 2 16 3 15 4 14 5 1 6 2 7 3 9 4 10 5 11 13 12 6 13
REMARK SMILES IDX 7 14 8 15 12 16 9 18 11 19 10 20 19 21 20 22 21 23 22 24
REMARK SMILES IDX 23 26 24 27 25 28 83 29 26 30 82 31 27 32 28 33 29 34 76 35
REMARK SMILES IDX 30 36 81 37 75 38 77 39 31 40 80 41 74 42 73 43 32 45 62 46
REMARK SMILES IDX 43 47 61 48 44 49 47 50 60 51 78 52 45 53 46 54 59 56 79 57
REMARK SMILES IDX 48 58 33 59 34 60 42 61 35 62 41 63 36 64 37 65 38 66 39 67
REMARK SMILES IDX 40 68 63 69 64 70 72 71 65 72 71 73 66 74 67 75 68 76 69 77
REMARK SMILES IDX 70 78 49 79 50 80 58 81 51 82 57 83 52 84 53 85 54 86 55 87
REMARK SMILES IDX 56 88
REMARK H PARENT 14 8 7 17 21 25 77 44 47 55
REMARK Flexibility Score: inf
ROOT
ATOM      1  C   UNL A   1      34.502  24.334  25.715  1.00  0.00     0.002 C 
ENDROOT
BRANCH   1   2
ATOM      2  C   UNL A   1      33.245  23.458  25.716  1.00  0.00     0.002 C 
BRANCH   2   3
ATOM      3  C   UNL A   1      33.219  22.349  24.654  1.00  0.00     0.021 C 
BRANCH   3   4
ATOM      4  C   UNL A   1      32.463  22.712  23.376  1.00  0.00     0.116 C 
BRANCH   4   5
ATOM      5  N   UNL A   1      32.125  24.122  23.364  1.00  0.00    -0.356 N 
ATOM      6  O   UNL A   1      33.246  24.665  21.431  1.00  0.00    -0.275 OA
ATOM      7  C   UNL A   1      32.584  24.995  22.408  1.00  0.00     0.221 C 
ATOM      8  H   UNL A   1      31.540  24.471  24.075  1.00  0.00     0.163 HD
BRANCH   7   9
ATOM      9  C   UNL A   1      32.219  26.434  22.679  1.00  0.00     0.118 C 
BRANCH   9  10
ATOM     10  C   UNL A   1      33.273  27.113  23.542  1.00  0.00     0.120 C 
ATOM     11  C   UNL A   1      33.820  28.354  22.818  1.00  0.00     0.232 C 
ATOM     12  C   UNL A   1      32.726  27.711  24.810  1.00  0.00    -0.011 A 
ATOM     13  O   UNL A   1      34.377  28.374  21.730  1.00  0.00    -0.274 OA
ATOM     14  N   UNL A   1      33.566  29.457  23.620  1.00  0.00    -0.325 N 
ATOM     15  C   UNL A   1      32.926  29.089  24.792  1.00  0.00     0.045 A 
ATOM     16  C   UNL A   1      32.118  27.096  25.889  1.00  0.00     0.007 A 
ATOM     17  H   UNL A   1      33.808  30.382  23.384  1.00  0.00     0.169 HD
ATOM     18  C   UNL A   1      32.525  29.908  25.825  1.00  0.00     0.026 A 
ATOM     19  C   UNL A   1      31.706  27.905  26.951  1.00  0.00     0.000 A 
ATOM     20  C   UNL A   1      31.905  29.299  26.919  1.00  0.00     0.002 A 
ENDBRANCH   9  10
ENDBRANCH   7   9
ENDBRANCH   4   5
ENDBRANCH   3   4
ENDBRANCH   2   3
ENDBRANCH   1   2
BRANCH   1  21
ATOM     21  C   UNL A   1      35.784  23.620  26.146  1.00  0.00     0.021 C 
BRANCH  21  22
ATOM     22  C   UNL A   1      36.958  23.782  25.187  1.00  0.00     0.116 C 
BRANCH  22  23
ATOM     23  N   UNL A   1      38.012  22.807  25.430  1.00  0.00    -0.352 N 
ATOM     24  C   UNL A   1      39.220  22.982  26.062  1.00  0.00     0.251 C 
ATOM     25  H   UNL A   1      37.834  21.898  25.096  1.00  0.00     0.163 HD
ATOM     26  O   UNL A   1      40.068  22.096  26.029  1.00  0.00    -0.269 OA
BRANCH  24  27
ATOM     27  C   UNL A   1      39.498  24.256  26.760  1.00  0.00     0.039 A 
ATOM     28  C   UNL A   1      38.980  24.459  28.042  1.00  0.00     0.014 A 
ATOM     29  C   UNL A   1      40.288  25.238  26.156  1.00  0.00     0.014 A 
ATOM     30  C   UNL A   1      39.312  25.621  28.745  1.00  0.00     0.010 A 
ATOM     31  C   UNL A   1      40.677  26.357  26.887  1.00  0.00     0.010 A 
ATOM     32  C   UNL A   1      40.191  26.563  28.187  1.00  0.00    -0.014 A 
BRANCH  32  33
ATOM     33  C   UNL A   1      40.615  27.776  28.936  1.00  0.00     0.031 A 
ATOM     34  C   UNL A   1      41.931  27.781  29.668  1.00  0.00     0.074 A 
ATOM     35  C   UNL A   1      39.785  28.837  29.027  1.00  0.00     0.049 A 
ATOM     36  N   UNL A   1      42.427  28.692  30.466  1.00  0.00    -0.248 NA
ATOM     37  C   UNL A   1      42.794  26.598  29.502  1.00  0.00     0.031 C 
ATOM     38  C   UNL A   1      38.471  28.945  28.389  1.00  0.00     0.029 A 
ATOM     39  N   UNL A   1      39.919  30.023  29.706  1.00  0.00    -0.354 N 
ATOM     40  C   UNL A   1      43.638  28.182  30.918  1.00  0.00     0.074 A 
ATOM     41  C   UNL A   1      43.789  26.867  30.336  1.00  0.00     0.031 C 
ATOM     42  C   UNL A   1      37.929  30.136  28.692  1.00  0.00     0.029 A 
ATOM     43  C   UNL A   1      38.831  30.857  29.585  1.00  0.00     0.049 A 
ATOM     44  H   UNL A   1      40.720  30.256  30.230  1.00  0.00     0.167 HD
ATOM     45  C   UNL A   1      44.551  28.762  31.731  1.00  0.00     0.031 A 
ATOM     46  C   UNL A   1      38.577  32.057  30.146  1.00  0.00     0.031 A 
ATOM     47  C   UNL A   1      44.412  30.082  32.285  1.00  0.00     0.049 A 
ATOM     48  C   UNL A   1      39.606  32.670  31.062  1.00  0.00     0.074 A 
ATOM     49  C   UNL A   1      45.316  30.783  33.065  1.00  0.00     0.029 A 
ATOM     50  N   UNL A   1      43.305  30.900  32.120  1.00  0.00    -0.354 N 
ATOM     51  N   UNL A   1      40.777  32.200  31.418  1.00  0.00    -0.248 NA
ATOM     52  C   UNL A   1      39.283  33.982  31.643  1.00  0.00     0.031 C 
ATOM     53  C   UNL A   1      44.730  31.999  33.423  1.00  0.00     0.029 A 
ATOM     54  C   UNL A   1      43.492  32.087  32.807  1.00  0.00     0.049 A 
ATOM     55  H   UNL A   1      42.505  30.670  31.594  1.00  0.00     0.167 HD
ATOM     56  C   UNL A   1      41.346  33.179  32.228  1.00  0.00     0.074 A 
ATOM     57  C   UNL A   1      40.397  34.267  32.302  1.00  0.00     0.031 C 
ATOM     58  C   UNL A   1      42.550  33.174  32.851  1.00  0.00     0.031 A 
BRANCH  45  59
ATOM     59  C   UNL A   1      45.788  27.980  32.085  1.00  0.00    -0.014 A 
ATOM     60  C   UNL A   1      46.971  28.111  31.338  1.00  0.00     0.010 A 
ATOM     61  C   UNL A   1      45.794  27.177  33.241  1.00  0.00     0.010 A 
ATOM     62  C   UNL A   1      48.133  27.441  31.730  1.00  0.00     0.020 A 
ATOM     63  C   UNL A   1      46.961  26.528  33.653  1.00  0.00     0.020 A 
ATOM     64  C   UNL A   1      48.122  26.659  32.889  1.00  0.00     0.054 A 
BRANCH  64  65
ATOM     65  S   UNL A   1      49.665  25.860  33.412  1.00  0.00     0.124 S 
ATOM     66  O   UNL A   1      50.470  25.934  32.195  1.00  0.00    -0.237 OA
ATOM     67  O   UNL A   1      50.109  26.713  34.511  1.00  0.00    -0.237 OA
ATOM     68  O   UNL A   1      49.246  24.515  33.799  1.00  0.00    -0.744 OA
ENDBRANCH  64  65
ENDBRANCH  45  59
BRANCH  46  69
ATOM     69  C   UNL A   1      37.293  32.764  29.875  1.00  0.00    -0.014 A 
ATOM     70  C   UNL A   1      36.175  32.564  30.706  1.00  0.00     0.010 A 
ATOM     71  C   UNL A   1      37.167  33.609  28.758  1.00  0.00     0.010 A 
ATOM     72  C   UNL A   1      34.946  33.157  30.399  1.00  0.00     0.020 A 
ATOM     73  C   UNL A   1      35.950  34.233  28.466  1.00  0.00     0.020 A 
ATOM     74  C   UNL A   1      34.840  33.984  29.277  1.00  0.00     0.054 A 
BRANCH  74  75
ATOM     75  S   UNL A   1      33.237  34.743  28.896  1.00  0.00     0.124 S 
ATOM     76  O   UNL A   1      32.673  33.796  27.939  1.00  0.00    -0.237 OA
ATOM     77  O   UNL A   1      32.589  34.784  30.204  1.00  0.00    -0.237 OA
ATOM     78  O   UNL A   1      33.600  36.048  28.347  1.00  0.00    -0.744 OA
ENDBRANCH  74  75
ENDBRANCH  46  69
BRANCH  58  79
ATOM     79  C   UNL A   1      42.951  34.409  33.615  1.00  0.00    -0.014 A 
ATOM     80  C   UNL A   1      42.750  34.516  35.001  1.00  0.00     0.010 A 
ATOM     81  C   UNL A   1      43.619  35.447  32.937  1.00  0.00     0.010 A 
ATOM     82  C   UNL A   1      43.189  35.648  35.693  1.00  0.00     0.020 A 
ATOM     83  C   UNL A   1      44.088  36.565  33.630  1.00  0.00     0.020 A 
ATOM     84  C   UNL A   1      43.860  36.663  35.004  1.00  0.00     0.054 A 
BRANCH  84  85
ATOM     85  S   UNL A   1      44.478  38.090  35.936  1.00  0.00     0.124 S 
ATOM     86  O   UNL A   1      45.916  37.832  35.973  1.00  0.00    -0.237 OA
ATOM     87  O   UNL A   1      44.063  39.219  35.106  1.00  0.00    -0.237 OA
ATOM     88  O   UNL A   1      43.795  37.987  37.224  1.00  0.00    -0.744 OA
ENDBRANCH  84  85
ENDBRANCH  58  79
ENDBRANCH  32  33
ENDBRANCH  24  27
ENDBRANCH  22  23
ENDBRANCH  21  22
ENDBRANCH   1  21
TORSDOF 17
ENDMDL
MODEL 3
REMARK VINA RESULT:     -10.2      1.478      2.433
REMARK SMILES O=C(C[C@H]1C(=O)Nc2ccccc21)NCCCCCCNC(=O)c1ccc(-c2c3nc(c(-c4ccc(S(=O)(=O)[O-])cc4)c4ccc([nH]4)c(-c4ccc(S(=O)(=O)[O-])cc4)c4nc(c(-c5ccc(S(=O)(=O)[O-])cc5)c5ccc2[nH]5)C=C4)C=C3)cc1
REMARK SMILES IDX 18 1 17 2 16 3 15 4 14 5 1 6 2 7 3 9 4 10 5 11 13 12 6 13
REMARK SMILES IDX 7 14 8 15 12 16 9 18 11 19 10 20 19 21 20 22 21 23 22 24
REMARK SMILES IDX 23 26 24 27 25 28 83 29 26 30 82 31 27 32 28 33 29 34 76 35
REMARK SMILES IDX 30 36 81 37 75 38 77 39 31 40 80 41 74 42 73 43 32 45 62 46
REMARK SMILES IDX 43 47 61 48 44 49 47 50 60 51 78 52 45 53 46 54 59 56 79 57
REMARK SMILES IDX 48 58 33 59 34 60 42 61 35 62 41 63 36 64 37 65 38 66 39 67
REMARK SMILES IDX 40 68 63 69 64 70 72 71 65 72 71 73 66 74 67 75 68 76 69 77
REMARK SMILES IDX 70 78 49 79 50 80 58 81 51 82 57 83 52 84 53 85 54 86 55 87
REMARK SMILES IDX 56 88
REMARK H PARENT 14 8 7 17 21 25 77 44 47 55
REMARK Flexibility Score: inf
ROOT
ATOM      1  C   UNL A   1      33.228  29.218  24.490  1.00  0.00     0.002 C 
ENDROOT
BRANCH   1   2
ATOM      2  C   UNL A   1      33.609  28.510  23.186  1.00  0.00     0.002 C 
BRANCH   2   3
ATOM      3  C   UNL A   1      32.664  27.379  22.755  1.00  0.00     0.021 C 
BRANCH   3   4
ATOM      4  C   UNL A   1      33.365  26.067  22.402  1.00  0.00     0.116 C 
BRANCH   4   5
ATOM      5  N   UNL A   1      32.997  25.022  23.337  1.00  0.00    -0.356 N 
ATOM      6  O   UNL A   1      34.007  23.280  22.226  1.00  0.00    -0.275 OA
ATOM      7  C   UNL A   1      33.315  23.699  23.147  1.00  0.00     0.221 C 
ATOM      8  H   UNL A   1      32.493  25.271  24.145  1.00  0.00     0.163 HD
BRANCH   7   9
ATOM      9  C   UNL A   1      32.706  22.778  24.174  1.00  0.00     0.118 C 
BRANCH   9  10
ATOM     10  C   UNL A   1      33.691  21.694  24.592  1.00  0.00     0.120 C 
ATOM     11  C   UNL A   1      33.880  21.721  26.117  1.00  0.00     0.232 C 
ATOM     12  C   UNL A   1      33.186  20.296  24.365  1.00  0.00    -0.011 A 
ATOM     13  O   UNL A   1      34.287  22.661  26.783  1.00  0.00    -0.274 OA
ATOM     14  N   UNL A   1      33.499  20.481  26.611  1.00  0.00    -0.325 N 
ATOM     15  C   UNL A   1      33.094  19.637  25.589  1.00  0.00     0.045 A 
ATOM     16  C   UNL A   1      32.852  19.654  23.188  1.00  0.00     0.007 A 
ATOM     17  H   UNL A   1      33.514  20.234  27.564  1.00  0.00     0.169 HD
ATOM     18  C   UNL A   1      32.656  18.335  25.698  1.00  0.00     0.026 A 
ATOM     19  C   UNL A   1      32.411  18.331  23.271  1.00  0.00     0.000 A 
ATOM     20  C   UNL A   1      32.311  17.678  24.514  1.00  0.00     0.002 A 
ENDBRANCH   9  10
ENDBRANCH   7   9
ENDBRANCH   4   5
ENDBRANCH   3   4
ENDBRANCH   2   3
ENDBRANCH   1   2
BRANCH   1  21
ATOM     21  C   UNL A   1      32.861  28.286  25.646  1.00  0.00     0.021 C 
BRANCH  21  22
ATOM     22  C   UNL A   1      33.638  28.530  26.935  1.00  0.00     0.116 C 
BRANCH  22  23
ATOM     23  N   UNL A   1      33.533  29.909  27.392  1.00  0.00    -0.352 N 
ATOM     24  C   UNL A   1      34.440  30.650  28.111  1.00  0.00     0.251 C 
ATOM     25  H   UNL A   1      32.698  30.373  27.154  1.00  0.00     0.163 HD
ATOM     26  O   UNL A   1      34.121  31.744  28.565  1.00  0.00    -0.269 OA
BRANCH  24  27
ATOM     27  C   UNL A   1      35.794  30.107  28.354  1.00  0.00     0.039 A 
ATOM     28  C   UNL A   1      36.728  30.115  27.315  1.00  0.00     0.014 A 
ATOM     29  C   UNL A   1      36.145  29.611  29.613  1.00  0.00     0.014 A 
ATOM     30  C   UNL A   1      38.037  29.687  27.559  1.00  0.00     0.010 A 
ATOM     31  C   UNL A   1      37.466  29.257  29.872  1.00  0.00     0.010 A 
ATOM     32  C   UNL A   1      38.426  29.289  28.848  1.00  0.00    -0.014 A 
BRANCH  32  33
ATOM     33  C   UNL A   1      39.825  28.891  29.155  1.00  0.00     0.031 A 
ATOM     34  C   UNL A   1      40.775  29.897  29.750  1.00  0.00     0.074 A 
ATOM     35  C   UNL A   1      40.264  27.658  28.825  1.00  0.00     0.049 A 
ATOM     36  N   UNL A   1      42.058  29.782  29.984  1.00  0.00    -0.248 NA
ATOM     37  C   UNL A   1      40.218  31.214  30.106  1.00  0.00     0.031 C 
ATOM     38  C   UNL A   1      39.452  26.601  28.217  1.00  0.00     0.029 A 
ATOM     39  N   UNL A   1      41.509  27.089  28.941  1.00  0.00    -0.354 N 
ATOM     40  C   UNL A   1      42.464  31.014  30.484  1.00  0.00     0.074 A 
ATOM     41  C   UNL A   1      41.303  31.875  30.487  1.00  0.00     0.031 C 
ATOM     42  C   UNL A   1      40.214  25.511  28.031  1.00  0.00     0.029 A 
ATOM     43  C   UNL A   1      41.579  25.803  28.457  1.00  0.00     0.049 A 
ATOM     44  H   UNL A   1      42.280  27.558  29.335  1.00  0.00     0.167 HD
ATOM     45  C   UNL A   1      43.689  31.389  30.916  1.00  0.00     0.031 A 
ATOM     46  C   UNL A   1      42.626  24.960  28.349  1.00  0.00     0.031 A 
ATOM     47  C   UNL A   1      44.836  30.522  30.940  1.00  0.00     0.049 A 
ATOM     48  C   UNL A   1      43.983  25.413  28.824  1.00  0.00     0.074 A 
ATOM     49  C   UNL A   1      46.105  30.790  31.425  1.00  0.00     0.029 A 
ATOM     50  N   UNL A   1      44.858  29.221  30.461  1.00  0.00    -0.354 N 
ATOM     51  N   UNL A   1      44.329  26.559  29.361  1.00  0.00    -0.248 NA
ATOM     52  C   UNL A   1      45.091  24.455  28.689  1.00  0.00     0.031 C 
ATOM     53  C   UNL A   1      46.910  29.675  31.182  1.00  0.00     0.029 A 
ATOM     54  C   UNL A   1      46.124  28.685  30.614  1.00  0.00     0.049 A 
ATOM     55  H   UNL A   1      44.087  28.749  30.070  1.00  0.00     0.167 HD
ATOM     56  C   UNL A   1      45.681  26.440  29.666  1.00  0.00     0.074 A 
ATOM     57  C   UNL A   1      46.089  25.112  29.263  1.00  0.00     0.031 C 
ATOM     58  C   UNL A   1      46.510  27.351  30.233  1.00  0.00     0.031 A 
BRANCH  45  59
ATOM     59  C   UNL A   1      43.871  32.804  31.401  1.00  0.00    -0.014 A 
ATOM     60  C   UNL A   1      44.231  33.836  30.518  1.00  0.00     0.010 A 
ATOM     61  C   UNL A   1      43.583  33.119  32.742  1.00  0.00     0.010 A 
ATOM     62  C   UNL A   1      44.314  35.156  30.970  1.00  0.00     0.020 A 
ATOM     63  C   UNL A   1      43.636  34.441  33.192  1.00  0.00     0.020 A 
ATOM     64  C   UNL A   1      44.009  35.451  32.303  1.00  0.00     0.054 A 
BRANCH  64  65
ATOM     65  S   UNL A   1      44.057  37.182  32.842  1.00  0.00     0.124 S 
ATOM     66  O   UNL A   1      42.961  37.228  33.807  1.00  0.00    -0.237 OA
ATOM     67  O   UNL A   1      45.397  37.303  33.408  1.00  0.00    -0.237 OA
ATOM     68  O   UNL A   1      43.832  37.936  31.610  1.00  0.00    -0.744 OA
ENDBRANCH  64  65
ENDBRANCH  45  59
BRANCH  46  69
ATOM     69  C   UNL A   1      42.450  23.603  27.758  1.00  0.00    -0.014 A 
ATOM     70  C   UNL A   1      42.131  22.502  28.574  1.00  0.00     0.010 A 
ATOM     71  C   UNL A   1      42.643  23.395  26.381  1.00  0.00     0.010 A 
ATOM     72  C   UNL A   1      42.054  21.215  28.032  1.00  0.00     0.020 A 
ATOM     73  C   UNL A   1      42.533  22.116  25.828  1.00  0.00     0.020 A 
ATOM     74  C   UNL A   1      42.262  21.029  26.663  1.00  0.00     0.054 A 
BRANCH  74  75
ATOM     75  S   UNL A   1      42.159  19.351  25.980  1.00  0.00     0.124 S 
ATOM     76  O   UNL A   1      42.674  18.544  27.082  1.00  0.00    -0.237 OA
ATOM     77  O   UNL A   1      40.733  19.210  25.703  1.00  0.00    -0.237 OA
ATOM     78  O   UNL A   1      43.014  19.412  24.796  1.00  0.00    -0.744 OA
ENDBRANCH  74  75
ENDBRANCH  46  69
BRANCH  58  79
ATOM     79  C   UNL A   1      47.927  26.930  30.521  1.00  0.00    -0.014 A 
ATOM     80  C   UNL A   1      48.973  27.197  29.622  1.00  0.00     0.010 A 
ATOM     81  C   UNL A   1      48.224  26.328  31.758  1.00  0.00     0.010 A 
ATOM     82  C   UNL A   1      50.287  26.850  29.944  1.00  0.00     0.020 A 
ATOM     83  C   UNL A   1      49.541  26.009  32.099  1.00  0.00     0.020 A 
ATOM     84  C   UNL A   1      50.564  26.263  31.184  1.00  0.00     0.054 A 
BRANCH  84  85
ATOM     85  S   UNL A   1      52.286  25.883  31.605  1.00  0.00     0.124 S 
ATOM     86  O   UNL A   1      52.960  26.060  30.322  1.00  0.00    -0.237 OA
ATOM     87  O   UNL A   1      52.595  26.885  32.622  1.00  0.00    -0.237 OA
ATOM     88  O   UNL A   1      52.229  24.506  32.093  1.00  0.00    -0.744 OA
ENDBRANCH  84  85
ENDBRANCH  58  79
ENDBRANCH  32  33
ENDBRANCH  24  27
ENDBRANCH  22  23
ENDBRANCH  21  22
ENDBRANCH   1  21
TORSDOF 17
ENDMDL
