MODEL 1
REMARK VINA RESULT:     -12.1      0.000      0.000
REMARK SMILES O=C(NCCCCCCNC(=O)c1ccc(-c2c3nc(c(-c4ccc(S(=O)(=O)[O-])cc4)c4ccc([nH]4)c(-c4ccc(S(=O)(=O)[O-])cc4)c4nc(c(-c5ccc(S(=O)(=O)[O-])cc5)c5ccc2[nH]5)C=C4)C=C3)cc1)C1=Cc2c(ccc(Cl)c2Oc2ccccc2)O[C@H]1C(F)(F)F
REMARK SMILES IDX 7 1 6 2 5 3 4 4 3 5 1 6 2 7 73 9 74 10 90 11 75 12 89 13
REMARK SMILES IDX 76 14 81 15 77 16 79 17 78 18 80 19 91 20 92 21 93 22 94 23
REMARK SMILES IDX 82 24 83 25 84 26 88 27 85 28 87 29 86 30 8 31 9 32 10 33
REMARK SMILES IDX 11 34 12 36 13 37 14 38 72 39 15 40 71 41 16 42 17 43 18 44
REMARK SMILES IDX 65 45 19 46 70 47 64 48 66 49 20 50 69 51 63 52 62 53 21 55
REMARK SMILES IDX 51 56 32 57 50 58 33 59 36 60 49 61 67 62 34 63 35 64 48 66
REMARK SMILES IDX 68 67 37 68 22 69 23 70 31 71 24 72 30 73 25 74 26 75 27 76
REMARK SMILES IDX 28 77 29 78 52 79 53 80 61 81 54 82 60 83 55 84 56 85 57 86
REMARK SMILES IDX 58 87 59 88 38 89 39 90 47 91 40 92 46 93 41 94 42 95 43 96
REMARK SMILES IDX 44 97 45 98
REMARK H PARENT 3 8 10 35 66 54 36 65
REMARK Flexibility Score: inf
ROOT
ATOM      1  C   UNL A   1      33.880  29.062  25.809  1.00  0.00     0.002 C 
ENDROOT
BRANCH   1   2
ATOM      2  C   UNL A   1      32.793  29.377  24.772  1.00  0.00     0.002 C 
BRANCH   2   3
ATOM      3  C   UNL A   1      33.023  28.865  23.347  1.00  0.00     0.021 C 
BRANCH   3   4
ATOM      4  C   UNL A   1      34.020  27.716  23.214  1.00  0.00     0.116 C 
BRANCH   4   5
ATOM      5  N   UNL A   1      33.617  26.705  22.246  1.00  0.00    -0.352 N 
ATOM      6  O   UNL A   1      33.062  24.632  21.538  1.00  0.00    -0.270 OA
ATOM      7  C   UNL A   1      33.293  25.391  22.469  1.00  0.00     0.251 C 
ATOM      8  H   UNL A   1      33.572  27.003  21.309  1.00  0.00     0.163 HD
BRANCH   7   9
ATOM      9  C   UNL A   1      33.245  24.889  23.860  1.00  0.00     0.067 C 
ATOM     10  C   UNL A   1      34.319  24.218  24.287  1.00  0.00     0.029 C 
ATOM     11  C   UNL A   1      31.904  24.707  24.495  1.00  0.00     0.314 C 
ATOM     12  C   UNL A   1      34.061  22.828  24.706  1.00  0.00     0.061 A 
ATOM     13  O   UNL A   1      31.681  23.363  25.002  1.00  0.00    -0.475 OA
ATOM     14  C   UNL A   1      32.731  22.478  25.009  1.00  0.00     0.131 A 
ATOM     15  C   UNL A   1      35.053  21.822  24.622  1.00  0.00     0.156 A 
ATOM     16  C   UNL A   1      32.384  21.148  25.239  1.00  0.00     0.049 A 
ATOM     17  C   UNL A   1      34.672  20.483  24.818  1.00  0.00     0.084 A 
ATOM     18  C   UNL A   1      33.350  20.149  25.130  1.00  0.00     0.028 A 
ATOM     19  Cl  UNL A   1      35.800  19.188  24.616  1.00  0.00    -0.080 Cl
BRANCH  11  20
ATOM     20  C   UNL A   1      31.707  25.727  25.627  1.00  0.00     0.429 C 
ATOM     21  F   UNL A   1      32.879  26.248  26.058  1.00  0.00    -0.167 F 
ATOM     22  F   UNL A   1      30.942  26.768  25.221  1.00  0.00    -0.167 F 
ATOM     23  F   UNL A   1      31.097  25.176  26.706  1.00  0.00    -0.167 F 
ENDBRANCH  11  20
BRANCH  15  24
ATOM     24  O   UNL A   1      36.366  22.010  24.201  1.00  0.00    -0.455 OA
BRANCH  24  25
ATOM     25  C   UNL A   1      37.315  22.389  25.114  1.00  0.00     0.127 A 
ATOM     26  C   UNL A   1      38.315  21.466  25.435  1.00  0.00     0.047 A 
ATOM     27  C   UNL A   1      37.305  23.656  25.698  1.00  0.00     0.047 A 
ATOM     28  C   UNL A   1      39.367  21.848  26.267  1.00  0.00     0.004 A 
ATOM     29  C   UNL A   1      38.353  24.030  26.541  1.00  0.00     0.004 A 
ATOM     30  C   UNL A   1      39.391  23.134  26.810  1.00  0.00     0.000 A 
ENDBRANCH  24  25
ENDBRANCH  15  24
ENDBRANCH   7   9
ENDBRANCH   4   5
ENDBRANCH   3   4
ENDBRANCH   2   3
ENDBRANCH   1   2
BRANCH   1  31
ATOM     31  C   UNL A   1      33.909  29.912  27.084  1.00  0.00     0.021 C 
BRANCH  31  32
ATOM     32  C   UNL A   1      35.281  30.223  27.684  1.00  0.00     0.116 C 
BRANCH  32  33
ATOM     33  N   UNL A   1      35.272  30.342  29.129  1.00  0.00    -0.352 N 
ATOM     34  C   UNL A   1      36.277  30.157  30.048  1.00  0.00     0.251 C 
ATOM     35  H   UNL A   1      34.403  30.595  29.516  1.00  0.00     0.163 HD
ATOM     36  O   UNL A   1      36.007  30.251  31.245  1.00  0.00    -0.269 OA
BRANCH  34  37
ATOM     37  C   UNL A   1      37.667  29.818  29.640  1.00  0.00     0.039 A 
ATOM     38  C   UNL A   1      38.577  29.464  30.644  1.00  0.00     0.014 A 
ATOM     39  C   UNL A   1      38.107  29.897  28.316  1.00  0.00     0.014 A 
ATOM     40  C   UNL A   1      39.898  29.133  30.320  1.00  0.00     0.010 A 
ATOM     41  C   UNL A   1      39.415  29.523  27.986  1.00  0.00     0.010 A 
ATOM     42  C   UNL A   1      40.324  29.134  28.984  1.00  0.00    -0.014 A 
BRANCH  42  43
ATOM     43  C   UNL A   1      41.707  28.727  28.619  1.00  0.00     0.031 A 
ATOM     44  C   UNL A   1      42.825  29.734  28.603  1.00  0.00     0.074 A 
ATOM     45  C   UNL A   1      41.959  27.453  28.262  1.00  0.00     0.049 A 
ATOM     46  N   UNL A   1      44.074  29.574  28.246  1.00  0.00    -0.248 NA
ATOM     47  C   UNL A   1      42.492  31.102  29.030  1.00  0.00     0.031 C 
ATOM     48  C   UNL A   1      40.968  26.375  28.212  1.00  0.00     0.029 A 
ATOM     49  N   UNL A   1      43.126  26.850  27.865  1.00  0.00    -0.354 N 
ATOM     50  C   UNL A   1      44.672  30.821  28.381  1.00  0.00     0.074 A 
ATOM     51  C   UNL A   1      43.642  31.732  28.836  1.00  0.00     0.031 C 
ATOM     52  C   UNL A   1      41.574  25.240  27.826  1.00  0.00     0.029 A 
ATOM     53  C   UNL A   1      42.986  25.514  27.572  1.00  0.00     0.049 A 
ATOM     54  H   UNL A   1      43.984  27.328  27.797  1.00  0.00     0.167 HD
ATOM     55  C   UNL A   1      45.961  31.177  28.159  1.00  0.00     0.031 A 
ATOM     56  C   UNL A   1      43.887  24.609  27.143  1.00  0.00     0.031 A 
ATOM     57  C   UNL A   1      46.997  30.278  27.724  1.00  0.00     0.049 A 
ATOM     58  C   UNL A   1      45.313  25.020  26.923  1.00  0.00     0.074 A 
ATOM     59  C   UNL A   1      48.335  30.552  27.493  1.00  0.00     0.029 A 
ATOM     60  N   UNL A   1      46.816  28.929  27.465  1.00  0.00    -0.354 N 
ATOM     61  N   UNL A   1      45.859  26.203  27.068  1.00  0.00    -0.248 NA
ATOM     62  C   UNL A   1      46.248  23.972  26.488  1.00  0.00     0.031 C 
ATOM     63  C   UNL A   1      48.959  29.369  27.076  1.00  0.00     0.029 A 
ATOM     64  C   UNL A   1      48.015  28.357  27.074  1.00  0.00     0.049 A 
ATOM     65  H   UNL A   1      45.960  28.448  27.547  1.00  0.00     0.167 HD
ATOM     66  C   UNL A   1      47.203  26.040  26.755  1.00  0.00     0.074 A 
ATOM     67  C   UNL A   1      47.391  24.642  26.422  1.00  0.00     0.031 C 
ATOM     68  C   UNL A   1      48.191  26.967  26.744  1.00  0.00     0.031 A 
BRANCH  55  69
ATOM     69  C   UNL A   1      46.316  32.621  28.375  1.00  0.00    -0.014 A 
ATOM     70  C   UNL A   1      46.867  33.053  29.593  1.00  0.00     0.010 A 
ATOM     71  C   UNL A   1      46.106  33.555  27.344  1.00  0.00     0.010 A 
ATOM     72  C   UNL A   1      47.161  34.405  29.795  1.00  0.00     0.020 A 
ATOM     73  C   UNL A   1      46.415  34.904  27.537  1.00  0.00     0.020 A 
ATOM     74  C   UNL A   1      46.920  35.323  28.770  1.00  0.00     0.054 A 
BRANCH  74  75
ATOM     75  S   UNL A   1      47.298  37.076  29.050  1.00  0.00     0.124 S 
ATOM     76  O   UNL A   1      48.685  37.013  29.501  1.00  0.00    -0.237 OA
ATOM     77  O   UNL A   1      47.093  37.669  27.731  1.00  0.00    -0.237 OA
ATOM     78  O   UNL A   1      46.327  37.477  30.065  1.00  0.00    -0.744 OA
ENDBRANCH  74  75
ENDBRANCH  55  69
BRANCH  56  79
ATOM     79  C   UNL A   1      43.458  23.207  26.907  1.00  0.00    -0.014 A 
ATOM     80  C   UNL A   1      43.522  22.655  25.617  1.00  0.00     0.010 A 
ATOM     81  C   UNL A   1      43.016  22.410  27.977  1.00  0.00     0.010 A 
ATOM     82  C   UNL A   1      43.148  21.326  25.398  1.00  0.00     0.020 A 
ATOM     83  C   UNL A   1      42.657  21.077  27.765  1.00  0.00     0.020 A 
ATOM     84  C   UNL A   1      42.719  20.545  26.475  1.00  0.00     0.054 A 
BRANCH  84  85
ATOM     85  S   UNL A   1      42.311  18.799  26.193  1.00  0.00     0.124 S 
ATOM     86  O   UNL A   1      40.916  18.878  25.775  1.00  0.00    -0.237 OA
ATOM     87  O   UNL A   1      43.263  18.409  25.155  1.00  0.00    -0.237 OA
ATOM     88  O   UNL A   1      42.544  18.186  27.498  1.00  0.00    -0.744 OA
ENDBRANCH  84  85
ENDBRANCH  56  79
BRANCH  68  89
ATOM     89  C   UNL A   1      49.571  26.498  26.378  1.00  0.00    -0.014 A 
ATOM     90  C   UNL A   1      50.088  26.715  25.090  1.00  0.00     0.010 A 
ATOM     91  C   UNL A   1      50.374  25.873  27.349  1.00  0.00     0.010 A 
ATOM     92  C   UNL A   1      51.382  26.295  24.769  1.00  0.00     0.020 A 
ATOM     93  C   UNL A   1      51.673  25.465  27.036  1.00  0.00     0.020 A 
ATOM     94  C   UNL A   1      52.166  25.667  25.743  1.00  0.00     0.054 A 
BRANCH  94  95
ATOM     95  S   UNL A   1      53.860  25.169  25.327  1.00  0.00     0.124 S 
ATOM     96  O   UNL A   1      54.004  25.689  23.970  1.00  0.00    -0.237 OA
ATOM     97  O   UNL A   1      54.660  25.843  26.347  1.00  0.00    -0.237 OA
ATOM     98  O   UNL A   1      53.824  23.712  25.437  1.00  0.00    -0.744 OA
ENDBRANCH  94  95
ENDBRANCH  68  89
ENDBRANCH  42  43
ENDBRANCH  34  37
ENDBRANCH  32  33
ENDBRANCH  31  32
ENDBRANCH   1  31
TORSDOF 19
ENDMDL
MODEL 2
REMARK VINA RESULT:     -11.9      2.726      3.405
REMARK SMILES O=C(NCCCCCCNC(=O)c1ccc(-c2c3nc(c(-c4ccc(S(=O)(=O)[O-])cc4)c4ccc([nH]4)c(-c4ccc(S(=O)(=O)[O-])cc4)c4nc(c(-c5ccc(S(=O)(=O)[O-])cc5)c5ccc2[nH]5)C=C4)C=C3)cc1)C1=Cc2c(ccc(Cl)c2Oc2ccccc2)O[C@H]1C(F)(F)F
REMARK SMILES IDX 7 1 6 2 5 3 4 4 3 5 1 6 2 7 73 9 74 10 90 11 75 12 89 13
REMARK SMILES IDX 76 14 81 15 77 16 79 17 78 18 80 19 91 20 92 21 93 22 94 23
REMARK SMILES IDX 82 24 83 25 84 26 88 27 85 28 87 29 86 30 8 31 9 32 10 33
REMARK SMILES IDX 11 34 12 36 13 37 14 38 72 39 15 40 71 41 16 42 17 43 18 44
REMARK SMILES IDX 65 45 19 46 70 47 64 48 66 49 20 50 69 51 63 52 62 53 21 55
REMARK SMILES IDX 51 56 32 57 50 58 33 59 36 60 49 61 67 62 34 63 35 64 48 66
REMARK SMILES IDX 68 67 37 68 22 69 23 70 31 71 24 72 30 73 25 74 26 75 27 76
REMARK SMILES IDX 28 77 29 78 52 79 53 80 61 81 54 82 60 83 55 84 56 85 57 86
REMARK SMILES IDX 58 87 59 88 38 89 39 90 47 91 40 92 46 93 41 94 42 95 43 96
REMARK SMILES IDX 44 97 45 98
REMARK H PARENT 3 8 10 35 66 54 36 65
REMARK Flexibility Score: inf
ROOT
ATOM      1  C   UNL A   1      33.272  29.076  24.654  1.00  0.00     0.002 C 
ENDROOT
BRANCH   1   2
ATOM      2  C   UNL A   1      33.823  29.111  23.222  1.00  0.00     0.002 C 
BRANCH   2   3
ATOM      3  C   UNL A   1      33.920  27.773  22.481  1.00  0.00     0.021 C 
BRANCH   3   4
ATOM      4  C   UNL A   1      32.589  27.162  22.051  1.00  0.00     0.116 C 
BRANCH   4   5
ATOM      5  N   UNL A   1      32.735  25.969  21.229  1.00  0.00    -0.352 N 
ATOM      6  O   UNL A   1      33.074  23.771  20.824  1.00  0.00    -0.270 OA
ATOM      7  C   UNL A   1      32.865  24.665  21.633  1.00  0.00     0.251 C 
ATOM      8  H   UNL A   1      32.741  26.117  20.256  1.00  0.00     0.163 HD
BRANCH   7   9
ATOM      9  C   UNL A   1      32.771  24.347  23.075  1.00  0.00     0.067 C 
ATOM     10  C   UNL A   1      33.873  23.855  23.649  1.00  0.00     0.029 C 
ATOM     11  C   UNL A   1      31.414  24.108  23.655  1.00  0.00     0.314 C 
ATOM     12  C   UNL A   1      33.725  22.512  24.240  1.00  0.00     0.061 A 
ATOM     13  O   UNL A   1      31.288  22.826  24.329  1.00  0.00    -0.475 OA
ATOM     14  C   UNL A   1      32.417  22.066  24.515  1.00  0.00     0.131 A 
ATOM     15  C   UNL A   1      34.813  21.615  24.349  1.00  0.00     0.156 A 
ATOM     16  C   UNL A   1      32.186  20.748  24.905  1.00  0.00     0.049 A 
ATOM     17  C   UNL A   1      34.552  20.280  24.706  1.00  0.00     0.084 A 
ATOM     18  C   UNL A   1      33.251  19.852  24.988  1.00  0.00     0.028 A 
ATOM     19  Cl  UNL A   1      35.811  19.096  24.745  1.00  0.00    -0.080 Cl
BRANCH  11  20
ATOM     20  C   UNL A   1      31.041  25.241  24.624  1.00  0.00     0.429 C 
ATOM     21  F   UNL A   1      30.207  26.145  24.059  1.00  0.00    -0.167 F 
ATOM     22  F   UNL A   1      30.409  24.759  25.721  1.00  0.00    -0.167 F 
ATOM     23  F   UNL A   1      32.132  25.921  25.054  1.00  0.00    -0.167 F 
ENDBRANCH  11  20
BRANCH  15  24
ATOM     24  O   UNL A   1      36.127  21.884  23.979  1.00  0.00    -0.455 OA
BRANCH  24  25
ATOM     25  C   UNL A   1      37.006  22.355  24.919  1.00  0.00     0.127 A 
ATOM     26  C   UNL A   1      38.050  21.514  25.314  1.00  0.00     0.047 A 
ATOM     27  C   UNL A   1      36.882  23.636  25.458  1.00  0.00     0.047 A 
ATOM     28  C   UNL A   1      39.034  21.994  26.178  1.00  0.00     0.004 A 
ATOM     29  C   UNL A   1      37.863  24.107  26.334  1.00  0.00     0.004 A 
ATOM     30  C   UNL A   1      38.946  23.294  26.677  1.00  0.00     0.000 A 
ENDBRANCH  24  25
ENDBRANCH  15  24
ENDBRANCH   7   9
ENDBRANCH   4   5
ENDBRANCH   3   4
ENDBRANCH   2   3
ENDBRANCH   1   2
BRANCH   1  31
ATOM     31  C   UNL A   1      33.875  28.050  25.620  1.00  0.00     0.021 C 
BRANCH  31  32
ATOM     32  C   UNL A   1      33.688  28.305  27.116  1.00  0.00     0.116 C 
BRANCH  32  33
ATOM     33  N   UNL A   1      33.569  29.710  27.456  1.00  0.00    -0.352 N 
ATOM     34  C   UNL A   1      34.473  30.569  28.035  1.00  0.00     0.251 C 
ATOM     35  H   UNL A   1      32.698  30.114  27.238  1.00  0.00     0.163 HD
ATOM     36  O   UNL A   1      34.114  31.718  28.290  1.00  0.00    -0.269 OA
BRANCH  34  37
ATOM     37  C   UNL A   1      35.853  30.143  28.387  1.00  0.00     0.039 A 
ATOM     38  C   UNL A   1      36.841  30.235  27.397  1.00  0.00     0.014 A 
ATOM     39  C   UNL A   1      36.184  29.605  29.634  1.00  0.00     0.014 A 
ATOM     40  C   UNL A   1      38.158  29.850  27.672  1.00  0.00     0.010 A 
ATOM     41  C   UNL A   1      37.510  29.262  29.923  1.00  0.00     0.010 A 
ATOM     42  C   UNL A   1      38.512  29.384  28.947  1.00  0.00    -0.014 A 
BRANCH  42  43
ATOM     43  C   UNL A   1      39.919  29.028  29.270  1.00  0.00     0.031 A 
ATOM     44  C   UNL A   1      40.822  30.015  29.961  1.00  0.00     0.074 A 
ATOM     45  C   UNL A   1      40.407  27.825  28.908  1.00  0.00     0.049 A 
ATOM     46  N   UNL A   1      42.092  29.903  30.258  1.00  0.00    -0.248 NA
ATOM     47  C   UNL A   1      40.222  31.299  30.355  1.00  0.00     0.031 C 
ATOM     48  C   UNL A   1      39.653  26.779  28.215  1.00  0.00     0.029 A 
ATOM     49  N   UNL A   1      41.658  27.283  29.068  1.00  0.00    -0.354 N 
ATOM     50  C   UNL A   1      42.452  31.106  30.852  1.00  0.00     0.074 A 
ATOM     51  C   UNL A   1      41.269  31.942  30.855  1.00  0.00     0.031 C 
ATOM     52  C   UNL A   1      40.451  25.715  28.025  1.00  0.00     0.029 A 
ATOM     53  C   UNL A   1      41.780  26.014  28.555  1.00  0.00     0.049 A 
ATOM     54  H   UNL A   1      42.400  27.759  29.508  1.00  0.00     0.167 HD
ATOM     55  C   UNL A   1      43.651  31.482  31.359  1.00  0.00     0.031 A 
ATOM     56  C   UNL A   1      42.838  25.182  28.510  1.00  0.00     0.031 A 
ATOM     57  C   UNL A   1      44.829  30.655  31.378  1.00  0.00     0.049 A 
ATOM     58  C   UNL A   1      44.151  25.610  29.096  1.00  0.00     0.074 A 
ATOM     59  C   UNL A   1      46.081  30.950  31.889  1.00  0.00     0.029 A 
ATOM     60  N   UNL A   1      44.898  29.367  30.872  1.00  0.00    -0.354 N 
ATOM     61  N   UNL A   1      44.465  26.749  29.663  1.00  0.00    -0.248 NA
ATOM     62  C   UNL A   1      45.252  24.636  29.042  1.00  0.00     0.031 C 
ATOM     63  C   UNL A   1      46.915  29.845  31.676  1.00  0.00     0.029 A 
ATOM     64  C   UNL A   1      46.172  28.854  31.056  1.00  0.00     0.049 A 
ATOM     65  H   UNL A   1      44.152  28.887  30.445  1.00  0.00     0.167 HD
ATOM     66  C   UNL A   1      45.796  26.626  30.045  1.00  0.00     0.074 A 
ATOM     67  C   UNL A   1      46.226  25.298  29.655  1.00  0.00     0.031 C 
ATOM     68  C   UNL A   1      46.589  27.534  30.664  1.00  0.00     0.031 A 
BRANCH  55  69
ATOM     69  C   UNL A   1      43.746  32.869  31.928  1.00  0.00    -0.014 A 
ATOM     70  C   UNL A   1      43.522  33.103  33.296  1.00  0.00     0.010 A 
ATOM     71  C   UNL A   1      44.074  33.949  31.088  1.00  0.00     0.010 A 
ATOM     72  C   UNL A   1      43.579  34.403  33.808  1.00  0.00     0.020 A 
ATOM     73  C   UNL A   1      44.149  35.247  31.601  1.00  0.00     0.020 A 
ATOM     74  C   UNL A   1      43.879  35.468  32.953  1.00  0.00     0.054 A 
BRANCH  74  75
ATOM     75  S   UNL A   1      43.940  37.150  33.630  1.00  0.00     0.124 S 
ATOM     76  O   UNL A   1      42.603  37.291  34.201  1.00  0.00    -0.237 OA
ATOM     77  O   UNL A   1      45.031  37.074  34.599  1.00  0.00    -0.237 OA
ATOM     78  O   UNL A   1      44.210  37.981  32.459  1.00  0.00    -0.744 OA
ENDBRANCH  74  75
ENDBRANCH  55  69
BRANCH  56  79
ATOM     79  C   UNL A   1      42.685  23.839  27.893  1.00  0.00    -0.014 A 
ATOM     80  C   UNL A   1      42.949  23.655  26.525  1.00  0.00     0.010 A 
ATOM     81  C   UNL A   1      42.308  22.735  28.678  1.00  0.00     0.010 A 
ATOM     82  C   UNL A   1      42.837  22.387  25.949  1.00  0.00     0.020 A 
ATOM     83  C   UNL A   1      42.210  21.463  28.108  1.00  0.00     0.020 A 
ATOM     84  C   UNL A   1      42.469  21.298  26.745  1.00  0.00     0.054 A 
BRANCH  84  85
ATOM     85  S   UNL A   1      42.402  19.644  26.003  1.00  0.00     0.124 S 
ATOM     86  O   UNL A   1      40.996  19.537  25.629  1.00  0.00    -0.237 OA
ATOM     87  O   UNL A   1      43.347  19.749  24.894  1.00  0.00    -0.237 OA
ATOM     88  O   UNL A   1      42.832  18.771  27.093  1.00  0.00    -0.744 OA
ENDBRANCH  84  85
ENDBRANCH  56  79
BRANCH  68  89
ATOM     89  C   UNL A   1      47.998  27.117  30.975  1.00  0.00    -0.014 A 
ATOM     90  C   UNL A   1      48.309  26.473  32.185  1.00  0.00     0.010 A 
ATOM     91  C   UNL A   1      49.014  27.333  30.027  1.00  0.00     0.010 A 
ATOM     92  C   UNL A   1      49.621  26.069  32.452  1.00  0.00     0.020 A 
ATOM     93  C   UNL A   1      50.323  26.917  30.285  1.00  0.00     0.020 A 
ATOM     94  C   UNL A   1      50.621  26.299  31.502  1.00  0.00     0.054 A 
BRANCH  94  95
ATOM     95  S   UNL A   1      52.310  25.728  31.842  1.00  0.00     0.124 S 
ATOM     96  O   UNL A   1      52.677  26.542  32.998  1.00  0.00    -0.237 OA
ATOM     97  O   UNL A   1      52.126  24.304  32.110  1.00  0.00    -0.237 OA
ATOM     98  O   UNL A   1      53.030  26.034  30.608  1.00  0.00    -0.744 OA
ENDBRANCH  94  95
ENDBRANCH  68  89
ENDBRANCH  42  43
ENDBRANCH  34  37
ENDBRANCH  32  33
ENDBRANCH  31  32
ENDBRANCH   1  31
TORSDOF 19
ENDMDL
MODEL 3
REMARK VINA RESULT:     -11.7      0.493      7.864
REMARK SMILES O=C(NCCCCCCNC(=O)c1ccc(-c2c3nc(c(-c4ccc(S(=O)(=O)[O-])cc4)c4ccc([nH]4)c(-c4ccc(S(=O)(=O)[O-])cc4)c4nc(c(-c5ccc(S(=O)(=O)[O-])cc5)c5ccc2[nH]5)C=C4)C=C3)cc1)C1=Cc2c(ccc(Cl)c2Oc2ccccc2)O[C@H]1C(F)(F)F
REMARK SMILES IDX 7 1 6 2 5 3 4 4 3 5 1 6 2 7 73 9 74 10 90 11 75 12 89 13
REMARK SMILES IDX 76 14 81 15 77 16 79 17 78 18 80 19 91 20 92 21 93 22 94 23
REMARK SMILES IDX 82 24 83 25 84 26 88 27 85 28 87 29 86 30 8 31 9 32 10 33
REMARK SMILES IDX 11 34 12 36 13 37 14 38 72 39 15 40 71 41 16 42 17 43 18 44
REMARK SMILES IDX 65 45 19 46 70 47 64 48 66 49 20 50 69 51 63 52 62 53 21 55
REMARK SMILES IDX 51 56 32 57 50 58 33 59 36 60 49 61 67 62 34 63 35 64 48 66
REMARK SMILES IDX 68 67 37 68 22 69 23 70 31 71 24 72 30 73 25 74 26 75 27 76
REMARK SMILES IDX 28 77 29 78 52 79 53 80 61 81 54 82 60 83 55 84 56 85 57 86
REMARK SMILES IDX 58 87 59 88 38 89 39 90 47 91 40 92 46 93 41 94 42 95 43 96
REMARK SMILES IDX 44 97 45 98
REMARK H PARENT 3 8 10 35 66 54 36 65
REMARK Flexibility Score: inf
ROOT
ATOM      1  C   UNL A   1      33.566  28.901  25.994  1.00  0.00     0.002 C 
ENDROOT
BRANCH   1   2
ATOM      2  C   UNL A   1      32.666  29.395  24.854  1.00  0.00     0.002 C 
BRANCH   2   3
ATOM      3  C   UNL A   1      32.921  28.806  23.463  1.00  0.00     0.021 C 
BRANCH   3   4
ATOM      4  C   UNL A   1      33.909  27.644  23.412  1.00  0.00     0.116 C 
BRANCH   4   5
ATOM      5  N   UNL A   1      33.557  26.622  22.435  1.00  0.00    -0.352 N 
ATOM      6  O   UNL A   1      33.132  24.527  21.703  1.00  0.00    -0.270 OA
ATOM      7  C   UNL A   1      33.330  25.286  22.642  1.00  0.00     0.251 C 
ATOM      8  H   UNL A   1      33.470  26.932  21.505  1.00  0.00     0.163 HD
BRANCH   7   9
ATOM      9  C   UNL A   1      33.349  24.760  24.024  1.00  0.00     0.067 C 
ATOM     10  C   UNL A   1      34.459  24.118  24.402  1.00  0.00     0.029 C 
ATOM     11  C   UNL A   1      32.039  24.521  24.703  1.00  0.00     0.314 C 
ATOM     12  C   UNL A   1      34.264  22.714  24.805  1.00  0.00     0.061 A 
ATOM     13  O   UNL A   1      31.878  23.162  25.194  1.00  0.00    -0.475 OA
ATOM     14  C   UNL A   1      32.957  22.314  25.149  1.00  0.00     0.131 A 
ATOM     15  C   UNL A   1      35.285  21.744  24.668  1.00  0.00     0.156 A 
ATOM     16  C   UNL A   1      32.663  20.969  25.366  1.00  0.00     0.049 A 
ATOM     17  C   UNL A   1      34.956  20.389  24.854  1.00  0.00     0.084 A 
ATOM     18  C   UNL A   1      33.658  20.006  25.207  1.00  0.00     0.028 A 
ATOM     19  Cl  UNL A   1      36.118  19.136  24.589  1.00  0.00    -0.080 Cl
BRANCH  11  20
ATOM     20  C   UNL A   1      31.848  25.515  25.860  1.00  0.00     0.429 C 
ATOM     21  F   UNL A   1      33.026  25.997  26.321  1.00  0.00    -0.167 F 
ATOM     22  F   UNL A   1      31.114  26.585  25.471  1.00  0.00    -0.167 F 
ATOM     23  F   UNL A   1      31.210  24.950  26.914  1.00  0.00    -0.167 F 
ENDBRANCH  11  20
BRANCH  15  24
ATOM     24  O   UNL A   1      36.574  21.983  24.204  1.00  0.00    -0.455 OA
BRANCH  24  25
ATOM     25  C   UNL A   1      37.545  22.372  25.091  1.00  0.00     0.127 A 
ATOM     26  C   UNL A   1      37.509  23.689  25.558  1.00  0.00     0.047 A 
ATOM     27  C   UNL A   1      38.531  21.488  25.530  1.00  0.00     0.047 A 
ATOM     28  C   UNL A   1      38.403  24.094  26.548  1.00  0.00     0.004 A 
ATOM     29  C   UNL A   1      39.433  21.903  26.513  1.00  0.00     0.004 A 
ATOM     30  C   UNL A   1      39.357  23.198  27.033  1.00  0.00     0.000 A 
ENDBRANCH  24  25
ENDBRANCH  15  24
ENDBRANCH   7   9
ENDBRANCH   4   5
ENDBRANCH   3   4
ENDBRANCH   2   3
ENDBRANCH   1   2
BRANCH   1  31
ATOM     31  C   UNL A   1      34.117  29.950  26.967  1.00  0.00     0.021 C 
BRANCH  31  32
ATOM     32  C   UNL A   1      35.437  29.627  27.667  1.00  0.00     0.116 C 
BRANCH  32  33
ATOM     33  N   UNL A   1      35.460  30.001  29.068  1.00  0.00    -0.352 N 
ATOM     34  C   UNL A   1      36.494  30.014  29.974  1.00  0.00     0.251 C 
ATOM     35  H   UNL A   1      34.592  30.292  29.431  1.00  0.00     0.163 HD
ATOM     36  O   UNL A   1      36.250  30.311  31.143  1.00  0.00    -0.269 OA
BRANCH  34  37
ATOM     37  C   UNL A   1      37.884  29.652  29.590  1.00  0.00     0.039 A 
ATOM     38  C   UNL A   1      38.236  29.742  28.236  1.00  0.00     0.014 A 
ATOM     39  C   UNL A   1      38.822  29.174  30.509  1.00  0.00     0.014 A 
ATOM     40  C   UNL A   1      39.529  29.415  27.816  1.00  0.00     0.010 A 
ATOM     41  C   UNL A   1      40.130  28.890  30.096  1.00  0.00     0.010 A 
ATOM     42  C   UNL A   1      40.498  29.011  28.747  1.00  0.00    -0.014 A 
BRANCH  42  43
ATOM     43  C   UNL A   1      41.894  28.718  28.323  1.00  0.00     0.031 A 
ATOM     44  C   UNL A   1      42.296  27.328  27.910  1.00  0.00     0.074 A 
ATOM     45  C   UNL A   1      42.820  29.697  28.345  1.00  0.00     0.049 A 
ATOM     46  N   UNL A   1      43.479  26.877  27.578  1.00  0.00    -0.248 NA
ATOM     47  C   UNL A   1      41.233  26.311  27.880  1.00  0.00     0.031 C 
ATOM     48  C   UNL A   1      42.577  31.085  28.742  1.00  0.00     0.029 A 
ATOM     49  N   UNL A   1      44.156  29.670  28.031  1.00  0.00    -0.354 N 
ATOM     50  C   UNL A   1      43.311  25.521  27.322  1.00  0.00     0.074 A 
ATOM     51  C   UNL A   1      41.914  25.220  27.557  1.00  0.00     0.031 C 
ATOM     52  C   UNL A   1      43.722  31.780  28.631  1.00  0.00     0.029 A 
ATOM     53  C   UNL A   1      44.784  30.883  28.184  1.00  0.00     0.049 A 
ATOM     54  H   UNL A   1      44.622  28.858  27.725  1.00  0.00     0.167 HD
ATOM     55  C   UNL A   1      44.229  24.609  26.919  1.00  0.00     0.031 A 
ATOM     56  C   UNL A   1      46.069  31.237  27.992  1.00  0.00     0.031 A 
ATOM     57  C   UNL A   1      45.616  24.899  26.665  1.00  0.00     0.049 A 
ATOM     58  C   UNL A   1      47.065  30.217  27.526  1.00  0.00     0.074 A 
ATOM     59  C   UNL A   1      46.612  24.038  26.236  1.00  0.00     0.029 A 
ATOM     60  N   UNL A   1      46.202  26.146  26.808  1.00  0.00    -0.354 N 
ATOM     61  N   UNL A   1      46.881  28.943  27.280  1.00  0.00    -0.248 NA
ATOM     62  C   UNL A   1      48.442  30.684  27.305  1.00  0.00     0.031 C 
ATOM     63  C   UNL A   1      47.806  24.762  26.136  1.00  0.00     0.029 A 
ATOM     64  C   UNL A   1      47.546  26.079  26.478  1.00  0.00     0.049 A 
ATOM     65  H   UNL A   1      45.733  26.961  27.101  1.00  0.00     0.167 HD
ATOM     66  C   UNL A   1      48.116  28.457  26.862  1.00  0.00     0.074 A 
ATOM     67  C   UNL A   1      49.036  29.576  26.879  1.00  0.00     0.031 C 
ATOM     68  C   UNL A   1      48.453  27.196  26.498  1.00  0.00     0.031 A 
BRANCH  55  69
ATOM     69  C   UNL A   1      43.753  23.195  26.740  1.00  0.00    -0.014 A 
ATOM     70  C   UNL A   1      43.132  22.506  27.795  1.00  0.00     0.010 A 
ATOM     71  C   UNL A   1      43.918  22.554  25.499  1.00  0.00     0.010 A 
ATOM     72  C   UNL A   1      42.724  21.179  27.628  1.00  0.00     0.020 A 
ATOM     73  C   UNL A   1      43.495  21.233  25.323  1.00  0.00     0.020 A 
ATOM     74  C   UNL A   1      42.921  20.547  26.397  1.00  0.00     0.054 A 
BRANCH  74  75
ATOM     75  S   UNL A   1      42.395  18.822  26.197  1.00  0.00     0.124 S 
ATOM     76  O   UNL A   1      41.016  18.982  25.743  1.00  0.00    -0.237 OA
ATOM     77  O   UNL A   1      43.329  18.310  25.197  1.00  0.00    -0.237 OA
ATOM     78  O   UNL A   1      42.553  18.259  27.536  1.00  0.00    -0.744 OA
ENDBRANCH  74  75
ENDBRANCH  55  69
BRANCH  56  79
ATOM     79  C   UNL A   1      46.482  32.644  28.231  1.00  0.00    -0.014 A 
ATOM     80  C   UNL A   1      46.991  33.030  29.482  1.00  0.00     0.010 A 
ATOM     81  C   UNL A   1      46.397  33.594  27.197  1.00  0.00     0.010 A 
ATOM     82  C   UNL A   1      47.409  34.346  29.698  1.00  0.00     0.020 A 
ATOM     83  C   UNL A   1      46.829  34.906  27.406  1.00  0.00     0.020 A 
ATOM     84  C   UNL A   1      47.326  35.276  28.658  1.00  0.00     0.054 A 
BRANCH  84  85
ATOM     85  S   UNL A   1      47.944  36.960  28.928  1.00  0.00     0.124 S 
ATOM     86  O   UNL A   1      47.017  37.754  28.129  1.00  0.00    -0.237 OA
ATOM     87  O   UNL A   1      47.830  37.118  30.375  1.00  0.00    -0.237 OA
ATOM     88  O   UNL A   1      49.315  36.898  28.424  1.00  0.00    -0.744 OA
ENDBRANCH  84  85
ENDBRANCH  56  79
BRANCH  68  89
ATOM     89  C   UNL A   1      49.873  26.961  26.070  1.00  0.00    -0.014 A 
ATOM     90  C   UNL A   1      50.845  26.543  26.995  1.00  0.00     0.010 A 
ATOM     91  C   UNL A   1      50.228  27.116  24.718  1.00  0.00     0.010 A 
ATOM     92  C   UNL A   1      52.158  26.304  26.578  1.00  0.00     0.020 A 
ATOM     93  C   UNL A   1      51.536  26.864  24.296  1.00  0.00     0.020 A 
ATOM     94  C   UNL A   1      52.497  26.471  25.232  1.00  0.00     0.054 A 
BRANCH  94  95
ATOM     95  S   UNL A   1      54.193  26.113  24.697  1.00  0.00     0.124 S 
ATOM     96  O   UNL A   1      54.975  26.991  25.563  1.00  0.00    -0.237 OA
ATOM     97  O   UNL A   1      54.327  24.684  24.968  1.00  0.00    -0.237 OA
ATOM     98  O   UNL A   1      54.189  26.473  23.281  1.00  0.00    -0.744 OA
ENDBRANCH  94  95
ENDBRANCH  68  89
ENDBRANCH  42  43
ENDBRANCH  34  37
ENDBRANCH  32  33
ENDBRANCH  31  32
ENDBRANCH   1  31
TORSDOF 19
ENDMDL
