MODEL 1
REMARK VINA RESULT:     -11.0      0.000      0.000
REMARK SMILES Cc1cc(Br)c2ncc(C(=O)NCCCCCCNC(=O)c3ccc(-c4c5nc(c(-c6ccc(S(=O)(=O)[O-])cc6)c6ccc([nH]6)c(-c6ccc(S(=O)(=O)[O-])cc6)c6nc(c(-c7ccc(S(=O)(=O)[O-])cc7)c7ccc4[nH]7)C=C6)C=C5)cc3)c(N)c2c1
REMARK SMILES IDX 16 1 15 2 14 3 13 4 12 5 10 6 11 7 9 9 1 10 2 11 3 12 85 13
REMARK SMILES IDX 4 14 84 15 5 16 6 17 82 18 7 19 8 20 83 21 17 24 18 25 19 26
REMARK SMILES IDX 20 27 21 29 22 30 23 31 81 32 24 33 80 34 25 35 26 36 27 37
REMARK SMILES IDX 74 38 28 39 79 40 73 41 75 42 29 43 78 44 72 45 71 46 30 48
REMARK SMILES IDX 60 49 41 50 59 51 42 52 45 53 58 54 76 55 43 56 44 57 57 59
REMARK SMILES IDX 77 60 46 61 31 62 32 63 40 64 33 65 39 66 34 67 35 68 36 69
REMARK SMILES IDX 37 70 38 71 61 72 62 73 70 74 63 75 69 76 64 77 65 78 66 79
REMARK SMILES IDX 67 80 68 81 47 82 48 83 56 84 49 85 55 86 50 87 51 88 52 89
REMARK SMILES IDX 53 90 54 91
REMARK H PARENT 12 8 83 22 83 23 19 28 75 47 45 58
REMARK Flexibility Score: inf
ROOT
ATOM      1  C   UNL A   1      35.124  22.801  24.065  1.00  0.00     0.002 C 
ENDROOT
BRANCH   1   2
ATOM      2  C   UNL A   1      33.805  22.139  23.645  1.00  0.00     0.002 C 
BRANCH   2   3
ATOM      3  C   UNL A   1      32.543  22.772  24.253  1.00  0.00     0.021 C 
BRANCH   3   4
ATOM      4  C   UNL A   1      31.568  23.302  23.198  1.00  0.00     0.116 C 
BRANCH   4   5
ATOM      5  N   UNL A   1      32.310  23.998  22.163  1.00  0.00    -0.352 N 
ATOM      6  C   UNL A   1      32.811  25.267  22.034  1.00  0.00     0.254 C 
ATOM      7  O   UNL A   1      33.303  25.537  20.933  1.00  0.00    -0.269 OA
ATOM      8  H   UNL A   1      32.497  23.432  21.380  1.00  0.00     0.163 HD
BRANCH   6   9
ATOM      9  C   UNL A   1      32.840  26.292  23.120  1.00  0.00     0.081 A 
ATOM     10  C   UNL A   1      30.237  31.606  25.237  1.00  0.00     0.044 C 
ATOM     11  C   UNL A   1      31.206  30.463  25.185  1.00  0.00    -0.049 A 
ATOM     12  C   UNL A   1      32.239  30.369  26.108  1.00  0.00     0.021 A 
ATOM     13  C   UNL A   1      31.114  29.486  24.188  1.00  0.00     0.016 A 
ATOM     14  C   UNL A   1      33.112  29.277  26.068  1.00  0.00     0.044 A 
ATOM     15  C   UNL A   1      31.990  28.370  24.133  1.00  0.00     0.025 A 
ATOM     16  Br  UNL A   1      34.501  29.239  27.376  1.00  0.00    -0.048 Br
ATOM     17  C   UNL A   1      32.993  28.250  25.120  1.00  0.00     0.086 A 
ATOM     18  C   UNL A   1      31.907  27.357  23.127  1.00  0.00     0.055 A 
ATOM     19  N   UNL A   1      33.804  27.174  25.159  1.00  0.00    -0.254 NA
ATOM     20  C   UNL A   1      33.694  26.225  24.200  1.00  0.00     0.127 A 
BRANCH  18  21
ATOM     21  N   UNL A   1      30.983  27.497  22.070  1.00  0.00    -0.397 N 
ATOM     22  H   UNL A   1      30.851  28.374  21.643  1.00  0.00     0.156 HD
ATOM     23  H   UNL A   1      30.469  26.716  21.758  1.00  0.00     0.156 HD
ENDBRANCH  18  21
ENDBRANCH   6   9
ENDBRANCH   4   5
ENDBRANCH   3   4
ENDBRANCH   2   3
ENDBRANCH   1   2
BRANCH   1  24
ATOM     24  C   UNL A   1      35.240  23.107  25.560  1.00  0.00     0.021 C 
BRANCH  24  25
ATOM     25  C   UNL A   1      36.575  23.729  25.958  1.00  0.00     0.116 C 
BRANCH  25  26
ATOM     26  N   UNL A   1      37.618  22.720  26.044  1.00  0.00    -0.352 N 
ATOM     27  C   UNL A   1      38.948  22.899  26.339  1.00  0.00     0.251 C 
ATOM     28  H   UNL A   1      37.338  21.793  25.869  1.00  0.00     0.163 HD
ATOM     29  O   UNL A   1      39.762  22.013  26.119  1.00  0.00    -0.269 OA
BRANCH  27  30
ATOM     30  C   UNL A   1      39.377  24.183  26.926  1.00  0.00     0.039 A 
ATOM     31  C   UNL A   1      40.066  25.103  26.135  1.00  0.00     0.014 A 
ATOM     32  C   UNL A   1      39.086  24.467  28.264  1.00  0.00     0.014 A 
ATOM     33  C   UNL A   1      40.441  26.331  26.681  1.00  0.00     0.010 A 
ATOM     34  C   UNL A   1      39.416  25.709  28.793  1.00  0.00     0.010 A 
ATOM     35  C   UNL A   1      40.110  26.643  28.010  1.00  0.00    -0.014 A 
BRANCH  35  36
ATOM     36  C   UNL A   1      40.544  27.918  28.626  1.00  0.00     0.031 A 
ATOM     37  C   UNL A   1      41.954  28.047  29.128  1.00  0.00     0.074 A 
ATOM     38  C   UNL A   1      39.671  28.933  28.769  1.00  0.00     0.049 A 
ATOM     39  N   UNL A   1      42.518  29.051  29.746  1.00  0.00    -0.248 NA
ATOM     40  C   UNL A   1      42.843  26.889  28.923  1.00  0.00     0.031 C 
ATOM     41  C   UNL A   1      38.275  28.918  28.331  1.00  0.00     0.029 A 
ATOM     42  N   UNL A   1      39.833  30.176  29.327  1.00  0.00    -0.354 N 
ATOM     43  C   UNL A   1      43.821  28.647  30.007  1.00  0.00     0.074 A 
ATOM     44  C   UNL A   1      43.955  27.292  29.522  1.00  0.00     0.031 C 
ATOM     45  C   UNL A   1      37.714  30.104  28.619  1.00  0.00     0.029 A 
ATOM     46  C   UNL A   1      38.699  30.951  29.287  1.00  0.00     0.049 A 
ATOM     47  H   UNL A   1      40.682  30.484  29.718  1.00  0.00     0.167 HD
ATOM     48  C   UNL A   1      44.823  29.350  30.581  1.00  0.00     0.031 A 
ATOM     49  C   UNL A   1      38.478  32.200  29.740  1.00  0.00     0.031 A 
ATOM     50  C   UNL A   1      44.692  30.702  31.049  1.00  0.00     0.049 A 
ATOM     51  C   UNL A   1      39.599  32.953  30.401  1.00  0.00     0.074 A 
ATOM     52  C   UNL A   1      45.663  31.512  31.610  1.00  0.00     0.029 A 
ATOM     53  N   UNL A   1      43.523  31.444  31.005  1.00  0.00    -0.354 N 
ATOM     54  N   UNL A   1      40.833  32.564  30.616  1.00  0.00    -0.248 NA
ATOM     55  C   UNL A   1      39.302  34.311  30.879  1.00  0.00     0.031 C 
ATOM     56  C   UNL A   1      45.069  32.733  31.942  1.00  0.00     0.029 A 
ATOM     57  C   UNL A   1      43.741  32.697  31.546  1.00  0.00     0.049 A 
ATOM     58  H   UNL A   1      42.664  31.125  30.643  1.00  0.00     0.167 HD
ATOM     59  C   UNL A   1      41.465  33.635  31.236  1.00  0.00     0.074 A 
ATOM     60  C   UNL A   1      40.480  34.690  31.359  1.00  0.00     0.031 C 
ATOM     61  C   UNL A   1      42.748  33.734  31.661  1.00  0.00     0.031 A 
BRANCH  48  62
ATOM     62  C   UNL A   1      46.155  28.673  30.729  1.00  0.00    -0.014 A 
ATOM     63  C   UNL A   1      46.446  27.906  31.871  1.00  0.00     0.010 A 
ATOM     64  C   UNL A   1      47.100  28.748  29.691  1.00  0.00     0.010 A 
ATOM     65  C   UNL A   1      47.668  27.238  31.978  1.00  0.00     0.020 A 
ATOM     66  C   UNL A   1      48.314  28.065  29.786  1.00  0.00     0.020 A 
ATOM     67  C   UNL A   1      48.591  27.317  30.932  1.00  0.00     0.054 A 
BRANCH  67  68
ATOM     68  S   UNL A   1      50.153  26.409  31.090  1.00  0.00     0.124 S 
ATOM     69  O   UNL A   1      51.128  27.492  31.185  1.00  0.00    -0.237 OA
ATOM     70  O   UNL A   1      49.946  25.641  32.315  1.00  0.00    -0.237 OA
ATOM     71  O   UNL A   1      50.224  25.619  29.864  1.00  0.00    -0.744 OA
ENDBRANCH  67  68
ENDBRANCH  48  62
BRANCH  49  72
ATOM     72  C   UNL A   1      37.140  32.820  29.555  1.00  0.00    -0.014 A 
ATOM     73  C   UNL A   1      36.279  32.987  30.654  1.00  0.00     0.010 A 
ATOM     74  C   UNL A   1      36.741  33.295  28.293  1.00  0.00     0.010 A 
ATOM     75  C   UNL A   1      35.046  33.625  30.495  1.00  0.00     0.020 A 
ATOM     76  C   UNL A   1      35.516  33.949  28.134  1.00  0.00     0.020 A 
ATOM     77  C   UNL A   1      34.677  34.113  29.238  1.00  0.00     0.054 A 
BRANCH  77  78
ATOM     78  S   UNL A   1      33.101  34.998  29.079  1.00  0.00     0.124 S 
ATOM     79  O   UNL A   1      33.534  36.324  28.647  1.00  0.00    -0.237 OA
ATOM     80  O   UNL A   1      32.403  34.201  28.075  1.00  0.00    -0.237 OA
ATOM     81  O   UNL A   1      32.533  34.934  30.423  1.00  0.00    -0.744 OA
ENDBRANCH  77  78
ENDBRANCH  49  72
BRANCH  61  82
ATOM     82  C   UNL A   1      43.184  35.028  32.289  1.00  0.00    -0.014 A 
ATOM     83  C   UNL A   1      43.717  36.065  31.504  1.00  0.00     0.010 A 
ATOM     84  C   UNL A   1      42.940  35.251  33.656  1.00  0.00     0.010 A 
ATOM     85  C   UNL A   1      43.996  37.307  32.079  1.00  0.00     0.020 A 
ATOM     86  C   UNL A   1      43.201  36.498  34.229  1.00  0.00     0.020 A 
ATOM     87  C   UNL A   1      43.726  37.519  33.434  1.00  0.00     0.054 A 
BRANCH  87  88
ATOM     88  S   UNL A   1      44.034  39.165  34.131  1.00  0.00     0.124 S 
ATOM     89  O   UNL A   1      44.069  38.891  35.565  1.00  0.00    -0.237 OA
ATOM     90  O   UNL A   1      45.315  39.525  33.528  1.00  0.00    -0.237 OA
ATOM     91  O   UNL A   1      42.891  39.955  33.680  1.00  0.00    -0.744 OA
ENDBRANCH  87  88
ENDBRANCH  61  82
ENDBRANCH  35  36
ENDBRANCH  27  30
ENDBRANCH  25  26
ENDBRANCH  24  25
ENDBRANCH   1  24
TORSDOF 17
ENDMDL
MODEL 2
REMARK VINA RESULT:     -10.5      3.584      4.303
REMARK SMILES Cc1cc(Br)c2ncc(C(=O)NCCCCCCNC(=O)c3ccc(-c4c5nc(c(-c6ccc(S(=O)(=O)[O-])cc6)c6ccc([nH]6)c(-c6ccc(S(=O)(=O)[O-])cc6)c6nc(c(-c7ccc(S(=O)(=O)[O-])cc7)c7ccc4[nH]7)C=C6)C=C5)cc3)c(N)c2c1
REMARK SMILES IDX 16 1 15 2 14 3 13 4 12 5 10 6 11 7 9 9 1 10 2 11 3 12 85 13
REMARK SMILES IDX 4 14 84 15 5 16 6 17 82 18 7 19 8 20 83 21 17 24 18 25 19 26
REMARK SMILES IDX 20 27 21 29 22 30 23 31 81 32 24 33 80 34 25 35 26 36 27 37
REMARK SMILES IDX 74 38 28 39 79 40 73 41 75 42 29 43 78 44 72 45 71 46 30 48
REMARK SMILES IDX 60 49 41 50 59 51 42 52 45 53 58 54 76 55 43 56 44 57 57 59
REMARK SMILES IDX 77 60 46 61 31 62 32 63 40 64 33 65 39 66 34 67 35 68 36 69
REMARK SMILES IDX 37 70 38 71 61 72 62 73 70 74 63 75 69 76 64 77 65 78 66 79
REMARK SMILES IDX 67 80 68 81 47 82 48 83 56 84 49 85 55 86 50 87 51 88 52 89
REMARK SMILES IDX 53 90 54 91
REMARK H PARENT 12 8 83 22 83 23 19 28 75 47 45 58
REMARK Flexibility Score: inf
ROOT
ATOM      1  C   UNL A   1      35.566  23.904  25.911  1.00  0.00     0.002 C 
ENDROOT
BRANCH   1   2
ATOM      2  C   UNL A   1      34.878  22.658  26.482  1.00  0.00     0.002 C 
BRANCH   2   3
ATOM      3  C   UNL A   1      34.741  21.486  25.496  1.00  0.00     0.021 C 
BRANCH   3   4
ATOM      4  C   UNL A   1      33.681  21.730  24.417  1.00  0.00     0.116 C 
BRANCH   4   5
ATOM      5  N   UNL A   1      32.360  21.557  24.992  1.00  0.00    -0.352 N 
ATOM      6  C   UNL A   1      31.341  22.412  25.322  1.00  0.00     0.254 C 
ATOM      7  O   UNL A   1      30.384  21.898  25.911  1.00  0.00    -0.269 OA
ATOM      8  H   UNL A   1      32.148  20.616  25.188  1.00  0.00     0.163 HD
BRANCH   6   9
ATOM      9  C   UNL A   1      31.298  23.866  24.984  1.00  0.00     0.081 A 
ATOM     10  C   UNL A   1      32.105  29.685  27.216  1.00  0.00     0.044 C 
ATOM     11  C   UNL A   1      31.735  28.618  26.229  1.00  0.00    -0.049 A 
ATOM     12  C   UNL A   1      31.242  28.956  24.976  1.00  0.00     0.021 A 
ATOM     13  C   UNL A   1      31.844  27.264  26.558  1.00  0.00     0.016 A 
ATOM     14  C   UNL A   1      30.936  27.950  24.053  1.00  0.00     0.044 A 
ATOM     15  C   UNL A   1      31.540  26.229  25.634  1.00  0.00     0.025 A 
ATOM     16  Br  UNL A   1      30.261  28.513  22.360  1.00  0.00    -0.048 Br
ATOM     17  C   UNL A   1      31.106  26.587  24.339  1.00  0.00     0.086 A 
ATOM     18  C   UNL A   1      31.653  24.839  25.949  1.00  0.00     0.055 A 
ATOM     19  N   UNL A   1      30.874  25.648  23.400  1.00  0.00    -0.254 NA
ATOM     20  C   UNL A   1      31.001  24.340  23.724  1.00  0.00     0.127 A 
BRANCH  18  21
ATOM     21  N   UNL A   1      31.988  24.445  27.263  1.00  0.00    -0.397 N 
ATOM     22  H   UNL A   1      31.943  25.097  27.999  1.00  0.00     0.156 HD
ATOM     23  H   UNL A   1      32.265  23.517  27.443  1.00  0.00     0.156 HD
ENDBRANCH  18  21
ENDBRANCH   6   9
ENDBRANCH   4   5
ENDBRANCH   3   4
ENDBRANCH   2   3
ENDBRANCH   1   2
BRANCH   1  24
ATOM     24  C   UNL A   1      37.030  23.702  25.512  1.00  0.00     0.021 C 
BRANCH  24  25
ATOM     25  C   UNL A   1      38.021  24.407  26.433  1.00  0.00     0.116 C 
BRANCH  25  26
ATOM     26  N   UNL A   1      39.389  24.025  26.122  1.00  0.00    -0.352 N 
ATOM     27  C   UNL A   1      40.550  24.665  26.479  1.00  0.00     0.251 C 
ATOM     28  H   UNL A   1      39.497  23.205  25.588  1.00  0.00     0.163 HD
ATOM     29  O   UNL A   1      41.610  24.389  25.935  1.00  0.00    -0.269 OA
BRANCH  27  30
ATOM     30  C   UNL A   1      40.495  25.695  27.536  1.00  0.00     0.039 A 
ATOM     31  C   UNL A   1      41.313  26.821  27.438  1.00  0.00     0.014 A 
ATOM     32  C   UNL A   1      39.623  25.534  28.618  1.00  0.00     0.014 A 
ATOM     33  C   UNL A   1      41.235  27.810  28.419  1.00  0.00     0.010 A 
ATOM     34  C   UNL A   1      39.512  26.542  29.567  1.00  0.00     0.010 A 
ATOM     35  C   UNL A   1      40.328  27.680  29.484  1.00  0.00    -0.014 A 
BRANCH  35  36
ATOM     36  C   UNL A   1      40.267  28.691  30.564  1.00  0.00     0.031 A 
ATOM     37  C   UNL A   1      41.216  28.585  31.723  1.00  0.00     0.074 A 
ATOM     38  C   UNL A   1      39.343  29.670  30.523  1.00  0.00     0.049 A 
ATOM     39  N   UNL A   1      41.292  29.330  32.794  1.00  0.00    -0.248 NA
ATOM     40  C   UNL A   1      42.198  27.487  31.681  1.00  0.00     0.031 C 
ATOM     41  C   UNL A   1      38.362  29.866  29.454  1.00  0.00     0.029 A 
ATOM     42  N   UNL A   1      39.080  30.685  31.409  1.00  0.00    -0.354 N 
ATOM     43  C   UNL A   1      42.323  28.791  33.553  1.00  0.00     0.074 A 
ATOM     44  C   UNL A   1      42.815  27.631  32.845  1.00  0.00     0.031 C 
ATOM     45  C   UNL A   1      37.617  30.948  29.738  1.00  0.00     0.029 A 
ATOM     46  C   UNL A   1      38.047  31.503  31.020  1.00  0.00     0.049 A 
ATOM     47  H   UNL A   1      39.585  30.815  32.244  1.00  0.00     0.167 HD
ATOM     48  C   UNL A   1      42.828  29.235  34.725  1.00  0.00     0.031 A 
ATOM     49  C   UNL A   1      37.507  32.576  31.628  1.00  0.00     0.031 A 
ATOM     50  C   UNL A   1      42.348  30.397  35.420  1.00  0.00     0.049 A 
ATOM     51  C   UNL A   1      38.066  33.036  32.945  1.00  0.00     0.074 A 
ATOM     52  C   UNL A   1      42.822  30.950  36.596  1.00  0.00     0.029 A 
ATOM     53  N   UNL A   1      41.290  31.187  35.001  1.00  0.00    -0.354 N 
ATOM     54  N   UNL A   1      39.059  32.529  33.636  1.00  0.00    -0.248 NA
ATOM     55  C   UNL A   1      37.436  34.211  33.566  1.00  0.00     0.031 C 
ATOM     56  C   UNL A   1      42.024  32.053  36.909  1.00  0.00     0.029 A 
ATOM     57  C   UNL A   1      41.083  32.213  35.904  1.00  0.00     0.049 A 
ATOM     58  H   UNL A   1      40.763  31.039  34.181  1.00  0.00     0.167 HD
ATOM     59  C   UNL A   1      39.186  33.333  34.763  1.00  0.00     0.074 A 
ATOM     60  C   UNL A   1      38.172  34.363  34.660  1.00  0.00     0.031 C 
ATOM     61  C   UNL A   1      40.068  33.228  35.786  1.00  0.00     0.031 A 
BRANCH  48  62
ATOM     62  C   UNL A   1      43.968  28.467  35.330  1.00  0.00    -0.014 A 
ATOM     63  C   UNL A   1      43.724  27.403  36.217  1.00  0.00     0.010 A 
ATOM     64  C   UNL A   1      45.291  28.766  34.960  1.00  0.00     0.010 A 
ATOM     65  C   UNL A   1      44.788  26.662  36.736  1.00  0.00     0.020 A 
ATOM     66  C   UNL A   1      46.356  28.013  35.461  1.00  0.00     0.020 A 
ATOM     67  C   UNL A   1      46.096  26.967  36.349  1.00  0.00     0.054 A 
BRANCH  67  68
ATOM     68  S   UNL A   1      47.449  25.960  37.016  1.00  0.00     0.124 S 
ATOM     69  O   UNL A   1      48.591  26.863  36.891  1.00  0.00    -0.237 OA
ATOM     70  O   UNL A   1      47.002  25.698  38.381  1.00  0.00    -0.237 OA
ATOM     71  O   UNL A   1      47.484  24.795  36.136  1.00  0.00    -0.744 OA
ENDBRANCH  67  68
ENDBRANCH  48  62
BRANCH  49  72
ATOM     72  C   UNL A   1      36.385  33.301  30.974  1.00  0.00    -0.014 A 
ATOM     73  C   UNL A   1      35.175  33.500  31.660  1.00  0.00     0.010 A 
ATOM     74  C   UNL A   1      36.541  33.843  29.685  1.00  0.00     0.010 A 
ATOM     75  C   UNL A   1      34.141  34.234  31.072  1.00  0.00     0.020 A 
ATOM     76  C   UNL A   1      35.516  34.592  29.101  1.00  0.00     0.020 A 
ATOM     77  C   UNL A   1      34.323  34.786  29.800  1.00  0.00     0.054 A 
BRANCH  77  78
ATOM     78  S   UNL A   1      32.989  35.792  29.092  1.00  0.00     0.124 S 
ATOM     79  O   UNL A   1      32.364  34.861  28.157  1.00  0.00    -0.237 OA
ATOM     80  O   UNL A   1      32.200  36.128  30.273  1.00  0.00    -0.237 OA
ATOM     81  O   UNL A   1      33.693  36.915  28.479  1.00  0.00    -0.744 OA
ENDBRANCH  77  78
ENDBRANCH  49  72
BRANCH  61  82
ATOM     82  C   UNL A   1      40.001  34.254  36.882  1.00  0.00    -0.014 A 
ATOM     83  C   UNL A   1      40.649  35.493  36.748  1.00  0.00     0.010 A 
ATOM     84  C   UNL A   1      39.176  34.022  37.998  1.00  0.00     0.010 A 
ATOM     85  C   UNL A   1      40.472  36.486  37.714  1.00  0.00     0.020 A 
ATOM     86  C   UNL A   1      38.982  35.020  38.957  1.00  0.00     0.020 A 
ATOM     87  C   UNL A   1      39.631  36.248  38.805  1.00  0.00     0.054 A 
BRANCH  87  88
ATOM     88  S   UNL A   1      39.367  37.584  40.003  1.00  0.00     0.124 S 
ATOM     89  O   UNL A   1      38.290  38.349  39.380  1.00  0.00    -0.237 OA
ATOM     90  O   UNL A   1      38.999  36.851  41.213  1.00  0.00    -0.237 OA
ATOM     91  O   UNL A   1      40.658  38.264  40.058  1.00  0.00    -0.744 OA
ENDBRANCH  87  88
ENDBRANCH  61  82
ENDBRANCH  35  36
ENDBRANCH  27  30
ENDBRANCH  25  26
ENDBRANCH  24  25
ENDBRANCH   1  24
TORSDOF 17
ENDMDL
MODEL 3
REMARK VINA RESULT:     -10.5      3.849      6.636
REMARK SMILES Cc1cc(Br)c2ncc(C(=O)NCCCCCCNC(=O)c3ccc(-c4c5nc(c(-c6ccc(S(=O)(=O)[O-])cc6)c6ccc([nH]6)c(-c6ccc(S(=O)(=O)[O-])cc6)c6nc(c(-c7ccc(S(=O)(=O)[O-])cc7)c7ccc4[nH]7)C=C6)C=C5)cc3)c(N)c2c1
REMARK SMILES IDX 16 1 15 2 14 3 13 4 12 5 10 6 11 7 9 9 1 10 2 11 3 12 85 13
REMARK SMILES IDX 4 14 84 15 5 16 6 17 82 18 7 19 8 20 83 21 17 24 18 25 19 26
REMARK SMILES IDX 20 27 21 29 22 30 23 31 81 32 24 33 80 34 25 35 26 36 27 37
REMARK SMILES IDX 74 38 28 39 79 40 73 41 75 42 29 43 78 44 72 45 71 46 30 48
REMARK SMILES IDX 60 49 41 50 59 51 42 52 45 53 58 54 76 55 43 56 44 57 57 59
REMARK SMILES IDX 77 60 46 61 31 62 32 63 40 64 33 65 39 66 34 67 35 68 36 69
REMARK SMILES IDX 37 70 38 71 61 72 62 73 70 74 63 75 69 76 64 77 65 78 66 79
REMARK SMILES IDX 67 80 68 81 47 82 48 83 56 84 49 85 55 86 50 87 51 88 52 89
REMARK SMILES IDX 53 90 54 91
REMARK H PARENT 12 8 83 22 83 23 19 28 75 47 45 58
REMARK Flexibility Score: inf
ROOT
ATOM      1  C   UNL A   1      43.586  22.409  26.599  1.00  0.00     0.002 C 
ENDROOT
BRANCH   1   2
ATOM      2  C   UNL A   1      43.928  23.893  26.788  1.00  0.00     0.002 C 
BRANCH   2   3
ATOM      3  C   UNL A   1      45.392  24.175  27.163  1.00  0.00     0.021 C 
BRANCH   3   4
ATOM      4  C   UNL A   1      45.848  25.587  26.786  1.00  0.00     0.116 C 
BRANCH   4   5
ATOM      5  N   UNL A   1      44.867  26.189  25.901  1.00  0.00    -0.352 N 
ATOM      6  C   UNL A   1      44.489  27.477  25.628  1.00  0.00     0.254 C 
ATOM      7  O   UNL A   1      43.514  27.600  24.878  1.00  0.00    -0.269 OA
ATOM      8  H   UNL A   1      44.362  25.524  25.380  1.00  0.00     0.163 HD
BRANCH   6   9
ATOM      9  C   UNL A   1      45.188  28.701  26.125  1.00  0.00     0.081 A 
ATOM     10  C   UNL A   1      44.392  34.423  28.597  1.00  0.00     0.044 C 
ATOM     11  C   UNL A   1      45.130  33.259  28.007  1.00  0.00    -0.049 A 
ATOM     12  C   UNL A   1      46.504  33.318  27.814  1.00  0.00     0.021 A 
ATOM     13  C   UNL A   1      44.452  32.104  27.606  1.00  0.00     0.016 A 
ATOM     14  C   UNL A   1      47.184  32.211  27.296  1.00  0.00     0.044 A 
ATOM     15  C   UNL A   1      45.124  30.970  27.080  1.00  0.00     0.025 A 
ATOM     16  Br  UNL A   1      49.069  32.390  27.065  1.00  0.00    -0.048 Br
ATOM     17  C   UNL A   1      46.531  31.017  26.954  1.00  0.00     0.086 A 
ATOM     18  C   UNL A   1      44.449  29.777  26.672  1.00  0.00     0.055 A 
ATOM     19  N   UNL A   1      47.226  29.943  26.531  1.00  0.00    -0.254 NA
ATOM     20  C   UNL A   1      46.560  28.824  26.163  1.00  0.00     0.127 A 
BRANCH  18  21
ATOM     21  N   UNL A   1      43.039  29.732  26.691  1.00  0.00    -0.397 N 
ATOM     22  H   UNL A   1      42.518  30.567  26.650  1.00  0.00     0.156 HD
ATOM     23  H   UNL A   1      42.574  28.865  26.745  1.00  0.00     0.156 HD
ENDBRANCH  18  21
ENDBRANCH   6   9
ENDBRANCH   4   5
ENDBRANCH   3   4
ENDBRANCH   2   3
ENDBRANCH   1   2
BRANCH   1  24
ATOM     24  C   UNL A   1      42.279  22.144  25.846  1.00  0.00     0.021 C 
BRANCH  24  25
ATOM     25  C   UNL A   1      41.108  21.789  26.756  1.00  0.00     0.116 C 
BRANCH  25  26
ATOM     26  N   UNL A   1      39.840  21.931  26.057  1.00  0.00    -0.352 N 
ATOM     27  C   UNL A   1      38.934  22.958  26.147  1.00  0.00     0.251 C 
ATOM     28  H   UNL A   1      39.601  21.199  25.444  1.00  0.00     0.163 HD
ATOM     29  O   UNL A   1      37.797  22.829  25.714  1.00  0.00    -0.269 OA
BRANCH  27  30
ATOM     30  C   UNL A   1      39.357  24.224  26.777  1.00  0.00     0.039 A 
ATOM     31  C   UNL A   1      40.057  25.165  26.021  1.00  0.00     0.014 A 
ATOM     32  C   UNL A   1      39.050  24.469  28.119  1.00  0.00     0.014 A 
ATOM     33  C   UNL A   1      40.427  26.376  26.607  1.00  0.00     0.010 A 
ATOM     34  C   UNL A   1      39.376  25.695  28.687  1.00  0.00     0.010 A 
ATOM     35  C   UNL A   1      40.081  26.651  27.940  1.00  0.00    -0.014 A 
BRANCH  35  36
ATOM     36  C   UNL A   1      40.509  27.906  28.598  1.00  0.00     0.031 A 
ATOM     37  C   UNL A   1      41.909  28.014  29.132  1.00  0.00     0.074 A 
ATOM     38  C   UNL A   1      39.638  28.922  28.750  1.00  0.00     0.049 A 
ATOM     39  N   UNL A   1      42.465  28.998  29.787  1.00  0.00    -0.248 NA
ATOM     40  C   UNL A   1      42.795  26.857  28.914  1.00  0.00     0.031 C 
ATOM     41  C   UNL A   1      38.251  28.926  28.284  1.00  0.00     0.029 A 
ATOM     42  N   UNL A   1      39.796  30.149  29.343  1.00  0.00    -0.354 N 
ATOM     43  C   UNL A   1      43.761  28.580  30.064  1.00  0.00     0.074 A 
ATOM     44  C   UNL A   1      43.897  27.237  29.546  1.00  0.00     0.031 C 
ATOM     45  C   UNL A   1      37.690  30.108  28.591  1.00  0.00     0.029 A 
ATOM     46  C   UNL A   1      38.667  30.931  29.302  1.00  0.00     0.049 A 
ATOM     47  H   UNL A   1      40.638  30.442  29.760  1.00  0.00     0.167 HD
ATOM     48  C   UNL A   1      44.754  29.262  30.676  1.00  0.00     0.031 A 
ATOM     49  C   UNL A   1      38.443  32.169  29.782  1.00  0.00     0.031 A 
ATOM     50  C   UNL A   1      44.621  30.602  31.176  1.00  0.00     0.049 A 
ATOM     51  C   UNL A   1      39.554  32.898  30.485  1.00  0.00     0.074 A 
ATOM     52  C   UNL A   1      45.585  31.392  31.778  1.00  0.00     0.029 A 
ATOM     53  N   UNL A   1      43.457  31.351  31.128  1.00  0.00    -0.354 N 
ATOM     54  N   UNL A   1      40.782  32.497  30.715  1.00  0.00    -0.248 NA
ATOM     55  C   UNL A   1      39.255  34.245  30.993  1.00  0.00     0.031 C 
ATOM     56  C   UNL A   1      44.991  32.607  32.129  1.00  0.00     0.029 A 
ATOM     57  C   UNL A   1      43.671  32.589  31.706  1.00  0.00     0.049 A 
ATOM     58  H   UNL A   1      42.604  31.047  30.741  1.00  0.00     0.167 HD
ATOM     59  C   UNL A   1      41.407  33.547  31.376  1.00  0.00     0.074 A 
ATOM     60  C   UNL A   1      40.425  34.605  31.506  1.00  0.00     0.031 C 
ATOM     61  C   UNL A   1      42.681  33.628  31.828  1.00  0.00     0.031 A 
BRANCH  48  62
ATOM     62  C   UNL A   1      46.080  28.573  30.833  1.00  0.00    -0.014 A 
ATOM     63  C   UNL A   1      47.078  28.708  29.851  1.00  0.00     0.010 A 
ATOM     64  C   UNL A   1      46.355  27.839  31.999  1.00  0.00     0.010 A 
ATOM     65  C   UNL A   1      48.325  28.105  30.029  1.00  0.00     0.020 A 
ATOM     66  C   UNL A   1      47.609  27.252  32.189  1.00  0.00     0.020 A 
ATOM     67  C   UNL A   1      48.585  27.387  31.199  1.00  0.00     0.054 A 
BRANCH  67  68
ATOM     68  S   UNL A   1      50.227  26.647  31.411  1.00  0.00     0.124 S 
ATOM     69  O   UNL A   1      50.640  27.185  32.705  1.00  0.00    -0.237 OA
ATOM     70  O   UNL A   1      49.932  25.218  31.389  1.00  0.00    -0.237 OA
ATOM     71  O   UNL A   1      50.984  27.145  30.265  1.00  0.00    -0.744 OA
ENDBRANCH  67  68
ENDBRANCH  48  62
BRANCH  49  72
ATOM     72  C   UNL A   1      37.112  32.802  29.587  1.00  0.00    -0.014 A 
ATOM     73  C   UNL A   1      36.173  32.811  30.633  1.00  0.00     0.010 A 
ATOM     74  C   UNL A   1      36.797  33.444  28.376  1.00  0.00     0.010 A 
ATOM     75  C   UNL A   1      34.944  33.458  30.474  1.00  0.00     0.020 A 
ATOM     76  C   UNL A   1      35.577  34.107  28.219  1.00  0.00     0.020 A 
ATOM     77  C   UNL A   1      34.659  34.113  29.272  1.00  0.00     0.054 A 
BRANCH  77  78
ATOM     78  S   UNL A   1      33.085  35.003  29.121  1.00  0.00     0.124 S 
ATOM     79  O   UNL A   1      33.519  36.324  28.678  1.00  0.00    -0.237 OA
ATOM     80  O   UNL A   1      32.376  34.203  28.126  1.00  0.00    -0.237 OA
ATOM     81  O   UNL A   1      32.527  34.948  30.470  1.00  0.00    -0.744 OA
ENDBRANCH  77  78
ENDBRANCH  49  72
BRANCH  61  82
ATOM     82  C   UNL A   1      43.112  34.903  32.498  1.00  0.00    -0.014 A 
ATOM     83  C   UNL A   1      43.054  35.036  33.896  1.00  0.00     0.010 A 
ATOM     84  C   UNL A   1      43.697  35.926  31.730  1.00  0.00     0.010 A 
ATOM     85  C   UNL A   1      43.577  36.173  34.515  1.00  0.00     0.020 A 
ATOM     86  C   UNL A   1      44.238  37.056  32.348  1.00  0.00     0.020 A 
ATOM     87  C   UNL A   1      44.176  37.170  33.738  1.00  0.00     0.054 A 
BRANCH  87  88
ATOM     88  S   UNL A   1      44.910  38.599  34.580  1.00  0.00     0.124 S 
ATOM     89  O   UNL A   1      46.319  38.485  34.211  1.00  0.00    -0.237 OA
ATOM     90  O   UNL A   1      44.192  39.720  33.977  1.00  0.00    -0.237 OA
ATOM     91  O   UNL A   1      44.618  38.362  35.991  1.00  0.00    -0.744 OA
ENDBRANCH  87  88
ENDBRANCH  61  82
ENDBRANCH  35  36
ENDBRANCH  27  30
ENDBRANCH  25  26
ENDBRANCH  24  25
ENDBRANCH   1  24
TORSDOF 17
ENDMDL
