MODEL 1
REMARK VINA RESULT:     -11.6      0.000      0.000
REMARK SMILES O=C(NCCCCCCNC(=O)c1ccn(Cc2c(Cl)cccc2Cl)c1)c1ccc(-c2c3nc(c(-c4ccc(S(=O)(=O)[O-])cc4)c4ccc([nH]4)c(-c4ccc(S(=O)(=O)[O-])cc4)c4nc(c(-c5ccc(S(=O)(=O)[O-])cc5)c5ccc2[nH]5)C=C4)C=C3)cc1
REMARK SMILES IDX 6 1 5 2 4 3 3 4 1 5 2 6 27 8 28 9 86 10 29 11 85 12 30 13
REMARK SMILES IDX 31 14 32 15 79 16 33 17 84 18 78 19 80 20 34 21 83 22 77 23
REMARK SMILES IDX 76 24 35 26 65 27 46 28 64 29 47 30 50 31 63 32 81 33 48 34
REMARK SMILES IDX 49 35 62 37 82 38 51 39 36 40 37 41 45 42 38 43 44 44 39 45
REMARK SMILES IDX 40 46 41 47 42 48 43 49 66 50 67 51 75 52 68 53 74 54 69 55
REMARK SMILES IDX 70 56 71 57 72 58 73 59 52 60 53 61 61 62 54 63 60 64 55 65
REMARK SMILES IDX 56 66 57 67 58 68 59 69 7 70 8 71 9 72 10 73 11 74 12 76
REMARK SMILES IDX 13 77 14 78 26 79 15 80 16 81 17 82 18 83 19 84 24 85 20 86
REMARK SMILES IDX 21 87 23 88 25 89 22 90
REMARK H PARENT 3 7 80 25 50 36 10 75
REMARK Flexibility Score: inf
ROOT
ATOM      1  C   UNL A   1      31.648  29.670  25.199  1.00  0.00     0.002 C 
ENDROOT
BRANCH   1   2
ATOM      2  C   UNL A   1      31.997  28.492  26.115  1.00  0.00     0.021 C 
BRANCH   2   3
ATOM      3  C   UNL A   1      32.950  28.837  27.258  1.00  0.00     0.116 C 
BRANCH   3   4
ATOM      4  N   UNL A   1      33.073  30.256  27.534  1.00  0.00    -0.352 N 
ATOM      5  O   UNL A   1      33.875  32.255  28.083  1.00  0.00    -0.269 OA
ATOM      6  C   UNL A   1      34.108  31.051  27.960  1.00  0.00     0.251 C 
ATOM      7  H   UNL A   1      32.238  30.755  27.383  1.00  0.00     0.163 HD
BRANCH   6   8
ATOM      8  C   UNL A   1      35.457  30.535  28.318  1.00  0.00     0.039 A 
ATOM      9  C   UNL A   1      36.476  30.310  27.393  1.00  0.00     0.014 A 
ATOM     10  C   UNL A   1      35.724  30.312  29.683  1.00  0.00     0.014 A 
ATOM     11  C   UNL A   1      37.707  29.806  27.804  1.00  0.00     0.010 A 
ATOM     12  C   UNL A   1      36.970  29.837  30.106  1.00  0.00     0.010 A 
ATOM     13  C   UNL A   1      37.963  29.576  29.160  1.00  0.00    -0.014 A 
BRANCH  13  14
ATOM     14  C   UNL A   1      39.347  29.179  29.521  1.00  0.00     0.031 A 
ATOM     15  C   UNL A   1      40.180  30.337  30.058  1.00  0.00     0.074 A 
ATOM     16  C   UNL A   1      39.754  27.923  29.188  1.00  0.00     0.049 A 
ATOM     17  N   UNL A   1      41.428  30.625  29.842  1.00  0.00    -0.248 NA
ATOM     18  C   UNL A   1      39.497  31.390  30.851  1.00  0.00     0.031 C 
ATOM     19  C   UNL A   1      38.861  26.867  28.676  1.00  0.00     0.029 A 
ATOM     20  N   UNL A   1      40.978  27.286  29.192  1.00  0.00    -0.354 N 
ATOM     21  C   UNL A   1      41.714  31.811  30.546  1.00  0.00     0.074 A 
ATOM     22  C   UNL A   1      40.466  32.282  31.075  1.00  0.00     0.031 C 
ATOM     23  C   UNL A   1      39.564  25.756  28.374  1.00  0.00     0.029 A 
ATOM     24  C   UNL A   1      40.972  25.987  28.636  1.00  0.00     0.049 A 
ATOM     25  H   UNL A   1      41.791  27.703  29.555  1.00  0.00     0.167 HD
ATOM     26  C   UNL A   1      42.973  32.304  30.732  1.00  0.00     0.031 A 
ATOM     27  C   UNL A   1      42.023  25.163  28.348  1.00  0.00     0.031 A 
ATOM     28  C   UNL A   1      43.957  31.472  30.122  1.00  0.00     0.049 A 
ATOM     29  C   UNL A   1      43.257  25.864  28.752  1.00  0.00     0.074 A 
ATOM     30  C   UNL A   1      44.403  31.282  28.840  1.00  0.00     0.029 A 
ATOM     31  N   UNL A   1      44.514  30.500  30.918  1.00  0.00    -0.354 N 
ATOM     32  N   UNL A   1      43.653  26.054  29.971  1.00  0.00    -0.248 NA
ATOM     33  C   UNL A   1      44.128  26.418  27.706  1.00  0.00     0.031 C 
ATOM     34  C   UNL A   1      44.910  29.959  28.827  1.00  0.00     0.029 A 
ATOM     35  C   UNL A   1      44.760  29.418  30.106  1.00  0.00     0.049 A 
ATOM     36  H   UNL A   1      44.700  30.567  31.882  1.00  0.00     0.167 HD
ATOM     37  C   UNL A   1      44.599  27.044  29.842  1.00  0.00     0.074 A 
ATOM     38  C   UNL A   1      45.044  27.011  28.468  1.00  0.00     0.031 C 
ATOM     39  C   UNL A   1      44.581  28.104  30.687  1.00  0.00     0.031 A 
BRANCH  26  40
ATOM     40  C   UNL A   1      43.471  33.416  31.618  1.00  0.00    -0.014 A 
ATOM     41  C   UNL A   1      43.459  33.186  33.018  1.00  0.00     0.010 A 
ATOM     42  C   UNL A   1      43.667  34.736  31.183  1.00  0.00     0.010 A 
ATOM     43  C   UNL A   1      43.537  34.231  33.940  1.00  0.00     0.020 A 
ATOM     44  C   UNL A   1      43.781  35.790  32.108  1.00  0.00     0.020 A 
ATOM     45  C   UNL A   1      43.668  35.536  33.477  1.00  0.00     0.054 A 
BRANCH  45  46
ATOM     46  S   UNL A   1      43.619  36.885  34.686  1.00  0.00     0.124 S 
ATOM     47  O   UNL A   1      43.258  36.185  35.915  1.00  0.00    -0.237 OA
ATOM     48  O   UNL A   1      44.985  37.404  34.641  1.00  0.00    -0.237 OA
ATOM     49  O   UNL A   1      42.601  37.788  34.154  1.00  0.00    -0.744 OA
ENDBRANCH  45  46
ENDBRANCH  26  40
BRANCH  27  50
ATOM     50  C   UNL A   1      42.224  23.852  27.626  1.00  0.00    -0.014 A 
ATOM     51  C   UNL A   1      43.297  22.971  27.810  1.00  0.00     0.010 A 
ATOM     52  C   UNL A   1      41.183  23.391  26.772  1.00  0.00     0.010 A 
ATOM     53  C   UNL A   1      43.270  21.663  27.281  1.00  0.00     0.020 A 
ATOM     54  C   UNL A   1      41.121  22.084  26.281  1.00  0.00     0.020 A 
ATOM     55  C   UNL A   1      42.162  21.214  26.560  1.00  0.00     0.054 A 
BRANCH  55  56
ATOM     56  S   UNL A   1      41.996  19.466  26.101  1.00  0.00     0.124 S 
ATOM     57  O   UNL A   1      40.564  19.343  25.851  1.00  0.00    -0.237 OA
ATOM     58  O   UNL A   1      42.855  19.353  24.923  1.00  0.00    -0.237 OA
ATOM     59  O   UNL A   1      42.491  18.764  27.284  1.00  0.00    -0.744 OA
ENDBRANCH  55  56
ENDBRANCH  27  50
BRANCH  39  60
ATOM     60  C   UNL A   1      43.868  27.835  32.004  1.00  0.00    -0.014 A 
ATOM     61  C   UNL A   1      42.524  28.210  32.178  1.00  0.00     0.010 A 
ATOM     62  C   UNL A   1      44.549  27.318  33.123  1.00  0.00     0.010 A 
ATOM     63  C   UNL A   1      41.892  28.078  33.423  1.00  0.00     0.020 A 
ATOM     64  C   UNL A   1      43.925  27.169  34.368  1.00  0.00     0.020 A 
ATOM     65  C   UNL A   1      42.596  27.558  34.513  1.00  0.00     0.054 A 
BRANCH  65  66
ATOM     66  S   UNL A   1      41.762  27.425  36.121  1.00  0.00     0.124 S 
ATOM     67  O   UNL A   1      42.878  27.428  37.064  1.00  0.00    -0.237 OA
ATOM     68  O   UNL A   1      40.924  28.621  36.140  1.00  0.00    -0.237 OA
ATOM     69  O   UNL A   1      41.034  26.160  36.035  1.00  0.00    -0.744 OA
ENDBRANCH  65  66
ENDBRANCH  39  60
ENDBRANCH  13  14
ENDBRANCH   6   8
ENDBRANCH   3   4
ENDBRANCH   2   3
ENDBRANCH   1   2
BRANCH   1  70
ATOM     70  C   UNL A   1      30.805  29.321  23.967  1.00  0.00     0.002 C 
BRANCH  70  71
ATOM     71  C   UNL A   1      30.243  27.894  23.937  1.00  0.00     0.021 C 
BRANCH  71  72
ATOM     72  C   UNL A   1      30.463  27.151  22.618  1.00  0.00     0.116 C 
BRANCH  72  73
ATOM     73  N   UNL A   1      31.734  27.527  22.020  1.00  0.00    -0.352 N 
ATOM     74  C   UNL A   1      32.953  26.920  22.164  1.00  0.00     0.252 C 
ATOM     75  H   UNL A   1      31.716  28.320  21.437  1.00  0.00     0.163 HD
ATOM     76  O   UNL A   1      33.977  27.552  21.885  1.00  0.00    -0.269 OA
BRANCH  74  77
ATOM     77  C   UNL A   1      32.996  25.544  22.630  1.00  0.00     0.057 A 
ATOM     78  C   UNL A   1      33.063  24.352  21.853  1.00  0.00     0.033 A 
ATOM     79  C   UNL A   1      33.068  25.145  23.955  1.00  0.00     0.099 A 
ATOM     80  C   UNL A   1      33.150  23.287  22.720  1.00  0.00     0.087 A 
ATOM     81  N   UNL A   1      33.111  23.773  24.002  1.00  0.00    -0.349 N 
BRANCH  81  82
ATOM     82  C   UNL A   1      33.225  22.966  25.215  1.00  0.00     0.160 C 
BRANCH  82  83
ATOM     83  C   UNL A   1      34.397  22.012  25.158  1.00  0.00     0.009 A 
ATOM     84  C   UNL A   1      35.724  22.466  25.307  1.00  0.00     0.047 A 
ATOM     85  C   UNL A   1      34.213  20.634  24.932  1.00  0.00     0.047 A 
ATOM     86  Cl  UNL A   1      36.112  24.105  25.701  1.00  0.00    -0.084 Cl
ATOM     87  C   UNL A   1      36.812  21.591  25.189  1.00  0.00     0.021 A 
ATOM     88  C   UNL A   1      35.304  19.758  24.834  1.00  0.00     0.021 A 
ATOM     89  Cl  UNL A   1      32.644  19.916  24.799  1.00  0.00    -0.084 Cl
ATOM     90  C   UNL A   1      36.604  20.238  24.950  1.00  0.00     0.003 A 
ENDBRANCH  82  83
ENDBRANCH  81  82
ENDBRANCH  74  77
ENDBRANCH  72  73
ENDBRANCH  71  72
ENDBRANCH  70  71
ENDBRANCH   1  70
TORSDOF 18
ENDMDL
MODEL 2
REMARK VINA RESULT:     -11.4      3.869      8.492
REMARK SMILES O=C(NCCCCCCNC(=O)c1ccn(Cc2c(Cl)cccc2Cl)c1)c1ccc(-c2c3nc(c(-c4ccc(S(=O)(=O)[O-])cc4)c4ccc([nH]4)c(-c4ccc(S(=O)(=O)[O-])cc4)c4nc(c(-c5ccc(S(=O)(=O)[O-])cc5)c5ccc2[nH]5)C=C4)C=C3)cc1
REMARK SMILES IDX 6 1 5 2 4 3 3 4 1 5 2 6 27 8 28 9 86 10 29 11 85 12 30 13
REMARK SMILES IDX 31 14 32 15 79 16 33 17 84 18 78 19 80 20 34 21 83 22 77 23
REMARK SMILES IDX 76 24 35 26 65 27 46 28 64 29 47 30 50 31 63 32 81 33 48 34
REMARK SMILES IDX 49 35 62 37 82 38 51 39 36 40 37 41 45 42 38 43 44 44 39 45
REMARK SMILES IDX 40 46 41 47 42 48 43 49 66 50 67 51 75 52 68 53 74 54 69 55
REMARK SMILES IDX 70 56 71 57 72 58 73 59 52 60 53 61 61 62 54 63 60 64 55 65
REMARK SMILES IDX 56 66 57 67 58 68 59 69 7 70 8 71 9 72 10 73 11 74 12 76
REMARK SMILES IDX 13 77 14 78 26 79 15 80 16 81 17 82 18 83 19 84 24 85 20 86
REMARK SMILES IDX 21 87 23 88 25 89 22 90
REMARK H PARENT 3 7 80 25 50 36 10 75
REMARK Flexibility Score: inf
ROOT
ATOM      1  C   UNL A   1      34.732  25.116  24.883  1.00  0.00     0.002 C 
ENDROOT
BRANCH   1   2
ATOM      2  C   UNL A   1      35.704  24.096  25.485  1.00  0.00     0.021 C 
BRANCH   2   3
ATOM      3  C   UNL A   1      36.811  23.636  24.537  1.00  0.00     0.116 C 
BRANCH   3   4
ATOM      4  N   UNL A   1      37.727  22.665  25.105  1.00  0.00    -0.352 N 
ATOM      5  O   UNL A   1      39.323  21.698  26.311  1.00  0.00    -0.269 OA
ATOM      6  C   UNL A   1      38.732  22.743  26.036  1.00  0.00     0.251 C 
ATOM      7  H   UNL A   1      37.601  21.757  24.746  1.00  0.00     0.163 HD
BRANCH   6   8
ATOM      8  C   UNL A   1      39.165  24.011  26.684  1.00  0.00     0.039 A 
ATOM      9  C   UNL A   1      38.844  24.366  27.994  1.00  0.00     0.014 A 
ATOM     10  C   UNL A   1      39.992  24.871  25.936  1.00  0.00     0.014 A 
ATOM     11  C   UNL A   1      39.270  25.581  28.522  1.00  0.00     0.010 A 
ATOM     12  C   UNL A   1      40.452  26.078  26.473  1.00  0.00     0.010 A 
ATOM     13  C   UNL A   1      40.082  26.437  27.771  1.00  0.00    -0.014 A 
BRANCH  13  14
ATOM     14  C   UNL A   1      40.610  27.638  28.464  1.00  0.00     0.031 A 
ATOM     15  C   UNL A   1      41.916  27.375  29.204  1.00  0.00     0.074 A 
ATOM     16  C   UNL A   1      39.819  28.746  28.505  1.00  0.00     0.049 A 
ATOM     17  N   UNL A   1      42.310  27.812  30.362  1.00  0.00    -0.248 NA
ATOM     18  C   UNL A   1      42.869  26.393  28.628  1.00  0.00     0.031 C 
ATOM     19  C   UNL A   1      38.566  28.903  27.743  1.00  0.00     0.029 A 
ATOM     20  N   UNL A   1      39.887  29.941  29.192  1.00  0.00    -0.354 N 
ATOM     21  C   UNL A   1      43.583  27.259  30.609  1.00  0.00     0.074 A 
ATOM     22  C   UNL A   1      43.835  26.327  29.548  1.00  0.00     0.031 C 
ATOM     23  C   UNL A   1      37.973  30.077  28.040  1.00  0.00     0.029 A 
ATOM     24  C   UNL A   1      38.763  30.782  29.033  1.00  0.00     0.049 A 
ATOM     25  H   UNL A   1      40.660  30.189  29.749  1.00  0.00     0.167 HD
ATOM     26  C   UNL A   1      44.403  27.655  31.625  1.00  0.00     0.031 A 
ATOM     27  C   UNL A   1      38.448  31.940  29.686  1.00  0.00     0.031 A 
ATOM     28  C   UNL A   1      43.809  28.691  32.404  1.00  0.00     0.049 A 
ATOM     29  C   UNL A   1      39.541  32.222  30.636  1.00  0.00     0.074 A 
ATOM     30  C   UNL A   1      42.853  28.737  33.385  1.00  0.00     0.029 A 
ATOM     31  N   UNL A   1      44.102  29.981  32.031  1.00  0.00    -0.354 N 
ATOM     32  N   UNL A   1      40.726  32.643  30.321  1.00  0.00    -0.248 NA
ATOM     33  C   UNL A   1      39.302  32.006  32.070  1.00  0.00     0.031 C 
ATOM     34  C   UNL A   1      42.310  30.042  33.299  1.00  0.00     0.029 A 
ATOM     35  C   UNL A   1      42.974  30.729  32.280  1.00  0.00     0.049 A 
ATOM     36  H   UNL A   1      44.952  30.305  31.657  1.00  0.00     0.167 HD
ATOM     37  C   UNL A   1      41.459  32.389  31.456  1.00  0.00     0.074 A 
ATOM     38  C   UNL A   1      40.513  32.288  32.543  1.00  0.00     0.031 C 
ATOM     39  C   UNL A   1      42.675  31.799  31.351  1.00  0.00     0.031 A 
BRANCH  26  40
ATOM     40  C   UNL A   1      45.849  27.332  31.903  1.00  0.00    -0.014 A 
ATOM     41  C   UNL A   1      46.578  26.683  30.874  1.00  0.00     0.010 A 
ATOM     42  C   UNL A   1      46.427  27.368  33.180  1.00  0.00     0.010 A 
ATOM     43  C   UNL A   1      47.776  26.012  31.128  1.00  0.00     0.020 A 
ATOM     44  C   UNL A   1      47.652  26.724  33.435  1.00  0.00     0.020 A 
ATOM     45  C   UNL A   1      48.293  26.012  32.419  1.00  0.00     0.054 A 
BRANCH  45  46
ATOM     46  S   UNL A   1      49.769  25.014  32.752  1.00  0.00     0.124 S 
ATOM     47  O   UNL A   1      50.639  25.969  33.433  1.00  0.00    -0.237 OA
ATOM     48  O   UNL A   1      49.244  23.939  33.593  1.00  0.00    -0.237 OA
ATOM     49  O   UNL A   1      50.210  24.596  31.425  1.00  0.00    -0.744 OA
ENDBRANCH  45  46
ENDBRANCH  26  40
BRANCH  27  50
ATOM     50  C   UNL A   1      37.256  32.863  29.769  1.00  0.00    -0.014 A 
ATOM     51  C   UNL A   1      37.193  34.168  29.265  1.00  0.00     0.010 A 
ATOM     52  C   UNL A   1      36.039  32.340  30.290  1.00  0.00     0.010 A 
ATOM     53  C   UNL A   1      35.965  34.857  29.167  1.00  0.00     0.020 A 
ATOM     54  C   UNL A   1      34.810  32.991  30.157  1.00  0.00     0.020 A 
ATOM     55  C   UNL A   1      34.777  34.246  29.570  1.00  0.00     0.054 A 
BRANCH  55  56
ATOM     56  S   UNL A   1      33.170  35.008  29.211  1.00  0.00     0.124 S 
ATOM     57  O   UNL A   1      33.550  36.343  28.762  1.00  0.00    -0.237 OA
ATOM     58  O   UNL A   1      32.612  34.131  28.184  1.00  0.00    -0.237 OA
ATOM     59  O   UNL A   1      32.480  34.951  30.499  1.00  0.00    -0.744 OA
ENDBRANCH  55  56
ENDBRANCH  27  50
BRANCH  39  60
ATOM     60  C   UNL A   1      43.329  31.963  29.987  1.00  0.00    -0.014 A 
ATOM     61  C   UNL A   1      43.271  30.926  29.039  1.00  0.00     0.010 A 
ATOM     62  C   UNL A   1      44.107  33.093  29.671  1.00  0.00     0.010 A 
ATOM     63  C   UNL A   1      43.970  31.016  27.826  1.00  0.00     0.020 A 
ATOM     64  C   UNL A   1      44.799  33.200  28.457  1.00  0.00     0.020 A 
ATOM     65  C   UNL A   1      44.731  32.154  27.541  1.00  0.00     0.054 A 
BRANCH  65  66
ATOM     66  S   UNL A   1      45.649  32.232  25.976  1.00  0.00     0.124 S 
ATOM     67  O   UNL A   1      46.069  30.847  25.780  1.00  0.00    -0.237 OA
ATOM     68  O   UNL A   1      44.636  32.716  25.041  1.00  0.00    -0.237 OA
ATOM     69  O   UNL A   1      46.735  33.171  26.251  1.00  0.00    -0.744 OA
ENDBRANCH  65  66
ENDBRANCH  39  60
ENDBRANCH  13  14
ENDBRANCH   6   8
ENDBRANCH   3   4
ENDBRANCH   2   3
ENDBRANCH   1   2
BRANCH   1  70
ATOM     70  C   UNL A   1      33.765  25.771  25.876  1.00  0.00     0.002 C 
BRANCH  70  71
ATOM     71  C   UNL A   1      34.033  27.252  26.176  1.00  0.00     0.021 C 
BRANCH  71  72
ATOM     72  C   UNL A   1      33.949  28.173  24.958  1.00  0.00     0.116 C 
BRANCH  72  73
ATOM     73  N   UNL A   1      32.678  28.879  24.931  1.00  0.00    -0.352 N 
ATOM     74  C   UNL A   1      31.590  28.640  24.135  1.00  0.00     0.252 C 
ATOM     75  H   UNL A   1      32.589  29.626  25.567  1.00  0.00     0.163 HD
ATOM     76  O   UNL A   1      30.744  29.528  23.988  1.00  0.00    -0.269 OA
BRANCH  74  77
ATOM     77  C   UNL A   1      31.463  27.339  23.499  1.00  0.00     0.057 A 
ATOM     78  C   UNL A   1      31.967  26.925  22.232  1.00  0.00     0.033 A 
ATOM     79  C   UNL A   1      30.886  26.216  24.069  1.00  0.00     0.099 A 
ATOM     80  C   UNL A   1      31.663  25.593  22.073  1.00  0.00     0.087 A 
ATOM     81  N   UNL A   1      30.967  25.176  23.177  1.00  0.00    -0.349 N 
BRANCH  81  82
ATOM     82  C   UNL A   1      30.501  23.811  23.416  1.00  0.00     0.160 C 
BRANCH  82  83
ATOM     83  C   UNL A   1      31.508  22.992  24.193  1.00  0.00     0.009 A 
ATOM     84  C   UNL A   1      32.531  22.272  23.543  1.00  0.00     0.047 A 
ATOM     85  C   UNL A   1      31.452  22.897  25.597  1.00  0.00     0.047 A 
ATOM     86  Cl  UNL A   1      32.805  22.374  21.837  1.00  0.00    -0.084 Cl
ATOM     87  C   UNL A   1      33.423  21.463  24.258  1.00  0.00     0.021 A 
ATOM     88  C   UNL A   1      32.359  22.102  26.312  1.00  0.00     0.021 A 
ATOM     89  Cl  UNL A   1      30.298  23.776  26.542  1.00  0.00    -0.084 Cl
ATOM     90  C   UNL A   1      33.337  21.374  25.643  1.00  0.00     0.003 A 
ENDBRANCH  82  83
ENDBRANCH  81  82
ENDBRANCH  74  77
ENDBRANCH  72  73
ENDBRANCH  71  72
ENDBRANCH  70  71
ENDBRANCH   1  70
TORSDOF 18
ENDMDL
MODEL 3
REMARK VINA RESULT:     -11.3      3.343      9.098
REMARK SMILES O=C(NCCCCCCNC(=O)c1ccn(Cc2c(Cl)cccc2Cl)c1)c1ccc(-c2c3nc(c(-c4ccc(S(=O)(=O)[O-])cc4)c4ccc([nH]4)c(-c4ccc(S(=O)(=O)[O-])cc4)c4nc(c(-c5ccc(S(=O)(=O)[O-])cc5)c5ccc2[nH]5)C=C4)C=C3)cc1
REMARK SMILES IDX 6 1 5 2 4 3 3 4 1 5 2 6 27 8 28 9 86 10 29 11 85 12 30 13
REMARK SMILES IDX 31 14 32 15 79 16 33 17 84 18 78 19 80 20 34 21 83 22 77 23
REMARK SMILES IDX 76 24 35 26 65 27 46 28 64 29 47 30 50 31 63 32 81 33 48 34
REMARK SMILES IDX 49 35 62 37 82 38 51 39 36 40 37 41 45 42 38 43 44 44 39 45
REMARK SMILES IDX 40 46 41 47 42 48 43 49 66 50 67 51 75 52 68 53 74 54 69 55
REMARK SMILES IDX 70 56 71 57 72 58 73 59 52 60 53 61 61 62 54 63 60 64 55 65
REMARK SMILES IDX 56 66 57 67 58 68 59 69 7 70 8 71 9 72 10 73 11 74 12 76
REMARK SMILES IDX 13 77 14 78 26 79 15 80 16 81 17 82 18 83 19 84 24 85 20 86
REMARK SMILES IDX 21 87 23 88 25 89 22 90
REMARK H PARENT 3 7 80 25 50 36 10 75
REMARK Flexibility Score: inf
ROOT
ATOM      1  C   UNL A   1      32.388  28.759  25.560  1.00  0.00     0.002 C 
ENDROOT
BRANCH   1   2
ATOM      2  C   UNL A   1      33.307  27.922  26.456  1.00  0.00     0.021 C 
BRANCH   2   3
ATOM      3  C   UNL A   1      34.758  28.399  26.498  1.00  0.00     0.116 C 
BRANCH   3   4
ATOM      4  N   UNL A   1      34.935  29.752  26.991  1.00  0.00    -0.352 N 
ATOM      5  O   UNL A   1      35.800  31.596  27.881  1.00  0.00    -0.269 OA
ATOM      6  C   UNL A   1      35.978  30.412  27.591  1.00  0.00     0.251 C 
ATOM      7  H   UNL A   1      34.138  30.316  26.870  1.00  0.00     0.163 HD
BRANCH   6   8
ATOM      8  C   UNL A   1      37.273  29.768  27.945  1.00  0.00     0.039 A 
ATOM      9  C   UNL A   1      38.446  29.922  27.207  1.00  0.00     0.014 A 
ATOM     10  C   UNL A   1      37.315  29.002  29.126  1.00  0.00     0.014 A 
ATOM     11  C   UNL A   1      39.615  29.269  27.591  1.00  0.00     0.010 A 
ATOM     12  C   UNL A   1      38.494  28.372  29.536  1.00  0.00     0.010 A 
ATOM     13  C   UNL A   1      39.648  28.501  28.760  1.00  0.00    -0.014 A 
BRANCH  13  14
ATOM     14  C   UNL A   1      40.969  27.964  29.170  1.00  0.00     0.031 A 
ATOM     15  C   UNL A   1      41.387  26.734  28.374  1.00  0.00     0.074 A 
ATOM     16  C   UNL A   1      41.556  28.501  30.276  1.00  0.00     0.049 A 
ATOM     17  N   UNL A   1      41.984  25.654  28.779  1.00  0.00    -0.248 NA
ATOM     18  C   UNL A   1      40.976  26.641  26.950  1.00  0.00     0.031 C 
ATOM     19  C   UNL A   1      41.071  29.705  30.975  1.00  0.00     0.029 A 
ATOM     20  N   UNL A   1      42.650  28.147  31.040  1.00  0.00    -0.354 N 
ATOM     21  C   UNL A   1      42.122  24.806  27.662  1.00  0.00     0.074 A 
ATOM     22  C   UNL A   1      41.405  25.429  26.586  1.00  0.00     0.031 C 
ATOM     23  C   UNL A   1      41.818  29.951  32.071  1.00  0.00     0.029 A 
ATOM     24  C   UNL A   1      42.838  28.928  32.203  1.00  0.00     0.049 A 
ATOM     25  H   UNL A   1      43.252  27.409  30.794  1.00  0.00     0.167 HD
ATOM     26  C   UNL A   1      42.886  23.676  27.650  1.00  0.00     0.031 A 
ATOM     27  C   UNL A   1      43.713  28.746  33.236  1.00  0.00     0.031 A 
ATOM     28  C   UNL A   1      43.522  23.461  28.909  1.00  0.00     0.049 A 
ATOM     29  C   UNL A   1      44.509  27.541  32.934  1.00  0.00     0.074 A 
ATOM     30  C   UNL A   1      43.120  22.973  30.125  1.00  0.00     0.029 A 
ATOM     31  N   UNL A   1      44.784  23.986  29.053  1.00  0.00    -0.354 N 
ATOM     32  N   UNL A   1      45.443  27.458  32.039  1.00  0.00    -0.248 NA
ATOM     33  C   UNL A   1      44.234  26.307  33.684  1.00  0.00     0.031 C 
ATOM     34  C   UNL A   1      43.998  23.573  31.062  1.00  0.00     0.029 A 
ATOM     35  C   UNL A   1      44.898  24.383  30.365  1.00  0.00     0.049 A 
ATOM     36  H   UNL A   1      45.471  24.063  28.353  1.00  0.00     0.167 HD
ATOM     37  C   UNL A   1      45.600  26.102  31.876  1.00  0.00     0.074 A 
ATOM     38  C   UNL A   1      45.077  25.480  33.071  1.00  0.00     0.031 C 
ATOM     39  C   UNL A   1      45.670  25.580  30.627  1.00  0.00     0.031 A 
BRANCH  26  40
ATOM     40  C   UNL A   1      43.310  22.787  26.509  1.00  0.00    -0.014 A 
ATOM     41  C   UNL A   1      42.668  21.527  26.395  1.00  0.00     0.010 A 
ATOM     42  C   UNL A   1      44.467  22.994  25.744  1.00  0.00     0.010 A 
ATOM     43  C   UNL A   1      43.210  20.488  25.636  1.00  0.00     0.020 A 
ATOM     44  C   UNL A   1      45.000  21.963  24.950  1.00  0.00     0.020 A 
ATOM     45  C   UNL A   1      44.394  20.704  24.939  1.00  0.00     0.054 A 
BRANCH  45  46
ATOM     46  S   UNL A   1      45.153  19.299  24.081  1.00  0.00     0.124 S 
ATOM     47  O   UNL A   1      44.556  19.391  22.751  1.00  0.00    -0.237 OA
ATOM     48  O   UNL A   1      46.578  19.617  24.148  1.00  0.00    -0.237 OA
ATOM     49  O   UNL A   1      44.742  18.146  24.877  1.00  0.00    -0.744 OA
ENDBRANCH  45  46
ENDBRANCH  26  40
BRANCH  27  50
ATOM     50  C   UNL A   1      43.946  29.356  34.597  1.00  0.00    -0.014 A 
ATOM     51  C   UNL A   1      45.065  30.105  34.979  1.00  0.00     0.010 A 
ATOM     52  C   UNL A   1      42.893  29.285  35.553  1.00  0.00     0.010 A 
ATOM     53  C   UNL A   1      45.079  30.842  36.182  1.00  0.00     0.020 A 
ATOM     54  C   UNL A   1      42.873  30.046  36.725  1.00  0.00     0.020 A 
ATOM     55  C   UNL A   1      43.964  30.844  37.023  1.00  0.00     0.054 A 
BRANCH  55  56
ATOM     56  S   UNL A   1      43.862  31.984  38.431  1.00  0.00     0.124 S 
ATOM     57  O   UNL A   1      43.740  33.281  37.775  1.00  0.00    -0.237 OA
ATOM     58  O   UNL A   1      42.673  31.521  39.143  1.00  0.00    -0.237 OA
ATOM     59  O   UNL A   1      45.122  31.753  39.137  1.00  0.00    -0.744 OA
ENDBRANCH  55  56
ENDBRANCH  27  50
BRANCH  39  60
ATOM     60  C   UNL A   1      46.100  26.576  29.561  1.00  0.00    -0.014 A 
ATOM     61  C   UNL A   1      45.148  27.173  28.716  1.00  0.00     0.010 A 
ATOM     62  C   UNL A   1      47.459  26.845  29.305  1.00  0.00     0.010 A 
ATOM     63  C   UNL A   1      45.542  27.999  27.653  1.00  0.00     0.020 A 
ATOM     64  C   UNL A   1      47.864  27.680  28.254  1.00  0.00     0.020 A 
ATOM     65  C   UNL A   1      46.900  28.248  27.427  1.00  0.00     0.054 A 
BRANCH  65  66
ATOM     66  S   UNL A   1      47.383  29.299  26.027  1.00  0.00     0.124 S 
ATOM     67  O   UNL A   1      46.269  29.130  25.098  1.00  0.00    -0.237 OA
ATOM     68  O   UNL A   1      47.487  30.618  26.645  1.00  0.00    -0.237 OA
ATOM     69  O   UNL A   1      48.651  28.725  25.578  1.00  0.00    -0.744 OA
ENDBRANCH  65  66
ENDBRANCH  39  60
ENDBRANCH  13  14
ENDBRANCH   6   8
ENDBRANCH   3   4
ENDBRANCH   2   3
ENDBRANCH   1   2
BRANCH   1  70
ATOM     70  C   UNL A   1      32.849  28.917  24.106  1.00  0.00     0.002 C 
BRANCH  70  71
ATOM     71  C   UNL A   1      31.726  29.039  23.068  1.00  0.00     0.021 C 
BRANCH  71  72
ATOM     72  C   UNL A   1      31.112  27.706  22.636  1.00  0.00     0.116 C 
BRANCH  72  73
ATOM     73  N   UNL A   1      29.756  27.575  23.142  1.00  0.00    -0.352 N 
ATOM     74  C   UNL A   1      29.223  26.559  23.891  1.00  0.00     0.252 C 
ATOM     75  H   UNL A   1      29.141  28.310  22.917  1.00  0.00     0.163 HD
ATOM     76  O   UNL A   1      27.996  26.424  23.937  1.00  0.00    -0.269 OA
BRANCH  74  77
ATOM     77  C   UNL A   1      30.125  25.680  24.616  1.00  0.00     0.057 A 
ATOM     78  C   UNL A   1      30.539  25.771  25.977  1.00  0.00     0.033 A 
ATOM     79  C   UNL A   1      30.690  24.517  24.119  1.00  0.00     0.099 A 
ATOM     80  C   UNL A   1      31.344  24.688  26.246  1.00  0.00     0.087 A 
ATOM     81  N   UNL A   1      31.467  23.949  25.098  1.00  0.00    -0.349 N 
BRANCH  81  82
ATOM     82  C   UNL A   1      32.204  22.692  24.977  1.00  0.00     0.160 C 
BRANCH  82  83
ATOM     83  C   UNL A   1      33.694  22.917  24.840  1.00  0.00     0.009 A 
ATOM     84  C   UNL A   1      34.548  22.904  25.962  1.00  0.00     0.047 A 
ATOM     85  C   UNL A   1      34.286  23.170  23.588  1.00  0.00     0.047 A 
ATOM     86  Cl  UNL A   1      33.996  22.497  27.551  1.00  0.00    -0.084 Cl
ATOM     87  C   UNL A   1      35.917  23.176  25.841  1.00  0.00     0.021 A 
ATOM     88  C   UNL A   1      35.661  23.423  23.468  1.00  0.00     0.021 A 
ATOM     89  Cl  UNL A   1      33.383  23.150  22.112  1.00  0.00    -0.084 Cl
ATOM     90  C   UNL A   1      36.474  23.439  24.596  1.00  0.00     0.003 A 
ENDBRANCH  82  83
ENDBRANCH  81  82
ENDBRANCH  74  77
ENDBRANCH  72  73
ENDBRANCH  71  72
ENDBRANCH  70  71
ENDBRANCH   1  70
TORSDOF 18
ENDMDL
