MODEL 1
REMARK VINA RESULT:     -10.9      0.000      0.000
REMARK SMILES Cc1ccc(Cl)c(Nc2ccccc2C(=O)NCC(=O)NCCCCCCNC(=O)c2ccc(-c3c4nc(c(-c5ccc(S(=O)(=O)[O-])cc5)c5ccc([nH]5)c(-c5ccc(S(=O)(=O)[O-])cc5)c5nc(c(-c6ccc(S(=O)(=O)[O-])cc6)c6ccc3[nH]6)C=C5)C=C4)cc2)c1Cl
REMARK SMILES IDX 24 1 23 2 22 3 21 4 19 5 20 6 18 8 17 9 15 10 16 11 14 13
REMARK SMILES IDX 9 14 10 15 11 16 13 17 12 18 8 19 7 21 1 22 2 23 3 24 91 25
REMARK SMILES IDX 4 26 92 27 5 28 6 29 25 30 26 31 27 32 28 33 29 34 30 36
REMARK SMILES IDX 31 37 32 38 90 39 33 40 89 41 34 42 35 43 36 44 83 45 37 46
REMARK SMILES IDX 88 47 82 48 84 49 38 50 87 51 81 52 80 53 39 55 69 56 50 57
REMARK SMILES IDX 68 58 51 59 54 60 67 61 85 62 52 63 53 64 66 66 86 67 55 68
REMARK SMILES IDX 40 69 41 70 49 71 42 72 48 73 43 74 44 75 45 76 46 77 47 78
REMARK SMILES IDX 70 79 71 80 79 81 72 82 78 83 73 84 74 85 75 86 76 87 77 88
REMARK SMILES IDX 56 89 57 90 65 91 58 92 64 93 59 94 60 95 61 96 62 97 63 98
REMARK H PARENT 21 7 17 12 8 20 28 35 84 54 54 65
REMARK Flexibility Score: inf
ROOT
ATOM      1  C   UNL A   1      30.983  27.734  25.902  1.00  0.00     0.002 C 
ENDROOT
BRANCH   1   2
ATOM      2  C   UNL A   1      31.351  26.329  25.411  1.00  0.00     0.021 C 
BRANCH   2   3
ATOM      3  C   UNL A   1      30.111  25.481  25.156  1.00  0.00     0.116 C 
BRANCH   3   4
ATOM      4  N   UNL A   1      29.688  24.880  26.396  1.00  0.00    -0.355 N 
ATOM      5  C   UNL A   1      30.021  23.640  26.845  1.00  0.00     0.239 C 
ATOM      6  O   UNL A   1      29.397  23.177  27.803  1.00  0.00    -0.273 OA
ATOM      7  H   UNL A   1      29.102  25.420  26.973  1.00  0.00     0.163 HD
BRANCH   5   8
ATOM      8  C   UNL A   1      31.324  23.000  26.371  1.00  0.00     0.216 C 
BRANCH   8   9
ATOM      9  N   UNL A   1      32.191  22.142  27.146  1.00  0.00    -0.343 N 
ATOM     10  C   UNL A   1      33.176  21.263  26.740  1.00  0.00     0.253 C 
ATOM     11  O   UNL A   1      34.143  21.184  27.506  1.00  0.00    -0.269 OA
ATOM     12  H   UNL A   1      32.058  22.192  28.120  1.00  0.00     0.164 HD
BRANCH  10  13
ATOM     13  C   UNL A   1      33.065  20.243  25.631  1.00  0.00     0.063 A 
ATOM     14  C   UNL A   1      33.212  20.354  24.227  1.00  0.00     0.051 A 
ATOM     15  C   UNL A   1      32.936  19.204  23.435  1.00  0.00     0.027 A 
ATOM     16  C   UNL A   1      32.606  17.968  23.985  1.00  0.00     0.002 A 
ATOM     17  C   UNL A   1      32.738  18.963  26.160  1.00  0.00     0.016 A 
ATOM     18  C   UNL A   1      32.526  17.841  25.358  1.00  0.00     0.001 A 
BRANCH  14  19
ATOM     19  N   UNL A   1      33.742  21.423  23.473  1.00  0.00    -0.352 N 
ATOM     20  H   UNL A   1      33.632  21.305  22.502  1.00  0.00     0.167 HD
BRANCH  19  21
ATOM     21  C   UNL A   1      34.399  22.631  23.817  1.00  0.00     0.077 A 
ATOM     22  C   UNL A   1      37.228  23.872  26.074  1.00  0.00     0.046 C 
ATOM     23  C   UNL A   1      36.009  23.854  25.193  1.00  0.00    -0.030 A 
ATOM     24  C   UNL A   1      35.207  25.002  25.106  1.00  0.00     0.006 A 
ATOM     25  C   UNL A   1      35.626  22.687  24.505  1.00  0.00     0.069 A 
ATOM     26  C   UNL A   1      34.065  25.009  24.311  1.00  0.00     0.023 A 
ATOM     27  Cl  UNL A   1      36.737  21.351  24.437  1.00  0.00    -0.082 Cl
ATOM     28  C   UNL A   1      33.674  23.840  23.662  1.00  0.00     0.066 A 
ATOM     29  Cl  UNL A   1      32.176  23.867  22.784  1.00  0.00    -0.082 Cl
ENDBRANCH  19  21
ENDBRANCH  14  19
ENDBRANCH  10  13
ENDBRANCH   8   9
ENDBRANCH   5   8
ENDBRANCH   3   4
ENDBRANCH   2   3
ENDBRANCH   1   2
BRANCH   1  30
ATOM     30  C   UNL A   1      31.782  28.184  27.129  1.00  0.00     0.002 C 
BRANCH  30  31
ATOM     31  C   UNL A   1      33.265  27.814  27.069  1.00  0.00     0.021 C 
BRANCH  31  32
ATOM     32  C   UNL A   1      34.118  28.845  26.338  1.00  0.00     0.116 C 
BRANCH  32  33
ATOM     33  N   UNL A   1      33.926  30.175  26.892  1.00  0.00    -0.352 N 
ATOM     34  C   UNL A   1      34.681  30.826  27.833  1.00  0.00     0.251 C 
ATOM     35  H   UNL A   1      33.152  30.674  26.546  1.00  0.00     0.163 HD
ATOM     36  O   UNL A   1      34.258  31.836  28.380  1.00  0.00    -0.269 OA
BRANCH  34  37
ATOM     37  C   UNL A   1      36.006  30.278  28.180  1.00  0.00     0.039 A 
ATOM     38  C   UNL A   1      37.039  30.358  27.247  1.00  0.00     0.014 A 
ATOM     39  C   UNL A   1      36.222  29.707  29.439  1.00  0.00     0.014 A 
ATOM     40  C   UNL A   1      38.309  29.900  27.593  1.00  0.00     0.010 A 
ATOM     41  C   UNL A   1      37.505  29.323  29.808  1.00  0.00     0.010 A 
ATOM     42  C   UNL A   1      38.557  29.404  28.884  1.00  0.00    -0.014 A 
BRANCH  42  43
ATOM     43  C   UNL A   1      39.911  28.956  29.285  1.00  0.00     0.031 A 
ATOM     44  C   UNL A   1      40.826  29.892  30.025  1.00  0.00     0.074 A 
ATOM     45  C   UNL A   1      40.336  27.729  28.928  1.00  0.00     0.049 A 
ATOM     46  N   UNL A   1      42.056  29.697  30.425  1.00  0.00    -0.248 NA
ATOM     47  C   UNL A   1      40.300  31.233  30.330  1.00  0.00     0.031 C 
ATOM     48  C   UNL A   1      39.556  26.751  28.167  1.00  0.00     0.029 A 
ATOM     49  N   UNL A   1      41.534  27.098  29.152  1.00  0.00    -0.354 N 
ATOM     50  C   UNL A   1      42.455  30.891  31.014  1.00  0.00     0.074 A 
ATOM     51  C   UNL A   1      41.358  31.822  30.865  1.00  0.00     0.031 C 
ATOM     52  C   UNL A   1      40.285  25.634  28.011  1.00  0.00     0.029 A 
ATOM     53  C   UNL A   1      41.595  25.832  28.624  1.00  0.00     0.049 A 
ATOM     54  H   UNL A   1      42.277  27.513  29.647  1.00  0.00     0.167 HD
ATOM     55  C   UNL A   1      43.621  31.180  31.638  1.00  0.00     0.031 A 
ATOM     56  C   UNL A   1      42.597  24.930  28.625  1.00  0.00     0.031 A 
ATOM     57  C   UNL A   1      44.708  30.249  31.777  1.00  0.00     0.049 A 
ATOM     58  C   UNL A   1      43.885  25.271  29.318  1.00  0.00     0.074 A 
ATOM     59  C   UNL A   1      45.910  30.421  32.440  1.00  0.00     0.029 A 
ATOM     60  N   UNL A   1      44.729  28.971  31.238  1.00  0.00    -0.354 N 
ATOM     61  N   UNL A   1      44.219  26.381  29.935  1.00  0.00    -0.248 NA
ATOM     62  C   UNL A   1      44.927  24.237  29.329  1.00  0.00     0.031 C 
ATOM     63  C   UNL A   1      46.682  29.269  32.251  1.00  0.00     0.029 A 
ATOM     64  C   UNL A   1      45.933  28.353  31.528  1.00  0.00     0.049 A 
ATOM     65  H   UNL A   1      43.994  28.563  30.724  1.00  0.00     0.167 HD
ATOM     66  C   UNL A   1      45.502  26.170  30.427  1.00  0.00     0.074 A 
ATOM     67  C   UNL A   1      45.876  24.821  30.048  1.00  0.00     0.031 C 
ATOM     68  C   UNL A   1      46.295  27.014  31.132  1.00  0.00     0.031 A 
BRANCH  55  69
ATOM     69  C   UNL A   1      43.776  32.571  32.199  1.00  0.00    -0.014 A 
ATOM     70  C   UNL A   1      44.322  33.613  31.425  1.00  0.00     0.010 A 
ATOM     71  C   UNL A   1      43.368  32.844  33.517  1.00  0.00     0.010 A 
ATOM     72  C   UNL A   1      44.517  34.881  31.979  1.00  0.00     0.020 A 
ATOM     73  C   UNL A   1      43.531  34.120  34.064  1.00  0.00     0.020 A 
ATOM     74  C   UNL A   1      44.127  35.124  33.298  1.00  0.00     0.054 A 
BRANCH  74  75
ATOM     75  S   UNL A   1      44.402  36.776  33.995  1.00  0.00     0.124 S 
ATOM     76  O   UNL A   1      44.393  36.502  35.430  1.00  0.00    -0.237 OA
ATOM     77  O   UNL A   1      45.699  37.149  33.435  1.00  0.00    -0.237 OA
ATOM     78  O   UNL A   1      43.267  37.553  33.502  1.00  0.00    -0.744 OA
ENDBRANCH  74  75
ENDBRANCH  55  69
BRANCH  56  79
ATOM     79  C   UNL A   1      42.396  23.614  27.962  1.00  0.00    -0.014 A 
ATOM     80  C   UNL A   1      42.753  23.430  26.615  1.00  0.00     0.010 A 
ATOM     81  C   UNL A   1      41.902  22.518  28.695  1.00  0.00     0.010 A 
ATOM     82  C   UNL A   1      42.619  22.175  26.012  1.00  0.00     0.020 A 
ATOM     83  C   UNL A   1      41.792  21.257  28.104  1.00  0.00     0.020 A 
ATOM     84  C   UNL A   1      42.148  21.094  26.764  1.00  0.00     0.054 A 
BRANCH  84  85
ATOM     85  S   UNL A   1      42.068  19.457  25.986  1.00  0.00     0.124 S 
ATOM     86  O   UNL A   1      42.546  18.587  27.056  1.00  0.00    -0.237 OA
ATOM     87  O   UNL A   1      40.650  19.335  25.656  1.00  0.00    -0.237 OA
ATOM     88  O   UNL A   1      42.959  19.582  24.835  1.00  0.00    -0.744 OA
ENDBRANCH  84  85
ENDBRANCH  56  79
BRANCH  68  89
ATOM     89  C   UNL A   1      47.644  26.498  31.563  1.00  0.00    -0.014 A 
ATOM     90  C   UNL A   1      47.781  25.656  32.681  1.00  0.00     0.010 A 
ATOM     91  C   UNL A   1      48.783  26.818  30.801  1.00  0.00     0.010 A 
ATOM     92  C   UNL A   1      49.039  25.168  33.046  1.00  0.00     0.020 A 
ATOM     93  C   UNL A   1      50.037  26.306  31.145  1.00  0.00     0.020 A 
ATOM     94  C   UNL A   1      50.159  25.495  32.275  1.00  0.00     0.054 A 
BRANCH  94  95
ATOM     95  S   UNL A   1      51.772  24.811  32.743  1.00  0.00     0.124 S 
ATOM     96  O   UNL A   1      52.003  25.442  34.040  1.00  0.00    -0.237 OA
ATOM     97  O   UNL A   1      51.512  23.375  32.780  1.00  0.00    -0.237 OA
ATOM     98  O   UNL A   1      52.660  25.251  31.670  1.00  0.00    -0.744 OA
ENDBRANCH  94  95
ENDBRANCH  68  89
ENDBRANCH  42  43
ENDBRANCH  34  37
ENDBRANCH  32  33
ENDBRANCH  31  32
ENDBRANCH  30  31
ENDBRANCH   1  30
TORSDOF 20
ENDMDL
MODEL 2
REMARK VINA RESULT:     -10.6      2.385      3.066
REMARK SMILES Cc1ccc(Cl)c(Nc2ccccc2C(=O)NCC(=O)NCCCCCCNC(=O)c2ccc(-c3c4nc(c(-c5ccc(S(=O)(=O)[O-])cc5)c5ccc([nH]5)c(-c5ccc(S(=O)(=O)[O-])cc5)c5nc(c(-c6ccc(S(=O)(=O)[O-])cc6)c6ccc3[nH]6)C=C5)C=C4)cc2)c1Cl
REMARK SMILES IDX 24 1 23 2 22 3 21 4 19 5 20 6 18 8 17 9 15 10 16 11 14 13
REMARK SMILES IDX 9 14 10 15 11 16 13 17 12 18 8 19 7 21 1 22 2 23 3 24 91 25
REMARK SMILES IDX 4 26 92 27 5 28 6 29 25 30 26 31 27 32 28 33 29 34 30 36
REMARK SMILES IDX 31 37 32 38 90 39 33 40 89 41 34 42 35 43 36 44 83 45 37 46
REMARK SMILES IDX 88 47 82 48 84 49 38 50 87 51 81 52 80 53 39 55 69 56 50 57
REMARK SMILES IDX 68 58 51 59 54 60 67 61 85 62 52 63 53 64 66 66 86 67 55 68
REMARK SMILES IDX 40 69 41 70 49 71 42 72 48 73 43 74 44 75 45 76 46 77 47 78
REMARK SMILES IDX 70 79 71 80 79 81 72 82 78 83 73 84 74 85 75 86 76 87 77 88
REMARK SMILES IDX 56 89 57 90 65 91 58 92 64 93 59 94 60 95 61 96 62 97 63 98
REMARK H PARENT 21 7 17 12 8 20 28 35 84 54 54 65
REMARK Flexibility Score: inf
ROOT
ATOM      1  C   UNL A   1      31.164  27.078  25.683  1.00  0.00     0.002 C 
ENDROOT
BRANCH   1   2
ATOM      2  C   UNL A   1      31.425  25.996  24.630  1.00  0.00     0.021 C 
BRANCH   2   3
ATOM      3  C   UNL A   1      30.353  24.914  24.659  1.00  0.00     0.116 C 
BRANCH   3   4
ATOM      4  N   UNL A   1      30.186  24.454  26.015  1.00  0.00    -0.355 N 
ATOM      5  C   UNL A   1      30.170  23.159  26.430  1.00  0.00     0.239 C 
ATOM      6  O   UNL A   1      29.784  22.916  27.577  1.00  0.00    -0.273 OA
ATOM      7  H   UNL A   1      30.072  25.144  26.707  1.00  0.00     0.163 HD
BRANCH   5   8
ATOM      8  C   UNL A   1      30.902  22.102  25.607  1.00  0.00     0.216 C 
BRANCH   8   9
ATOM      9  N   UNL A   1      31.924  22.342  24.613  1.00  0.00    -0.343 N 
ATOM     10  C   UNL A   1      32.467  21.499  23.665  1.00  0.00     0.253 C 
ATOM     11  O   UNL A   1      32.769  22.047  22.599  1.00  0.00    -0.269 OA
ATOM     12  H   UNL A   1      32.291  23.255  24.612  1.00  0.00     0.164 HD
BRANCH  10  13
ATOM     13  C   UNL A   1      32.944  20.083  23.893  1.00  0.00     0.063 A 
ATOM     14  C   UNL A   1      33.993  19.555  24.686  1.00  0.00     0.051 A 
ATOM     15  C   UNL A   1      34.254  18.159  24.601  1.00  0.00     0.027 A 
ATOM     16  C   UNL A   1      33.480  17.289  23.837  1.00  0.00     0.002 A 
ATOM     17  C   UNL A   1      32.167  19.165  23.133  1.00  0.00     0.016 A 
ATOM     18  C   UNL A   1      32.416  17.792  23.115  1.00  0.00     0.001 A 
BRANCH  14  19
ATOM     19  N   UNL A   1      34.755  20.195  25.687  1.00  0.00    -0.352 N 
ATOM     20  H   UNL A   1      34.722  19.732  26.555  1.00  0.00     0.167 HD
BRANCH  19  21
ATOM     21  C   UNL A   1      35.557  21.363  25.709  1.00  0.00     0.077 A 
ATOM     22  C   UNL A   1      35.171  25.165  25.884  1.00  0.00     0.046 C 
ATOM     23  C   UNL A   1      35.761  23.800  25.662  1.00  0.00    -0.030 A 
ATOM     24  C   UNL A   1      36.984  23.682  24.985  1.00  0.00     0.006 A 
ATOM     25  C   UNL A   1      35.077  22.637  26.066  1.00  0.00     0.069 A 
ATOM     26  C   UNL A   1      37.546  22.430  24.752  1.00  0.00     0.023 A 
ATOM     27  Cl  UNL A   1      33.686  22.798  27.096  1.00  0.00    -0.082 Cl
ATOM     28  C   UNL A   1      36.847  21.285  25.123  1.00  0.00     0.066 A 
ATOM     29  Cl  UNL A   1      37.533  19.747  24.699  1.00  0.00    -0.082 Cl
ENDBRANCH  19  21
ENDBRANCH  14  19
ENDBRANCH  10  13
ENDBRANCH   8   9
ENDBRANCH   5   8
ENDBRANCH   3   4
ENDBRANCH   2   3
ENDBRANCH   1   2
BRANCH   1  30
ATOM     30  C   UNL A   1      31.722  28.453  25.303  1.00  0.00     0.002 C 
BRANCH  30  31
ATOM     31  C   UNL A   1      33.212  28.440  24.956  1.00  0.00     0.021 C 
BRANCH  31  32
ATOM     32  C   UNL A   1      34.107  28.874  26.110  1.00  0.00     0.116 C 
BRANCH  32  33
ATOM     33  N   UNL A   1      33.801  30.231  26.532  1.00  0.00    -0.352 N 
ATOM     34  C   UNL A   1      34.370  30.962  27.542  1.00  0.00     0.251 C 
ATOM     35  H   UNL A   1      33.090  30.686  26.024  1.00  0.00     0.163 HD
ATOM     36  O   UNL A   1      33.843  31.992  27.938  1.00  0.00    -0.269 OA
BRANCH  34  37
ATOM     37  C   UNL A   1      35.624  30.474  28.148  1.00  0.00     0.039 A 
ATOM     38  C   UNL A   1      36.842  30.925  27.643  1.00  0.00     0.014 A 
ATOM     39  C   UNL A   1      35.582  29.587  29.229  1.00  0.00     0.014 A 
ATOM     40  C   UNL A   1      38.027  30.517  28.253  1.00  0.00     0.010 A 
ATOM     41  C   UNL A   1      36.758  29.244  29.882  1.00  0.00     0.010 A 
ATOM     42  C   UNL A   1      37.993  29.695  29.392  1.00  0.00    -0.014 A 
BRANCH  42  43
ATOM     43  C   UNL A   1      39.240  29.289  30.082  1.00  0.00     0.031 A 
ATOM     44  C   UNL A   1      39.682  30.009  31.326  1.00  0.00     0.074 A 
ATOM     45  C   UNL A   1      40.003  28.314  29.552  1.00  0.00     0.049 A 
ATOM     46  N   UNL A   1      40.758  29.827  32.045  1.00  0.00    -0.248 NA
ATOM     47  C   UNL A   1      38.814  31.098  31.807  1.00  0.00     0.031 C 
ATOM     48  C   UNL A   1      39.702  27.577  28.322  1.00  0.00     0.029 A 
ATOM     49  N   UNL A   1      41.194  27.782  29.977  1.00  0.00    -0.354 N 
ATOM     50  C   UNL A   1      40.706  30.782  33.052  1.00  0.00     0.074 A 
ATOM     51  C   UNL A   1      39.523  31.580  32.816  1.00  0.00     0.031 C 
ATOM     52  C   UNL A   1      40.668  26.670  28.108  1.00  0.00     0.029 A 
ATOM     53  C   UNL A   1      41.674  26.789  29.159  1.00  0.00     0.049 A 
ATOM     54  H   UNL A   1      41.658  28.081  30.792  1.00  0.00     0.167 HD
ATOM     55  C   UNL A   1      41.554  30.966  34.091  1.00  0.00     0.031 A 
ATOM     56  C   UNL A   1      42.804  26.058  29.239  1.00  0.00     0.031 A 
ATOM     57  C   UNL A   1      42.732  30.170  34.316  1.00  0.00     0.049 A 
ATOM     58  C   UNL A   1      43.737  26.280  30.396  1.00  0.00     0.074 A 
ATOM     59  C   UNL A   1      43.628  30.236  35.367  1.00  0.00     0.029 A 
ATOM     60  N   UNL A   1      43.180  29.165  33.471  1.00  0.00    -0.354 N 
ATOM     61  N   UNL A   1      43.633  27.140  31.382  1.00  0.00    -0.248 NA
ATOM     62  C   UNL A   1      44.929  25.427  30.460  1.00  0.00     0.031 C 
ATOM     63  C   UNL A   1      44.651  29.312  35.127  1.00  0.00     0.029 A 
ATOM     64  C   UNL A   1      44.356  28.623  33.960  1.00  0.00     0.049 A 
ATOM     65  H   UNL A   1      42.728  28.880  32.643  1.00  0.00     0.167 HD
ATOM     66  C   UNL A   1      44.736  26.916  32.198  1.00  0.00     0.074 A 
ATOM     67  C   UNL A   1      45.485  25.830  31.595  1.00  0.00     0.031 C 
ATOM     68  C   UNL A   1      45.095  27.549  33.342  1.00  0.00     0.031 A 
BRANCH  55  69
ATOM     69  C   UNL A   1      41.240  32.089  35.048  1.00  0.00    -0.014 A 
ATOM     70  C   UNL A   1      41.788  33.373  34.871  1.00  0.00     0.010 A 
ATOM     71  C   UNL A   1      40.382  31.858  36.139  1.00  0.00     0.010 A 
ATOM     72  C   UNL A   1      41.537  34.386  35.800  1.00  0.00     0.020 A 
ATOM     73  C   UNL A   1      40.102  32.878  37.053  1.00  0.00     0.020 A 
ATOM     74  C   UNL A   1      40.702  34.129  36.890  1.00  0.00     0.054 A 
BRANCH  74  75
ATOM     75  S   UNL A   1      40.401  35.458  38.088  1.00  0.00     0.124 S 
ATOM     76  O   UNL A   1      41.617  35.415  38.896  1.00  0.00    -0.237 OA
ATOM     77  O   UNL A   1      40.257  36.634  37.232  1.00  0.00    -0.237 OA
ATOM     78  O   UNL A   1      39.182  35.038  38.774  1.00  0.00    -0.744 OA
ENDBRANCH  74  75
ENDBRANCH  55  69
BRANCH  56  79
ATOM     79  C   UNL A   1      43.089  25.036  28.197  1.00  0.00    -0.014 A 
ATOM     80  C   UNL A   1      43.857  25.362  27.066  1.00  0.00     0.010 A 
ATOM     81  C   UNL A   1      42.644  23.710  28.363  1.00  0.00     0.010 A 
ATOM     82  C   UNL A   1      44.173  24.384  26.118  1.00  0.00     0.020 A 
ATOM     83  C   UNL A   1      42.981  22.724  27.432  1.00  0.00     0.020 A 
ATOM     84  C   UNL A   1      43.741  23.068  26.313  1.00  0.00     0.054 A 
BRANCH  84  85
ATOM     85  S   UNL A   1      44.240  21.798  25.117  1.00  0.00     0.124 S 
ATOM     86  O   UNL A   1      45.609  21.509  25.533  1.00  0.00    -0.237 OA
ATOM     87  O   UNL A   1      43.266  20.737  25.360  1.00  0.00    -0.237 OA
ATOM     88  O   UNL A   1      44.105  22.472  23.828  1.00  0.00    -0.744 OA
ENDBRANCH  84  85
ENDBRANCH  56  79
BRANCH  68  89
ATOM     89  C   UNL A   1      46.343  27.070  34.037  1.00  0.00    -0.014 A 
ATOM     90  C   UNL A   1      47.592  27.668  33.792  1.00  0.00     0.010 A 
ATOM     91  C   UNL A   1      46.250  26.042  34.993  1.00  0.00     0.010 A 
ATOM     92  C   UNL A   1      48.731  27.224  34.469  1.00  0.00     0.020 A 
ATOM     93  C   UNL A   1      47.382  25.617  35.694  1.00  0.00     0.020 A 
ATOM     94  C   UNL A   1      48.619  26.202  35.416  1.00  0.00     0.054 A 
BRANCH  94  95
ATOM     95  S   UNL A   1      50.104  25.677  36.315  1.00  0.00     0.124 S 
ATOM     96  O   UNL A   1      50.829  24.930  35.290  1.00  0.00    -0.237 OA
ATOM     97  O   UNL A   1      50.706  26.947  36.710  1.00  0.00    -0.237 OA
ATOM     98  O   UNL A   1      49.578  24.873  37.415  1.00  0.00    -0.744 OA
ENDBRANCH  94  95
ENDBRANCH  68  89
ENDBRANCH  42  43
ENDBRANCH  34  37
ENDBRANCH  32  33
ENDBRANCH  31  32
ENDBRANCH  30  31
ENDBRANCH   1  30
TORSDOF 20
ENDMDL
MODEL 3
REMARK VINA RESULT:     -10.3      3.478      5.093
REMARK SMILES Cc1ccc(Cl)c(Nc2ccccc2C(=O)NCC(=O)NCCCCCCNC(=O)c2ccc(-c3c4nc(c(-c5ccc(S(=O)(=O)[O-])cc5)c5ccc([nH]5)c(-c5ccc(S(=O)(=O)[O-])cc5)c5nc(c(-c6ccc(S(=O)(=O)[O-])cc6)c6ccc3[nH]6)C=C5)C=C4)cc2)c1Cl
REMARK SMILES IDX 24 1 23 2 22 3 21 4 19 5 20 6 18 8 17 9 15 10 16 11 14 13
REMARK SMILES IDX 9 14 10 15 11 16 13 17 12 18 8 19 7 21 1 22 2 23 3 24 91 25
REMARK SMILES IDX 4 26 92 27 5 28 6 29 25 30 26 31 27 32 28 33 29 34 30 36
REMARK SMILES IDX 31 37 32 38 90 39 33 40 89 41 34 42 35 43 36 44 83 45 37 46
REMARK SMILES IDX 88 47 82 48 84 49 38 50 87 51 81 52 80 53 39 55 69 56 50 57
REMARK SMILES IDX 68 58 51 59 54 60 67 61 85 62 52 63 53 64 66 66 86 67 55 68
REMARK SMILES IDX 40 69 41 70 49 71 42 72 48 73 43 74 44 75 45 76 46 77 47 78
REMARK SMILES IDX 70 79 71 80 79 81 72 82 78 83 73 84 74 85 75 86 76 87 77 88
REMARK SMILES IDX 56 89 57 90 65 91 58 92 64 93 59 94 60 95 61 96 62 97 63 98
REMARK H PARENT 21 7 17 12 8 20 28 35 84 54 54 65
REMARK Flexibility Score: inf
ROOT
ATOM      1  C   UNL A   1      34.956  32.014  27.987  1.00  0.00     0.002 C 
ENDROOT
BRANCH   1   2
ATOM      2  C   UNL A   1      35.660  30.653  27.947  1.00  0.00     0.021 C 
BRANCH   2   3
ATOM      3  C   UNL A   1      34.679  29.521  27.672  1.00  0.00     0.116 C 
BRANCH   3   4
ATOM      4  N   UNL A   1      33.349  30.067  27.567  1.00  0.00    -0.355 N 
ATOM      5  C   UNL A   1      32.264  29.449  27.027  1.00  0.00     0.239 C 
ATOM      6  O   UNL A   1      31.259  30.126  26.794  1.00  0.00    -0.273 OA
ATOM      7  H   UNL A   1      33.213  30.976  27.920  1.00  0.00     0.163 HD
BRANCH   5   8
ATOM      8  C   UNL A   1      32.206  27.923  27.013  1.00  0.00     0.216 C 
BRANCH   8   9
ATOM      9  N   UNL A   1      31.017  27.110  26.885  1.00  0.00    -0.343 N 
ATOM     10  C   UNL A   1      30.776  25.994  26.109  1.00  0.00     0.253 C 
ATOM     11  O   UNL A   1      30.030  25.156  26.630  1.00  0.00    -0.269 OA
ATOM     12  H   UNL A   1      30.258  27.399  27.441  1.00  0.00     0.164 HD
BRANCH  10  13
ATOM     13  C   UNL A   1      31.113  25.829  24.646  1.00  0.00     0.063 A 
ATOM     14  C   UNL A   1      31.729  24.773  23.930  1.00  0.00     0.051 A 
ATOM     15  C   UNL A   1      32.003  24.975  22.549  1.00  0.00     0.027 A 
ATOM     16  C   UNL A   1      31.626  26.127  21.862  1.00  0.00     0.002 A 
ATOM     17  C   UNL A   1      30.731  26.987  23.911  1.00  0.00     0.016 A 
ATOM     18  C   UNL A   1      30.966  27.131  22.544  1.00  0.00     0.001 A 
BRANCH  14  19
ATOM     19  N   UNL A   1      31.995  23.454  24.354  1.00  0.00    -0.352 N 
ATOM     20  H   UNL A   1      31.183  22.951  24.593  1.00  0.00     0.167 HD
BRANCH  19  21
ATOM     21  C   UNL A   1      33.184  22.697  24.509  1.00  0.00     0.077 A 
ATOM     22  C   UNL A   1      34.328  19.048  24.590  1.00  0.00     0.046 C 
ATOM     23  C   UNL A   1      34.309  20.540  24.768  1.00  0.00    -0.030 A 
ATOM     24  C   UNL A   1      35.292  21.152  25.560  1.00  0.00     0.006 A 
ATOM     25  C   UNL A   1      33.286  21.327  24.203  1.00  0.00     0.069 A 
ATOM     26  C   UNL A   1      35.289  22.530  25.754  1.00  0.00     0.023 A 
ATOM     27  Cl  UNL A   1      32.212  20.600  23.046  1.00  0.00    -0.082 Cl
ATOM     28  C   UNL A   1      34.254  23.295  25.222  1.00  0.00     0.066 A 
ATOM     29  Cl  UNL A   1      34.230  24.990  25.597  1.00  0.00    -0.082 Cl
ENDBRANCH  19  21
ENDBRANCH  14  19
ENDBRANCH  10  13
ENDBRANCH   8   9
ENDBRANCH   5   8
ENDBRANCH   3   4
ENDBRANCH   2   3
ENDBRANCH   1   2
BRANCH   1  30
ATOM     30  C   UNL A   1      35.920  33.203  28.052  1.00  0.00     0.002 C 
BRANCH  30  31
ATOM     31  C   UNL A   1      35.978  33.877  29.424  1.00  0.00     0.021 C 
BRANCH  31  32
ATOM     32  C   UNL A   1      37.050  33.298  30.339  1.00  0.00     0.116 C 
BRANCH  32  33
ATOM     33  N   UNL A   1      36.518  32.222  31.158  1.00  0.00    -0.352 N 
ATOM     34  C   UNL A   1      36.978  30.937  31.285  1.00  0.00     0.251 C 
ATOM     35  H   UNL A   1      35.722  32.445  31.692  1.00  0.00     0.163 HD
ATOM     36  O   UNL A   1      36.287  30.078  31.815  1.00  0.00    -0.269 OA
BRANCH  34  37
ATOM     37  C   UNL A   1      38.317  30.610  30.759  1.00  0.00     0.039 A 
ATOM     38  C   UNL A   1      39.352  30.343  31.655  1.00  0.00     0.014 A 
ATOM     39  C   UNL A   1      38.533  30.549  29.378  1.00  0.00     0.014 A 
ATOM     40  C   UNL A   1      40.602  29.971  31.163  1.00  0.00     0.010 A 
ATOM     41  C   UNL A   1      39.756  30.103  28.893  1.00  0.00     0.010 A 
ATOM     42  C   UNL A   1      40.805  29.823  29.780  1.00  0.00    -0.014 A 
BRANCH  42  43
ATOM     43  C   UNL A   1      42.114  29.384  29.242  1.00  0.00     0.031 A 
ATOM     44  C   UNL A   1      43.247  30.365  29.120  1.00  0.00     0.074 A 
ATOM     45  C   UNL A   1      42.260  28.118  28.806  1.00  0.00     0.049 A 
ATOM     46  N   UNL A   1      44.448  30.180  28.638  1.00  0.00    -0.248 NA
ATOM     47  C   UNL A   1      42.985  31.742  29.571  1.00  0.00     0.031 C 
ATOM     48  C   UNL A   1      41.217  27.089  28.828  1.00  0.00     0.029 A 
ATOM     49  N   UNL A   1      43.343  27.483  28.253  1.00  0.00    -0.354 N 
ATOM     50  C   UNL A   1      45.080  31.416  28.714  1.00  0.00     0.074 A 
ATOM     51  C   UNL A   1      44.109  32.354  29.233  1.00  0.00     0.031 C 
ATOM     52  C   UNL A   1      41.720  25.945  28.337  1.00  0.00     0.029 A 
ATOM     53  C   UNL A   1      43.103  26.170  27.929  1.00  0.00     0.049 A 
ATOM     54  H   UNL A   1      44.209  27.926  28.104  1.00  0.00     0.167 HD
ATOM     55  C   UNL A   1      46.357  31.736  28.401  1.00  0.00     0.031 A 
ATOM     56  C   UNL A   1      43.904  25.248  27.359  1.00  0.00     0.031 A 
ATOM     57  C   UNL A   1      47.315  30.796  27.881  1.00  0.00     0.049 A 
ATOM     58  C   UNL A   1      45.317  25.624  27.012  1.00  0.00     0.074 A 
ATOM     59  C   UNL A   1      48.650  31.003  27.583  1.00  0.00     0.029 A 
ATOM     60  N   UNL A   1      47.038  29.472  27.577  1.00  0.00    -0.354 N 
ATOM     61  N   UNL A   1      45.921  26.780  27.160  1.00  0.00    -0.248 NA
ATOM     62  C   UNL A   1      46.161  24.570  26.435  1.00  0.00     0.031 C 
ATOM     63  C   UNL A   1      49.165  29.820  27.042  1.00  0.00     0.029 A 
ATOM     64  C   UNL A   1      48.168  28.856  27.066  1.00  0.00     0.049 A 
ATOM     65  H   UNL A   1      46.165  29.033  27.705  1.00  0.00     0.167 HD
ATOM     66  C   UNL A   1      47.224  26.586  26.715  1.00  0.00     0.074 A 
ATOM     67  C   UNL A   1      47.322  25.198  26.307  1.00  0.00     0.031 C 
ATOM     68  C   UNL A   1      48.246  27.476  26.653  1.00  0.00     0.031 A 
BRANCH  55  69
ATOM     69  C   UNL A   1      46.776  33.171  28.596  1.00  0.00    -0.014 A 
ATOM     70  C   UNL A   1      47.320  33.612  29.818  1.00  0.00     0.010 A 
ATOM     71  C   UNL A   1      46.628  34.093  27.544  1.00  0.00     0.010 A 
ATOM     72  C   UNL A   1      47.646  34.959  30.004  1.00  0.00     0.020 A 
ATOM     73  C   UNL A   1      46.984  35.434  27.716  1.00  0.00     0.020 A 
ATOM     74  C   UNL A   1      47.468  35.862  28.954  1.00  0.00     0.054 A 
BRANCH  74  75
ATOM     75  S   UNL A   1      47.889  37.606  29.226  1.00  0.00     0.124 S 
ATOM     76  O   UNL A   1      49.335  37.539  29.418  1.00  0.00    -0.237 OA
ATOM     77  O   UNL A   1      47.449  38.239  27.985  1.00  0.00    -0.237 OA
ATOM     78  O   UNL A   1      47.119  37.967  30.414  1.00  0.00    -0.744 OA
ENDBRANCH  74  75
ENDBRANCH  55  69
BRANCH  56  79
ATOM     79  C   UNL A   1      43.381  23.879  27.108  1.00  0.00    -0.014 A 
ATOM     80  C   UNL A   1      43.286  22.946  28.154  1.00  0.00     0.010 A 
ATOM     81  C   UNL A   1      42.916  23.521  25.827  1.00  0.00     0.010 A 
ATOM     82  C   UNL A   1      42.738  21.680  27.927  1.00  0.00     0.020 A 
ATOM     83  C   UNL A   1      42.343  22.267  25.603  1.00  0.00     0.020 A 
ATOM     84  C   UNL A   1      42.261  21.352  26.653  1.00  0.00     0.054 A 
BRANCH  84  85
ATOM     85  S   UNL A   1      41.472  19.737  26.404  1.00  0.00     0.124 S 
ATOM     86  O   UNL A   1      42.241  19.191  25.291  1.00  0.00    -0.237 OA
ATOM     87  O   UNL A   1      41.674  19.086  27.696  1.00  0.00    -0.237 OA
ATOM     88  O   UNL A   1      40.084  20.079  26.100  1.00  0.00    -0.744 OA
ENDBRANCH  84  85
ENDBRANCH  56  79
BRANCH  68  89
ATOM     89  C   UNL A   1      49.573  26.972  26.147  1.00  0.00    -0.014 A 
ATOM     90  C   UNL A   1      49.906  27.036  24.782  1.00  0.00     0.010 A 
ATOM     91  C   UNL A   1      50.521  26.480  27.063  1.00  0.00     0.010 A 
ATOM     92  C   UNL A   1      51.154  26.588  24.340  1.00  0.00     0.020 A 
ATOM     93  C   UNL A   1      51.780  26.060  26.627  1.00  0.00     0.020 A 
ATOM     94  C   UNL A   1      52.083  26.104  25.265  1.00  0.00     0.054 A 
BRANCH  94  95
ATOM     95  S   UNL A   1      53.712  25.572  24.670  1.00  0.00     0.124 S 
ATOM     96  O   UNL A   1      53.791  26.235  23.371  1.00  0.00    -0.237 OA
ATOM     97  O   UNL A   1      54.613  26.090  25.696  1.00  0.00    -0.237 OA
ATOM     98  O   UNL A   1      53.605  24.116  24.621  1.00  0.00    -0.744 OA
ENDBRANCH  94  95
ENDBRANCH  68  89
ENDBRANCH  42  43
ENDBRANCH  34  37
ENDBRANCH  32  33
ENDBRANCH  31  32
ENDBRANCH  30  31
ENDBRANCH   1  30
TORSDOF 20
ENDMDL
