MODEL 1
REMARK VINA RESULT:      -9.4      0.000      0.000
REMARK SMILES O=C(CCCCCn1cc(Cl)c(I)n1)NCCCCCCNC(=O)c1ccc(-c2c3nc(c(-c4ccc(S(=O)(=O)[O-])cc4)c4ccc([nH]4)c(-c4ccc(S(=O)(=O)[O-])cc4)c4nc(c(-c5ccc(S(=O)(=O)[O-])cc5)c5ccc2[nH]5)C=C4)C=C3)cc1
REMARK SMILES IDX 17 1 16 2 15 3 1 4 2 5 3 7 4 8 5 9 6 10 7 11 8 12 9 13 14 14
REMARK SMILES IDX 10 15 12 16 11 17 13 18 18 19 19 20 20 21 21 22 22 23 23 24
REMARK SMILES IDX 24 26 25 27 26 28 84 29 27 30 83 31 28 32 29 33 30 34 77 35
REMARK SMILES IDX 31 36 82 37 76 38 78 39 32 40 81 41 75 42 74 43 33 45 63 46
REMARK SMILES IDX 44 47 62 48 45 49 48 50 61 51 79 52 46 53 47 54 60 56 80 57
REMARK SMILES IDX 49 58 34 59 35 60 43 61 36 62 42 63 37 64 38 65 39 66 40 67
REMARK SMILES IDX 41 68 64 69 65 70 73 71 66 72 72 73 67 74 68 75 69 76 70 77
REMARK SMILES IDX 71 78 50 79 51 80 59 81 52 82 58 83 53 84 54 85 55 86 56 87
REMARK SMILES IDX 57 88
REMARK H PARENT 15 6 22 25 78 44 48 55
REMARK Flexibility Score: inf
ROOT
ATOM      1  C   UNL A   1      34.976  29.621  27.343  1.00  0.00     0.021 C 
ENDROOT
BRANCH   1   2
ATOM      2  C   UNL A   1      33.469  29.595  27.099  1.00  0.00     0.116 C 
BRANCH   2   3
ATOM      3  N   UNL A   1      33.049  28.327  26.541  1.00  0.00    -0.356 N 
ATOM      4  O   UNL A   1      31.326  27.918  28.007  1.00  0.00    -0.275 OA
ATOM      5  C   UNL A   1      31.988  27.603  27.026  1.00  0.00     0.219 C 
ATOM      6  H   UNL A   1      33.551  27.965  25.776  1.00  0.00     0.163 HD
BRANCH   5   7
ATOM      7  C   UNL A   1      31.661  26.388  26.178  1.00  0.00     0.100 C 
BRANCH   7   8
ATOM      8  C   UNL A   1      31.816  26.682  24.684  1.00  0.00     0.010 C 
BRANCH   8   9
ATOM      9  C   UNL A   1      31.003  25.794  23.736  1.00  0.00     0.002 C 
BRANCH   9  10
ATOM     10  C   UNL A   1      31.766  25.231  22.526  1.00  0.00     0.024 C 
BRANCH  10  11
ATOM     11  C   UNL A   1      33.234  24.886  22.800  1.00  0.00     0.144 C 
BRANCH  11  12
ATOM     12  N   UNL A   1      33.475  23.765  23.693  1.00  0.00    -0.270 N 
ATOM     13  C   UNL A   1      34.298  23.702  24.782  1.00  0.00     0.130 A 
ATOM     14  N   UNL A   1      32.838  22.601  23.449  1.00  0.00    -0.165 NA
ATOM     15  C   UNL A   1      34.283  22.394  25.203  1.00  0.00     0.092 A 
ATOM     16  C   UNL A   1      33.343  21.767  24.363  1.00  0.00     0.141 A 
ATOM     17  Cl  UNL A   1      35.214  21.729  26.453  1.00  0.00    -0.080 Cl
ATOM     18  I   UNL A   1      32.767  19.810  24.461  1.00  0.00    -0.018 I 
ENDBRANCH  11  12
ENDBRANCH  10  11
ENDBRANCH   9  10
ENDBRANCH   8   9
ENDBRANCH   7   8
ENDBRANCH   5   7
ENDBRANCH   2   3
ENDBRANCH   1   2
BRANCH   1  19
ATOM     19  C   UNL A   1      35.447  30.597  28.432  1.00  0.00     0.002 C 
BRANCH  19  20
ATOM     20  C   UNL A   1      36.149  31.876  27.951  1.00  0.00     0.002 C 
BRANCH  20  21
ATOM     21  C   UNL A   1      35.356  33.185  28.064  1.00  0.00     0.021 C 
BRANCH  21  22
ATOM     22  C   UNL A   1      34.168  33.128  29.016  1.00  0.00     0.116 C 
BRANCH  22  23
ATOM     23  N   UNL A   1      34.186  34.180  30.032  1.00  0.00    -0.352 N 
ATOM     24  C   UNL A   1      34.854  34.181  31.249  1.00  0.00     0.251 C 
ATOM     25  H   UNL A   1      33.660  34.987  29.827  1.00  0.00     0.163 HD
ATOM     26  O   UNL A   1      34.482  34.901  32.161  1.00  0.00    -0.269 OA
BRANCH  24  27
ATOM     27  C   UNL A   1      36.031  33.304  31.413  1.00  0.00     0.039 A 
ATOM     28  C   UNL A   1      35.914  31.956  31.769  1.00  0.00     0.014 A 
ATOM     29  C   UNL A   1      37.285  33.866  31.195  1.00  0.00     0.014 A 
ATOM     30  C   UNL A   1      37.068  31.172  31.824  1.00  0.00     0.010 A 
ATOM     31  C   UNL A   1      38.384  33.062  31.064  1.00  0.00     0.010 A 
ATOM     32  C   UNL A   1      38.301  31.733  31.451  1.00  0.00    -0.014 A 
BRANCH  32  33
ATOM     33  C   UNL A   1      39.510  30.930  31.317  1.00  0.00     0.031 A 
ATOM     34  C   UNL A   1      40.176  30.640  32.612  1.00  0.00     0.074 A 
ATOM     35  C   UNL A   1      39.850  30.301  30.169  1.00  0.00     0.049 A 
ATOM     36  N   UNL A   1      41.282  31.146  33.042  1.00  0.00    -0.248 NA
ATOM     37  C   UNL A   1      39.450  29.852  33.624  1.00  0.00     0.031 C 
ATOM     38  C   UNL A   1      39.114  30.278  28.897  1.00  0.00     0.029 A 
ATOM     39  N   UNL A   1      40.868  29.430  29.925  1.00  0.00    -0.354 N 
ATOM     40  C   UNL A   1      41.530  30.522  34.257  1.00  0.00     0.074 A 
ATOM     41  C   UNL A   1      40.277  29.940  34.669  1.00  0.00     0.031 C 
ATOM     42  C   UNL A   1      39.561  29.260  28.128  1.00  0.00     0.029 A 
ATOM     43  C   UNL A   1      40.715  28.660  28.772  1.00  0.00     0.049 A 
ATOM     44  H   UNL A   1      41.652  29.351  30.517  1.00  0.00     0.167 HD
ATOM     45  C   UNL A   1      42.805  30.267  34.664  1.00  0.00     0.031 A 
ATOM     46  C   UNL A   1      41.464  27.591  28.388  1.00  0.00     0.031 A 
ATOM     47  C   UNL A   1      43.768  30.965  33.846  1.00  0.00     0.049 A 
ATOM     48  C   UNL A   1      42.754  27.692  29.114  1.00  0.00     0.074 A 
ATOM     49  C   UNL A   1      43.979  32.288  33.508  1.00  0.00     0.029 A 
ATOM     50  N   UNL A   1      44.426  30.219  32.895  1.00  0.00    -0.354 N 
ATOM     51  N   UNL A   1      43.615  28.645  28.893  1.00  0.00    -0.248 NA
ATOM     52  C   UNL A   1      42.868  27.038  30.408  1.00  0.00     0.031 C 
ATOM     53  C   UNL A   1      44.334  32.262  32.127  1.00  0.00     0.029 A 
ATOM     54  C   UNL A   1      44.418  30.928  31.723  1.00  0.00     0.049 A 
ATOM     55  H   UNL A   1      44.831  29.332  33.033  1.00  0.00     0.167 HD
ATOM     56  C   UNL A   1      44.041  29.028  30.156  1.00  0.00     0.074 A 
ATOM     57  C   UNL A   1      43.633  27.934  31.039  1.00  0.00     0.031 C 
ATOM     58  C   UNL A   1      44.411  30.318  30.410  1.00  0.00     0.031 A 
BRANCH  45  59
ATOM     59  C   UNL A   1      43.199  29.055  35.474  1.00  0.00    -0.014 A 
ATOM     60  C   UNL A   1      43.933  29.253  36.662  1.00  0.00     0.010 A 
ATOM     61  C   UNL A   1      43.134  27.738  34.976  1.00  0.00     0.010 A 
ATOM     62  C   UNL A   1      44.634  28.204  37.268  1.00  0.00     0.020 A 
ATOM     63  C   UNL A   1      43.790  26.675  35.598  1.00  0.00     0.020 A 
ATOM     64  C   UNL A   1      44.566  26.923  36.721  1.00  0.00     0.054 A 
BRANCH  64  65
ATOM     65  S   UNL A   1      45.549  25.595  37.455  1.00  0.00     0.124 S 
ATOM     66  O   UNL A   1      46.725  26.320  37.926  1.00  0.00    -0.237 OA
ATOM     67  O   UNL A   1      44.655  25.090  38.493  1.00  0.00    -0.237 OA
ATOM     68  O   UNL A   1      45.779  24.683  36.337  1.00  0.00    -0.744 OA
ENDBRANCH  64  65
ENDBRANCH  45  59
BRANCH  46  69
ATOM     69  C   UNL A   1      41.054  26.360  27.659  1.00  0.00    -0.014 A 
ATOM     70  C   UNL A   1      41.956  25.678  26.816  1.00  0.00     0.010 A 
ATOM     71  C   UNL A   1      39.874  25.682  28.026  1.00  0.00     0.010 A 
ATOM     72  C   UNL A   1      41.728  24.343  26.431  1.00  0.00     0.020 A 
ATOM     73  C   UNL A   1      39.636  24.355  27.641  1.00  0.00     0.020 A 
ATOM     74  C   UNL A   1      40.581  23.680  26.871  1.00  0.00     0.054 A 
BRANCH  74  75
ATOM     75  S   UNL A   1      40.396  21.895  26.564  1.00  0.00     0.124 S 
ATOM     76  O   UNL A   1      39.052  21.812  26.000  1.00  0.00    -0.237 OA
ATOM     77  O   UNL A   1      41.489  21.615  25.638  1.00  0.00    -0.237 OA
ATOM     78  O   UNL A   1      40.547  21.302  27.892  1.00  0.00    -0.744 OA
ENDBRANCH  74  75
ENDBRANCH  46  69
BRANCH  58  79
ATOM     79  C   UNL A   1      44.630  31.248  29.236  1.00  0.00    -0.014 A 
ATOM     80  C   UNL A   1      45.820  31.312  28.484  1.00  0.00     0.010 A 
ATOM     81  C   UNL A   1      43.522  31.992  28.796  1.00  0.00     0.010 A 
ATOM     82  C   UNL A   1      45.907  32.131  27.347  1.00  0.00     0.020 A 
ATOM     83  C   UNL A   1      43.595  32.792  27.655  1.00  0.00     0.020 A 
ATOM     84  C   UNL A   1      44.792  32.872  26.944  1.00  0.00     0.054 A 
BRANCH  84  85
ATOM     85  S   UNL A   1      44.897  33.922  25.468  1.00  0.00     0.124 S 
ATOM     86  O   UNL A   1      44.344  33.061  24.426  1.00  0.00    -0.237 OA
ATOM     87  O   UNL A   1      44.077  35.077  25.831  1.00  0.00    -0.237 OA
ATOM     88  O   UNL A   1      46.326  34.205  25.343  1.00  0.00    -0.744 OA
ENDBRANCH  84  85
ENDBRANCH  58  79
ENDBRANCH  32  33
ENDBRANCH  24  27
ENDBRANCH  22  23
ENDBRANCH  21  22
ENDBRANCH  20  21
ENDBRANCH  19  20
ENDBRANCH   1  19
TORSDOF 21
ENDMDL
MODEL 2
REMARK VINA RESULT:      -9.2      2.726      9.146
REMARK SMILES O=C(CCCCCn1cc(Cl)c(I)n1)NCCCCCCNC(=O)c1ccc(-c2c3nc(c(-c4ccc(S(=O)(=O)[O-])cc4)c4ccc([nH]4)c(-c4ccc(S(=O)(=O)[O-])cc4)c4nc(c(-c5ccc(S(=O)(=O)[O-])cc5)c5ccc2[nH]5)C=C4)C=C3)cc1
REMARK SMILES IDX 17 1 16 2 15 3 1 4 2 5 3 7 4 8 5 9 6 10 7 11 8 12 9 13 14 14
REMARK SMILES IDX 10 15 12 16 11 17 13 18 18 19 19 20 20 21 21 22 22 23 23 24
REMARK SMILES IDX 24 26 25 27 26 28 84 29 27 30 83 31 28 32 29 33 30 34 77 35
REMARK SMILES IDX 31 36 82 37 76 38 78 39 32 40 81 41 75 42 74 43 33 45 63 46
REMARK SMILES IDX 44 47 62 48 45 49 48 50 61 51 79 52 46 53 47 54 60 56 80 57
REMARK SMILES IDX 49 58 34 59 35 60 43 61 36 62 42 63 37 64 38 65 39 66 40 67
REMARK SMILES IDX 41 68 64 69 65 70 73 71 66 72 72 73 67 74 68 75 69 76 70 77
REMARK SMILES IDX 71 78 50 79 51 80 59 81 52 82 58 83 53 84 54 85 55 86 56 87
REMARK SMILES IDX 57 88
REMARK H PARENT 15 6 22 25 78 44 48 55
REMARK Flexibility Score: inf
ROOT
ATOM      1  C   UNL A   1      35.999  22.635  25.327  1.00  0.00     0.021 C 
ENDROOT
BRANCH   1   2
ATOM      2  C   UNL A   1      35.044  23.010  26.458  1.00  0.00     0.116 C 
BRANCH   2   3
ATOM      3  N   UNL A   1      34.328  24.231  26.156  1.00  0.00    -0.356 N 
ATOM      4  O   UNL A   1      35.060  24.472  23.990  1.00  0.00    -0.275 OA
ATOM      5  C   UNL A   1      34.372  24.849  24.930  1.00  0.00     0.219 C 
ATOM      6  H   UNL A   1      33.783  24.640  26.866  1.00  0.00     0.163 HD
BRANCH   5   7
ATOM      7  C   UNL A   1      33.422  26.026  24.824  1.00  0.00     0.100 C 
BRANCH   7   8
ATOM      8  C   UNL A   1      32.693  26.286  26.145  1.00  0.00     0.010 C 
BRANCH   8   9
ATOM      9  C   UNL A   1      31.220  26.695  26.031  1.00  0.00     0.002 C 
BRANCH   9  10
ATOM     10  C   UNL A   1      30.255  25.595  25.563  1.00  0.00     0.024 C 
BRANCH  10  11
ATOM     11  C   UNL A   1      30.503  24.217  26.187  1.00  0.00     0.144 C 
BRANCH  11  12
ATOM     12  N   UNL A   1      31.140  23.229  25.333  1.00  0.00    -0.270 N 
ATOM     13  C   UNL A   1      31.220  23.204  23.969  1.00  0.00     0.130 A 
ATOM     14  N   UNL A   1      31.736  22.167  25.912  1.00  0.00    -0.165 NA
ATOM     15  C   UNL A   1      31.798  22.002  23.637  1.00  0.00     0.092 A 
ATOM     16  C   UNL A   1      32.123  21.417  24.877  1.00  0.00     0.141 A 
ATOM     17  Cl  UNL A   1      32.037  21.399  22.071  1.00  0.00    -0.080 Cl
ATOM     18  I   UNL A   1      33.070  19.627  25.144  1.00  0.00    -0.018 I 
ENDBRANCH  11  12
ENDBRANCH  10  11
ENDBRANCH   9  10
ENDBRANCH   8   9
ENDBRANCH   7   8
ENDBRANCH   5   7
ENDBRANCH   2   3
ENDBRANCH   1   2
BRANCH   1  19
ATOM     19  C   UNL A   1      37.484  22.921  25.602  1.00  0.00     0.002 C 
BRANCH  19  20
ATOM     20  C   UNL A   1      38.404  21.699  25.742  1.00  0.00     0.002 C 
BRANCH  20  21
ATOM     21  C   UNL A   1      39.851  21.970  26.176  1.00  0.00     0.021 C 
BRANCH  21  22
ATOM     22  C   UNL A   1      40.501  20.839  26.962  1.00  0.00     0.116 C 
BRANCH  22  23
ATOM     23  N   UNL A   1      41.800  20.431  26.427  1.00  0.00    -0.352 N 
ATOM     24  C   UNL A   1      42.837  21.243  25.988  1.00  0.00     0.251 C 
ATOM     25  H   UNL A   1      41.959  19.461  26.371  1.00  0.00     0.163 HD
ATOM     26  O   UNL A   1      43.673  20.817  25.209  1.00  0.00    -0.269 OA
BRANCH  24  27
ATOM     27  C   UNL A   1      42.915  22.630  26.493  1.00  0.00     0.039 A 
ATOM     28  C   UNL A   1      42.626  23.736  25.687  1.00  0.00     0.014 A 
ATOM     29  C   UNL A   1      43.286  22.808  27.822  1.00  0.00     0.014 A 
ATOM     30  C   UNL A   1      42.642  25.009  26.260  1.00  0.00     0.010 A 
ATOM     31  C   UNL A   1      43.118  24.024  28.425  1.00  0.00     0.010 A 
ATOM     32  C   UNL A   1      42.873  25.141  27.639  1.00  0.00    -0.014 A 
BRANCH  32  33
ATOM     33  C   UNL A   1      42.731  26.416  28.332  1.00  0.00     0.031 A 
ATOM     34  C   UNL A   1      43.829  27.373  28.043  1.00  0.00     0.074 A 
ATOM     35  C   UNL A   1      41.595  26.784  28.966  1.00  0.00     0.049 A 
ATOM     36  N   UNL A   1      44.775  27.728  28.845  1.00  0.00    -0.248 NA
ATOM     37  C   UNL A   1      44.013  27.846  26.660  1.00  0.00     0.031 C 
ATOM     38  C   UNL A   1      40.334  26.036  29.073  1.00  0.00     0.029 A 
ATOM     39  N   UNL A   1      41.271  27.973  29.546  1.00  0.00    -0.354 N 
ATOM     40  C   UNL A   1      45.508  28.684  28.156  1.00  0.00     0.074 A 
ATOM     41  C   UNL A   1      45.153  28.533  26.767  1.00  0.00     0.031 C 
ATOM     42  C   UNL A   1      39.336  26.870  29.441  1.00  0.00     0.029 A 
ATOM     43  C   UNL A   1      39.906  28.169  29.754  1.00  0.00     0.049 A 
ATOM     44  H   UNL A   1      41.949  28.642  29.798  1.00  0.00     0.167 HD
ATOM     45  C   UNL A   1      46.101  29.719  28.815  1.00  0.00     0.031 A 
ATOM     46  C   UNL A   1      39.285  29.319  30.130  1.00  0.00     0.031 A 
ATOM     47  C   UNL A   1      46.099  29.504  30.242  1.00  0.00     0.049 A 
ATOM     48  C   UNL A   1      40.319  30.174  30.764  1.00  0.00     0.074 A 
ATOM     49  C   UNL A   1      46.568  28.507  31.075  1.00  0.00     0.029 A 
ATOM     50  N   UNL A   1      45.159  30.198  30.970  1.00  0.00    -0.354 N 
ATOM     51  N   UNL A   1      40.894  29.866  31.891  1.00  0.00    -0.248 NA
ATOM     52  C   UNL A   1      41.059  31.099  29.919  1.00  0.00     0.031 C 
ATOM     53  C   UNL A   1      45.557  28.353  32.069  1.00  0.00     0.029 A 
ATOM     54  C   UNL A   1      44.578  29.325  31.850  1.00  0.00     0.049 A 
ATOM     55  H   UNL A   1      44.943  31.154  30.874  1.00  0.00     0.167 HD
ATOM     56  C   UNL A   1      42.235  30.156  31.688  1.00  0.00     0.074 A 
ATOM     57  C   UNL A   1      42.259  31.012  30.501  1.00  0.00     0.031 C 
ATOM     58  C   UNL A   1      43.212  29.435  32.315  1.00  0.00     0.031 A 
BRANCH  45  59
ATOM     59  C   UNL A   1      46.255  31.105  28.233  1.00  0.00    -0.014 A 
ATOM     60  C   UNL A   1      45.118  31.937  28.175  1.00  0.00     0.010 A 
ATOM     61  C   UNL A   1      47.380  31.508  27.486  1.00  0.00     0.010 A 
ATOM     62  C   UNL A   1      45.083  33.065  27.347  1.00  0.00     0.020 A 
ATOM     63  C   UNL A   1      47.373  32.656  26.693  1.00  0.00     0.020 A 
ATOM     64  C   UNL A   1      46.211  33.408  26.602  1.00  0.00     0.054 A 
BRANCH  64  65
ATOM     65  S   UNL A   1      46.125  34.811  25.465  1.00  0.00     0.124 S 
ATOM     66  O   UNL A   1      45.529  35.843  26.308  1.00  0.00    -0.237 OA
ATOM     67  O   UNL A   1      47.528  35.007  25.114  1.00  0.00    -0.237 OA
ATOM     68  O   UNL A   1      45.279  34.319  24.379  1.00  0.00    -0.744 OA
ENDBRANCH  64  65
ENDBRANCH  45  59
BRANCH  46  69
ATOM     69  C   UNL A   1      37.945  29.842  29.746  1.00  0.00    -0.014 A 
ATOM     70  C   UNL A   1      37.108  30.467  30.694  1.00  0.00     0.010 A 
ATOM     71  C   UNL A   1      37.612  29.999  28.386  1.00  0.00     0.010 A 
ATOM     72  C   UNL A   1      36.037  31.289  30.292  1.00  0.00     0.020 A 
ATOM     73  C   UNL A   1      36.542  30.810  27.978  1.00  0.00     0.020 A 
ATOM     74  C   UNL A   1      35.779  31.478  28.933  1.00  0.00     0.054 A 
BRANCH  74  75
ATOM     75  S   UNL A   1      34.545  32.710  28.411  1.00  0.00     0.124 S 
ATOM     76  O   UNL A   1      35.342  33.626  27.600  1.00  0.00    -0.237 OA
ATOM     77  O   UNL A   1      33.573  31.901  27.682  1.00  0.00    -0.237 OA
ATOM     78  O   UNL A   1      34.060  33.265  29.674  1.00  0.00    -0.744 OA
ENDBRANCH  74  75
ENDBRANCH  46  69
BRANCH  58  79
ATOM     79  C   UNL A   1      42.812  28.519  33.451  1.00  0.00    -0.014 A 
ATOM     80  C   UNL A   1      42.720  27.116  33.346  1.00  0.00     0.010 A 
ATOM     81  C   UNL A   1      42.657  29.105  34.719  1.00  0.00     0.010 A 
ATOM     82  C   UNL A   1      42.439  26.330  34.474  1.00  0.00     0.020 A 
ATOM     83  C   UNL A   1      42.398  28.327  35.849  1.00  0.00     0.020 A 
ATOM     84  C   UNL A   1      42.274  26.944  35.720  1.00  0.00     0.054 A 
BRANCH  84  85
ATOM     85  S   UNL A   1      41.923  25.929  37.183  1.00  0.00     0.124 S 
ATOM     86  O   UNL A   1      40.512  26.213  37.434  1.00  0.00    -0.237 OA
ATOM     87  O   UNL A   1      42.218  24.575  36.718  1.00  0.00    -0.237 OA
ATOM     88  O   UNL A   1      42.847  26.443  38.193  1.00  0.00    -0.744 OA
ENDBRANCH  84  85
ENDBRANCH  58  79
ENDBRANCH  32  33
ENDBRANCH  24  27
ENDBRANCH  22  23
ENDBRANCH  21  22
ENDBRANCH  20  21
ENDBRANCH  19  20
ENDBRANCH   1  19
TORSDOF 21
ENDMDL
MODEL 3
REMARK VINA RESULT:      -8.9      2.947      9.272
REMARK SMILES O=C(CCCCCn1cc(Cl)c(I)n1)NCCCCCCNC(=O)c1ccc(-c2c3nc(c(-c4ccc(S(=O)(=O)[O-])cc4)c4ccc([nH]4)c(-c4ccc(S(=O)(=O)[O-])cc4)c4nc(c(-c5ccc(S(=O)(=O)[O-])cc5)c5ccc2[nH]5)C=C4)C=C3)cc1
REMARK SMILES IDX 17 1 16 2 15 3 1 4 2 5 3 7 4 8 5 9 6 10 7 11 8 12 9 13 14 14
REMARK SMILES IDX 10 15 12 16 11 17 13 18 18 19 19 20 20 21 21 22 22 23 23 24
REMARK SMILES IDX 24 26 25 27 26 28 84 29 27 30 83 31 28 32 29 33 30 34 77 35
REMARK SMILES IDX 31 36 82 37 76 38 78 39 32 40 81 41 75 42 74 43 33 45 63 46
REMARK SMILES IDX 44 47 62 48 45 49 48 50 61 51 79 52 46 53 47 54 60 56 80 57
REMARK SMILES IDX 49 58 34 59 35 60 43 61 36 62 42 63 37 64 38 65 39 66 40 67
REMARK SMILES IDX 41 68 64 69 65 70 73 71 66 72 72 73 67 74 68 75 69 76 70 77
REMARK SMILES IDX 71 78 50 79 51 80 59 81 52 82 58 83 53 84 54 85 55 86 56 87
REMARK SMILES IDX 57 88
REMARK H PARENT 15 6 22 25 78 44 48 55
REMARK Flexibility Score: inf
ROOT
ATOM      1  C   UNL A   1      35.267  22.961  25.209  1.00  0.00     0.021 C 
ENDROOT
BRANCH   1   2
ATOM      2  C   UNL A   1      34.122  23.246  26.178  1.00  0.00     0.116 C 
BRANCH   2   3
ATOM      3  N   UNL A   1      33.010  23.881  25.504  1.00  0.00    -0.356 N 
ATOM      4  O   UNL A   1      31.588  23.976  27.308  1.00  0.00    -0.275 OA
ATOM      5  C   UNL A   1      31.839  24.223  26.135  1.00  0.00     0.219 C 
ATOM      6  H   UNL A   1      33.098  24.078  24.544  1.00  0.00     0.163 HD
BRANCH   5   7
ATOM      7  C   UNL A   1      30.893  25.008  25.247  1.00  0.00     0.100 C 
BRANCH   7   8
ATOM      8  C   UNL A   1      30.697  24.330  23.889  1.00  0.00     0.010 C 
BRANCH   8   9
ATOM      9  C   UNL A   1      31.485  24.931  22.718  1.00  0.00     0.002 C 
BRANCH   9  10
ATOM     10  C   UNL A   1      32.131  26.300  22.979  1.00  0.00     0.024 C 
BRANCH  10  11
ATOM     11  C   UNL A   1      31.137  27.434  23.256  1.00  0.00     0.144 C 
BRANCH  11  12
ATOM     12  N   UNL A   1      31.508  28.372  24.302  1.00  0.00    -0.270 N 
ATOM     13  C   UNL A   1      30.901  29.546  24.650  1.00  0.00     0.130 A 
ATOM     14  N   UNL A   1      32.598  28.104  25.050  1.00  0.00    -0.165 NA
ATOM     15  C   UNL A   1      31.705  30.130  25.600  1.00  0.00     0.092 A 
ATOM     16  C   UNL A   1      32.721  29.182  25.829  1.00  0.00     0.141 A 
ATOM     17  Cl  UNL A   1      31.486  31.658  26.302  1.00  0.00    -0.080 Cl
ATOM     18  I   UNL A   1      34.246  29.364  27.174  1.00  0.00    -0.018 I 
ENDBRANCH  11  12
ENDBRANCH  10  11
ENDBRANCH   9  10
ENDBRANCH   8   9
ENDBRANCH   7   8
ENDBRANCH   5   7
ENDBRANCH   2   3
ENDBRANCH   1   2
BRANCH   1  19
ATOM     19  C   UNL A   1      36.654  23.427  25.679  1.00  0.00     0.002 C 
BRANCH  19  20
ATOM     20  C   UNL A   1      37.724  22.339  25.849  1.00  0.00     0.002 C 
BRANCH  20  21
ATOM     21  C   UNL A   1      39.161  22.815  26.096  1.00  0.00     0.021 C 
BRANCH  21  22
ATOM     22  C   UNL A   1      40.017  21.856  26.914  1.00  0.00     0.116 C 
BRANCH  22  23
ATOM     23  N   UNL A   1      41.275  21.496  26.258  1.00  0.00    -0.352 N 
ATOM     24  C   UNL A   1      42.273  22.345  25.801  1.00  0.00     0.251 C 
ATOM     25  H   UNL A   1      41.432  20.533  26.125  1.00  0.00     0.163 HD
ATOM     26  O   UNL A   1      43.052  21.979  24.936  1.00  0.00    -0.269 OA
BRANCH  24  27
ATOM     27  C   UNL A   1      42.384  23.694  26.393  1.00  0.00     0.039 A 
ATOM     28  C   UNL A   1      41.987  24.846  25.704  1.00  0.00     0.014 A 
ATOM     29  C   UNL A   1      42.898  23.789  27.682  1.00  0.00     0.014 A 
ATOM     30  C   UNL A   1      42.045  26.076  26.362  1.00  0.00     0.010 A 
ATOM     31  C   UNL A   1      42.777  24.956  28.385  1.00  0.00     0.010 A 
ATOM     32  C   UNL A   1      42.427  26.118  27.713  1.00  0.00    -0.014 A 
BRANCH  32  33
ATOM     33  C   UNL A   1      42.341  27.338  28.507  1.00  0.00     0.031 A 
ATOM     34  C   UNL A   1      43.488  28.259  28.303  1.00  0.00     0.074 A 
ATOM     35  C   UNL A   1      41.218  27.711  29.162  1.00  0.00     0.049 A 
ATOM     36  N   UNL A   1      44.443  28.500  29.137  1.00  0.00    -0.248 NA
ATOM     37  C   UNL A   1      43.710  28.833  26.964  1.00  0.00     0.031 C 
ATOM     38  C   UNL A   1      39.921  27.020  29.200  1.00  0.00     0.029 A 
ATOM     39  N   UNL A   1      40.948  28.863  29.835  1.00  0.00    -0.354 N 
ATOM     40  C   UNL A   1      45.229  29.471  28.533  1.00  0.00     0.074 A 
ATOM     41  C   UNL A   1      44.881  29.451  27.134  1.00  0.00     0.031 C 
ATOM     42  C   UNL A   1      38.962  27.871  29.629  1.00  0.00     0.029 A 
ATOM     43  C   UNL A   1      39.592  29.110  30.050  1.00  0.00     0.049 A 
ATOM     44  H   UNL A   1      41.655  29.475  30.145  1.00  0.00     0.167 HD
ATOM     45  C   UNL A   1      45.866  30.418  29.278  1.00  0.00     0.031 A 
ATOM     46  C   UNL A   1      39.026  30.256  30.515  1.00  0.00     0.031 A 
ATOM     47  C   UNL A   1      45.839  30.087  30.683  1.00  0.00     0.049 A 
ATOM     48  C   UNL A   1      40.094  31.003  31.222  1.00  0.00     0.074 A 
ATOM     49  C   UNL A   1      46.249  29.004  31.435  1.00  0.00     0.029 A 
ATOM     50  N   UNL A   1      44.927  30.767  31.459  1.00  0.00    -0.354 N 
ATOM     51  N   UNL A   1      40.642  30.575  32.325  1.00  0.00    -0.248 NA
ATOM     52  C   UNL A   1      40.888  31.955  30.461  1.00  0.00     0.031 C 
ATOM     53  C   UNL A   1      45.221  28.821  32.406  1.00  0.00     0.029 A 
ATOM     54  C   UNL A   1      44.295  29.855  32.262  1.00  0.00     0.049 A 
ATOM     55  H   UNL A   1      44.760  31.737  31.440  1.00  0.00     0.167 HD
ATOM     56  C   UNL A   1      41.997  30.814  32.153  1.00  0.00     0.074 A 
ATOM     57  C   UNL A   1      42.076  31.761  31.040  1.00  0.00     0.031 C 
ATOM     58  C   UNL A   1      42.931  29.996  32.726  1.00  0.00     0.031 A 
BRANCH  45  59
ATOM     59  C   UNL A   1      46.094  31.836  28.812  1.00  0.00    -0.014 A 
ATOM     60  C   UNL A   1      44.979  32.591  28.393  1.00  0.00     0.010 A 
ATOM     61  C   UNL A   1      47.368  32.349  28.496  1.00  0.00     0.010 A 
ATOM     62  C   UNL A   1      45.133  33.752  27.627  1.00  0.00     0.020 A 
ATOM     63  C   UNL A   1      47.535  33.531  27.772  1.00  0.00     0.020 A 
ATOM     64  C   UNL A   1      46.413  34.206  27.312  1.00  0.00     0.054 A 
BRANCH  64  65
ATOM     65  S   UNL A   1      46.600  35.652  26.243  1.00  0.00     0.124 S 
ATOM     66  O   UNL A   1      45.269  35.762  25.654  1.00  0.00    -0.237 OA
ATOM     67  O   UNL A   1      46.962  36.694  27.198  1.00  0.00    -0.237 OA
ATOM     68  O   UNL A   1      47.665  35.259  25.321  1.00  0.00    -0.744 OA
ENDBRANCH  64  65
ENDBRANCH  45  59
BRANCH  46  69
ATOM     69  C   UNL A   1      37.717  30.875  30.167  1.00  0.00    -0.014 A 
ATOM     70  C   UNL A   1      36.779  31.207  31.167  1.00  0.00     0.010 A 
ATOM     71  C   UNL A   1      37.512  31.417  28.882  1.00  0.00     0.010 A 
ATOM     72  C   UNL A   1      35.733  32.116  30.914  1.00  0.00     0.020 A 
ATOM     73  C   UNL A   1      36.469  32.317  28.621  1.00  0.00     0.020 A 
ATOM     74  C   UNL A   1      35.603  32.688  29.647  1.00  0.00     0.054 A 
BRANCH  74  75
ATOM     75  S   UNL A   1      34.398  34.026  29.380  1.00  0.00     0.124 S 
ATOM     76  O   UNL A   1      35.225  35.082  28.807  1.00  0.00    -0.237 OA
ATOM     77  O   UNL A   1      33.435  33.412  28.471  1.00  0.00    -0.237 OA
ATOM     78  O   UNL A   1      33.887  34.299  30.723  1.00  0.00    -0.744 OA
ENDBRANCH  74  75
ENDBRANCH  46  69
BRANCH  58  79
ATOM     79  C   UNL A   1      42.475  29.012  33.781  1.00  0.00    -0.014 A 
ATOM     80  C   UNL A   1      41.887  27.761  33.501  1.00  0.00     0.010 A 
ATOM     81  C   UNL A   1      42.786  29.318  35.116  1.00  0.00     0.010 A 
ATOM     82  C   UNL A   1      41.582  26.864  34.536  1.00  0.00     0.020 A 
ATOM     83  C   UNL A   1      42.505  28.421  36.149  1.00  0.00     0.020 A 
ATOM     84  C   UNL A   1      41.890  27.205  35.857  1.00  0.00     0.054 A 
BRANCH  84  85
ATOM     85  S   UNL A   1      41.509  26.042  37.197  1.00  0.00     0.124 S 
ATOM     86  O   UNL A   1      40.246  26.560  37.717  1.00  0.00    -0.237 OA
ATOM     87  O   UNL A   1      41.423  24.759  36.500  1.00  0.00    -0.237 OA
ATOM     88  O   UNL A   1      42.650  26.168  38.103  1.00  0.00    -0.744 OA
ENDBRANCH  84  85
ENDBRANCH  58  79
ENDBRANCH  32  33
ENDBRANCH  24  27
ENDBRANCH  22  23
ENDBRANCH  21  22
ENDBRANCH  20  21
ENDBRANCH  19  20
ENDBRANCH   1  19
TORSDOF 21
ENDMDL
