MODEL 1
REMARK VINA RESULT:     -11.5      0.000      0.000
REMARK SMILES CC[C@@H](C(=O)NCCCCCCNC(=O)c1ccc(-c2c3nc(c(-c4ccc(S(=O)(=O)[O-])cc4)c4ccc([nH]4)c(-c4ccc(S(=O)(=O)[O-])cc4)c4nc(c(-c5ccc(S(=O)(=O)[O-])cc5)c5ccc2[nH]5)C=C4)C=C3)cc1)N1CCN(Cc2cccc(C)c2)C(=O)C1=O
REMARK SMILES IDX 9 1 8 2 7 3 6 4 4 5 5 6 3 8 2 9 1 10 76 11 77 12 90 13 78 14
REMARK SMILES IDX 88 15 91 16 79 17 89 18 80 19 81 20 82 21 87 22 83 23 85 24
REMARK SMILES IDX 84 25 86 26 10 27 11 28 12 29 13 30 14 31 15 33 16 34 17 35
REMARK SMILES IDX 75 36 18 37 74 38 19 39 20 40 21 41 68 42 22 43 73 44 67 45
REMARK SMILES IDX 69 46 23 47 72 48 66 49 65 50 24 52 54 53 35 54 53 55 36 56
REMARK SMILES IDX 39 57 52 58 70 59 37 60 38 61 51 63 71 64 40 65 25 66 26 67
REMARK SMILES IDX 34 68 27 69 33 70 28 71 29 72 30 73 31 74 32 75 55 76 56 77
REMARK SMILES IDX 64 78 57 79 63 80 58 81 59 82 60 83 61 84 62 85 41 86 42 87
REMARK SMILES IDX 50 88 43 89 49 90 44 91 45 92 46 93 47 94 48 95
REMARK H PARENT 6 7 13 32 69 51 39 62
REMARK Flexibility Score: inf
ROOT
ATOM      1  C   UNL A   1      37.071  23.489  25.325  1.00  0.00     0.002 C 
ENDROOT
BRANCH   1   2
ATOM      2  C   UNL A   1      37.210  22.100  24.696  1.00  0.00     0.021 C 
BRANCH   2   3
ATOM      3  C   UNL A   1      36.080  21.134  25.049  1.00  0.00     0.116 C 
BRANCH   3   4
ATOM      4  N   UNL A   1      35.513  21.464  26.332  1.00  0.00    -0.354 N 
ATOM      5  C   UNL A   1      34.259  21.841  26.694  1.00  0.00     0.242 C 
ATOM      6  O   UNL A   1      34.058  21.851  27.915  1.00  0.00    -0.273 OA
ATOM      7  H   UNL A   1      36.150  21.407  27.081  1.00  0.00     0.163 HD
BRANCH   5   8
ATOM      8  C   UNL A   1      33.116  22.088  25.652  1.00  0.00     0.174 C 
BRANCH   8   9
ATOM      9  C   UNL A   1      33.234  21.549  24.214  1.00  0.00     0.032 C 
ATOM     10  C   UNL A   1      32.588  20.209  23.908  1.00  0.00     0.006 C 
ENDBRANCH   8   9
BRANCH   8  11
ATOM     11  N   UNL A   1      32.926  23.561  25.580  1.00  0.00    -0.321 N 
ATOM     12  C   UNL A   1      33.763  24.349  24.704  1.00  0.00     0.142 C 
ATOM     13  C   UNL A   1      32.042  24.214  26.456  1.00  0.00     0.312 C 
ATOM     14  C   UNL A   1      32.944  25.465  24.077  1.00  0.00     0.142 C 
ATOM     15  C   UNL A   1      31.860  25.755  26.272  1.00  0.00     0.312 C 
ATOM     16  O   UNL A   1      31.419  23.640  27.345  1.00  0.00    -0.263 OA
ATOM     17  N   UNL A   1      32.364  26.324  25.098  1.00  0.00    -0.328 N 
ATOM     18  O   UNL A   1      31.290  26.406  27.144  1.00  0.00    -0.263 OA
BRANCH  17  19
ATOM     19  C   UNL A   1      32.113  27.731  24.805  1.00  0.00     0.155 C 
BRANCH  19  20
ATOM     20  C   UNL A   1      30.762  27.982  24.169  1.00  0.00    -0.028 A 
ATOM     21  C   UNL A   1      29.793  26.971  24.125  1.00  0.00     0.005 A 
ATOM     22  C   UNL A   1      30.448  29.231  23.610  1.00  0.00     0.009 A 
ATOM     23  C   UNL A   1      28.547  27.208  23.539  1.00  0.00     0.001 A 
ATOM     24  C   UNL A   1      29.174  29.502  23.095  1.00  0.00    -0.051 A 
ATOM     25  C   UNL A   1      28.234  28.472  23.037  1.00  0.00     0.003 A 
ATOM     26  C   UNL A   1      28.836  30.878  22.605  1.00  0.00     0.044 C 
ENDBRANCH  19  20
ENDBRANCH  17  19
ENDBRANCH   8  11
ENDBRANCH   5   8
ENDBRANCH   3   4
ENDBRANCH   2   3
ENDBRANCH   1   2
BRANCH   1  27
ATOM     27  C   UNL A   1      38.210  23.891  26.266  1.00  0.00     0.002 C 
BRANCH  27  28
ATOM     28  C   UNL A   1      39.236  22.790  26.547  1.00  0.00     0.021 C 
BRANCH  28  29
ATOM     29  C   UNL A   1      40.574  23.287  27.085  1.00  0.00     0.116 C 
BRANCH  29  30
ATOM     30  N   UNL A   1      41.317  24.032  26.083  1.00  0.00    -0.352 N 
ATOM     31  C   UNL A   1      41.652  25.361  26.056  1.00  0.00     0.251 C 
ATOM     32  H   UNL A   1      41.623  23.506  25.310  1.00  0.00     0.163 HD
ATOM     33  O   UNL A   1      42.071  25.864  25.018  1.00  0.00    -0.269 OA
BRANCH  31  34
ATOM     34  C   UNL A   1      41.498  26.187  27.272  1.00  0.00     0.039 A 
ATOM     35  C   UNL A   1      42.362  27.266  27.465  1.00  0.00     0.014 A 
ATOM     36  C   UNL A   1      40.524  25.887  28.231  1.00  0.00     0.014 A 
ATOM     37  C   UNL A   1      42.219  28.071  28.597  1.00  0.00     0.010 A 
ATOM     38  C   UNL A   1      40.331  26.737  29.316  1.00  0.00     0.010 A 
ATOM     39  C   UNL A   1      41.184  27.832  29.517  1.00  0.00    -0.014 A 
BRANCH  39  40
ATOM     40  C   UNL A   1      40.988  28.735  30.680  1.00  0.00     0.031 A 
ATOM     41  C   UNL A   1      41.864  28.620  31.899  1.00  0.00     0.074 A 
ATOM     42  C   UNL A   1      39.995  29.644  30.645  1.00  0.00     0.049 A 
ATOM     43  N   UNL A   1      41.860  29.351  32.986  1.00  0.00    -0.248 NA
ATOM     44  C   UNL A   1      42.857  27.535  31.912  1.00  0.00     0.031 C 
ATOM     45  C   UNL A   1      39.041  29.813  29.545  1.00  0.00     0.029 A 
ATOM     46  N   UNL A   1      39.625  30.605  31.553  1.00  0.00    -0.354 N 
ATOM     47  C   UNL A   1      42.838  28.808  33.812  1.00  0.00     0.074 A 
ATOM     48  C   UNL A   1      43.376  27.655  33.126  1.00  0.00     0.031 C 
ATOM     49  C   UNL A   1      38.227  30.842  29.823  1.00  0.00     0.029 A 
ATOM     50  C   UNL A   1      38.571  31.382  31.135  1.00  0.00     0.049 A 
ATOM     51  H   UNL A   1      40.073  30.727  32.422  1.00  0.00     0.167 HD
ATOM     52  C   UNL A   1      43.264  29.244  35.022  1.00  0.00     0.031 A 
ATOM     53  C   UNL A   1      37.948  32.414  31.736  1.00  0.00     0.031 A 
ATOM     54  C   UNL A   1      42.722  30.393  35.701  1.00  0.00     0.049 A 
ATOM     55  C   UNL A   1      38.442  32.882  33.076  1.00  0.00     0.074 A 
ATOM     56  C   UNL A   1      43.126  30.954  36.900  1.00  0.00     0.029 A 
ATOM     57  N   UNL A   1      41.654  31.152  35.246  1.00  0.00    -0.354 N 
ATOM     58  N   UNL A   1      39.428  32.409  33.803  1.00  0.00    -0.248 NA
ATOM     59  C   UNL A   1      37.749  34.032  33.671  1.00  0.00     0.031 C 
ATOM     60  C   UNL A   1      42.260  32.009  37.203  1.00  0.00     0.029 A 
ATOM     61  C   UNL A   1      41.362  32.154  36.158  1.00  0.00     0.049 A 
ATOM     62  H   UNL A   1      41.174  31.001  34.400  1.00  0.00     0.167 HD
ATOM     63  C   UNL A   1      39.486  33.218  34.932  1.00  0.00     0.074 A 
ATOM     64  C   UNL A   1      38.455  34.225  34.776  1.00  0.00     0.031 C 
ATOM     65  C   UNL A   1      40.317  33.135  36.002  1.00  0.00     0.031 A 
BRANCH  52  66
ATOM     66  C   UNL A   1      44.362  28.462  35.699  1.00  0.00    -0.014 A 
ATOM     67  C   UNL A   1      45.719  28.771  35.489  1.00  0.00     0.010 A 
ATOM     68  C   UNL A   1      44.031  27.423  36.590  1.00  0.00     0.010 A 
ATOM     69  C   UNL A   1      46.723  28.029  36.119  1.00  0.00     0.020 A 
ATOM     70  C   UNL A   1      45.031  26.700  37.247  1.00  0.00     0.020 A 
ATOM     71  C   UNL A   1      46.372  26.997  36.994  1.00  0.00     0.054 A 
BRANCH  71  72
ATOM     72  S   UNL A   1      47.696  26.065  37.813  1.00  0.00     0.124 S 
ATOM     73  O   UNL A   1      48.049  25.083  36.790  1.00  0.00    -0.237 OA
ATOM     74  O   UNL A   1      48.700  27.094  38.067  1.00  0.00    -0.237 OA
ATOM     75  O   UNL A   1      47.049  25.518  39.004  1.00  0.00    -0.744 OA
ENDBRANCH  71  72
ENDBRANCH  52  66
BRANCH  53  76
ATOM     76  C   UNL A   1      36.801  33.080  31.060  1.00  0.00    -0.014 A 
ATOM     77  C   UNL A   1      37.014  33.992  30.011  1.00  0.00     0.010 A 
ATOM     78  C   UNL A   1      35.482  32.783  31.450  1.00  0.00     0.010 A 
ATOM     79  C   UNL A   1      35.929  34.604  29.374  1.00  0.00     0.020 A 
ATOM     80  C   UNL A   1      34.395  33.369  30.794  1.00  0.00     0.020 A 
ATOM     81  C   UNL A   1      34.627  34.283  29.767  1.00  0.00     0.054 A 
BRANCH  81  82
ATOM     82  S   UNL A   1      33.234  35.040  28.884  1.00  0.00     0.124 S 
ATOM     83  O   UNL A   1      32.800  33.952  28.011  1.00  0.00    -0.237 OA
ATOM     84  O   UNL A   1      32.321  35.382  29.972  1.00  0.00    -0.237 OA
ATOM     85  O   UNL A   1      33.840  36.183  28.205  1.00  0.00    -0.744 OA
ENDBRANCH  81  82
ENDBRANCH  53  76
BRANCH  65  86
ATOM     86  C   UNL A   1      40.152  34.176  37.080  1.00  0.00    -0.014 A 
ATOM     87  C   UNL A   1      39.205  34.020  38.108  1.00  0.00     0.010 A 
ATOM     88  C   UNL A   1      40.971  35.321  37.072  1.00  0.00     0.010 A 
ATOM     89  C   UNL A   1      39.042  35.016  39.075  1.00  0.00     0.020 A 
ATOM     90  C   UNL A   1      40.835  36.301  38.058  1.00  0.00     0.020 A 
ATOM     91  C   UNL A   1      39.854  36.152  39.040  1.00  0.00     0.054 A 
BRANCH  91  92
ATOM     92  S   UNL A   1      39.625  37.427  40.309  1.00  0.00     0.124 S 
ATOM     93  O   UNL A   1      38.239  37.831  40.088  1.00  0.00    -0.237 OA
ATOM     94  O   UNL A   1      39.878  36.695  41.548  1.00  0.00    -0.237 OA
ATOM     95  O   UNL A   1      40.628  38.436  39.973  1.00  0.00    -0.744 OA
ENDBRANCH  91  92
ENDBRANCH  65  86
ENDBRANCH  39  40
ENDBRANCH  31  34
ENDBRANCH  29  30
ENDBRANCH  28  29
ENDBRANCH  27  28
ENDBRANCH   1  27
TORSDOF 20
ENDMDL
MODEL 2
REMARK VINA RESULT:     -11.5      1.218      8.203
REMARK SMILES CC[C@@H](C(=O)NCCCCCCNC(=O)c1ccc(-c2c3nc(c(-c4ccc(S(=O)(=O)[O-])cc4)c4ccc([nH]4)c(-c4ccc(S(=O)(=O)[O-])cc4)c4nc(c(-c5ccc(S(=O)(=O)[O-])cc5)c5ccc2[nH]5)C=C4)C=C3)cc1)N1CCN(Cc2cccc(C)c2)C(=O)C1=O
REMARK SMILES IDX 9 1 8 2 7 3 6 4 4 5 5 6 3 8 2 9 1 10 76 11 77 12 90 13 78 14
REMARK SMILES IDX 88 15 91 16 79 17 89 18 80 19 81 20 82 21 87 22 83 23 85 24
REMARK SMILES IDX 84 25 86 26 10 27 11 28 12 29 13 30 14 31 15 33 16 34 17 35
REMARK SMILES IDX 75 36 18 37 74 38 19 39 20 40 21 41 68 42 22 43 73 44 67 45
REMARK SMILES IDX 69 46 23 47 72 48 66 49 65 50 24 52 54 53 35 54 53 55 36 56
REMARK SMILES IDX 39 57 52 58 70 59 37 60 38 61 51 63 71 64 40 65 25 66 26 67
REMARK SMILES IDX 34 68 27 69 33 70 28 71 29 72 30 73 31 74 32 75 55 76 56 77
REMARK SMILES IDX 64 78 57 79 63 80 58 81 59 82 60 83 61 84 62 85 41 86 42 87
REMARK SMILES IDX 50 88 43 89 49 90 44 91 45 92 46 93 47 94 48 95
REMARK H PARENT 6 7 13 32 69 51 39 62
REMARK Flexibility Score: inf
ROOT
ATOM      1  C   UNL A   1      37.374  23.420  25.467  1.00  0.00     0.002 C 
ENDROOT
BRANCH   1   2
ATOM      2  C   UNL A   1      37.311  21.902  25.268  1.00  0.00     0.021 C 
BRANCH   2   3
ATOM      3  C   UNL A   1      35.928  21.296  25.497  1.00  0.00     0.116 C 
BRANCH   3   4
ATOM      4  N   UNL A   1      35.339  21.817  26.705  1.00  0.00    -0.354 N 
ATOM      5  C   UNL A   1      34.100  22.311  26.964  1.00  0.00     0.242 C 
ATOM      6  O   UNL A   1      33.858  22.487  28.165  1.00  0.00    -0.273 OA
ATOM      7  H   UNL A   1      35.944  21.816  27.482  1.00  0.00     0.163 HD
BRANCH   5   8
ATOM      8  C   UNL A   1      33.013  22.494  25.852  1.00  0.00     0.174 C 
BRANCH   8   9
ATOM      9  C   UNL A   1      33.232  21.924  24.437  1.00  0.00     0.032 C 
ATOM     10  C   UNL A   1      32.137  22.152  23.410  1.00  0.00     0.006 C 
ENDBRANCH   8   9
BRANCH   8  11
ATOM     11  N   UNL A   1      32.781  23.958  25.729  1.00  0.00    -0.321 N 
ATOM     12  C   UNL A   1      33.792  24.794  25.121  1.00  0.00     0.142 C 
ATOM     13  C   UNL A   1      31.658  24.559  26.323  1.00  0.00     0.312 C 
ATOM     14  C   UNL A   1      33.128  25.880  24.290  1.00  0.00     0.142 C 
ATOM     15  C   UNL A   1      31.462  26.093  26.095  1.00  0.00     0.312 C 
ATOM     16  O   UNL A   1      30.839  23.946  27.002  1.00  0.00    -0.263 OA
ATOM     17  N   UNL A   1      32.246  26.699  25.108  1.00  0.00    -0.328 N 
ATOM     18  O   UNL A   1      30.641  26.706  26.772  1.00  0.00    -0.263 OA
BRANCH  17  19
ATOM     19  C   UNL A   1      32.021  28.097  24.756  1.00  0.00     0.155 C 
BRANCH  19  20
ATOM     20  C   UNL A   1      32.632  29.071  25.741  1.00  0.00    -0.028 A 
ATOM     21  C   UNL A   1      31.891  30.154  26.231  1.00  0.00     0.005 A 
ATOM     22  C   UNL A   1      33.954  28.912  26.189  1.00  0.00     0.009 A 
ATOM     23  C   UNL A   1      32.457  31.049  27.142  1.00  0.00     0.001 A 
ATOM     24  C   UNL A   1      34.503  29.756  27.162  1.00  0.00    -0.051 A 
ATOM     25  C   UNL A   1      33.754  30.844  27.615  1.00  0.00     0.003 A 
ATOM     26  C   UNL A   1      35.878  29.494  27.698  1.00  0.00     0.044 C 
ENDBRANCH  19  20
ENDBRANCH  17  19
ENDBRANCH   8  11
ENDBRANCH   5   8
ENDBRANCH   3   4
ENDBRANCH   2   3
ENDBRANCH   1   2
BRANCH   1  27
ATOM     27  C   UNL A   1      38.303  23.887  26.590  1.00  0.00     0.002 C 
BRANCH  27  28
ATOM     28  C   UNL A   1      39.518  22.989  26.840  1.00  0.00     0.021 C 
BRANCH  28  29
ATOM     29  C   UNL A   1      40.792  23.733  27.225  1.00  0.00     0.116 C 
BRANCH  29  30
ATOM     30  N   UNL A   1      41.333  24.493  26.111  1.00  0.00    -0.352 N 
ATOM     31  C   UNL A   1      41.441  25.850  25.953  1.00  0.00     0.251 C 
ATOM     32  H   UNL A   1      41.669  23.954  25.359  1.00  0.00     0.163 HD
ATOM     33  O   UNL A   1      41.701  26.317  24.848  1.00  0.00    -0.269 OA
BRANCH  31  34
ATOM     34  C   UNL A   1      41.236  26.748  27.109  1.00  0.00     0.039 A 
ATOM     35  C   UNL A   1      40.283  26.402  28.068  1.00  0.00     0.014 A 
ATOM     36  C   UNL A   1      41.962  27.938  27.237  1.00  0.00     0.014 A 
ATOM     37  C   UNL A   1      40.090  27.226  29.178  1.00  0.00     0.010 A 
ATOM     38  C   UNL A   1      41.826  28.715  28.384  1.00  0.00     0.010 A 
ATOM     39  C   UNL A   1      40.880  28.374  29.362  1.00  0.00    -0.014 A 
BRANCH  39  40
ATOM     40  C   UNL A   1      40.725  29.208  30.581  1.00  0.00     0.031 A 
ATOM     41  C   UNL A   1      39.636  30.245  30.670  1.00  0.00     0.074 A 
ATOM     42  C   UNL A   1      41.589  29.046  31.602  1.00  0.00     0.049 A 
ATOM     43  N   UNL A   1      39.330  31.030  31.672  1.00  0.00    -0.248 NA
ATOM     44  C   UNL A   1      38.798  30.441  29.478  1.00  0.00     0.031 C 
ATOM     45  C   UNL A   1      42.722  28.116  31.611  1.00  0.00     0.029 A 
ATOM     46  N   UNL A   1      41.647  29.650  32.833  1.00  0.00    -0.354 N 
ATOM     47  C   UNL A   1      38.274  31.818  31.227  1.00  0.00     0.074 A 
ATOM     48  C   UNL A   1      38.029  31.455  29.849  1.00  0.00     0.031 C 
ATOM     49  C   UNL A   1      43.334  28.181  32.803  1.00  0.00     0.029 A 
ATOM     50  C   UNL A   1      42.666  29.182  33.628  1.00  0.00     0.049 A 
ATOM     51  H   UNL A   1      41.019  30.353  33.119  1.00  0.00     0.167 HD
ATOM     52  C   UNL A   1      37.560  32.745  31.911  1.00  0.00     0.031 A 
ATOM     53  C   UNL A   1      43.025  29.517  34.882  1.00  0.00     0.031 A 
ATOM     54  C   UNL A   1      37.811  33.102  33.283  1.00  0.00     0.049 A 
ATOM     55  C   UNL A   1      42.214  30.544  35.622  1.00  0.00     0.074 A 
ATOM     56  C   UNL A   1      37.105  33.982  34.086  1.00  0.00     0.029 A 
ATOM     57  N   UNL A   1      38.852  32.607  34.055  1.00  0.00    -0.354 N 
ATOM     58  N   UNL A   1      41.163  31.215  35.214  1.00  0.00    -0.248 NA
ATOM     59  C   UNL A   1      42.628  30.847  36.999  1.00  0.00     0.031 C 
ATOM     60  C   UNL A   1      37.760  34.071  35.320  1.00  0.00     0.029 A 
ATOM     61  C   UNL A   1      38.830  33.190  35.312  1.00  0.00     0.049 A 
ATOM     62  H   UNL A   1      39.510  31.941  33.754  1.00  0.00     0.167 HD
ATOM     63  C   UNL A   1      40.778  32.006  36.290  1.00  0.00     0.074 A 
ATOM     64  C   UNL A   1      41.693  31.707  37.375  1.00  0.00     0.031 C 
ATOM     65  C   UNL A   1      39.760  32.901  36.375  1.00  0.00     0.031 A 
BRANCH  52  66
ATOM     66  C   UNL A   1      36.447  33.450  31.177  1.00  0.00    -0.014 A 
ATOM     67  C   UNL A   1      35.169  33.595  31.749  1.00  0.00     0.010 A 
ATOM     68  C   UNL A   1      36.692  34.009  29.909  1.00  0.00     0.010 A 
ATOM     69  C   UNL A   1      34.147  34.245  31.050  1.00  0.00     0.020 A 
ATOM     70  C   UNL A   1      35.682  34.688  29.220  1.00  0.00     0.020 A 
ATOM     71  C   UNL A   1      34.411  34.786  29.788  1.00  0.00     0.054 A 
BRANCH  71  72
ATOM     72  S   UNL A   1      33.071  35.641  28.913  1.00  0.00     0.124 S 
ATOM     73  O   UNL A   1      32.270  36.158  30.021  1.00  0.00    -0.237 OA
ATOM     74  O   UNL A   1      33.789  36.647  28.135  1.00  0.00    -0.237 OA
ATOM     75  O   UNL A   1      32.438  34.583  28.128  1.00  0.00    -0.744 OA
ENDBRANCH  71  72
ENDBRANCH  52  66
BRANCH  53  76
ATOM     76  C   UNL A   1      44.199  28.858  35.517  1.00  0.00    -0.014 A 
ATOM     77  C   UNL A   1      44.048  27.667  36.249  1.00  0.00     0.010 A 
ATOM     78  C   UNL A   1      45.485  29.409  35.367  1.00  0.00     0.010 A 
ATOM     79  C   UNL A   1      45.160  27.048  36.832  1.00  0.00     0.020 A 
ATOM     80  C   UNL A   1      46.602  28.776  35.920  1.00  0.00     0.020 A 
ATOM     81  C   UNL A   1      46.430  27.604  36.657  1.00  0.00     0.054 A 
BRANCH  81  82
ATOM     82  S   UNL A   1      47.865  26.750  37.366  1.00  0.00     0.124 S 
ATOM     83  O   UNL A   1      48.177  27.587  38.520  1.00  0.00    -0.237 OA
ATOM     84  O   UNL A   1      47.324  25.427  37.670  1.00  0.00    -0.237 OA
ATOM     85  O   UNL A   1      48.849  26.780  36.287  1.00  0.00    -0.744 OA
ENDBRANCH  81  82
ENDBRANCH  53  76
BRANCH  65  86
ATOM     86  C   UNL A   1      39.576  33.606  37.694  1.00  0.00    -0.014 A 
ATOM     87  C   UNL A   1      38.833  33.024  38.736  1.00  0.00     0.010 A 
ATOM     88  C   UNL A   1      40.171  34.865  37.899  1.00  0.00     0.010 A 
ATOM     89  C   UNL A   1      38.641  33.713  39.938  1.00  0.00     0.020 A 
ATOM     90  C   UNL A   1      40.011  35.540  39.111  1.00  0.00     0.020 A 
ATOM     91  C   UNL A   1      39.228  34.969  40.115  1.00  0.00     0.054 A 
BRANCH  91  92
ATOM     92  S   UNL A   1      38.968  35.839  41.685  1.00  0.00     0.124 S 
ATOM     93  O   UNL A   1      37.568  35.537  41.971  1.00  0.00    -0.237 OA
ATOM     94  O   UNL A   1      39.942  35.204  42.568  1.00  0.00    -0.237 OA
ATOM     95  O   UNL A   1      39.249  37.236  41.357  1.00  0.00    -0.744 OA
ENDBRANCH  91  92
ENDBRANCH  65  86
ENDBRANCH  39  40
ENDBRANCH  31  34
ENDBRANCH  29  30
ENDBRANCH  28  29
ENDBRANCH  27  28
ENDBRANCH   1  27
TORSDOF 20
ENDMDL
MODEL 3
REMARK VINA RESULT:     -11.0      1.336      2.062
REMARK SMILES CC[C@@H](C(=O)NCCCCCCNC(=O)c1ccc(-c2c3nc(c(-c4ccc(S(=O)(=O)[O-])cc4)c4ccc([nH]4)c(-c4ccc(S(=O)(=O)[O-])cc4)c4nc(c(-c5ccc(S(=O)(=O)[O-])cc5)c5ccc2[nH]5)C=C4)C=C3)cc1)N1CCN(Cc2cccc(C)c2)C(=O)C1=O
REMARK SMILES IDX 9 1 8 2 7 3 6 4 4 5 5 6 3 8 2 9 1 10 76 11 77 12 90 13 78 14
REMARK SMILES IDX 88 15 91 16 79 17 89 18 80 19 81 20 82 21 87 22 83 23 85 24
REMARK SMILES IDX 84 25 86 26 10 27 11 28 12 29 13 30 14 31 15 33 16 34 17 35
REMARK SMILES IDX 75 36 18 37 74 38 19 39 20 40 21 41 68 42 22 43 73 44 67 45
REMARK SMILES IDX 69 46 23 47 72 48 66 49 65 50 24 52 54 53 35 54 53 55 36 56
REMARK SMILES IDX 39 57 52 58 70 59 37 60 38 61 51 63 71 64 40 65 25 66 26 67
REMARK SMILES IDX 34 68 27 69 33 70 28 71 29 72 30 73 31 74 32 75 55 76 56 77
REMARK SMILES IDX 64 78 57 79 63 80 58 81 59 82 60 83 61 84 62 85 41 86 42 87
REMARK SMILES IDX 50 88 43 89 49 90 44 91 45 92 46 93 47 94 48 95
REMARK H PARENT 6 7 13 32 69 51 39 62
REMARK Flexibility Score: inf
ROOT
ATOM      1  C   UNL A   1      37.600  21.549  24.800  1.00  0.00     0.002 C 
ENDROOT
BRANCH   1   2
ATOM      2  C   UNL A   1      36.832  20.229  24.911  1.00  0.00     0.021 C 
BRANCH   2   3
ATOM      3  C   UNL A   1      35.371  20.386  25.328  1.00  0.00     0.116 C 
BRANCH   3   4
ATOM      4  N   UNL A   1      35.168  21.643  26.004  1.00  0.00    -0.354 N 
ATOM      5  C   UNL A   1      34.216  22.601  25.861  1.00  0.00     0.242 C 
ATOM      6  O   UNL A   1      34.220  23.466  26.746  1.00  0.00    -0.273 OA
ATOM      7  H   UNL A   1      35.843  21.844  26.693  1.00  0.00     0.163 HD
BRANCH   5   8
ATOM      8  C   UNL A   1      33.104  22.531  24.760  1.00  0.00     0.174 C 
BRANCH   8   9
ATOM      9  C   UNL A   1      33.290  21.649  23.511  1.00  0.00     0.032 C 
ATOM     10  C   UNL A   1      32.225  20.605  23.222  1.00  0.00     0.006 C 
ENDBRANCH   8   9
BRANCH   8  11
ATOM     11  N   UNL A   1      32.874  23.929  24.308  1.00  0.00    -0.321 N 
ATOM     12  C   UNL A   1      31.655  24.611  24.682  1.00  0.00     0.142 C 
ATOM     13  C   UNL A   1      33.757  24.546  23.406  1.00  0.00     0.312 C 
ATOM     14  C   UNL A   1      31.953  26.073  24.972  1.00  0.00     0.142 C 
ATOM     15  C   UNL A   1      33.472  26.036  23.030  1.00  0.00     0.312 C 
ATOM     16  O   UNL A   1      34.725  23.977  22.906  1.00  0.00    -0.263 OA
ATOM     17  N   UNL A   1      32.540  26.726  23.811  1.00  0.00    -0.328 N 
ATOM     18  O   UNL A   1      34.064  26.545  22.082  1.00  0.00    -0.263 OA
BRANCH  17  19
ATOM     19  C   UNL A   1      32.325  28.153  23.595  1.00  0.00     0.155 C 
BRANCH  19  20
ATOM     20  C   UNL A   1      32.566  28.992  24.832  1.00  0.00    -0.028 A 
ATOM     21  C   UNL A   1      31.579  29.865  25.309  1.00  0.00     0.005 A 
ATOM     22  C   UNL A   1      33.781  28.916  25.531  1.00  0.00     0.009 A 
ATOM     23  C   UNL A   1      31.805  30.636  26.452  1.00  0.00     0.001 A 
ATOM     24  C   UNL A   1      33.986  29.622  26.722  1.00  0.00    -0.051 A 
ATOM     25  C   UNL A   1      32.999  30.506  27.163  1.00  0.00     0.003 A 
ATOM     26  C   UNL A   1      35.253  29.435  27.503  1.00  0.00     0.044 C 
ENDBRANCH  19  20
ENDBRANCH  17  19
ENDBRANCH   8  11
ENDBRANCH   5   8
ENDBRANCH   3   4
ENDBRANCH   2   3
ENDBRANCH   1   2
BRANCH   1  27
ATOM     27  C   UNL A   1      38.755  21.713  25.791  1.00  0.00     0.002 C 
BRANCH  27  28
ATOM     28  C   UNL A   1      38.933  23.128  26.348  1.00  0.00     0.021 C 
BRANCH  28  29
ATOM     29  C   UNL A   1      40.221  23.345  27.138  1.00  0.00     0.116 C 
BRANCH  29  30
ATOM     30  N   UNL A   1      41.292  23.852  26.297  1.00  0.00    -0.352 N 
ATOM     31  C   UNL A   1      41.861  25.099  26.268  1.00  0.00     0.251 C 
ATOM     32  H   UNL A   1      41.662  23.206  25.653  1.00  0.00     0.163 HD
ATOM     33  O   UNL A   1      42.586  25.417  25.331  1.00  0.00    -0.269 OA
BRANCH  31  34
ATOM     34  C   UNL A   1      41.592  26.059  27.359  1.00  0.00     0.039 A 
ATOM     35  C   UNL A   1      40.676  25.710  28.352  1.00  0.00     0.014 A 
ATOM     36  C   UNL A   1      42.222  27.308  27.392  1.00  0.00     0.014 A 
ATOM     37  C   UNL A   1      40.425  26.595  29.402  1.00  0.00     0.010 A 
ATOM     38  C   UNL A   1      42.032  28.154  28.482  1.00  0.00     0.010 A 
ATOM     39  C   UNL A   1      41.123  27.812  29.493  1.00  0.00    -0.014 A 
BRANCH  39  40
ATOM     40  C   UNL A   1      40.910  28.717  30.651  1.00  0.00     0.031 A 
ATOM     41  C   UNL A   1      41.761  28.597  31.888  1.00  0.00     0.074 A 
ATOM     42  C   UNL A   1      39.924  29.633  30.596  1.00  0.00     0.049 A 
ATOM     43  N   UNL A   1      41.741  29.329  32.973  1.00  0.00    -0.248 NA
ATOM     44  C   UNL A   1      42.746  27.505  31.921  1.00  0.00     0.031 C 
ATOM     45  C   UNL A   1      38.994  29.807  29.477  1.00  0.00     0.029 A 
ATOM     46  N   UNL A   1      39.544  30.598  31.496  1.00  0.00    -0.354 N 
ATOM     47  C   UNL A   1      42.699  28.781  33.819  1.00  0.00     0.074 A 
ATOM     48  C   UNL A   1      43.243  27.623  33.144  1.00  0.00     0.031 C 
ATOM     49  C   UNL A   1      38.181  30.842  29.738  1.00  0.00     0.029 A 
ATOM     50  C   UNL A   1      38.503  31.381  31.056  1.00  0.00     0.049 A 
ATOM     51  H   UNL A   1      39.975  30.717  32.373  1.00  0.00     0.167 HD
ATOM     52  C   UNL A   1      43.104  29.214  35.037  1.00  0.00     0.031 A 
ATOM     53  C   UNL A   1      37.875  32.418  31.644  1.00  0.00     0.031 A 
ATOM     54  C   UNL A   1      42.557  30.368  35.703  1.00  0.00     0.049 A 
ATOM     55  C   UNL A   1      38.346  32.883  32.994  1.00  0.00     0.074 A 
ATOM     56  C   UNL A   1      42.941  30.927  36.910  1.00  0.00     0.029 A 
ATOM     57  N   UNL A   1      41.503  31.134  35.227  1.00  0.00    -0.354 N 
ATOM     58  N   UNL A   1      39.314  32.405  33.739  1.00  0.00    -0.248 NA
ATOM     59  C   UNL A   1      37.650  34.040  33.573  1.00  0.00     0.031 C 
ATOM     60  C   UNL A   1      42.076  31.989  37.195  1.00  0.00     0.029 A 
ATOM     61  C   UNL A   1      41.200  32.139  36.132  1.00  0.00     0.049 A 
ATOM     62  H   UNL A   1      41.039  30.986  34.372  1.00  0.00     0.167 HD
ATOM     63  C   UNL A   1      39.356  33.215  34.869  1.00  0.00     0.074 A 
ATOM     64  C   UNL A   1      38.335  34.229  34.692  1.00  0.00     0.031 C 
ATOM     65  C   UNL A   1      40.165  33.127  35.955  1.00  0.00     0.031 A 
BRANCH  52  66
ATOM     66  C   UNL A   1      44.183  28.426  35.736  1.00  0.00    -0.014 A 
ATOM     67  C   UNL A   1      45.547  28.710  35.534  1.00  0.00     0.010 A 
ATOM     68  C   UNL A   1      43.828  27.406  36.639  1.00  0.00     0.010 A 
ATOM     69  C   UNL A   1      46.533  27.963  36.185  1.00  0.00     0.020 A 
ATOM     70  C   UNL A   1      44.810  26.677  37.316  1.00  0.00     0.020 A 
ATOM     71  C   UNL A   1      46.157  26.949  37.071  1.00  0.00     0.054 A 
BRANCH  71  72
ATOM     72  S   UNL A   1      47.459  26.009  37.917  1.00  0.00     0.124 S 
ATOM     73  O   UNL A   1      48.501  25.953  36.894  1.00  0.00    -0.237 OA
ATOM     74  O   UNL A   1      47.759  26.849  39.073  1.00  0.00    -0.237 OA
ATOM     75  O   UNL A   1      46.820  24.731  38.224  1.00  0.00    -0.744 OA
ENDBRANCH  71  72
ENDBRANCH  52  66
BRANCH  53  76
ATOM     76  C   UNL A   1      36.747  33.091  30.945  1.00  0.00    -0.014 A 
ATOM     77  C   UNL A   1      36.986  34.007  29.906  1.00  0.00     0.010 A 
ATOM     78  C   UNL A   1      35.418  32.797  31.303  1.00  0.00     0.010 A 
ATOM     79  C   UNL A   1      35.918  34.626  29.247  1.00  0.00     0.020 A 
ATOM     80  C   UNL A   1      34.349  33.389  30.626  1.00  0.00     0.020 A 
ATOM     81  C   UNL A   1      34.607  34.307  29.608  1.00  0.00     0.054 A 
BRANCH  81  82
ATOM     82  S   UNL A   1      33.237  35.073  28.697  1.00  0.00     0.124 S 
ATOM     83  O   UNL A   1      32.405  35.592  29.778  1.00  0.00    -0.237 OA
ATOM     84  O   UNL A   1      33.921  36.076  27.885  1.00  0.00    -0.237 OA
ATOM     85  O   UNL A   1      32.662  33.960  27.945  1.00  0.00    -0.744 OA
ENDBRANCH  81  82
ENDBRANCH  53  76
BRANCH  65  86
ATOM     86  C   UNL A   1      39.986  34.171  37.029  1.00  0.00    -0.014 A 
ATOM     87  C   UNL A   1      39.124  33.957  38.118  1.00  0.00     0.010 A 
ATOM     88  C   UNL A   1      40.707  35.376  36.953  1.00  0.00     0.010 A 
ATOM     89  C   UNL A   1      38.942  34.953  39.082  1.00  0.00     0.020 A 
ATOM     90  C   UNL A   1      40.556  36.360  37.934  1.00  0.00     0.020 A 
ATOM     91  C   UNL A   1      39.656  36.150  38.980  1.00  0.00     0.054 A 
BRANCH  91  92
ATOM     92  S   UNL A   1      39.407  37.425  40.246  1.00  0.00     0.124 S 
ATOM     93  O   UNL A   1      38.532  38.369  39.557  1.00  0.00    -0.237 OA
ATOM     94  O   UNL A   1      38.790  36.675  41.337  1.00  0.00    -0.237 OA
ATOM     95  O   UNL A   1      40.758  37.913  40.518  1.00  0.00    -0.744 OA
ENDBRANCH  91  92
ENDBRANCH  65  86
ENDBRANCH  39  40
ENDBRANCH  31  34
ENDBRANCH  29  30
ENDBRANCH  28  29
ENDBRANCH  27  28
ENDBRANCH   1  27
TORSDOF 20
ENDMDL
