MODEL 1
REMARK VINA RESULT:     -10.8      0.000      0.000
REMARK SMILES Cc1noc(C)c1CNc1cnc(C(=O)NCCCCCCNC(=O)c2ccc(-c3c4nc(c(-c5ccc(S(=O)(=O)[O-])cc5)c5ccc([nH]5)c(-c5ccc(S(=O)(=O)[O-])cc5)c5nc(c(-c6ccc(S(=O)(=O)[O-])cc6)c6ccc3[nH]6)C=C5)C=C4)cc2)cn1
REMARK SMILES IDX 19 1 18 2 17 3 16 4 14 5 15 6 13 8 10 9 11 10 87 11 12 12
REMARK SMILES IDX 86 13 9 14 8 16 7 17 1 18 2 19 3 20 4 21 5 22 6 23 20 24
REMARK SMILES IDX 21 25 22 26 23 27 24 28 25 30 26 31 27 32 85 33 28 34 84 35
REMARK SMILES IDX 29 36 30 37 31 38 78 39 32 40 83 41 77 42 79 43 33 44 82 45
REMARK SMILES IDX 76 46 75 47 34 49 64 50 45 51 63 52 46 53 49 54 62 55 80 56
REMARK SMILES IDX 47 57 48 58 61 60 81 61 50 62 35 63 36 64 44 65 37 66 43 67
REMARK SMILES IDX 38 68 39 69 40 70 41 71 42 72 65 73 66 74 74 75 67 76 73 77
REMARK SMILES IDX 68 78 69 79 70 80 71 81 72 82 51 83 52 84 60 85 53 86 59 87
REMARK SMILES IDX 54 88 55 89 56 90 57 91 58 92
REMARK H PARENT 16 7 9 15 23 29 79 48 49 59
REMARK Flexibility Score: inf
ROOT
ATOM      1  C   UNL A   1      33.941  25.879  25.574  1.00  0.00     0.002 C 
ENDROOT
BRANCH   1   2
ATOM      2  C   UNL A   1      32.904  26.937  25.184  1.00  0.00     0.021 C 
BRANCH   2   3
ATOM      3  C   UNL A   1      31.675  26.359  24.487  1.00  0.00     0.116 C 
BRANCH   3   4
ATOM      4  N   UNL A   1      30.625  26.054  25.445  1.00  0.00    -0.351 N 
ATOM      5  C   UNL A   1      30.351  24.912  26.167  1.00  0.00     0.271 C 
ATOM      6  O   UNL A   1      29.351  24.913  26.888  1.00  0.00    -0.267 OA
ATOM      7  H   UNL A   1      29.997  26.795  25.608  1.00  0.00     0.163 HD
BRANCH   5   8
ATOM      8  C   UNL A   1      31.219  23.702  26.131  1.00  0.00     0.146 A 
ATOM      9  C   UNL A   1      32.613  21.372  26.033  1.00  0.00     0.144 A 
ATOM     10  C   UNL A   1      32.663  22.229  27.129  1.00  0.00     0.158 A 
ATOM     11  N   UNL A   1      31.895  21.710  24.943  1.00  0.00    -0.235 NA
ATOM     12  N   UNL A   1      31.977  23.390  27.204  1.00  0.00    -0.246 NA
ATOM     13  C   UNL A   1      31.197  22.879  25.016  1.00  0.00     0.147 A 
BRANCH   9  14
ATOM     14  N   UNL A   1      33.230  20.145  25.995  1.00  0.00    -0.365 N 
ATOM     15  H   UNL A   1      33.060  19.490  26.711  1.00  0.00     0.162 HD
BRANCH  14  16
ATOM     16  C   UNL A   1      34.132  19.807  24.910  1.00  0.00     0.156 C 
BRANCH  16  17
ATOM     17  C   UNL A   1      33.652  18.711  24.029  1.00  0.00     0.037 A 
ATOM     18  C   UNL A   1      32.108  20.014  22.368  1.00  0.00     0.071 C 
ATOM     19  C   UNL A   1      32.768  18.805  22.918  1.00  0.00     0.086 A 
ATOM     20  N   UNL A   1      32.561  17.607  22.358  1.00  0.00    -0.085 NA
ATOM     21  O   UNL A   1      33.295  16.707  23.108  1.00  0.00    -0.361 OA
ATOM     22  C   UNL A   1      33.939  17.366  24.105  1.00  0.00     0.138 A 
ATOM     23  C   UNL A   1      34.758  16.548  25.019  1.00  0.00     0.091 C 
ENDBRANCH  16  17
ENDBRANCH  14  16
ENDBRANCH   9  14
ENDBRANCH   5   8
ENDBRANCH   3   4
ENDBRANCH   2   3
ENDBRANCH   1   2
BRANCH   1  24
ATOM     24  C   UNL A   1      34.331  24.912  24.448  1.00  0.00     0.002 C 
BRANCH  24  25
ATOM     25  C   UNL A   1      35.175  23.712  24.887  1.00  0.00     0.021 C 
BRANCH  25  26
ATOM     26  C   UNL A   1      36.326  24.059  25.825  1.00  0.00     0.116 C 
BRANCH  26  27
ATOM     27  N   UNL A   1      37.310  22.990  25.889  1.00  0.00    -0.352 N 
ATOM     28  C   UNL A   1      38.627  23.043  26.265  1.00  0.00     0.251 C 
ATOM     29  H   UNL A   1      36.984  22.100  25.623  1.00  0.00     0.163 HD
ATOM     30  O   UNL A   1      39.366  22.083  26.045  1.00  0.00    -0.269 OA
BRANCH  28  31
ATOM     31  C   UNL A   1      39.162  24.255  26.919  1.00  0.00     0.039 A 
ATOM     32  C   UNL A   1      39.939  25.142  26.170  1.00  0.00     0.014 A 
ATOM     33  C   UNL A   1      38.911  24.512  28.270  1.00  0.00     0.014 A 
ATOM     34  C   UNL A   1      40.418  26.313  26.761  1.00  0.00     0.010 A 
ATOM     35  C   UNL A   1      39.328  25.713  28.838  1.00  0.00     0.010 A 
ATOM     36  C   UNL A   1      40.090  26.625  28.092  1.00  0.00    -0.014 A 
BRANCH  36  37
ATOM     37  C   UNL A   1      40.530  27.901  28.712  1.00  0.00     0.031 A 
ATOM     38  C   UNL A   1      41.910  28.020  29.305  1.00  0.00     0.074 A 
ATOM     39  C   UNL A   1      39.664  28.932  28.799  1.00  0.00     0.049 A 
ATOM     40  N   UNL A   1      42.449  29.032  29.935  1.00  0.00    -0.248 NA
ATOM     41  C   UNL A   1      42.792  26.845  29.198  1.00  0.00     0.031 C 
ATOM     42  C   UNL A   1      38.284  28.925  28.305  1.00  0.00     0.029 A 
ATOM     43  N   UNL A   1      39.811  30.183  29.344  1.00  0.00    -0.354 N 
ATOM     44  C   UNL A   1      43.716  28.609  30.322  1.00  0.00     0.074 A 
ATOM     45  C   UNL A   1      43.855  27.237  29.886  1.00  0.00     0.031 C 
ATOM     46  C   UNL A   1      37.720  30.118  28.552  1.00  0.00     0.029 A 
ATOM     47  C   UNL A   1      38.679  30.961  29.260  1.00  0.00     0.049 A 
ATOM     48  H   UNL A   1      40.649  30.496  29.757  1.00  0.00     0.167 HD
ATOM     49  C   UNL A   1      44.679  29.305  30.971  1.00  0.00     0.031 A 
ATOM     50  C   UNL A   1      38.432  32.206  29.714  1.00  0.00     0.031 A 
ATOM     51  C   UNL A   1      44.548  30.679  31.374  1.00  0.00     0.049 A 
ATOM     52  C   UNL A   1      39.527  32.955  30.428  1.00  0.00     0.074 A 
ATOM     53  C   UNL A   1      45.502  31.496  31.956  1.00  0.00     0.029 A 
ATOM     54  N   UNL A   1      43.395  31.438  31.247  1.00  0.00    -0.354 N 
ATOM     55  N   UNL A   1      40.752  32.568  30.694  1.00  0.00    -0.248 NA
ATOM     56  C   UNL A   1      39.211  34.314  30.889  1.00  0.00     0.031 C 
ATOM     57  C   UNL A   1      44.907  32.726  32.243  1.00  0.00     0.029 A 
ATOM     58  C   UNL A   1      43.604  32.702  31.774  1.00  0.00     0.049 A 
ATOM     59  H   UNL A   1      42.555  31.127  30.841  1.00  0.00     0.167 HD
ATOM     60  C   UNL A   1      41.360  33.649  31.325  1.00  0.00     0.074 A 
ATOM     61  C   UNL A   1      40.378  34.709  31.381  1.00  0.00     0.031 C 
ATOM     62  C   UNL A   1      42.620  33.753  31.813  1.00  0.00     0.031 A 
BRANCH  49  63
ATOM     63  C   UNL A   1      45.969  28.600  31.301  1.00  0.00    -0.014 A 
ATOM     64  C   UNL A   1      46.086  27.787  32.443  1.00  0.00     0.010 A 
ATOM     65  C   UNL A   1      47.044  28.670  30.396  1.00  0.00     0.010 A 
ATOM     66  C   UNL A   1      47.261  27.066  32.678  1.00  0.00     0.020 A 
ATOM     67  C   UNL A   1      48.210  27.930  30.615  1.00  0.00     0.020 A 
ATOM     68  C   UNL A   1      48.312  27.137  31.759  1.00  0.00     0.054 A 
BRANCH  68  69
ATOM     69  S   UNL A   1      49.793  26.131  32.052  1.00  0.00     0.124 S 
ATOM     70  O   UNL A   1      50.807  27.152  32.297  1.00  0.00    -0.237 OA
ATOM     71  O   UNL A   1      49.411  25.334  33.215  1.00  0.00    -0.237 OA
ATOM     72  O   UNL A   1      49.954  25.379  30.810  1.00  0.00    -0.744 OA
ENDBRANCH  68  69
ENDBRANCH  49  63
BRANCH  50  73
ATOM     73  C   UNL A   1      37.089  32.824  29.532  1.00  0.00    -0.014 A 
ATOM     74  C   UNL A   1      36.671  33.284  28.270  1.00  0.00     0.010 A 
ATOM     75  C   UNL A   1      36.233  32.995  30.636  1.00  0.00     0.010 A 
ATOM     76  C   UNL A   1      35.447  33.945  28.124  1.00  0.00     0.020 A 
ATOM     77  C   UNL A   1      34.993  33.624  30.488  1.00  0.00     0.020 A 
ATOM     78  C   UNL A   1      34.619  34.115  29.237  1.00  0.00     0.054 A 
BRANCH  78  79
ATOM     79  S   UNL A   1      33.036  34.978  29.029  1.00  0.00     0.124 S 
ATOM     80  O   UNL A   1      32.374  34.155  28.023  1.00  0.00    -0.237 OA
ATOM     81  O   UNL A   1      32.466  34.919  30.372  1.00  0.00    -0.237 OA
ATOM     82  O   UNL A   1      33.432  36.313  28.587  1.00  0.00    -0.744 OA
ENDBRANCH  78  79
ENDBRANCH  50  73
BRANCH  62  83
ATOM     83  C   UNL A   1      43.030  35.073  32.411  1.00  0.00    -0.014 A 
ATOM     84  C   UNL A   1      43.747  36.025  31.666  1.00  0.00     0.010 A 
ATOM     85  C   UNL A   1      42.639  35.385  33.726  1.00  0.00     0.010 A 
ATOM     86  C   UNL A   1      44.095  37.252  32.237  1.00  0.00     0.020 A 
ATOM     87  C   UNL A   1      42.956  36.623  34.290  1.00  0.00     0.020 A 
ATOM     88  C   UNL A   1      43.696  37.544  33.545  1.00  0.00     0.054 A 
BRANCH  88  89
ATOM     89  S   UNL A   1      44.123  39.160  34.248  1.00  0.00     0.124 S 
ATOM     90  O   UNL A   1      44.166  38.868  35.677  1.00  0.00    -0.237 OA
ATOM     91  O   UNL A   1      45.413  39.447  33.626  1.00  0.00    -0.237 OA
ATOM     92  O   UNL A   1      43.025  40.025  33.821  1.00  0.00    -0.744 OA
ENDBRANCH  88  89
ENDBRANCH  62  83
ENDBRANCH  36  37
ENDBRANCH  28  31
ENDBRANCH  26  27
ENDBRANCH  25  26
ENDBRANCH  24  25
ENDBRANCH   1  24
TORSDOF 19
ENDMDL
MODEL 2
REMARK VINA RESULT:     -10.2      3.684      5.525
REMARK SMILES Cc1noc(C)c1CNc1cnc(C(=O)NCCCCCCNC(=O)c2ccc(-c3c4nc(c(-c5ccc(S(=O)(=O)[O-])cc5)c5ccc([nH]5)c(-c5ccc(S(=O)(=O)[O-])cc5)c5nc(c(-c6ccc(S(=O)(=O)[O-])cc6)c6ccc3[nH]6)C=C5)C=C4)cc2)cn1
REMARK SMILES IDX 19 1 18 2 17 3 16 4 14 5 15 6 13 8 10 9 11 10 87 11 12 12
REMARK SMILES IDX 86 13 9 14 8 16 7 17 1 18 2 19 3 20 4 21 5 22 6 23 20 24
REMARK SMILES IDX 21 25 22 26 23 27 24 28 25 30 26 31 27 32 85 33 28 34 84 35
REMARK SMILES IDX 29 36 30 37 31 38 78 39 32 40 83 41 77 42 79 43 33 44 82 45
REMARK SMILES IDX 76 46 75 47 34 49 64 50 45 51 63 52 46 53 49 54 62 55 80 56
REMARK SMILES IDX 47 57 48 58 61 60 81 61 50 62 35 63 36 64 44 65 37 66 43 67
REMARK SMILES IDX 38 68 39 69 40 70 41 71 42 72 65 73 66 74 74 75 67 76 73 77
REMARK SMILES IDX 68 78 69 79 70 80 71 81 72 82 51 83 52 84 60 85 53 86 59 87
REMARK SMILES IDX 54 88 55 89 56 90 57 91 58 92
REMARK H PARENT 16 7 9 15 23 29 79 48 49 59
REMARK Flexibility Score: inf
ROOT
ATOM      1  C   UNL A   1      36.113  22.727  24.095  1.00  0.00     0.002 C 
ENDROOT
BRANCH   1   2
ATOM      2  C   UNL A   1      36.066  21.344  24.753  1.00  0.00     0.021 C 
BRANCH   2   3
ATOM      3  C   UNL A   1      35.011  21.227  25.851  1.00  0.00     0.116 C 
BRANCH   3   4
ATOM      4  N   UNL A   1      34.065  20.162  25.557  1.00  0.00    -0.351 N 
ATOM      5  C   UNL A   1      32.755  20.197  25.131  1.00  0.00     0.271 C 
ATOM      6  O   UNL A   1      32.164  19.124  25.000  1.00  0.00    -0.267 OA
ATOM      7  H   UNL A   1      34.425  19.254  25.684  1.00  0.00     0.163 HD
BRANCH   5   8
ATOM      8  C   UNL A   1      32.043  21.463  24.802  1.00  0.00     0.146 A 
ATOM      9  C   UNL A   1      30.945  23.860  24.145  1.00  0.00     0.144 A 
ATOM     10  C   UNL A   1      30.797  23.289  25.405  1.00  0.00     0.158 A 
ATOM     11  N   UNL A   1      31.608  23.197  23.176  1.00  0.00    -0.235 NA
ATOM     12  N   UNL A   1      31.336  22.102  25.758  1.00  0.00    -0.246 NA
ATOM     13  C   UNL A   1      32.159  22.001  23.529  1.00  0.00     0.147 A 
BRANCH   9  14
ATOM     14  N   UNL A   1      30.483  25.111  23.815  1.00  0.00    -0.365 N 
ATOM     15  H   UNL A   1      29.594  25.401  24.122  1.00  0.00     0.162 HD
BRANCH  14  16
ATOM     16  C   UNL A   1      31.295  26.010  23.014  1.00  0.00     0.156 C 
BRANCH  16  17
ATOM     17  C   UNL A   1      31.966  27.086  23.786  1.00  0.00     0.037 A 
ATOM     18  C   UNL A   1      34.021  25.812  24.783  1.00  0.00     0.071 C 
ATOM     19  C   UNL A   1      33.158  26.997  24.558  1.00  0.00     0.086 A 
ATOM     20  N   UNL A   1      33.467  28.174  25.115  1.00  0.00    -0.085 NA
ATOM     21  O   UNL A   1      32.469  29.048  24.728  1.00  0.00    -0.361 OA
ATOM     22  C   UNL A   1      31.574  28.397  23.942  1.00  0.00     0.138 A 
ATOM     23  C   UNL A   1      30.425  29.183  23.455  1.00  0.00     0.091 C 
ENDBRANCH  16  17
ENDBRANCH  14  16
ENDBRANCH   9  14
ENDBRANCH   5   8
ENDBRANCH   3   4
ENDBRANCH   2   3
ENDBRANCH   1   2
BRANCH   1  24
ATOM     24  C   UNL A   1      37.138  23.694  24.701  1.00  0.00     0.002 C 
BRANCH  24  25
ATOM     25  C   UNL A   1      37.723  23.261  26.048  1.00  0.00     0.021 C 
BRANCH  25  26
ATOM     26  C   UNL A   1      38.551  24.332  26.751  1.00  0.00     0.116 C 
BRANCH  26  27
ATOM     27  N   UNL A   1      39.757  24.656  26.006  1.00  0.00    -0.352 N 
ATOM     28  C   UNL A   1      40.585  25.741  26.123  1.00  0.00     0.251 C 
ATOM     29  H   UNL A   1      40.016  24.001  25.319  1.00  0.00     0.163 HD
ATOM     30  O   UNL A   1      41.435  25.960  25.260  1.00  0.00    -0.269 OA
BRANCH  28  31
ATOM     31  C   UNL A   1      40.448  26.657  27.276  1.00  0.00     0.039 A 
ATOM     32  C   UNL A   1      39.724  26.235  28.393  1.00  0.00     0.014 A 
ATOM     33  C   UNL A   1      41.021  27.932  27.251  1.00  0.00     0.014 A 
ATOM     34  C   UNL A   1      39.620  27.071  29.507  1.00  0.00     0.010 A 
ATOM     35  C   UNL A   1      40.977  28.735  28.388  1.00  0.00     0.010 A 
ATOM     36  C   UNL A   1      40.273  28.316  29.527  1.00  0.00    -0.014 A 
BRANCH  36  37
ATOM     37  C   UNL A   1      40.233  29.184  30.732  1.00  0.00     0.031 A 
ATOM     38  C   UNL A   1      41.190  28.944  31.871  1.00  0.00     0.074 A 
ATOM     39  C   UNL A   1      39.294  30.148  30.827  1.00  0.00     0.049 A 
ATOM     40  N   UNL A   1      41.268  29.562  33.021  1.00  0.00    -0.248 NA
ATOM     41  C   UNL A   1      42.170  27.857  31.710  1.00  0.00     0.031 C 
ATOM     42  C   UNL A   1      38.281  30.448  29.811  1.00  0.00     0.029 A 
ATOM     43  N   UNL A   1      39.030  31.046  31.830  1.00  0.00    -0.354 N 
ATOM     44  C   UNL A   1      42.281  28.924  33.729  1.00  0.00     0.074 A 
ATOM     45  C   UNL A   1      42.768  27.849  32.893  1.00  0.00     0.031 C 
ATOM     46  C   UNL A   1      37.520  31.471  30.235  1.00  0.00     0.029 A 
ATOM     47  C   UNL A   1      37.960  31.871  31.568  1.00  0.00     0.049 A 
ATOM     48  H   UNL A   1      39.556  31.097  32.661  1.00  0.00     0.167 HD
ATOM     49  C   UNL A   1      42.768  29.216  34.958  1.00  0.00     0.031 A 
ATOM     50  C   UNL A   1      37.384  32.831  32.320  1.00  0.00     0.031 A 
ATOM     51  C   UNL A   1      42.302  30.306  35.772  1.00  0.00     0.049 A 
ATOM     52  C   UNL A   1      37.955  33.134  33.681  1.00  0.00     0.074 A 
ATOM     53  C   UNL A   1      42.796  30.735  36.993  1.00  0.00     0.029 A 
ATOM     54  N   UNL A   1      41.235  31.133  35.459  1.00  0.00    -0.354 N 
ATOM     55  N   UNL A   1      38.978  32.582  34.287  1.00  0.00    -0.248 NA
ATOM     56  C   UNL A   1      37.300  34.200  34.453  1.00  0.00     0.031 C 
ATOM     57  C   UNL A   1      41.986  31.777  37.449  1.00  0.00     0.029 A 
ATOM     58  C   UNL A   1      41.032  32.045  36.481  1.00  0.00     0.049 A 
ATOM     59  H   UNL A   1      40.702  31.080  34.634  1.00  0.00     0.167 HD
ATOM     60  C   UNL A   1      39.109  33.257  35.497  1.00  0.00     0.074 A 
ATOM     61  C   UNL A   1      38.076  34.268  35.527  1.00  0.00     0.031 C 
ATOM     62  C   UNL A   1      40.006  33.055  36.493  1.00  0.00     0.031 A 
BRANCH  49  63
ATOM     63  C   UNL A   1      43.862  28.344  35.517  1.00  0.00    -0.014 A 
ATOM     64  C   UNL A   1      45.219  28.635  35.287  1.00  0.00     0.010 A 
ATOM     65  C   UNL A   1      43.525  27.281  36.375  1.00  0.00     0.010 A 
ATOM     66  C   UNL A   1      46.218  27.869  35.895  1.00  0.00     0.020 A 
ATOM     67  C   UNL A   1      44.522  26.530  37.006  1.00  0.00     0.020 A 
ATOM     68  C   UNL A   1      45.863  26.826  36.756  1.00  0.00     0.054 A 
BRANCH  68  69
ATOM     69  S   UNL A   1      47.181  25.900  37.590  1.00  0.00     0.124 S 
ATOM     70  O   UNL A   1      46.975  26.274  38.986  1.00  0.00    -0.237 OA
ATOM     71  O   UNL A   1      46.857  24.515  37.256  1.00  0.00    -0.237 OA
ATOM     72  O   UNL A   1      48.406  26.414  36.982  1.00  0.00    -0.744 OA
ENDBRANCH  68  69
ENDBRANCH  49  63
BRANCH  50  73
ATOM     73  C   UNL A   1      36.189  33.567  31.820  1.00  0.00    -0.014 A 
ATOM     74  C   UNL A   1      36.126  34.026  30.492  1.00  0.00     0.010 A 
ATOM     75  C   UNL A   1      35.119  33.851  32.689  1.00  0.00     0.010 A 
ATOM     76  C   UNL A   1      35.042  34.794  30.057  1.00  0.00     0.020 A 
ATOM     77  C   UNL A   1      34.017  34.588  32.248  1.00  0.00     0.020 A 
ATOM     78  C   UNL A   1      33.997  35.075  30.941  1.00  0.00     0.054 A 
BRANCH  78  79
ATOM     79  S   UNL A   1      32.600  36.076  30.358  1.00  0.00     0.124 S 
ATOM     80  O   UNL A   1      33.073  37.432  30.615  1.00  0.00    -0.237 OA
ATOM     81  O   UNL A   1      32.502  35.695  28.953  1.00  0.00    -0.237 OA
ATOM     82  O   UNL A   1      31.489  35.630  31.196  1.00  0.00    -0.744 OA
ENDBRANCH  78  79
ENDBRANCH  50  73
BRANCH  62  83
ATOM     83  C   UNL A   1      39.944  33.976  37.683  1.00  0.00    -0.014 A 
ATOM     84  C   UNL A   1      40.690  35.166  37.731  1.00  0.00     0.010 A 
ATOM     85  C   UNL A   1      39.077  33.667  38.748  1.00  0.00     0.010 A 
ATOM     86  C   UNL A   1      40.597  36.014  38.838  1.00  0.00     0.020 A 
ATOM     87  C   UNL A   1      38.956  34.528  39.841  1.00  0.00     0.020 A 
ATOM     88  C   UNL A   1      39.730  35.690  39.886  1.00  0.00     0.054 A 
BRANCH  88  89
ATOM     89  S   UNL A   1      39.595  36.829  41.291  1.00  0.00     0.124 S 
ATOM     90  O   UNL A   1      38.900  37.965  40.695  1.00  0.00    -0.237 OA
ATOM     91  O   UNL A   1      38.820  36.054  42.256  1.00  0.00    -0.237 OA
ATOM     92  O   UNL A   1      40.985  37.077  41.671  1.00  0.00    -0.744 OA
ENDBRANCH  88  89
ENDBRANCH  62  83
ENDBRANCH  36  37
ENDBRANCH  28  31
ENDBRANCH  26  27
ENDBRANCH  25  26
ENDBRANCH  24  25
ENDBRANCH   1  24
TORSDOF 19
ENDMDL
MODEL 3
REMARK VINA RESULT:     -10.0      3.681      9.612
REMARK SMILES Cc1noc(C)c1CNc1cnc(C(=O)NCCCCCCNC(=O)c2ccc(-c3c4nc(c(-c5ccc(S(=O)(=O)[O-])cc5)c5ccc([nH]5)c(-c5ccc(S(=O)(=O)[O-])cc5)c5nc(c(-c6ccc(S(=O)(=O)[O-])cc6)c6ccc3[nH]6)C=C5)C=C4)cc2)cn1
REMARK SMILES IDX 19 1 18 2 17 3 16 4 14 5 15 6 13 8 10 9 11 10 87 11 12 12
REMARK SMILES IDX 86 13 9 14 8 16 7 17 1 18 2 19 3 20 4 21 5 22 6 23 20 24
REMARK SMILES IDX 21 25 22 26 23 27 24 28 25 30 26 31 27 32 85 33 28 34 84 35
REMARK SMILES IDX 29 36 30 37 31 38 78 39 32 40 83 41 77 42 79 43 33 44 82 45
REMARK SMILES IDX 76 46 75 47 34 49 64 50 45 51 63 52 46 53 49 54 62 55 80 56
REMARK SMILES IDX 47 57 48 58 61 60 81 61 50 62 35 63 36 64 44 65 37 66 43 67
REMARK SMILES IDX 38 68 39 69 40 70 41 71 42 72 65 73 66 74 74 75 67 76 73 77
REMARK SMILES IDX 68 78 69 79 70 80 71 81 72 82 51 83 52 84 60 85 53 86 59 87
REMARK SMILES IDX 54 88 55 89 56 90 57 91 58 92
REMARK H PARENT 16 7 9 15 23 29 79 48 49 59
REMARK Flexibility Score: inf
ROOT
ATOM      1  C   UNL A   1      38.243  21.377  25.532  1.00  0.00     0.002 C 
ENDROOT
BRANCH   1   2
ATOM      2  C   UNL A   1      36.937  21.840  24.878  1.00  0.00     0.021 C 
BRANCH   2   3
ATOM      3  C   UNL A   1      35.762  21.919  25.851  1.00  0.00     0.116 C 
BRANCH   3   4
ATOM      4  N   UNL A   1      35.013  20.672  25.868  1.00  0.00    -0.351 N 
ATOM      5  C   UNL A   1      33.721  20.379  25.491  1.00  0.00     0.271 C 
ATOM      6  O   UNL A   1      33.320  19.224  25.657  1.00  0.00    -0.267 OA
ATOM      7  H   UNL A   1      35.519  19.900  26.211  1.00  0.00     0.163 HD
BRANCH   5   8
ATOM      8  C   UNL A   1      32.808  21.381  24.874  1.00  0.00     0.146 A 
ATOM      9  C   UNL A   1      31.324  23.292  23.637  1.00  0.00     0.144 A 
ATOM     10  C   UNL A   1      31.386  23.171  25.023  1.00  0.00     0.158 A 
ATOM     11  N   UNL A   1      31.973  22.409  22.852  1.00  0.00    -0.235 NA
ATOM     12  N   UNL A   1      32.118  22.234  25.661  1.00  0.00    -0.246 NA
ATOM     13  C   UNL A   1      32.718  21.463  23.493  1.00  0.00     0.147 A 
BRANCH   9  14
ATOM     14  N   UNL A   1      30.661  24.305  22.989  1.00  0.00    -0.365 N 
ATOM     15  H   UNL A   1      29.698  24.216  22.800  1.00  0.00     0.162 HD
BRANCH  14  16
ATOM     16  C   UNL A   1      31.367  25.505  22.578  1.00  0.00     0.156 C 
BRANCH  16  17
ATOM     17  C   UNL A   1      31.432  26.566  23.614  1.00  0.00     0.037 A 
ATOM     18  C   UNL A   1      33.776  26.112  24.681  1.00  0.00     0.071 C 
ATOM     19  C   UNL A   1      32.487  26.830  24.531  1.00  0.00     0.086 A 
ATOM     20  N   UNL A   1      32.198  27.872  25.320  1.00  0.00    -0.085 NA
ATOM     21  O   UNL A   1      30.939  28.295  24.940  1.00  0.00    -0.361 OA
ATOM     22  C   UNL A   1      30.483  27.513  23.928  1.00  0.00     0.138 A 
ATOM     23  C   UNL A   1      29.135  27.817  23.412  1.00  0.00     0.091 C 
ENDBRANCH  16  17
ENDBRANCH  14  16
ENDBRANCH   9  14
ENDBRANCH   5   8
ENDBRANCH   3   4
ENDBRANCH   2   3
ENDBRANCH   1   2
BRANCH   1  24
ATOM     24  C   UNL A   1      39.081  22.498  26.162  1.00  0.00     0.002 C 
BRANCH  24  25
ATOM     25  C   UNL A   1      40.253  22.024  27.026  1.00  0.00     0.021 C 
BRANCH  25  26
ATOM     26  C   UNL A   1      41.220  23.129  27.439  1.00  0.00     0.116 C 
BRANCH  26  27
ATOM     27  N   UNL A   1      41.676  23.902  26.294  1.00  0.00    -0.352 N 
ATOM     28  C   UNL A   1      41.678  25.259  26.108  1.00  0.00     0.251 C 
ATOM     29  H   UNL A   1      42.035  23.374  25.545  1.00  0.00     0.163 HD
ATOM     30  O   UNL A   1      41.896  25.724  24.989  1.00  0.00    -0.269 OA
BRANCH  28  31
ATOM     31  C   UNL A   1      41.404  26.163  27.245  1.00  0.00     0.039 A 
ATOM     32  C   UNL A   1      40.408  25.817  28.160  1.00  0.00     0.014 A 
ATOM     33  C   UNL A   1      42.118  27.355  27.402  1.00  0.00     0.014 A 
ATOM     34  C   UNL A   1      40.165  26.639  29.263  1.00  0.00     0.010 A 
ATOM     35  C   UNL A   1      41.924  28.136  28.539  1.00  0.00     0.010 A 
ATOM     36  C   UNL A   1      40.942  27.789  29.479  1.00  0.00    -0.014 A 
BRANCH  36  37
ATOM     37  C   UNL A   1      40.746  28.634  30.686  1.00  0.00     0.031 A 
ATOM     38  C   UNL A   1      39.653  29.672  30.715  1.00  0.00     0.074 A 
ATOM     39  C   UNL A   1      41.591  28.510  31.730  1.00  0.00     0.049 A 
ATOM     40  N   UNL A   1      39.367  30.535  31.655  1.00  0.00    -0.248 NA
ATOM     41  C   UNL A   1      38.786  29.770  29.529  1.00  0.00     0.031 C 
ATOM     42  C   UNL A   1      42.716  27.574  31.804  1.00  0.00     0.029 A 
ATOM     43  N   UNL A   1      41.643  29.181  32.926  1.00  0.00    -0.354 N 
ATOM     44  C   UNL A   1      38.309  31.294  31.165  1.00  0.00     0.074 A 
ATOM     45  C   UNL A   1      38.025  30.813  29.831  1.00  0.00     0.031 C 
ATOM     46  C   UNL A   1      43.333  27.717  32.988  1.00  0.00     0.029 A 
ATOM     47  C   UNL A   1      42.679  28.783  33.741  1.00  0.00     0.049 A 
ATOM     48  H   UNL A   1      40.999  29.882  33.179  1.00  0.00     0.167 HD
ATOM     49  C   UNL A   1      37.630  32.293  31.777  1.00  0.00     0.031 A 
ATOM     50  C   UNL A   1      43.070  29.234  34.949  1.00  0.00     0.031 A 
ATOM     51  C   UNL A   1      37.895  32.747  33.115  1.00  0.00     0.049 A 
ATOM     52  C   UNL A   1      42.288  30.343  35.604  1.00  0.00     0.074 A 
ATOM     53  C   UNL A   1      37.201  33.691  33.852  1.00  0.00     0.029 A 
ATOM     54  N   UNL A   1      38.935  32.300  33.915  1.00  0.00    -0.354 N 
ATOM     55  N   UNL A   1      41.229  30.978  35.162  1.00  0.00    -0.248 NA
ATOM     56  C   UNL A   1      42.747  30.787  36.928  1.00  0.00     0.031 C 
ATOM     57  C   UNL A   1      37.860  33.864  35.071  1.00  0.00     0.029 A 
ATOM     58  C   UNL A   1      38.923  32.977  35.123  1.00  0.00     0.049 A 
ATOM     59  H   UNL A   1      39.584  31.605  33.663  1.00  0.00     0.167 HD
ATOM     60  C   UNL A   1      40.877  31.872  36.168  1.00  0.00     0.074 A 
ATOM     61  C   UNL A   1      41.822  31.682  37.247  1.00  0.00     0.031 C 
ATOM     62  C   UNL A   1      39.862  32.770  36.194  1.00  0.00     0.031 A 
BRANCH  49  63
ATOM     63  C   UNL A   1      36.531  32.982  31.010  1.00  0.00    -0.014 A 
ATOM     64  C   UNL A   1      35.177  32.681  31.243  1.00  0.00     0.010 A 
ATOM     65  C   UNL A   1      36.858  34.022  30.121  1.00  0.00     0.010 A 
ATOM     66  C   UNL A   1      34.171  33.400  30.591  1.00  0.00     0.020 A 
ATOM     67  C   UNL A   1      35.855  34.761  29.487  1.00  0.00     0.020 A 
ATOM     68  C   UNL A   1      34.517  34.441  29.723  1.00  0.00     0.054 A 
BRANCH  68  69
ATOM     69  S   UNL A   1      33.189  35.406  28.950  1.00  0.00     0.124 S 
ATOM     70  O   UNL A   1      32.443  35.876  30.114  1.00  0.00    -0.237 OA
ATOM     71  O   UNL A   1      33.927  36.433  28.220  1.00  0.00    -0.237 OA
ATOM     72  O   UNL A   1      32.491  34.431  28.115  1.00  0.00    -0.744 OA
ENDBRANCH  68  69
ENDBRANCH  49  63
BRANCH  50  73
ATOM     73  C   UNL A   1      44.270  28.658  35.619  1.00  0.00    -0.014 A 
ATOM     74  C   UNL A   1      45.550  29.193  35.391  1.00  0.00     0.010 A 
ATOM     75  C   UNL A   1      44.141  27.537  36.460  1.00  0.00     0.010 A 
ATOM     76  C   UNL A   1      46.681  28.591  35.951  1.00  0.00     0.020 A 
ATOM     77  C   UNL A   1      45.265  26.953  37.050  1.00  0.00     0.020 A 
ATOM     78  C   UNL A   1      46.531  27.470  36.773  1.00  0.00     0.054 A 
BRANCH  78  79
ATOM     79  S   UNL A   1      48.010  26.701  37.487  1.00  0.00     0.124 S 
ATOM     80  O   UNL A   1      48.197  27.482  38.706  1.00  0.00    -0.237 OA
ATOM     81  O   UNL A   1      47.586  25.318  37.679  1.00  0.00    -0.237 OA
ATOM     82  O   UNL A   1      49.027  26.896  36.456  1.00  0.00    -0.744 OA
ENDBRANCH  78  79
ENDBRANCH  50  73
BRANCH  62  83
ATOM     83  C   UNL A   1      39.686  33.586  37.447  1.00  0.00    -0.014 A 
ATOM     84  C   UNL A   1      40.235  34.875  37.568  1.00  0.00     0.010 A 
ATOM     85  C   UNL A   1      38.908  33.072  38.502  1.00  0.00     0.010 A 
ATOM     86  C   UNL A   1      40.037  35.621  38.732  1.00  0.00     0.020 A 
ATOM     87  C   UNL A   1      38.681  33.827  39.654  1.00  0.00     0.020 A 
ATOM     88  C   UNL A   1      39.261  35.093  39.768  1.00  0.00     0.054 A 
BRANCH  88  89
ATOM     89  S   UNL A   1      38.984  36.098  41.252  1.00  0.00     0.124 S 
ATOM     90  O   UNL A   1      37.700  35.593  41.726  1.00  0.00    -0.237 OA
ATOM     91  O   UNL A   1      40.137  35.763  42.084  1.00  0.00    -0.237 OA
ATOM     92  O   UNL A   1      38.967  37.469  40.743  1.00  0.00    -0.744 OA
ENDBRANCH  88  89
ENDBRANCH  62  83
ENDBRANCH  36  37
ENDBRANCH  28  31
ENDBRANCH  26  27
ENDBRANCH  25  26
ENDBRANCH  24  25
ENDBRANCH   1  24
TORSDOF 19
ENDMDL
