MODEL 1
REMARK VINA RESULT:     -13.1      0.000      0.000
REMARK SMILES CCC(=O)N1CCC[C@](C[C@H]2CC(c3ccc(C)cc3)=NO2)(C(=O)NCCCCCCNC(=O)c2ccc(-c3c4nc(c(-c5ccc(S(=O)(=O)[O-])cc5)c5ccc([nH]5)c(-c5ccc(S(=O)(=O)[O-])cc5)c5nc(c(-c6ccc(S(=O)(=O)[O-])cc6)c6ccc3[nH]6)C=C5)C=C4)cc2)C1
REMARK SMILES IDX 28 1 27 2 26 3 25 4 23 5 24 6 9 8 5 9 6 10 95 11 7 12 8 13
REMARK SMILES IDX 3 14 4 15 2 16 1 17 10 18 11 19 12 20 22 21 13 22 21 23
REMARK SMILES IDX 14 24 15 25 20 26 16 27 19 28 17 29 18 30 29 31 30 32 31 33
REMARK SMILES IDX 32 34 33 35 34 37 35 38 36 39 94 40 37 41 93 42 38 43 39 44
REMARK SMILES IDX 40 45 87 46 41 47 92 48 86 49 88 50 42 51 91 52 85 53 84 54
REMARK SMILES IDX 43 56 73 57 54 58 72 59 55 60 58 61 71 62 89 63 56 64 57 65
REMARK SMILES IDX 70 67 90 68 59 69 44 70 45 71 53 72 46 73 52 74 47 75 48 76
REMARK SMILES IDX 49 77 50 78 51 79 74 80 75 81 83 82 76 83 82 84 77 85 78 86
REMARK SMILES IDX 79 87 80 88 81 89 60 90 61 91 69 92 62 93 68 94 63 95 64 96
REMARK SMILES IDX 65 97 66 98 67 99
REMARK H PARENT 25 7 32 36 88 55 58 66
REMARK Flexibility Score: inf
ROOT
ATOM      1  C   UNL A   1      31.851  27.679  27.347  1.00  0.00     0.002 C 
ENDROOT
BRANCH   1   2
ATOM      2  C   UNL A   1      31.612  26.434  26.486  1.00  0.00     0.021 C 
BRANCH   2   3
ATOM      3  C   UNL A   1      32.769  25.434  26.453  1.00  0.00     0.116 C 
BRANCH   3   4
ATOM      4  N   UNL A   1      32.292  24.061  26.440  1.00  0.00    -0.356 N 
ATOM      5  C   UNL A   1      32.306  23.071  25.504  1.00  0.00     0.228 C 
ATOM      6  O   UNL A   1      31.706  22.038  25.816  1.00  0.00    -0.274 OA
ATOM      7  H   UNL A   1      31.870  23.789  27.286  1.00  0.00     0.163 HD
BRANCH   5   8
ATOM      8  C   UNL A   1      33.005  23.224  24.123  1.00  0.00     0.070 C 
ATOM      9  N   UNL A   1      34.311  21.036  24.249  1.00  0.00    -0.342 N 
ATOM     10  C   UNL A   1      35.573  21.740  24.437  1.00  0.00     0.119 C 
ATOM     11  C   UNL A   1      33.262  21.788  23.541  1.00  0.00     0.136 C 
ATOM     12  C   UNL A   1      35.360  23.075  25.125  1.00  0.00     0.023 C 
ATOM     13  C   UNL A   1      34.370  23.913  24.318  1.00  0.00     0.021 C 
BRANCH   9  14
ATOM     14  C   UNL A   1      34.233  19.723  24.686  1.00  0.00     0.222 C 
ATOM     15  O   UNL A   1      35.254  19.060  24.911  1.00  0.00    -0.275 OA
BRANCH  14  16
ATOM     16  C   UNL A   1      32.892  19.002  24.697  1.00  0.00     0.097 C 
ATOM     17  C   UNL A   1      32.736  17.767  25.559  1.00  0.00     0.014 C 
ENDBRANCH  14  16
ENDBRANCH   9  14
BRANCH   8  18
ATOM     18  C   UNL A   1      31.994  23.983  23.192  1.00  0.00     0.067 C 
BRANCH  18  19
ATOM     19  C   UNL A   1      32.367  25.242  22.383  1.00  0.00     0.211 C 
ATOM     20  C   UNL A   1      31.257  26.041  21.734  1.00  0.00     0.108 C 
ATOM     21  O   UNL A   1      33.126  26.165  23.169  1.00  0.00    -0.392 OA
ATOM     22  C   UNL A   1      31.333  27.265  22.574  1.00  0.00     0.091 C 
ATOM     23  N   UNL A   1      32.381  27.354  23.327  1.00  0.00    -0.090 NA
BRANCH  22  24
ATOM     24  C   UNL A   1      30.300  28.318  22.543  1.00  0.00    -0.001 A 
ATOM     25  C   UNL A   1      29.058  28.133  23.155  1.00  0.00     0.010 A 
ATOM     26  C   UNL A   1      30.622  29.552  21.975  1.00  0.00     0.010 A 
ATOM     27  C   UNL A   1      28.154  29.197  23.231  1.00  0.00     0.004 A 
ATOM     28  C   UNL A   1      29.703  30.602  22.021  1.00  0.00     0.004 A 
ATOM     29  C   UNL A   1      28.473  30.441  22.673  1.00  0.00    -0.051 A 
ATOM     30  C   UNL A   1      27.500  31.580  22.735  1.00  0.00     0.044 C 
ENDBRANCH  22  24
ENDBRANCH  18  19
ENDBRANCH   8  18
ENDBRANCH   5   8
ENDBRANCH   3   4
ENDBRANCH   2   3
ENDBRANCH   1   2
BRANCH   1  31
ATOM     31  C   UNL A   1      32.150  28.988  26.598  1.00  0.00     0.002 C 
BRANCH  31  32
ATOM     32  C   UNL A   1      33.115  29.962  27.276  1.00  0.00     0.021 C 
BRANCH  32  33
ATOM     33  C   UNL A   1      34.585  29.607  27.102  1.00  0.00     0.116 C 
BRANCH  33  34
ATOM     34  N   UNL A   1      35.456  30.772  27.060  1.00  0.00    -0.352 N 
ATOM     35  C   UNL A   1      36.593  30.925  27.857  1.00  0.00     0.251 C 
ATOM     36  H   UNL A   1      35.231  31.496  26.432  1.00  0.00     0.163 HD
ATOM     37  O   UNL A   1      36.922  31.942  28.398  1.00  0.00    -0.269 OA
BRANCH  35  38
ATOM     38  C   UNL A   1      37.446  29.715  27.916  1.00  0.00     0.039 A 
ATOM     39  C   UNL A   1      37.348  28.903  29.051  1.00  0.00     0.014 A 
ATOM     40  C   UNL A   1      38.515  29.615  27.032  1.00  0.00     0.014 A 
ATOM     41  C   UNL A   1      38.430  28.105  29.405  1.00  0.00     0.010 A 
ATOM     42  C   UNL A   1      39.619  28.897  27.434  1.00  0.00     0.010 A 
ATOM     43  C   UNL A   1      39.591  28.188  28.644  1.00  0.00    -0.014 A 
BRANCH  43  44
ATOM     44  C   UNL A   1      40.868  27.617  29.037  1.00  0.00     0.031 A 
ATOM     45  C   UNL A   1      41.144  26.202  28.732  1.00  0.00     0.074 A 
ATOM     46  C   UNL A   1      41.839  28.424  29.516  1.00  0.00     0.049 A 
ATOM     47  N   UNL A   1      42.176  25.562  29.159  1.00  0.00    -0.248 NA
ATOM     48  C   UNL A   1      40.226  25.362  27.963  1.00  0.00     0.031 C 
ATOM     49  C   UNL A   1      43.276  28.167  29.567  1.00  0.00     0.029 A 
ATOM     50  N   UNL A   1      41.676  29.572  30.279  1.00  0.00    -0.354 N 
ATOM     51  C   UNL A   1      42.237  24.382  28.462  1.00  0.00     0.074 A 
ATOM     52  C   UNL A   1      40.938  24.237  27.853  1.00  0.00     0.031 C 
ATOM     53  C   UNL A   1      43.830  28.977  30.483  1.00  0.00     0.029 A 
ATOM     54  C   UNL A   1      42.746  29.643  31.184  1.00  0.00     0.049 A 
ATOM     55  H   UNL A   1      40.940  30.222  30.198  1.00  0.00     0.167 HD
ATOM     56  C   UNL A   1      43.441  23.755  28.356  1.00  0.00     0.031 A 
ATOM     57  C   UNL A   1      42.506  29.511  32.527  1.00  0.00     0.031 A 
ATOM     58  C   UNL A   1      44.404  24.287  29.325  1.00  0.00     0.049 A 
ATOM     59  C   UNL A   1      43.092  28.248  33.147  1.00  0.00     0.074 A 
ATOM     60  C   UNL A   1      45.563  25.039  29.250  1.00  0.00     0.029 A 
ATOM     61  N   UNL A   1      44.039  24.285  30.667  1.00  0.00    -0.354 N 
ATOM     62  N   UNL A   1      43.721  27.313  32.486  1.00  0.00    -0.248 NA
ATOM     63  C   UNL A   1      42.960  27.914  34.564  1.00  0.00     0.031 C 
ATOM     64  C   UNL A   1      45.855  25.535  30.561  1.00  0.00     0.029 A 
ATOM     65  C   UNL A   1      44.900  25.046  31.434  1.00  0.00     0.049 A 
ATOM     66  H   UNL A   1      43.263  23.800  31.028  1.00  0.00     0.167 HD
ATOM     67  C   UNL A   1      44.037  26.270  33.320  1.00  0.00     0.074 A 
ATOM     68  C   UNL A   1      43.535  26.698  34.616  1.00  0.00     0.031 C 
ATOM     69  C   UNL A   1      44.654  25.131  32.872  1.00  0.00     0.031 A 
BRANCH  56  70
ATOM     70  C   UNL A   1      43.790  22.803  27.229  1.00  0.00    -0.014 A 
ATOM     71  C   UNL A   1      42.909  21.756  26.893  1.00  0.00     0.010 A 
ATOM     72  C   UNL A   1      45.028  22.803  26.548  1.00  0.00     0.010 A 
ATOM     73  C   UNL A   1      43.258  20.758  25.963  1.00  0.00     0.020 A 
ATOM     74  C   UNL A   1      45.379  21.833  25.602  1.00  0.00     0.020 A 
ATOM     75  C   UNL A   1      44.499  20.799  25.328  1.00  0.00     0.054 A 
BRANCH  75  76
ATOM     76  S   UNL A   1      44.976  19.482  24.180  1.00  0.00     0.124 S 
ATOM     77  O   UNL A   1      46.429  19.455  24.326  1.00  0.00    -0.237 OA
ATOM     78  O   UNL A   1      44.263  18.323  24.709  1.00  0.00    -0.237 OA
ATOM     79  O   UNL A   1      44.498  19.962  22.884  1.00  0.00    -0.744 OA
ENDBRANCH  75  76
ENDBRANCH  56  70
BRANCH  57  80
ATOM     80  C   UNL A   1      41.247  30.209  32.946  1.00  0.00    -0.014 A 
ATOM     81  C   UNL A   1      40.164  29.386  33.333  1.00  0.00     0.010 A 
ATOM     82  C   UNL A   1      41.278  31.536  33.407  1.00  0.00     0.010 A 
ATOM     83  C   UNL A   1      39.269  29.801  34.326  1.00  0.00     0.020 A 
ATOM     84  C   UNL A   1      40.365  31.962  34.388  1.00  0.00     0.020 A 
ATOM     85  C   UNL A   1      39.428  31.060  34.901  1.00  0.00     0.054 A 
BRANCH  85  86
ATOM     86  S   UNL A   1      38.536  31.416  36.449  1.00  0.00     0.124 S 
ATOM     87  O   UNL A   1      37.485  32.324  36.004  1.00  0.00    -0.237 OA
ATOM     88  O   UNL A   1      38.085  30.085  36.866  1.00  0.00    -0.237 OA
ATOM     89  O   UNL A   1      39.560  32.011  37.302  1.00  0.00    -0.744 OA
ENDBRANCH  85  86
ENDBRANCH  57  80
BRANCH  69  90
ATOM     90  C   UNL A   1      45.034  23.929  33.721  1.00  0.00    -0.014 A 
ATOM     91  C   UNL A   1      44.190  22.840  33.985  1.00  0.00     0.010 A 
ATOM     92  C   UNL A   1      46.292  23.917  34.378  1.00  0.00     0.010 A 
ATOM     93  C   UNL A   1      44.617  21.757  34.773  1.00  0.00     0.020 A 
ATOM     94  C   UNL A   1      46.723  22.858  35.179  1.00  0.00     0.020 A 
ATOM     95  C   UNL A   1      45.888  21.767  35.352  1.00  0.00     0.054 A 
BRANCH  95  96
ATOM     96  S   UNL A   1      46.416  20.359  36.359  1.00  0.00     0.124 S 
ATOM     97  O   UNL A   1      45.709  19.244  35.735  1.00  0.00    -0.237 OA
ATOM     98  O   UNL A   1      47.865  20.371  36.163  1.00  0.00    -0.237 OA
ATOM     99  O   UNL A   1      45.968  20.702  37.706  1.00  0.00    -0.744 OA
ENDBRANCH  95  96
ENDBRANCH  69  90
ENDBRANCH  43  44
ENDBRANCH  35  38
ENDBRANCH  33  34
ENDBRANCH  32  33
ENDBRANCH  31  32
ENDBRANCH   1  31
TORSDOF 21
ENDMDL
MODEL 2
REMARK VINA RESULT:     -12.7      2.438      5.397
REMARK SMILES CCC(=O)N1CCC[C@](C[C@H]2CC(c3ccc(C)cc3)=NO2)(C(=O)NCCCCCCNC(=O)c2ccc(-c3c4nc(c(-c5ccc(S(=O)(=O)[O-])cc5)c5ccc([nH]5)c(-c5ccc(S(=O)(=O)[O-])cc5)c5nc(c(-c6ccc(S(=O)(=O)[O-])cc6)c6ccc3[nH]6)C=C5)C=C4)cc2)C1
REMARK SMILES IDX 28 1 27 2 26 3 25 4 23 5 24 6 9 8 5 9 6 10 95 11 7 12 8 13
REMARK SMILES IDX 3 14 4 15 2 16 1 17 10 18 11 19 12 20 22 21 13 22 21 23
REMARK SMILES IDX 14 24 15 25 20 26 16 27 19 28 17 29 18 30 29 31 30 32 31 33
REMARK SMILES IDX 32 34 33 35 34 37 35 38 36 39 94 40 37 41 93 42 38 43 39 44
REMARK SMILES IDX 40 45 87 46 41 47 92 48 86 49 88 50 42 51 91 52 85 53 84 54
REMARK SMILES IDX 43 56 73 57 54 58 72 59 55 60 58 61 71 62 89 63 56 64 57 65
REMARK SMILES IDX 70 67 90 68 59 69 44 70 45 71 53 72 46 73 52 74 47 75 48 76
REMARK SMILES IDX 49 77 50 78 51 79 74 80 75 81 83 82 76 83 82 84 77 85 78 86
REMARK SMILES IDX 79 87 80 88 81 89 60 90 61 91 69 92 62 93 68 94 63 95 64 96
REMARK SMILES IDX 65 97 66 98 67 99
REMARK H PARENT 25 7 32 36 88 55 58 66
REMARK Flexibility Score: inf
ROOT
ATOM      1  C   UNL A   1      32.030  28.259  24.225  1.00  0.00     0.002 C 
ENDROOT
BRANCH   1   2
ATOM      2  C   UNL A   1      32.315  26.921  23.532  1.00  0.00     0.021 C 
BRANCH   2   3
ATOM      3  C   UNL A   1      33.698  26.328  23.806  1.00  0.00     0.116 C 
BRANCH   3   4
ATOM      4  N   UNL A   1      33.824  24.987  23.261  1.00  0.00    -0.356 N 
ATOM      5  C   UNL A   1      33.982  23.756  23.824  1.00  0.00     0.228 C 
ATOM      6  O   UNL A   1      34.156  22.827  23.029  1.00  0.00    -0.274 OA
ATOM      7  H   UNL A   1      33.787  24.962  22.278  1.00  0.00     0.163 HD
BRANCH   5   8
ATOM      8  C   UNL A   1      33.968  23.522  25.361  1.00  0.00     0.070 C 
ATOM      9  N   UNL A   1      32.524  21.419  25.291  1.00  0.00    -0.342 N 
ATOM     10  C   UNL A   1      31.382  22.120  25.863  1.00  0.00     0.119 C 
ATOM     11  C   UNL A   1      33.845  21.978  25.622  1.00  0.00     0.136 C 
ATOM     12  C   UNL A   1      31.408  23.594  25.505  1.00  0.00     0.023 C 
ATOM     13  C   UNL A   1      32.728  24.209  25.968  1.00  0.00     0.021 C 
BRANCH   9  14
ATOM     14  C   UNL A   1      32.275  20.270  24.556  1.00  0.00     0.222 C 
ATOM     15  O   UNL A   1      32.144  19.171  25.109  1.00  0.00    -0.275 OA
BRANCH  14  16
ATOM     16  C   UNL A   1      32.364  20.304  23.036  1.00  0.00     0.097 C 
ATOM     17  C   UNL A   1      31.635  21.402  22.289  1.00  0.00     0.014 C 
ENDBRANCH  14  16
ENDBRANCH   9  14
BRANCH   8  18
ATOM     18  C   UNL A   1      35.351  24.028  25.903  1.00  0.00     0.067 C 
BRANCH  18  19
ATOM     19  C   UNL A   1      36.670  23.897  25.114  1.00  0.00     0.211 C 
ATOM     20  C   UNL A   1      37.952  23.649  25.883  1.00  0.00     0.108 C 
ATOM     21  O   UNL A   1      36.588  22.871  24.121  1.00  0.00    -0.392 OA
ATOM     22  C   UNL A   1      38.221  22.257  25.437  1.00  0.00     0.091 C 
ATOM     23  N   UNL A   1      37.504  21.847  24.441  1.00  0.00    -0.090 NA
BRANCH  22  24
ATOM     24  C   UNL A   1      39.245  21.403  26.069  1.00  0.00    -0.001 A 
ATOM     25  C   UNL A   1      39.457  20.089  25.645  1.00  0.00     0.010 A 
ATOM     26  C   UNL A   1      40.077  21.966  27.039  1.00  0.00     0.010 A 
ATOM     27  C   UNL A   1      40.525  19.353  26.166  1.00  0.00     0.004 A 
ATOM     28  C   UNL A   1      41.121  21.216  27.583  1.00  0.00     0.004 A 
ATOM     29  C   UNL A   1      41.370  19.914  27.131  1.00  0.00    -0.051 A 
ATOM     30  C   UNL A   1      42.506  19.123  27.706  1.00  0.00     0.044 C 
ENDBRANCH  22  24
ENDBRANCH  18  19
ENDBRANCH   8  18
ENDBRANCH   5   8
ENDBRANCH   3   4
ENDBRANCH   2   3
ENDBRANCH   1   2
BRANCH   1  31
ATOM     31  C   UNL A   1      33.188  28.882  25.021  1.00  0.00     0.002 C 
BRANCH  31  32
ATOM     32  C   UNL A   1      33.278  28.516  26.503  1.00  0.00     0.021 C 
BRANCH  32  33
ATOM     33  C   UNL A   1      32.863  29.635  27.449  1.00  0.00     0.116 C 
BRANCH  33  34
ATOM     34  N   UNL A   1      33.539  30.894  27.180  1.00  0.00    -0.352 N 
ATOM     35  C   UNL A   1      34.620  31.374  27.924  1.00  0.00     0.251 C 
ATOM     36  H   UNL A   1      33.217  31.442  26.428  1.00  0.00     0.163 HD
ATOM     37  O   UNL A   1      34.772  32.514  28.260  1.00  0.00    -0.269 OA
BRANCH  35  38
ATOM     38  C   UNL A   1      35.652  30.348  28.203  1.00  0.00     0.039 A 
ATOM     39  C   UNL A   1      35.746  29.857  29.510  1.00  0.00     0.014 A 
ATOM     40  C   UNL A   1      36.671  30.165  27.275  1.00  0.00     0.014 A 
ATOM     41  C   UNL A   1      36.957  29.334  29.948  1.00  0.00     0.010 A 
ATOM     42  C   UNL A   1      37.895  29.733  27.737  1.00  0.00     0.010 A 
ATOM     43  C   UNL A   1      38.046  29.369  29.084  1.00  0.00    -0.014 A 
BRANCH  43  44
ATOM     44  C   UNL A   1      39.417  29.099  29.484  1.00  0.00     0.031 A 
ATOM     45  C   UNL A   1      40.022  27.802  29.135  1.00  0.00     0.074 A 
ATOM     46  C   UNL A   1      40.164  30.092  30.012  1.00  0.00     0.049 A 
ATOM     47  N   UNL A   1      41.170  27.406  29.562  1.00  0.00    -0.248 NA
ATOM     48  C   UNL A   1      39.337  26.800  28.318  1.00  0.00     0.031 C 
ATOM     49  C   UNL A   1      41.620  30.178  30.086  1.00  0.00     0.029 A 
ATOM     50  N   UNL A   1      39.725  31.138  30.812  1.00  0.00    -0.354 N 
ATOM     51  C   UNL A   1      41.516  26.301  28.825  1.00  0.00     0.074 A 
ATOM     52  C   UNL A   1      40.295  25.880  28.183  1.00  0.00     0.031 C 
ATOM     53  C   UNL A   1      41.956  31.059  31.041  1.00  0.00     0.029 A 
ATOM     54  C   UNL A   1      40.737  31.422  31.742  1.00  0.00     0.049 A 
ATOM     55  H   UNL A   1      38.858  31.600  30.738  1.00  0.00     0.167 HD
ATOM     56  C   UNL A   1      42.834  25.979  28.722  1.00  0.00     0.031 A 
ATOM     57  C   UNL A   1      40.518  31.186  33.073  1.00  0.00     0.031 A 
ATOM     58  C   UNL A   1      43.633  26.683  29.731  1.00  0.00     0.049 A 
ATOM     59  C   UNL A   1      41.377  30.072  33.662  1.00  0.00     0.074 A 
ATOM     60  C   UNL A   1      44.583  27.689  29.708  1.00  0.00     0.029 A 
ATOM     61  N   UNL A   1      43.262  26.543  31.064  1.00  0.00    -0.354 N 
ATOM     62  N   UNL A   1      42.216  29.337  32.981  1.00  0.00    -0.248 NA
ATOM     63  C   UNL A   1      41.309  29.661  35.062  1.00  0.00     0.031 C 
ATOM     64  C   UNL A   1      44.733  28.188  31.041  1.00  0.00     0.029 A 
ATOM     65  C   UNL A   1      43.909  27.454  31.876  1.00  0.00     0.049 A 
ATOM     66  H   UNL A   1      42.617  25.876  31.390  1.00  0.00     0.167 HD
ATOM     67  C   UNL A   1      42.759  28.366  33.785  1.00  0.00     0.074 A 
ATOM     68  C   UNL A   1      42.153  28.612  35.083  1.00  0.00     0.031 C 
ATOM     69  C   UNL A   1      43.631  27.422  33.310  1.00  0.00     0.031 A 
BRANCH  56  70
ATOM     70  C   UNL A   1      43.413  25.181  27.571  1.00  0.00    -0.014 A 
ATOM     71  C   UNL A   1      43.628  23.795  27.713  1.00  0.00     0.010 A 
ATOM     72  C   UNL A   1      43.886  25.753  26.370  1.00  0.00     0.010 A 
ATOM     73  C   UNL A   1      44.303  23.042  26.733  1.00  0.00     0.020 A 
ATOM     74  C   UNL A   1      44.535  25.013  25.374  1.00  0.00     0.020 A 
ATOM     75  C   UNL A   1      44.761  23.661  25.570  1.00  0.00     0.054 A 
BRANCH  75  76
ATOM     76  S   UNL A   1      45.685  22.708  24.337  1.00  0.00     0.124 S 
ATOM     77  O   UNL A   1      44.635  22.316  23.400  1.00  0.00    -0.237 OA
ATOM     78  O   UNL A   1      46.650  23.683  23.839  1.00  0.00    -0.237 OA
ATOM     79  O   UNL A   1      46.260  21.608  25.110  1.00  0.00    -0.744 OA
ENDBRANCH  75  76
ENDBRANCH  56  70
BRANCH  57  80
ATOM     80  C   UNL A   1      39.124  31.551  33.490  1.00  0.00    -0.014 A 
ATOM     81  C   UNL A   1      38.855  32.928  33.671  1.00  0.00     0.010 A 
ATOM     82  C   UNL A   1      38.046  30.686  33.233  1.00  0.00     0.010 A 
ATOM     83  C   UNL A   1      37.592  33.455  33.381  1.00  0.00     0.020 A 
ATOM     84  C   UNL A   1      36.770  31.212  32.964  1.00  0.00     0.020 A 
ATOM     85  C   UNL A   1      36.580  32.598  32.952  1.00  0.00     0.054 A 
BRANCH  85  86
ATOM     86  S   UNL A   1      35.096  33.332  32.194  1.00  0.00     0.124 S 
ATOM     87  O   UNL A   1      34.452  32.176  31.580  1.00  0.00    -0.237 OA
ATOM     88  O   UNL A   1      34.400  33.903  33.351  1.00  0.00    -0.237 OA
ATOM     89  O   UNL A   1      35.642  34.314  31.262  1.00  0.00    -0.744 OA
ENDBRANCH  85  86
ENDBRANCH  57  80
BRANCH  69  90
ATOM     90  C   UNL A   1      44.273  26.311  34.124  1.00  0.00    -0.014 A 
ATOM     91  C   UNL A   1      45.648  26.203  34.381  1.00  0.00     0.010 A 
ATOM     92  C   UNL A   1      43.464  25.246  34.599  1.00  0.00     0.010 A 
ATOM     93  C   UNL A   1      46.169  25.150  35.155  1.00  0.00     0.020 A 
ATOM     94  C   UNL A   1      43.969  24.183  35.351  1.00  0.00     0.020 A 
ATOM     95  C   UNL A   1      45.321  24.155  35.647  1.00  0.00     0.054 A 
BRANCH  95  96
ATOM     96  S   UNL A   1      46.014  22.811  36.643  1.00  0.00     0.124 S 
ATOM     97  O   UNL A   1      45.332  21.638  36.104  1.00  0.00    -0.237 OA
ATOM     98  O   UNL A   1      47.439  22.907  36.332  1.00  0.00    -0.237 OA
ATOM     99  O   UNL A   1      45.651  23.166  38.012  1.00  0.00    -0.744 OA
ENDBRANCH  95  96
ENDBRANCH  69  90
ENDBRANCH  43  44
ENDBRANCH  35  38
ENDBRANCH  33  34
ENDBRANCH  32  33
ENDBRANCH  31  32
ENDBRANCH   1  31
TORSDOF 21
ENDMDL
MODEL 3
REMARK VINA RESULT:     -12.4      1.784      2.351
REMARK SMILES CCC(=O)N1CCC[C@](C[C@H]2CC(c3ccc(C)cc3)=NO2)(C(=O)NCCCCCCNC(=O)c2ccc(-c3c4nc(c(-c5ccc(S(=O)(=O)[O-])cc5)c5ccc([nH]5)c(-c5ccc(S(=O)(=O)[O-])cc5)c5nc(c(-c6ccc(S(=O)(=O)[O-])cc6)c6ccc3[nH]6)C=C5)C=C4)cc2)C1
REMARK SMILES IDX 28 1 27 2 26 3 25 4 23 5 24 6 9 8 5 9 6 10 95 11 7 12 8 13
REMARK SMILES IDX 3 14 4 15 2 16 1 17 10 18 11 19 12 20 22 21 13 22 21 23
REMARK SMILES IDX 14 24 15 25 20 26 16 27 19 28 17 29 18 30 29 31 30 32 31 33
REMARK SMILES IDX 32 34 33 35 34 37 35 38 36 39 94 40 37 41 93 42 38 43 39 44
REMARK SMILES IDX 40 45 87 46 41 47 92 48 86 49 88 50 42 51 91 52 85 53 84 54
REMARK SMILES IDX 43 56 73 57 54 58 72 59 55 60 58 61 71 62 89 63 56 64 57 65
REMARK SMILES IDX 70 67 90 68 59 69 44 70 45 71 53 72 46 73 52 74 47 75 48 76
REMARK SMILES IDX 49 77 50 78 51 79 74 80 75 81 83 82 76 83 82 84 77 85 78 86
REMARK SMILES IDX 79 87 80 88 81 89 60 90 61 91 69 92 62 93 68 94 63 95 64 96
REMARK SMILES IDX 65 97 66 98 67 99
REMARK H PARENT 25 7 32 36 88 55 58 66
REMARK Flexibility Score: inf
ROOT
ATOM      1  C   UNL A   1      31.447  27.437  26.992  1.00  0.00     0.002 C 
ENDROOT
BRANCH   1   2
ATOM      2  C   UNL A   1      31.274  26.081  26.299  1.00  0.00     0.021 C 
BRANCH   2   3
ATOM      3  C   UNL A   1      32.437  25.104  26.482  1.00  0.00     0.116 C 
BRANCH   3   4
ATOM      4  N   UNL A   1      31.995  23.722  26.395  1.00  0.00    -0.356 N 
ATOM      5  C   UNL A   1      32.107  22.759  25.437  1.00  0.00     0.228 C 
ATOM      6  O   UNL A   1      31.510  21.704  25.673  1.00  0.00    -0.274 OA
ATOM      7  H   UNL A   1      31.515  23.417  27.197  1.00  0.00     0.163 HD
BRANCH   5   8
ATOM      8  C   UNL A   1      32.909  22.966  24.121  1.00  0.00     0.070 C 
ATOM      9  N   UNL A   1      34.217  20.781  24.267  1.00  0.00    -0.342 N 
ATOM     10  C   UNL A   1      35.456  21.482  24.577  1.00  0.00     0.119 C 
ATOM     11  C   UNL A   1      33.221  21.555  23.508  1.00  0.00     0.136 C 
ATOM     12  C   UNL A   1      35.182  22.790  25.295  1.00  0.00     0.023 C 
ATOM     13  C   UNL A   1      34.251  23.653  24.446  1.00  0.00     0.021 C 
BRANCH   9  14
ATOM     14  C   UNL A   1      34.115  19.452  24.647  1.00  0.00     0.222 C 
ATOM     15  O   UNL A   1      35.122  18.743  24.778  1.00  0.00    -0.275 OA
BRANCH  14  16
ATOM     16  C   UNL A   1      32.750  18.780  24.709  1.00  0.00     0.097 C 
ATOM     17  C   UNL A   1      32.622  17.456  25.434  1.00  0.00     0.014 C 
ENDBRANCH  14  16
ENDBRANCH   9  14
BRANCH   8  18
ATOM     18  C   UNL A   1      31.968  23.755  23.143  1.00  0.00     0.067 C 
BRANCH  18  19
ATOM     19  C   UNL A   1      32.409  25.019  22.376  1.00  0.00     0.211 C 
ATOM     20  C   UNL A   1      31.343  25.899  21.757  1.00  0.00     0.108 C 
ATOM     21  O   UNL A   1      33.218  25.871  23.191  1.00  0.00    -0.392 OA
ATOM     22  C   UNL A   1      31.488  27.088  22.638  1.00  0.00     0.091 C 
ATOM     23  N   UNL A   1      32.540  27.093  23.391  1.00  0.00    -0.090 NA
BRANCH  22  24
ATOM     24  C   UNL A   1      30.513  28.196  22.646  1.00  0.00    -0.001 A 
ATOM     25  C   UNL A   1      30.808  29.425  22.051  1.00  0.00     0.010 A 
ATOM     26  C   UNL A   1      29.241  27.961  23.172  1.00  0.00     0.010 A 
ATOM     27  C   UNL A   1      29.816  30.405  21.951  1.00  0.00     0.004 A 
ATOM     28  C   UNL A   1      28.264  28.956  23.102  1.00  0.00     0.004 A 
ATOM     29  C   UNL A   1      28.535  30.174  22.467  1.00  0.00    -0.051 A 
ATOM     30  C   UNL A   1      27.473  31.229  22.378  1.00  0.00     0.044 C 
ENDBRANCH  22  24
ENDBRANCH  18  19
ENDBRANCH   8  18
ENDBRANCH   5   8
ENDBRANCH   3   4
ENDBRANCH   2   3
ENDBRANCH   1   2
BRANCH   1  31
ATOM     31  C   UNL A   1      31.441  28.679  26.086  1.00  0.00     0.002 C 
BRANCH  31  32
ATOM     32  C   UNL A   1      32.075  29.949  26.658  1.00  0.00     0.021 C 
BRANCH  32  33
ATOM     33  C   UNL A   1      33.574  29.842  26.904  1.00  0.00     0.116 C 
BRANCH  33  34
ATOM     34  N   UNL A   1      34.205  31.126  27.170  1.00  0.00    -0.352 N 
ATOM     35  C   UNL A   1      35.074  31.361  28.238  1.00  0.00     0.251 C 
ATOM     36  H   UNL A   1      34.007  31.874  26.561  1.00  0.00     0.163 HD
ATOM     37  O   UNL A   1      35.078  32.347  28.919  1.00  0.00    -0.269 OA
BRANCH  35  38
ATOM     38  C   UNL A   1      36.094  30.301  28.419  1.00  0.00     0.039 A 
ATOM     39  C   UNL A   1      36.148  29.654  29.658  1.00  0.00     0.014 A 
ATOM     40  C   UNL A   1      37.139  30.225  27.505  1.00  0.00     0.014 A 
ATOM     41  C   UNL A   1      37.343  29.073  30.064  1.00  0.00     0.010 A 
ATOM     42  C   UNL A   1      38.347  29.731  27.946  1.00  0.00     0.010 A 
ATOM     43  C   UNL A   1      38.458  29.205  29.242  1.00  0.00    -0.014 A 
BRANCH  43  44
ATOM     44  C   UNL A   1      39.814  28.878  29.646  1.00  0.00     0.031 A 
ATOM     45  C   UNL A   1      40.366  27.557  29.298  1.00  0.00     0.074 A 
ATOM     46  C   UNL A   1      40.601  29.839  30.176  1.00  0.00     0.049 A 
ATOM     47  N   UNL A   1      41.495  27.113  29.727  1.00  0.00    -0.248 NA
ATOM     48  C   UNL A   1      39.642  26.585  28.478  1.00  0.00     0.031 C 
ATOM     49  C   UNL A   1      42.059  29.864  30.253  1.00  0.00     0.029 A 
ATOM     50  N   UNL A   1      40.204  30.902  30.975  1.00  0.00    -0.354 N 
ATOM     51  C   UNL A   1      41.797  25.995  28.991  1.00  0.00     0.074 A 
ATOM     52  C   UNL A   1      40.562  25.625  28.346  1.00  0.00     0.031 C 
ATOM     53  C   UNL A   1      42.430  30.730  31.210  1.00  0.00     0.029 A 
ATOM     54  C   UNL A   1      41.224  31.144  31.908  1.00  0.00     0.049 A 
ATOM     55  H   UNL A   1      39.358  31.399  30.899  1.00  0.00     0.167 HD
ATOM     56  C   UNL A   1      43.101  25.618  28.891  1.00  0.00     0.031 A 
ATOM     57  C   UNL A   1      40.993  30.916  33.238  1.00  0.00     0.031 A 
ATOM     58  C   UNL A   1      43.926  26.289  29.902  1.00  0.00     0.049 A 
ATOM     59  C   UNL A   1      41.803  29.767  33.828  1.00  0.00     0.074 A 
ATOM     60  C   UNL A   1      44.917  27.254  29.882  1.00  0.00     0.029 A 
ATOM     61  N   UNL A   1      43.546  26.164  31.234  1.00  0.00    -0.354 N 
ATOM     62  N   UNL A   1      42.612  28.998  33.150  1.00  0.00    -0.248 NA
ATOM     63  C   UNL A   1      41.714  29.359  35.229  1.00  0.00     0.031 C 
ATOM     64  C   UNL A   1      45.084  27.745  31.216  1.00  0.00     0.029 A 
ATOM     65  C   UNL A   1      44.228  27.047  32.048  1.00  0.00     0.049 A 
ATOM     66  H   UNL A   1      42.873  25.524  31.558  1.00  0.00     0.167 HD
ATOM     67  C   UNL A   1      43.112  28.005  33.954  1.00  0.00     0.074 A 
ATOM     68  C   UNL A   1      42.514  28.276  35.252  1.00  0.00     0.031 C 
ATOM     69  C   UNL A   1      43.946  27.026  33.482  1.00  0.00     0.031 A 
BRANCH  56  70
ATOM     70  C   UNL A   1      43.649  24.797  27.741  1.00  0.00    -0.014 A 
ATOM     71  C   UNL A   1      44.754  23.946  27.947  1.00  0.00     0.010 A 
ATOM     72  C   UNL A   1      43.206  24.912  26.405  1.00  0.00     0.010 A 
ATOM     73  C   UNL A   1      45.393  23.284  26.881  1.00  0.00     0.020 A 
ATOM     74  C   UNL A   1      43.813  24.239  25.338  1.00  0.00     0.020 A 
ATOM     75  C   UNL A   1      44.921  23.443  25.578  1.00  0.00     0.054 A 
BRANCH  75  76
ATOM     76  S   UNL A   1      45.779  22.643  24.198  1.00  0.00     0.124 S 
ATOM     77  O   UNL A   1      44.681  22.346  23.282  1.00  0.00    -0.237 OA
ATOM     78  O   UNL A   1      46.710  23.678  23.758  1.00  0.00    -0.237 OA
ATOM     79  O   UNL A   1      46.403  21.472  24.810  1.00  0.00    -0.744 OA
ENDBRANCH  75  76
ENDBRANCH  56  70
BRANCH  57  80
ATOM     80  C   UNL A   1      39.614  31.339  33.651  1.00  0.00    -0.014 A 
ATOM     81  C   UNL A   1      39.452  32.692  34.031  1.00  0.00     0.010 A 
ATOM     82  C   UNL A   1      38.483  30.623  33.223  1.00  0.00     0.010 A 
ATOM     83  C   UNL A   1      38.253  33.368  33.777  1.00  0.00     0.020 A 
ATOM     84  C   UNL A   1      37.271  31.296  32.989  1.00  0.00     0.020 A 
ATOM     85  C   UNL A   1      37.198  32.679  33.183  1.00  0.00     0.054 A 
BRANCH  85  86
ATOM     86  S   UNL A   1      35.822  33.650  32.489  1.00  0.00     0.124 S 
ATOM     87  O   UNL A   1      36.352  34.068  31.196  1.00  0.00    -0.237 OA
ATOM     88  O   UNL A   1      34.736  32.666  32.437  1.00  0.00    -0.237 OA
ATOM     89  O   UNL A   1      35.633  34.718  33.465  1.00  0.00    -0.744 OA
ENDBRANCH  85  86
ENDBRANCH  57  80
BRANCH  69  90
ATOM     90  C   UNL A   1      44.539  25.888  34.297  1.00  0.00    -0.014 A 
ATOM     91  C   UNL A   1      45.760  25.952  34.984  1.00  0.00     0.010 A 
ATOM     92  C   UNL A   1      43.878  24.632  34.314  1.00  0.00     0.010 A 
ATOM     93  C   UNL A   1      46.240  24.860  35.729  1.00  0.00     0.020 A 
ATOM     94  C   UNL A   1      44.352  23.533  35.033  1.00  0.00     0.020 A 
ATOM     95  C   UNL A   1      45.524  23.662  35.760  1.00  0.00     0.054 A 
BRANCH  95  96
ATOM     96  S   UNL A   1      46.160  22.272  36.728  1.00  0.00     0.124 S 
ATOM     97  O   UNL A   1      45.459  21.134  36.140  1.00  0.00    -0.237 OA
ATOM     98  O   UNL A   1      47.593  22.338  36.450  1.00  0.00    -0.237 OA
ATOM     99  O   UNL A   1      45.777  22.594  38.100  1.00  0.00    -0.744 OA
ENDBRANCH  95  96
ENDBRANCH  69  90
ENDBRANCH  43  44
ENDBRANCH  35  38
ENDBRANCH  33  34
ENDBRANCH  32  33
ENDBRANCH  31  32
ENDBRANCH   1  31
TORSDOF 21
ENDMDL
