MODEL 1
REMARK VINA RESULT:      -8.7      0.000      0.000
REMARK SMILES Cc1cc(Br)ccc1NS(=O)(=O)c1ccc(C(=O)NCCCCCCNC(=O)c2ccc(-c3c4nc(c(-c5ccc(S(=O)(=O)[O-])cc5)c5ccc([nH]5)c(-c5ccc(S(=O)(=O)[O-])cc5)c5nc(c(-c6ccc(S(=O)(=O)[O-])cc6)c6ccc3[nH]6)C=C5)C=C4)cc2)cc1
REMARK SMILES IDX 22 1 21 2 20 3 19 4 17 5 18 6 16 8 13 9 14 10 90 11 15 12
REMARK SMILES IDX 89 13 10 14 11 15 12 16 9 17 8 19 1 20 2 21 3 22 4 23 7 24
REMARK SMILES IDX 5 25 6 26 23 27 24 28 25 29 26 30 27 31 28 33 29 34 30 35
REMARK SMILES IDX 88 36 31 37 87 38 32 39 33 40 34 41 81 42 35 43 86 44 80 45
REMARK SMILES IDX 82 46 36 47 85 48 79 49 78 50 37 52 67 53 48 54 66 55 49 56
REMARK SMILES IDX 52 57 65 58 83 59 50 60 51 61 64 63 84 64 53 65 38 66 39 67
REMARK SMILES IDX 47 68 40 69 46 70 41 71 42 72 43 73 44 74 45 75 68 76 69 77
REMARK SMILES IDX 77 78 70 79 76 80 71 81 72 82 73 83 74 84 75 85 54 86 55 87
REMARK SMILES IDX 63 88 56 89 62 90 57 91 58 92 59 93 60 94 61 95
REMARK H PARENT 19 7 9 18 26 32 82 51 52 62
REMARK Flexibility Score: inf
ROOT
ATOM      1  C   UNL A   1      35.398  33.186  31.824  1.00  0.00     0.002 C 
ENDROOT
BRANCH   1   2
ATOM      2  C   UNL A   1      36.474  34.257  32.050  1.00  0.00     0.021 C 
BRANCH   2   3
ATOM      3  C   UNL A   1      37.715  33.715  32.756  1.00  0.00     0.116 C 
BRANCH   3   4
ATOM      4  N   UNL A   1      37.377  33.375  34.124  1.00  0.00    -0.352 N 
ATOM      5  C   UNL A   1      37.757  32.306  34.883  1.00  0.00     0.251 C 
ATOM      6  O   UNL A   1      37.315  32.172  36.021  1.00  0.00    -0.269 OA
ATOM      7  H   UNL A   1      36.780  34.015  34.576  1.00  0.00     0.163 HD
BRANCH   5   8
ATOM      8  C   UNL A   1      38.760  31.341  34.387  1.00  0.00     0.039 A 
ATOM      9  C   UNL A   1      40.735  29.488  33.731  1.00  0.00     0.087 A 
ATOM     10  C   UNL A   1      41.076  30.645  34.439  1.00  0.00     0.023 A 
ATOM     11  C   UNL A   1      39.429  29.308  33.254  1.00  0.00     0.023 A 
ATOM     12  C   UNL A   1      40.078  31.543  34.808  1.00  0.00     0.015 A 
ATOM     13  C   UNL A   1      38.435  30.235  33.592  1.00  0.00     0.015 A 
BRANCH   9  14
ATOM     14  S   UNL A   1      41.986  28.265  33.421  1.00  0.00     0.261 S 
ATOM     15  O   UNL A   1      43.274  28.916  33.568  1.00  0.00    -0.201 OA
ATOM     16  O   UNL A   1      41.648  27.593  32.186  1.00  0.00    -0.201 OA
BRANCH  14  17
ATOM     17  N   UNL A   1      41.903  27.050  34.633  1.00  0.00    -0.279 N 
ATOM     18  H   UNL A   1      41.234  27.131  35.351  1.00  0.00     0.180 HD
BRANCH  17  19
ATOM     19  C   UNL A   1      42.790  25.915  34.623  1.00  0.00     0.052 A 
ATOM     20  C   UNL A   1      41.304  24.458  36.154  1.00  0.00     0.046 C 
ATOM     21  C   UNL A   1      42.480  24.688  35.242  1.00  0.00    -0.026 A 
ATOM     22  C   UNL A   1      43.395  23.617  35.130  1.00  0.00     0.021 A 
ATOM     23  C   UNL A   1      44.606  23.774  34.460  1.00  0.00     0.018 A 
ATOM     24  C   UNL A   1      44.069  26.083  34.076  1.00  0.00     0.028 A 
ATOM     25  Br  UNL A   1      45.793  22.314  34.291  1.00  0.00    -0.051 Br
ATOM     26  C   UNL A   1      44.959  25.015  33.955  1.00  0.00     0.018 A 
ENDBRANCH  17  19
ENDBRANCH  14  17
ENDBRANCH   9  14
ENDBRANCH   5   8
ENDBRANCH   3   4
ENDBRANCH   2   3
ENDBRANCH   1   2
BRANCH   1  27
ATOM     27  C   UNL A   1      34.603  33.352  30.523  1.00  0.00     0.002 C 
BRANCH  27  28
ATOM     28  C   UNL A   1      35.267  32.730  29.293  1.00  0.00     0.021 C 
BRANCH  28  29
ATOM     29  C   UNL A   1      34.372  32.702  28.061  1.00  0.00     0.116 C 
BRANCH  29  30
ATOM     30  N   UNL A   1      33.676  31.430  27.944  1.00  0.00    -0.352 N 
ATOM     31  C   UNL A   1      34.205  30.167  27.875  1.00  0.00     0.251 C 
ATOM     32  H   UNL A   1      32.694  31.482  27.910  1.00  0.00     0.163 HD
ATOM     33  O   UNL A   1      33.513  29.225  27.505  1.00  0.00    -0.269 OA
BRANCH  31  34
ATOM     34  C   UNL A   1      35.620  29.958  28.247  1.00  0.00     0.039 A 
ATOM     35  C   UNL A   1      35.931  29.558  29.547  1.00  0.00     0.014 A 
ATOM     36  C   UNL A   1      36.632  30.153  27.302  1.00  0.00     0.014 A 
ATOM     37  C   UNL A   1      37.262  29.311  29.888  1.00  0.00     0.010 A 
ATOM     38  C   UNL A   1      37.945  29.829  27.620  1.00  0.00     0.010 A 
ATOM     39  C   UNL A   1      38.275  29.416  28.920  1.00  0.00    -0.014 A 
BRANCH  39  40
ATOM     40  C   UNL A   1      39.688  29.105  29.248  1.00  0.00     0.031 A 
ATOM     41  C   UNL A   1      40.550  30.138  29.924  1.00  0.00     0.074 A 
ATOM     42  C   UNL A   1      40.208  27.917  28.887  1.00  0.00     0.049 A 
ATOM     43  N   UNL A   1      41.813  30.065  30.256  1.00  0.00    -0.248 NA
ATOM     44  C   UNL A   1      39.919  31.429  30.244  1.00  0.00     0.031 C 
ATOM     45  C   UNL A   1      39.481  26.850  28.193  1.00  0.00     0.029 A 
ATOM     46  N   UNL A   1      41.470  27.405  29.050  1.00  0.00    -0.354 N 
ATOM     47  C   UNL A   1      42.132  31.303  30.805  1.00  0.00     0.074 A 
ATOM     48  C   UNL A   1      40.944  32.124  30.713  1.00  0.00     0.031 C 
ATOM     49  C   UNL A   1      40.299  25.797  28.025  1.00  0.00     0.029 A 
ATOM     50  C   UNL A   1      41.618  26.130  28.554  1.00  0.00     0.049 A 
ATOM     51  H   UNL A   1      42.202  27.903  29.481  1.00  0.00     0.167 HD
ATOM     52  C   UNL A   1      43.300  31.712  31.352  1.00  0.00     0.031 A 
ATOM     53  C   UNL A   1      42.695  25.322  28.523  1.00  0.00     0.031 A 
ATOM     54  C   UNL A   1      44.475  30.886  31.445  1.00  0.00     0.049 A 
ATOM     55  C   UNL A   1      43.988  25.807  29.119  1.00  0.00     0.074 A 
ATOM     56  C   UNL A   1      45.690  31.183  32.037  1.00  0.00     0.029 A 
ATOM     57  N   UNL A   1      44.587  29.604  30.925  1.00  0.00    -0.354 N 
ATOM     58  N   UNL A   1      44.250  26.953  29.701  1.00  0.00    -0.248 NA
ATOM     59  C   UNL A   1      45.130  24.884  29.064  1.00  0.00     0.031 C 
ATOM     60  C   UNL A   1      46.557  30.108  31.815  1.00  0.00     0.029 A 
ATOM     61  C   UNL A   1      45.860  29.110  31.152  1.00  0.00     0.049 A 
ATOM     62  H   UNL A   1      43.865  29.117  30.464  1.00  0.00     0.167 HD
ATOM     63  C   UNL A   1      45.576  26.876  30.109  1.00  0.00     0.074 A 
ATOM     64  C   UNL A   1      46.058  25.566  29.720  1.00  0.00     0.031 C 
ATOM     65  C   UNL A   1      46.326  27.805  30.753  1.00  0.00     0.031 A 
BRANCH  52  66
ATOM     66  C   UNL A   1      43.370  33.124  31.876  1.00  0.00    -0.014 A 
ATOM     67  C   UNL A   1      43.021  33.433  33.203  1.00  0.00     0.010 A 
ATOM     68  C   UNL A   1      43.823  34.156  31.034  1.00  0.00     0.010 A 
ATOM     69  C   UNL A   1      43.076  34.751  33.664  1.00  0.00     0.020 A 
ATOM     70  C   UNL A   1      43.913  35.471  31.500  1.00  0.00     0.020 A 
ATOM     71  C   UNL A   1      43.520  35.763  32.807  1.00  0.00     0.054 A 
BRANCH  71  72
ATOM     72  S   UNL A   1      43.595  37.462  33.437  1.00  0.00     0.124 S 
ATOM     73  O   UNL A   1      44.844  37.446  34.196  1.00  0.00    -0.237 OA
ATOM     74  O   UNL A   1      43.616  38.257  32.212  1.00  0.00    -0.237 OA
ATOM     75  O   UNL A   1      42.381  37.589  34.240  1.00  0.00    -0.744 OA
ENDBRANCH  71  72
ENDBRANCH  52  66
BRANCH  53  76
ATOM     76  C   UNL A   1      42.586  23.962  27.927  1.00  0.00    -0.014 A 
ATOM     77  C   UNL A   1      42.463  22.831  28.752  1.00  0.00     0.010 A 
ATOM     78  C   UNL A   1      42.580  23.793  26.529  1.00  0.00     0.010 A 
ATOM     79  C   UNL A   1      42.352  21.554  28.192  1.00  0.00     0.020 A 
ATOM     80  C   UNL A   1      42.438  22.521  25.966  1.00  0.00     0.020 A 
ATOM     81  C   UNL A   1      42.336  21.409  26.802  1.00  0.00     0.054 A 
BRANCH  81  82
ATOM     82  S   UNL A   1      42.132  19.748  26.101  1.00  0.00     0.124 S 
ATOM     83  O   UNL A   1      42.408  18.895  27.252  1.00  0.00    -0.237 OA
ATOM     84  O   UNL A   1      40.744  19.768  25.645  1.00  0.00    -0.237 OA
ATOM     85  O   UNL A   1      43.129  19.703  25.033  1.00  0.00    -0.744 OA
ENDBRANCH  81  82
ENDBRANCH  53  76
BRANCH  65  86
ATOM     86  C   UNL A   1      47.741  27.429  31.111  1.00  0.00    -0.014 A 
ATOM     87  C   UNL A   1      48.825  27.789  30.292  1.00  0.00     0.010 A 
ATOM     88  C   UNL A   1      47.990  26.751  32.319  1.00  0.00     0.010 A 
ATOM     89  C   UNL A   1      50.131  27.449  30.660  1.00  0.00     0.020 A 
ATOM     90  C   UNL A   1      49.295  26.439  32.706  1.00  0.00     0.020 A 
ATOM     91  C   UNL A   1      50.357  26.778  31.866  1.00  0.00     0.054 A 
BRANCH  91  92
ATOM     92  S   UNL A   1      52.064  26.390  32.340  1.00  0.00     0.124 S 
ATOM     93  O   UNL A   1      52.221  25.032  31.824  1.00  0.00    -0.237 OA
ATOM     94  O   UNL A   1      52.830  27.421  31.645  1.00  0.00    -0.237 OA
ATOM     95  O   UNL A   1      52.053  26.504  33.797  1.00  0.00    -0.744 OA
ENDBRANCH  91  92
ENDBRANCH  65  86
ENDBRANCH  39  40
ENDBRANCH  31  34
ENDBRANCH  29  30
ENDBRANCH  28  29
ENDBRANCH  27  28
ENDBRANCH   1  27
TORSDOF 19
ENDMDL
MODEL 2
REMARK VINA RESULT:      -8.7      0.618      8.047
REMARK SMILES Cc1cc(Br)ccc1NS(=O)(=O)c1ccc(C(=O)NCCCCCCNC(=O)c2ccc(-c3c4nc(c(-c5ccc(S(=O)(=O)[O-])cc5)c5ccc([nH]5)c(-c5ccc(S(=O)(=O)[O-])cc5)c5nc(c(-c6ccc(S(=O)(=O)[O-])cc6)c6ccc3[nH]6)C=C5)C=C4)cc2)cc1
REMARK SMILES IDX 22 1 21 2 20 3 19 4 17 5 18 6 16 8 13 9 14 10 90 11 15 12
REMARK SMILES IDX 89 13 10 14 11 15 12 16 9 17 8 19 1 20 2 21 3 22 4 23 7 24
REMARK SMILES IDX 5 25 6 26 23 27 24 28 25 29 26 30 27 31 28 33 29 34 30 35
REMARK SMILES IDX 88 36 31 37 87 38 32 39 33 40 34 41 81 42 35 43 86 44 80 45
REMARK SMILES IDX 82 46 36 47 85 48 79 49 78 50 37 52 67 53 48 54 66 55 49 56
REMARK SMILES IDX 52 57 65 58 83 59 50 60 51 61 64 63 84 64 53 65 38 66 39 67
REMARK SMILES IDX 47 68 40 69 46 70 41 71 42 72 43 73 44 74 45 75 68 76 69 77
REMARK SMILES IDX 77 78 70 79 76 80 71 81 72 82 73 83 74 84 75 85 54 86 55 87
REMARK SMILES IDX 63 88 56 89 62 90 57 91 58 92 59 93 60 94 61 95
REMARK H PARENT 19 7 9 18 26 32 82 51 52 62
REMARK Flexibility Score: inf
ROOT
ATOM      1  C   UNL A   1      35.483  33.297  31.914  1.00  0.00     0.002 C 
ENDROOT
BRANCH   1   2
ATOM      2  C   UNL A   1      36.297  34.561  32.222  1.00  0.00     0.021 C 
BRANCH   2   3
ATOM      3  C   UNL A   1      37.534  34.281  33.072  1.00  0.00     0.116 C 
BRANCH   3   4
ATOM      4  N   UNL A   1      37.121  33.927  34.415  1.00  0.00    -0.352 N 
ATOM      5  C   UNL A   1      37.443  32.839  35.175  1.00  0.00     0.251 C 
ATOM      6  O   UNL A   1      36.941  32.696  36.287  1.00  0.00    -0.269 OA
ATOM      7  H   UNL A   1      36.514  34.570  34.847  1.00  0.00     0.163 HD
BRANCH   5   8
ATOM      8  C   UNL A   1      38.452  31.863  34.715  1.00  0.00     0.039 A 
ATOM      9  C   UNL A   1      40.415  29.974  34.131  1.00  0.00     0.087 A 
ATOM     10  C   UNL A   1      40.734  31.086  34.916  1.00  0.00     0.023 A 
ATOM     11  C   UNL A   1      39.146  29.860  33.544  1.00  0.00     0.023 A 
ATOM     12  C   UNL A   1      39.738  32.001  35.247  1.00  0.00     0.015 A 
ATOM     13  C   UNL A   1      38.158  30.804  33.847  1.00  0.00     0.015 A 
BRANCH   9  14
ATOM     14  S   UNL A   1      41.648  28.723  33.863  1.00  0.00     0.261 S 
ATOM     15  O   UNL A   1      42.936  29.309  34.189  1.00  0.00    -0.201 OA
ATOM     16  O   UNL A   1      41.419  28.151  32.556  1.00  0.00    -0.201 OA
BRANCH  14  17
ATOM     17  N   UNL A   1      41.396  27.433  34.970  1.00  0.00    -0.279 N 
ATOM     18  H   UNL A   1      40.704  27.523  35.664  1.00  0.00     0.180 HD
BRANCH  17  19
ATOM     19  C   UNL A   1      42.176  26.224  34.906  1.00  0.00     0.052 A 
ATOM     20  C   UNL A   1      40.937  25.058  36.850  1.00  0.00     0.046 C 
ATOM     21  C   UNL A   1      41.911  25.092  35.703  1.00  0.00    -0.026 A 
ATOM     22  C   UNL A   1      42.703  23.934  35.528  1.00  0.00     0.021 A 
ATOM     23  C   UNL A   1      43.756  23.915  34.617  1.00  0.00     0.018 A 
ATOM     24  C   UNL A   1      43.322  26.220  34.101  1.00  0.00     0.028 A 
ATOM     25  Br  UNL A   1      44.771  22.341  34.373  1.00  0.00    -0.051 Br
ATOM     26  C   UNL A   1      44.087  25.066  33.921  1.00  0.00     0.018 A 
ENDBRANCH  17  19
ENDBRANCH  14  17
ENDBRANCH   9  14
ENDBRANCH   5   8
ENDBRANCH   3   4
ENDBRANCH   2   3
ENDBRANCH   1   2
BRANCH   1  27
ATOM     27  C   UNL A   1      34.812  33.295  30.535  1.00  0.00     0.002 C 
BRANCH  27  28
ATOM     28  C   UNL A   1      35.758  32.983  29.373  1.00  0.00     0.021 C 
BRANCH  28  29
ATOM     29  C   UNL A   1      35.057  32.876  28.024  1.00  0.00     0.116 C 
BRANCH  29  30
ATOM     30  N   UNL A   1      34.212  31.694  27.962  1.00  0.00    -0.352 N 
ATOM     31  C   UNL A   1      34.585  30.376  27.905  1.00  0.00     0.251 C 
ATOM     32  H   UNL A   1      33.242  31.862  27.961  1.00  0.00     0.163 HD
ATOM     33  O   UNL A   1      33.773  29.516  27.581  1.00  0.00    -0.269 OA
BRANCH  31  34
ATOM     34  C   UNL A   1      35.978  30.007  28.232  1.00  0.00     0.039 A 
ATOM     35  C   UNL A   1      36.958  30.103  27.244  1.00  0.00     0.014 A 
ATOM     36  C   UNL A   1      36.307  29.571  29.519  1.00  0.00     0.014 A 
ATOM     37  C   UNL A   1      38.284  29.804  27.563  1.00  0.00     0.010 A 
ATOM     38  C   UNL A   1      37.638  29.352  29.855  1.00  0.00     0.010 A 
ATOM     39  C   UNL A   1      38.638  29.454  28.877  1.00  0.00    -0.014 A 
BRANCH  39  40
ATOM     40  C   UNL A   1      40.049  29.184  29.248  1.00  0.00     0.031 A 
ATOM     41  C   UNL A   1      40.680  27.861  28.905  1.00  0.00     0.074 A 
ATOM     42  C   UNL A   1      40.741  30.107  29.943  1.00  0.00     0.049 A 
ATOM     43  N   UNL A   1      41.884  27.428  29.177  1.00  0.00    -0.248 NA
ATOM     44  C   UNL A   1      39.841  26.888  28.185  1.00  0.00     0.031 C 
ATOM     45  C   UNL A   1      40.225  31.412  30.366  1.00  0.00     0.029 A 
ATOM     46  N   UNL A   1      42.028  30.091  30.418  1.00  0.00    -0.354 N 
ATOM     47  C   UNL A   1      41.940  26.130  28.681  1.00  0.00     0.074 A 
ATOM     48  C   UNL A   1      40.634  25.828  28.138  1.00  0.00     0.031 C 
ATOM     49  C   UNL A   1      41.197  32.084  31.004  1.00  0.00     0.029 A 
ATOM     50  C   UNL A   1      42.388  31.243  31.078  1.00  0.00     0.049 A 
ATOM     51  H   UNL A   1      42.637  29.326  30.299  1.00  0.00     0.167 HD
ATOM     52  C   UNL A   1      42.989  25.275  28.662  1.00  0.00     0.031 A 
ATOM     53  C   UNL A   1      43.544  31.583  31.679  1.00  0.00     0.031 A 
ATOM     54  C   UNL A   1      44.287  25.586  29.199  1.00  0.00     0.049 A 
ATOM     55  C   UNL A   1      44.688  30.607  31.664  1.00  0.00     0.074 A 
ATOM     56  C   UNL A   1      45.435  24.814  29.176  1.00  0.00     0.029 A 
ATOM     57  N   UNL A   1      44.610  26.760  29.865  1.00  0.00    -0.354 N 
ATOM     58  N   UNL A   1      44.747  29.413  31.124  1.00  0.00    -0.248 NA
ATOM     59  C   UNL A   1      45.928  31.030  32.330  1.00  0.00     0.031 C 
ATOM     60  C   UNL A   1      46.431  25.491  29.886  1.00  0.00     0.029 A 
ATOM     61  C   UNL A   1      45.927  26.719  30.287  1.00  0.00     0.049 A 
ATOM     62  H   UNL A   1      43.992  27.512  30.015  1.00  0.00     0.167 HD
ATOM     63  C   UNL A   1      46.039  28.954  31.358  1.00  0.00     0.074 A 
ATOM     64  C   UNL A   1      46.731  30.006  32.075  1.00  0.00     0.031 C 
ATOM     65  C   UNL A   1      46.601  27.772  31.005  1.00  0.00     0.031 A 
BRANCH  52  66
ATOM     66  C   UNL A   1      42.768  23.911  28.057  1.00  0.00    -0.014 A 
ATOM     67  C   UNL A   1      43.148  23.625  26.733  1.00  0.00     0.010 A 
ATOM     68  C   UNL A   1      42.199  22.889  28.838  1.00  0.00     0.010 A 
ATOM     69  C   UNL A   1      42.919  22.360  26.186  1.00  0.00     0.020 A 
ATOM     70  C   UNL A   1      41.998  21.611  28.306  1.00  0.00     0.020 A 
ATOM     71  C   UNL A   1      42.342  21.361  26.977  1.00  0.00     0.054 A 
BRANCH  71  72
ATOM     72  S   UNL A   1      42.070  19.725  26.244  1.00  0.00     0.124 S 
ATOM     73  O   UNL A   1      42.916  19.783  25.054  1.00  0.00    -0.237 OA
ATOM     74  O   UNL A   1      42.529  18.823  27.297  1.00  0.00    -0.237 OA
ATOM     75  O   UNL A   1      40.633  19.695  25.983  1.00  0.00    -0.744 OA
ENDBRANCH  71  72
ENDBRANCH  52  66
BRANCH  53  76
ATOM     76  C   UNL A   1      43.681  32.917  32.325  1.00  0.00    -0.014 A 
ATOM     77  C   UNL A   1      44.089  34.033  31.575  1.00  0.00     0.010 A 
ATOM     78  C   UNL A   1      43.380  33.084  33.691  1.00  0.00     0.010 A 
ATOM     79  C   UNL A   1      44.210  35.288  32.179  1.00  0.00     0.020 A 
ATOM     80  C   UNL A   1      43.470  34.344  34.290  1.00  0.00     0.020 A 
ATOM     81  C   UNL A   1      43.894  35.436  33.533  1.00  0.00     0.054 A 
BRANCH  81  82
ATOM     82  S   UNL A   1      44.002  37.087  34.278  1.00  0.00     0.124 S 
ATOM     83  O   UNL A   1      45.426  37.382  34.160  1.00  0.00    -0.237 OA
ATOM     84  O   UNL A   1      43.118  37.875  33.424  1.00  0.00    -0.237 OA
ATOM     85  O   UNL A   1      43.516  36.878  35.641  1.00  0.00    -0.744 OA
ENDBRANCH  81  82
ENDBRANCH  53  76
BRANCH  65  86
ATOM     86  C   UNL A   1      48.051  27.560  31.358  1.00  0.00    -0.014 A 
ATOM     87  C   UNL A   1      49.077  27.828  30.435  1.00  0.00     0.010 A 
ATOM     88  C   UNL A   1      48.391  27.139  32.658  1.00  0.00     0.010 A 
ATOM     89  C   UNL A   1      50.416  27.647  30.796  1.00  0.00     0.020 A 
ATOM     90  C   UNL A   1      49.728  26.989  33.032  1.00  0.00     0.020 A 
ATOM     91  C   UNL A   1      50.733  27.231  32.094  1.00  0.00     0.054 A 
BRANCH  91  92
ATOM     92  S   UNL A   1      52.478  27.048  32.548  1.00  0.00     0.124 S 
ATOM     93  O   UNL A   1      52.835  25.794  31.889  1.00  0.00    -0.237 OA
ATOM     94  O   UNL A   1      53.083  28.251  31.982  1.00  0.00    -0.237 OA
ATOM     95  O   UNL A   1      52.453  26.997  34.009  1.00  0.00    -0.744 OA
ENDBRANCH  91  92
ENDBRANCH  65  86
ENDBRANCH  39  40
ENDBRANCH  31  34
ENDBRANCH  29  30
ENDBRANCH  28  29
ENDBRANCH  27  28
ENDBRANCH   1  27
TORSDOF 19
ENDMDL
MODEL 3
REMARK VINA RESULT:      -8.5      5.146      8.179
REMARK SMILES Cc1cc(Br)ccc1NS(=O)(=O)c1ccc(C(=O)NCCCCCCNC(=O)c2ccc(-c3c4nc(c(-c5ccc(S(=O)(=O)[O-])cc5)c5ccc([nH]5)c(-c5ccc(S(=O)(=O)[O-])cc5)c5nc(c(-c6ccc(S(=O)(=O)[O-])cc6)c6ccc3[nH]6)C=C5)C=C4)cc2)cc1
REMARK SMILES IDX 22 1 21 2 20 3 19 4 17 5 18 6 16 8 13 9 14 10 90 11 15 12
REMARK SMILES IDX 89 13 10 14 11 15 12 16 9 17 8 19 1 20 2 21 3 22 4 23 7 24
REMARK SMILES IDX 5 25 6 26 23 27 24 28 25 29 26 30 27 31 28 33 29 34 30 35
REMARK SMILES IDX 88 36 31 37 87 38 32 39 33 40 34 41 81 42 35 43 86 44 80 45
REMARK SMILES IDX 82 46 36 47 85 48 79 49 78 50 37 52 67 53 48 54 66 55 49 56
REMARK SMILES IDX 52 57 65 58 83 59 50 60 51 61 64 63 84 64 53 65 38 66 39 67
REMARK SMILES IDX 47 68 40 69 46 70 41 71 42 72 43 73 44 74 45 75 68 76 69 77
REMARK SMILES IDX 77 78 70 79 76 80 71 81 72 82 73 83 74 84 75 85 54 86 55 87
REMARK SMILES IDX 63 88 56 89 62 90 57 91 58 92 59 93 60 94 61 95
REMARK H PARENT 19 7 9 18 26 32 82 51 52 62
REMARK Flexibility Score: inf
ROOT
ATOM      1  C   UNL A   1      32.535  30.754  27.246  1.00  0.00     0.002 C 
ENDROOT
BRANCH   1   2
ATOM      2  C   UNL A   1      31.608  30.673  26.026  1.00  0.00     0.021 C 
BRANCH   2   3
ATOM      3  C   UNL A   1      32.011  29.576  25.043  1.00  0.00     0.116 C 
BRANCH   3   4
ATOM      4  N   UNL A   1      31.094  29.578  23.921  1.00  0.00    -0.352 N 
ATOM      5  C   UNL A   1      30.924  28.662  22.923  1.00  0.00     0.251 C 
ATOM      6  O   UNL A   1      30.116  28.875  22.023  1.00  0.00    -0.269 OA
ATOM      7  H   UNL A   1      30.501  30.363  23.870  1.00  0.00     0.163 HD
BRANCH   5   8
ATOM      8  C   UNL A   1      31.643  27.371  22.947  1.00  0.00     0.039 A 
ATOM      9  C   UNL A   1      32.772  24.825  22.841  1.00  0.00     0.087 A 
ATOM     10  C   UNL A   1      31.492  24.995  23.378  1.00  0.00     0.023 A 
ATOM     11  C   UNL A   1      33.534  25.939  22.459  1.00  0.00     0.023 A 
ATOM     12  C   UNL A   1      30.911  26.261  23.383  1.00  0.00     0.015 A 
ATOM     13  C   UNL A   1      32.962  27.216  22.504  1.00  0.00     0.015 A 
BRANCH   9  14
ATOM     14  S   UNL A   1      33.430  23.183  22.678  1.00  0.00     0.261 S 
ATOM     15  O   UNL A   1      34.868  23.306  22.535  1.00  0.00    -0.201 OA
ATOM     16  O   UNL A   1      32.655  22.497  21.669  1.00  0.00    -0.201 OA
BRANCH  14  17
ATOM     17  N   UNL A   1      33.148  22.313  24.132  1.00  0.00    -0.279 N 
ATOM     18  H   UNL A   1      32.825  22.796  24.927  1.00  0.00     0.180 HD
BRANCH  17  19
ATOM     19  C   UNL A   1      33.374  20.892  24.215  1.00  0.00     0.052 A 
ATOM     20  C   UNL A   1      35.810  21.104  25.048  1.00  0.00     0.046 C 
ATOM     21  C   UNL A   1      34.561  20.329  24.723  1.00  0.00    -0.026 A 
ATOM     22  C   UNL A   1      34.665  18.922  24.811  1.00  0.00     0.021 A 
ATOM     23  C   UNL A   1      33.635  18.097  24.367  1.00  0.00     0.018 A 
ATOM     24  C   UNL A   1      32.416  20.039  23.652  1.00  0.00     0.028 A 
ATOM     25  Br  UNL A   1      33.782  16.221  24.534  1.00  0.00    -0.051 Br
ATOM     26  C   UNL A   1      32.519  18.651  23.760  1.00  0.00     0.018 A 
ENDBRANCH  17  19
ENDBRANCH  14  17
ENDBRANCH   9  14
ENDBRANCH   5   8
ENDBRANCH   3   4
ENDBRANCH   2   3
ENDBRANCH   1   2
BRANCH   1  27
ATOM     27  C   UNL A   1      34.023  30.567  26.924  1.00  0.00     0.002 C 
BRANCH  27  28
ATOM     28  C   UNL A   1      34.893  30.229  28.136  1.00  0.00     0.021 C 
BRANCH  28  29
ATOM     29  C   UNL A   1      35.448  31.453  28.855  1.00  0.00     0.116 C 
BRANCH  29  30
ATOM     30  N   UNL A   1      35.427  31.271  30.298  1.00  0.00    -0.352 N 
ATOM     31  C   UNL A   1      36.352  30.648  31.096  1.00  0.00     0.251 C 
ATOM     32  H   UNL A   1      34.646  31.646  30.764  1.00  0.00     0.163 HD
ATOM     33  O   UNL A   1      36.066  30.336  32.246  1.00  0.00    -0.269 OA
BRANCH  31  34
ATOM     34  C   UNL A   1      37.693  30.354  30.550  1.00  0.00     0.039 A 
ATOM     35  C   UNL A   1      38.817  30.891  31.177  1.00  0.00     0.014 A 
ATOM     36  C   UNL A   1      37.829  29.541  29.420  1.00  0.00     0.014 A 
ATOM     37  C   UNL A   1      40.088  30.574  30.694  1.00  0.00     0.010 A 
ATOM     38  C   UNL A   1      39.096  29.162  28.991  1.00  0.00     0.010 A 
ATOM     39  C   UNL A   1      40.238  29.685  29.616  1.00  0.00    -0.014 A 
BRANCH  39  40
ATOM     40  C   UNL A   1      41.581  29.294  29.123  1.00  0.00     0.031 A 
ATOM     41  C   UNL A   1      42.685  30.314  29.051  1.00  0.00     0.074 A 
ATOM     42  C   UNL A   1      41.789  28.036  28.688  1.00  0.00     0.049 A 
ATOM     43  N   UNL A   1      43.910  30.172  28.615  1.00  0.00    -0.248 NA
ATOM     44  C   UNL A   1      42.364  31.678  29.502  1.00  0.00     0.031 C 
ATOM     45  C   UNL A   1      40.785  26.968  28.673  1.00  0.00     0.029 A 
ATOM     46  N   UNL A   1      42.912  27.441  28.171  1.00  0.00    -0.354 N 
ATOM     47  C   UNL A   1      44.498  31.428  28.722  1.00  0.00     0.074 A 
ATOM     48  C   UNL A   1      43.480  32.330  29.213  1.00  0.00     0.031 C 
ATOM     49  C   UNL A   1      41.350  25.841  28.209  1.00  0.00     0.029 A 
ATOM     50  C   UNL A   1      42.737  26.116  27.849  1.00  0.00     0.049 A 
ATOM     51  H   UNL A   1      43.764  27.919  28.043  1.00  0.00     0.167 HD
ATOM     52  C   UNL A   1      45.774  31.792  28.452  1.00  0.00     0.031 A 
ATOM     53  C   UNL A   1      43.594  25.223  27.318  1.00  0.00     0.031 A 
ATOM     54  C   UNL A   1      46.782  30.887  27.969  1.00  0.00     0.049 A 
ATOM     55  C   UNL A   1      45.000  25.657  27.008  1.00  0.00     0.074 A 
ATOM     56  C   UNL A   1      48.119  31.141  27.723  1.00  0.00     0.029 A 
ATOM     57  N   UNL A   1      46.563  29.554  27.648  1.00  0.00    -0.354 N 
ATOM     58  N   UNL A   1      45.559  26.830  27.185  1.00  0.00    -0.248 NA
ATOM     59  C   UNL A   1      45.896  24.643  26.435  1.00  0.00     0.031 C 
ATOM     60  C   UNL A   1      48.693  29.982  27.191  1.00  0.00     0.029 A 
ATOM     61  C   UNL A   1      47.731  28.983  27.175  1.00  0.00     0.049 A 
ATOM     62  H   UNL A   1      45.702  29.085  27.744  1.00  0.00     0.167 HD
ATOM     63  C   UNL A   1      46.880  26.687  26.775  1.00  0.00     0.074 A 
ATOM     64  C   UNL A   1      47.039  25.309  26.355  1.00  0.00     0.031 C 
ATOM     65  C   UNL A   1      47.872  27.611  26.755  1.00  0.00     0.031 A 
BRANCH  52  66
ATOM     66  C   UNL A   1      46.145  33.240  28.656  1.00  0.00    -0.014 A 
ATOM     67  C   UNL A   1      45.955  34.196  27.642  1.00  0.00     0.010 A 
ATOM     68  C   UNL A   1      46.663  33.656  29.896  1.00  0.00     0.010 A 
ATOM     69  C   UNL A   1      46.322  35.529  27.846  1.00  0.00     0.020 A 
ATOM     70  C   UNL A   1      47.000  34.995  30.117  1.00  0.00     0.020 A 
ATOM     71  C   UNL A   1      46.845  35.920  29.083  1.00  0.00     0.054 A 
BRANCH  71  72
ATOM     72  S   UNL A   1      47.298  37.659  29.323  1.00  0.00     0.124 S 
ATOM     73  O   UNL A   1      45.995  38.319  29.276  1.00  0.00    -0.237 OA
ATOM     74  O   UNL A   1      47.947  37.643  30.630  1.00  0.00    -0.237 OA
ATOM     75  O   UNL A   1      48.181  37.947  28.195  1.00  0.00    -0.744 OA
ENDBRANCH  71  72
ENDBRANCH  52  66
BRANCH  53  76
ATOM     76  C   UNL A   1      43.150  23.824  27.070  1.00  0.00    -0.014 A 
ATOM     77  C   UNL A   1      42.678  23.441  25.803  1.00  0.00     0.010 A 
ATOM     78  C   UNL A   1      43.218  22.859  28.094  1.00  0.00     0.010 A 
ATOM     79  C   UNL A   1      42.268  22.125  25.566  1.00  0.00     0.020 A 
ATOM     80  C   UNL A   1      42.839  21.536  27.853  1.00  0.00     0.020 A 
ATOM     81  C   UNL A   1      42.356  21.179  26.593  1.00  0.00     0.054 A 
BRANCH  81  82
ATOM     82  S   UNL A   1      41.874  19.466  26.244  1.00  0.00     0.124 S 
ATOM     83  O   UNL A   1      42.676  19.158  25.064  1.00  0.00    -0.237 OA
ATOM     84  O   UNL A   1      42.260  18.774  27.471  1.00  0.00    -0.237 OA
ATOM     85  O   UNL A   1      40.433  19.556  26.016  1.00  0.00    -0.744 OA
ENDBRANCH  81  82
ENDBRANCH  53  76
BRANCH  65  86
ATOM     86  C   UNL A   1      49.234  27.157  26.293  1.00  0.00    -0.014 A 
ATOM     87  C   UNL A   1      50.171  26.620  27.193  1.00  0.00     0.010 A 
ATOM     88  C   UNL A   1      49.555  27.220  24.925  1.00  0.00     0.010 A 
ATOM     89  C   UNL A   1      51.418  26.184  26.735  1.00  0.00     0.020 A 
ATOM     90  C   UNL A   1      50.787  26.755  24.459  1.00  0.00     0.020 A 
ATOM     91  C   UNL A   1      51.717  26.252  25.370  1.00  0.00     0.054 A 
BRANCH  91  92
ATOM     92  S   UNL A   1      53.324  25.637  24.798  1.00  0.00     0.124 S 
ATOM     93  O   UNL A   1      54.251  26.560  25.447  1.00  0.00    -0.237 OA
ATOM     94  O   UNL A   1      53.341  24.268  25.305  1.00  0.00    -0.237 OA
ATOM     95  O   UNL A   1      53.243  25.756  23.344  1.00  0.00    -0.744 OA
ENDBRANCH  91  92
ENDBRANCH  65  86
ENDBRANCH  39  40
ENDBRANCH  31  34
ENDBRANCH  29  30
ENDBRANCH  28  29
ENDBRANCH  27  28
ENDBRANCH   1  27
TORSDOF 19
ENDMDL
