MODEL 1
REMARK VINA RESULT:     -10.6      0.000      0.000
REMARK SMILES CC(C)C[C@H](NS(=O)(=O)N1C[C@@H](C)C[C@H](C)C1)C(=O)NCCCCCCNC(=O)c1ccc(-c2c3nc(c(-c4ccc(S(=O)(=O)[O-])cc4)c4ccc([nH]4)c(-c4ccc(S(=O)(=O)[O-])cc4)c4nc(c(-c5ccc(S(=O)(=O)[O-])cc5)c5ccc2[nH]5)C=C4)C=C3)cc1
REMARK SMILES IDX 23 1 22 2 21 3 20 4 18 5 19 6 5 8 4 9 2 10 1 11 3 12 6 13
REMARK SMILES IDX 7 15 8 16 9 17 10 18 11 19 17 20 12 21 15 22 13 23 14 24
REMARK SMILES IDX 16 25 24 26 25 27 26 28 27 29 28 30 29 32 30 33 31 34 89 35
REMARK SMILES IDX 32 36 88 37 33 38 34 39 35 40 82 41 36 42 87 43 81 44 83 45
REMARK SMILES IDX 37 46 86 47 80 48 79 49 38 51 68 52 49 53 67 54 50 55 53 56
REMARK SMILES IDX 66 57 84 58 51 59 52 60 65 62 85 63 54 64 39 65 40 66 48 67
REMARK SMILES IDX 41 68 47 69 42 70 43 71 44 72 45 73 46 74 69 75 70 76 78 77
REMARK SMILES IDX 71 78 77 79 72 80 73 81 74 82 75 83 76 84 55 85 56 86 64 87
REMARK SMILES IDX 57 88 63 89 58 90 59 91 60 92 61 93 62 94
REMARK H PARENT 20 7 6 14 27 31 83 50 53 61
REMARK Flexibility Score: inf
ROOT
ATOM      1  C   UNL A   1      32.605  30.448  26.549  1.00  0.00     0.002 C 
ENDROOT
BRANCH   1   2
ATOM      2  C   UNL A   1      31.770  29.379  27.259  1.00  0.00     0.021 C 
BRANCH   2   3
ATOM      3  C   UNL A   1      32.301  27.961  27.089  1.00  0.00     0.116 C 
BRANCH   3   4
ATOM      4  N   UNL A   1      31.225  26.982  27.147  1.00  0.00    -0.355 N 
ATOM      5  C   UNL A   1      30.643  26.242  26.156  1.00  0.00     0.238 C 
ATOM      6  O   UNL A   1      29.739  25.465  26.472  1.00  0.00    -0.273 OA
ATOM      7  H   UNL A   1      30.857  26.829  28.047  1.00  0.00     0.163 HD
BRANCH   5   8
ATOM      8  C   UNL A   1      31.107  26.385  24.693  1.00  0.00     0.160 C 
BRANCH   8   9
ATOM      9  C   UNL A   1      29.912  26.666  23.775  1.00  0.00     0.033 C 
BRANCH   9  10
ATOM     10  C   UNL A   1      30.058  27.915  22.875  1.00  0.00    -0.015 C 
ATOM     11  C   UNL A   1      28.819  28.807  22.917  1.00  0.00     0.007 C 
ATOM     12  C   UNL A   1      31.296  28.711  23.297  1.00  0.00     0.007 C 
ENDBRANCH   9  10
ENDBRANCH   8   9
BRANCH   8  13
ATOM     13  N   UNL A   1      31.929  25.188  24.418  1.00  0.00    -0.190 NA
ATOM     14  H   UNL A   1      31.799  25.006  23.423  1.00  0.00     0.143 HD
BRANCH  13  15
ATOM     15  S   UNL A   1      33.545  24.999  24.672  1.00  0.00     0.280 S 
ATOM     16  O   UNL A   1      34.113  26.144  23.995  1.00  0.00    -0.195 OA
ATOM     17  O   UNL A   1      33.788  24.758  26.068  1.00  0.00    -0.195 OA
BRANCH  15  18
ATOM     18  N   UNL A   1      33.844  23.615  23.782  1.00  0.00    -0.188 NA
ATOM     19  C   UNL A   1      35.203  23.405  23.237  1.00  0.00     0.106 C 
ATOM     20  C   UNL A   1      33.170  22.358  24.158  1.00  0.00     0.106 C 
ATOM     21  C   UNL A   1      36.102  22.635  24.219  1.00  0.00     0.001 C 
ATOM     22  C   UNL A   1      33.984  21.614  25.221  1.00  0.00     0.001 C 
ATOM     23  C   UNL A   1      36.581  23.493  25.395  1.00  0.00     0.009 C 
ATOM     24  C   UNL A   1      35.410  21.352  24.710  1.00  0.00     0.009 C 
ATOM     25  C   UNL A   1      33.297  20.308  25.611  1.00  0.00     0.009 C 
ENDBRANCH  15  18
ENDBRANCH  13  15
ENDBRANCH   8  13
ENDBRANCH   5   8
ENDBRANCH   3   4
ENDBRANCH   2   3
ENDBRANCH   1   2
BRANCH   1  26
ATOM     26  C   UNL A   1      33.551  31.236  27.460  1.00  0.00     0.002 C 
BRANCH  26  27
ATOM     27  C   UNL A   1      34.832  30.497  27.856  1.00  0.00     0.021 C 
BRANCH  27  28
ATOM     28  C   UNL A   1      35.804  31.320  28.692  1.00  0.00     0.116 C 
BRANCH  28  29
ATOM     29  N   UNL A   1      35.649  31.068  30.116  1.00  0.00    -0.352 N 
ATOM     30  C   UNL A   1      36.526  30.481  30.995  1.00  0.00     0.251 C 
ATOM     31  H   UNL A   1      34.793  31.359  30.506  1.00  0.00     0.163 HD
ATOM     32  O   UNL A   1      36.150  30.166  32.119  1.00  0.00    -0.269 OA
BRANCH  30  33
ATOM     33  C   UNL A   1      37.916  30.214  30.571  1.00  0.00     0.039 A 
ATOM     34  C   UNL A   1      38.828  29.726  31.510  1.00  0.00     0.014 A 
ATOM     35  C   UNL A   1      38.317  30.436  29.250  1.00  0.00     0.014 A 
ATOM     36  C   UNL A   1      40.125  29.404  31.107  1.00  0.00     0.010 A 
ATOM     37  C   UNL A   1      39.584  30.038  28.834  1.00  0.00     0.010 A 
ATOM     38  C   UNL A   1      40.503  29.522  29.759  1.00  0.00    -0.014 A 
BRANCH  38  39
ATOM     39  C   UNL A   1      41.851  29.097  29.299  1.00  0.00     0.031 A 
ATOM     40  C   UNL A   1      42.989  30.078  29.264  1.00  0.00     0.074 A 
ATOM     41  C   UNL A   1      42.033  27.837  28.855  1.00  0.00     0.049 A 
ATOM     42  N   UNL A   1      44.221  29.898  28.863  1.00  0.00    -0.248 NA
ATOM     43  C   UNL A   1      42.699  31.449  29.716  1.00  0.00     0.031 C 
ATOM     44  C   UNL A   1      40.996  26.803  28.794  1.00  0.00     0.029 A 
ATOM     45  N   UNL A   1      43.152  27.214  28.364  1.00  0.00    -0.354 N 
ATOM     46  C   UNL A   1      44.849  31.130  29.002  1.00  0.00     0.074 A 
ATOM     47  C   UNL A   1      43.845  32.064  29.466  1.00  0.00     0.031 C 
ATOM     48  C   UNL A   1      41.535  25.669  28.322  1.00  0.00     0.029 A 
ATOM     49  C   UNL A   1      42.939  25.905  28.001  1.00  0.00     0.049 A 
ATOM     50  H   UNL A   1      44.025  27.662  28.278  1.00  0.00     0.167 HD
ATOM     51  C   UNL A   1      46.146  31.454  28.781  1.00  0.00     0.031 A 
ATOM     52  C   UNL A   1      43.774  24.995  27.460  1.00  0.00     0.031 A 
ATOM     53  C   UNL A   1      47.136  30.522  28.305  1.00  0.00     0.049 A 
ATOM     54  C   UNL A   1      45.204  25.378  27.199  1.00  0.00     0.074 A 
ATOM     55  C   UNL A   1      48.489  30.736  28.096  1.00  0.00     0.029 A 
ATOM     56  N   UNL A   1      46.882  29.205  27.949  1.00  0.00    -0.354 N 
ATOM     57  N   UNL A   1      45.799  26.529  27.409  1.00  0.00    -0.248 NA
ATOM     58  C   UNL A   1      46.077  24.339  26.640  1.00  0.00     0.031 C 
ATOM     59  C   UNL A   1      49.034  29.570  27.548  1.00  0.00     0.029 A 
ATOM     60  C   UNL A   1      48.042  28.604  27.489  1.00  0.00     0.049 A 
ATOM     61  H   UNL A   1      46.004  28.764  28.014  1.00  0.00     0.167 HD
ATOM     62  C   UNL A   1      47.124  26.345  27.029  1.00  0.00     0.074 A 
ATOM     63  C   UNL A   1      47.244  24.968  26.593  1.00  0.00     0.031 C 
ATOM     64  C   UNL A   1      48.147  27.236  27.043  1.00  0.00     0.031 A 
BRANCH  51  65
ATOM     65  C   UNL A   1      46.555  32.885  29.032  1.00  0.00    -0.014 A 
ATOM     66  C   UNL A   1      47.018  33.303  30.294  1.00  0.00     0.010 A 
ATOM     67  C   UNL A   1      46.484  33.825  27.989  1.00  0.00     0.010 A 
ATOM     68  C   UNL A   1      47.335  34.645  30.526  1.00  0.00     0.020 A 
ATOM     69  C   UNL A   1      46.836  35.161  28.205  1.00  0.00     0.020 A 
ATOM     70  C   UNL A   1      47.235  35.566  29.480  1.00  0.00     0.054 A 
BRANCH  70  71
ATOM     71  S   UNL A   1      47.640  37.303  29.812  1.00  0.00     0.124 S 
ATOM     72  O   UNL A   1      46.701  38.004  28.940  1.00  0.00    -0.237 OA
ATOM     73  O   UNL A   1      47.377  37.424  31.244  1.00  0.00    -0.237 OA
ATOM     74  O   UNL A   1      49.046  37.411  29.429  1.00  0.00    -0.744 OA
ENDBRANCH  70  71
ENDBRANCH  51  65
BRANCH  52  75
ATOM     75  C   UNL A   1      43.265  23.633  27.145  1.00  0.00    -0.014 A 
ATOM     76  C   UNL A   1      43.034  23.242  25.814  1.00  0.00     0.010 A 
ATOM     77  C   UNL A   1      43.060  22.697  28.177  1.00  0.00     0.010 A 
ATOM     78  C   UNL A   1      42.610  21.942  25.522  1.00  0.00     0.020 A 
ATOM     79  C   UNL A   1      42.665  21.388  27.885  1.00  0.00     0.020 A 
ATOM     80  C   UNL A   1      42.438  21.021  26.559  1.00  0.00     0.054 A 
BRANCH  80  81
ATOM     81  S   UNL A   1      41.973  19.316  26.145  1.00  0.00     0.124 S 
ATOM     82  O   UNL A   1      42.384  18.589  27.342  1.00  0.00    -0.237 OA
ATOM     83  O   UNL A   1      40.533  19.427  25.933  1.00  0.00    -0.237 OA
ATOM     84  O   UNL A   1      42.752  19.031  24.941  1.00  0.00    -0.744 OA
ENDBRANCH  80  81
ENDBRANCH  52  75
BRANCH  64  85
ATOM     85  C   UNL A   1      49.502  26.745  26.597  1.00  0.00    -0.014 A 
ATOM     86  C   UNL A   1      50.369  26.081  27.484  1.00  0.00     0.010 A 
ATOM     87  C   UNL A   1      49.887  26.901  25.253  1.00  0.00     0.010 A 
ATOM     88  C   UNL A   1      51.610  25.615  27.041  1.00  0.00     0.020 A 
ATOM     89  C   UNL A   1      51.112  26.407  24.799  1.00  0.00     0.020 A 
ATOM     90  C   UNL A   1      51.973  25.779  25.700  1.00  0.00     0.054 A 
BRANCH  90  91
ATOM     91  S   UNL A   1      53.570  25.123  25.143  1.00  0.00     0.124 S 
ATOM     92  O   UNL A   1      53.339  23.682  25.187  1.00  0.00    -0.237 OA
ATOM     93  O   UNL A   1      53.702  25.698  23.807  1.00  0.00    -0.237 OA
ATOM     94  O   UNL A   1      54.519  25.632  26.131  1.00  0.00    -0.744 OA
ENDBRANCH  90  91
ENDBRANCH  64  85
ENDBRANCH  38  39
ENDBRANCH  30  33
ENDBRANCH  28  29
ENDBRANCH  27  28
ENDBRANCH  26  27
ENDBRANCH   1  26
TORSDOF 21
ENDMDL
MODEL 2
REMARK VINA RESULT:     -10.4      5.572      7.702
REMARK SMILES CC(C)C[C@H](NS(=O)(=O)N1C[C@@H](C)C[C@H](C)C1)C(=O)NCCCCCCNC(=O)c1ccc(-c2c3nc(c(-c4ccc(S(=O)(=O)[O-])cc4)c4ccc([nH]4)c(-c4ccc(S(=O)(=O)[O-])cc4)c4nc(c(-c5ccc(S(=O)(=O)[O-])cc5)c5ccc2[nH]5)C=C4)C=C3)cc1
REMARK SMILES IDX 23 1 22 2 21 3 20 4 18 5 19 6 5 8 4 9 2 10 1 11 3 12 6 13
REMARK SMILES IDX 7 15 8 16 9 17 10 18 11 19 17 20 12 21 15 22 13 23 14 24
REMARK SMILES IDX 16 25 24 26 25 27 26 28 27 29 28 30 29 32 30 33 31 34 89 35
REMARK SMILES IDX 32 36 88 37 33 38 34 39 35 40 82 41 36 42 87 43 81 44 83 45
REMARK SMILES IDX 37 46 86 47 80 48 79 49 38 51 68 52 49 53 67 54 50 55 53 56
REMARK SMILES IDX 66 57 84 58 51 59 52 60 65 62 85 63 54 64 39 65 40 66 48 67
REMARK SMILES IDX 41 68 47 69 42 70 43 71 44 72 45 73 46 74 69 75 70 76 78 77
REMARK SMILES IDX 71 78 77 79 72 80 73 81 74 82 75 83 76 84 55 85 56 86 64 87
REMARK SMILES IDX 57 88 63 89 58 90 59 91 60 92 61 93 62 94
REMARK H PARENT 20 7 6 14 27 31 83 50 53 61
REMARK Flexibility Score: inf
ROOT
ATOM      1  C   UNL A   1      31.797  29.595  26.651  1.00  0.00     0.002 C 
ENDROOT
BRANCH   1   2
ATOM      2  C   UNL A   1      32.235  28.429  25.762  1.00  0.00     0.021 C 
BRANCH   2   3
ATOM      3  C   UNL A   1      32.374  27.102  26.500  1.00  0.00     0.116 C 
BRANCH   3   4
ATOM      4  N   UNL A   1      31.073  26.500  26.754  1.00  0.00    -0.355 N 
ATOM      5  C   UNL A   1      30.439  25.461  26.132  1.00  0.00     0.238 C 
ATOM      6  O   UNL A   1      29.326  25.132  26.549  1.00  0.00    -0.273 OA
ATOM      7  H   UNL A   1      30.569  26.907  27.495  1.00  0.00     0.163 HD
BRANCH   5   8
ATOM      8  C   UNL A   1      31.101  24.733  24.945  1.00  0.00     0.160 C 
BRANCH   8   9
ATOM      9  C   UNL A   1      30.409  25.110  23.630  1.00  0.00     0.033 C 
BRANCH   9  10
ATOM     10  C   UNL A   1      31.269  25.949  22.656  1.00  0.00    -0.015 C 
ATOM     11  C   UNL A   1      30.841  27.414  22.621  1.00  0.00     0.007 C 
ATOM     12  C   UNL A   1      32.745  25.839  23.048  1.00  0.00     0.007 C 
ENDBRANCH   9  10
ENDBRANCH   8   9
BRANCH   8  13
ATOM     13  N   UNL A   1      31.139  23.306  25.326  1.00  0.00    -0.190 NA
ATOM     14  H   UNL A   1      30.188  22.971  25.175  1.00  0.00     0.143 HD
BRANCH  13  15
ATOM     15  S   UNL A   1      32.104  22.125  24.703  1.00  0.00     0.280 S 
ATOM     16  O   UNL A   1      31.533  20.917  25.256  1.00  0.00    -0.195 OA
ATOM     17  O   UNL A   1      32.235  22.310  23.283  1.00  0.00    -0.195 OA
BRANCH  15  18
ATOM     18  N   UNL A   1      33.551  22.464  25.470  1.00  0.00    -0.188 NA
ATOM     19  C   UNL A   1      34.140  21.434  26.354  1.00  0.00     0.106 C 
ATOM     20  C   UNL A   1      34.565  23.274  24.768  1.00  0.00     0.106 C 
ATOM     21  C   UNL A   1      35.084  20.492  25.588  1.00  0.00     0.001 C 
ATOM     22  C   UNL A   1      35.458  22.378  23.904  1.00  0.00     0.001 C 
ATOM     23  C   UNL A   1      34.342  19.479  24.710  1.00  0.00     0.009 C 
ATOM     24  C   UNL A   1      36.113  21.290  24.769  1.00  0.00     0.009 C 
ATOM     25  C   UNL A   1      36.515  23.209  23.180  1.00  0.00     0.009 C 
ENDBRANCH  15  18
ENDBRANCH  13  15
ENDBRANCH   8  13
ENDBRANCH   5   8
ENDBRANCH   3   4
ENDBRANCH   2   3
ENDBRANCH   1   2
BRANCH   1  26
ATOM     26  C   UNL A   1      31.666  30.940  25.931  1.00  0.00     0.002 C 
BRANCH  26  27
ATOM     27  C   UNL A   1      31.574  32.160  26.851  1.00  0.00     0.021 C 
BRANCH  27  28
ATOM     28  C   UNL A   1      32.921  32.744  27.263  1.00  0.00     0.116 C 
BRANCH  28  29
ATOM     29  N   UNL A   1      32.789  34.084  27.813  1.00  0.00    -0.352 N 
ATOM     30  C   UNL A   1      33.452  34.657  28.870  1.00  0.00     0.251 C 
ATOM     31  H   UNL A   1      32.132  34.662  27.362  1.00  0.00     0.163 HD
ATOM     32  O   UNL A   1      33.070  35.732  29.323  1.00  0.00    -0.269 OA
BRANCH  30  33
ATOM     33  C   UNL A   1      34.610  33.964  29.470  1.00  0.00     0.039 A 
ATOM     34  C   UNL A   1      35.899  34.350  29.094  1.00  0.00     0.014 A 
ATOM     35  C   UNL A   1      34.426  32.942  30.406  1.00  0.00     0.014 A 
ATOM     36  C   UNL A   1      37.003  33.751  29.703  1.00  0.00     0.010 A 
ATOM     37  C   UNL A   1      35.525  32.405  31.070  1.00  0.00     0.010 A 
ATOM     38  C   UNL A   1      36.825  32.800  30.723  1.00  0.00    -0.014 A 
BRANCH  38  39
ATOM     39  C   UNL A   1      37.988  32.222  31.444  1.00  0.00     0.031 A 
ATOM     40  C   UNL A   1      38.429  32.795  32.763  1.00  0.00     0.074 A 
ATOM     41  C   UNL A   1      38.686  31.216  30.880  1.00  0.00     0.049 A 
ATOM     42  N   UNL A   1      39.438  32.444  33.518  1.00  0.00    -0.248 NA
ATOM     43  C   UNL A   1      37.649  33.926  33.289  1.00  0.00     0.031 C 
ATOM     44  C   UNL A   1      38.388  30.604  29.582  1.00  0.00     0.029 A 
ATOM     45  N   UNL A   1      39.793  30.536  31.320  1.00  0.00    -0.354 N 
ATOM     46  C   UNL A   1      39.422  33.317  34.600  1.00  0.00     0.074 A 
ATOM     47  C   UNL A   1      38.341  34.250  34.372  1.00  0.00     0.031 C 
ATOM     48  C   UNL A   1      39.271  29.622  29.347  1.00  0.00     0.029 A 
ATOM     49  C   UNL A   1      40.226  29.565  30.450  1.00  0.00     0.049 A 
ATOM     50  H   UNL A   1      40.236  30.726  32.180  1.00  0.00     0.167 HD
ATOM     51  C   UNL A   1      40.222  33.329  35.694  1.00  0.00     0.031 A 
ATOM     52  C   UNL A   1      41.279  28.726  30.520  1.00  0.00     0.031 A 
ATOM     53  C   UNL A   1      41.306  32.405  35.908  1.00  0.00     0.049 A 
ATOM     54  C   UNL A   1      42.171  28.771  31.729  1.00  0.00     0.074 A 
ATOM     55  C   UNL A   1      42.144  32.301  37.005  1.00  0.00     0.029 A 
ATOM     56  N   UNL A   1      41.713  31.436  35.002  1.00  0.00    -0.354 N 
ATOM     57  N   UNL A   1      42.093  29.553  32.780  1.00  0.00    -0.248 NA
ATOM     58  C   UNL A   1      43.283  27.813  31.769  1.00  0.00     0.031 C 
ATOM     59  C   UNL A   1      43.100  31.318  36.731  1.00  0.00     0.029 A 
ATOM     60  C   UNL A   1      42.812  30.753  35.498  1.00  0.00     0.049 A 
ATOM     61  H   UNL A   1      41.284  31.260  34.134  1.00  0.00     0.167 HD
ATOM     62  C   UNL A   1      43.133  29.166  33.618  1.00  0.00     0.074 A 
ATOM     63  C   UNL A   1      43.813  28.069  32.957  1.00  0.00     0.031 C 
ATOM     64  C   UNL A   1      43.491  29.672  34.825  1.00  0.00     0.031 A 
BRANCH  51  65
ATOM     65  C   UNL A   1      39.962  34.397  36.729  1.00  0.00    -0.014 A 
ATOM     66  C   UNL A   1      40.578  35.660  36.647  1.00  0.00     0.010 A 
ATOM     67  C   UNL A   1      39.083  34.138  37.796  1.00  0.00     0.010 A 
ATOM     68  C   UNL A   1      40.374  36.616  37.647  1.00  0.00     0.020 A 
ATOM     69  C   UNL A   1      38.846  35.104  38.778  1.00  0.00     0.020 A 
ATOM     70  C   UNL A   1      39.513  36.328  38.710  1.00  0.00     0.054 A 
BRANCH  70  71
ATOM     71  S   UNL A   1      39.277  37.582  39.999  1.00  0.00     0.124 S 
ATOM     72  O   UNL A   1      40.533  38.326  39.929  1.00  0.00    -0.237 OA
ATOM     73  O   UNL A   1      38.095  38.301  39.533  1.00  0.00    -0.237 OA
ATOM     74  O   UNL A   1      39.086  36.798  41.216  1.00  0.00    -0.744 OA
ENDBRANCH  70  71
ENDBRANCH  51  65
BRANCH  52  75
ATOM     75  C   UNL A   1      41.528  27.770  29.406  1.00  0.00    -0.014 A 
ATOM     76  C   UNL A   1      42.540  28.016  28.462  1.00  0.00     0.010 A 
ATOM     77  C   UNL A   1      40.786  26.578  29.317  1.00  0.00     0.010 A 
ATOM     78  C   UNL A   1      42.806  27.087  27.451  1.00  0.00     0.020 A 
ATOM     79  C   UNL A   1      41.070  25.633  28.327  1.00  0.00     0.020 A 
ATOM     80  C   UNL A   1      42.076  25.896  27.397  1.00  0.00     0.054 A 
BRANCH  80  81
ATOM     81  S   UNL A   1      42.500  24.668  26.131  1.00  0.00     0.124 S 
ATOM     82  O   UNL A   1      43.756  24.126  26.641  1.00  0.00    -0.237 OA
ATOM     83  O   UNL A   1      41.355  23.763  26.175  1.00  0.00    -0.237 OA
ATOM     84  O   UNL A   1      42.612  25.460  24.908  1.00  0.00    -0.744 OA
ENDBRANCH  80  81
ENDBRANCH  52  75
BRANCH  64  85
ATOM     85  C   UNL A   1      44.657  29.029  35.531  1.00  0.00    -0.014 A 
ATOM     86  C   UNL A   1      45.969  29.510  35.368  1.00  0.00     0.010 A 
ATOM     87  C   UNL A   1      44.428  27.959  36.415  1.00  0.00     0.010 A 
ATOM     88  C   UNL A   1      47.032  28.911  36.051  1.00  0.00     0.020 A 
ATOM     89  C   UNL A   1      45.482  27.379  37.125  1.00  0.00     0.020 A 
ATOM     90  C   UNL A   1      46.781  27.850  36.927  1.00  0.00     0.054 A 
BRANCH  90  91
ATOM     91  S   UNL A   1      48.172  27.121  37.834  1.00  0.00     0.124 S 
ATOM     92  O   UNL A   1      47.517  26.612  39.036  1.00  0.00    -0.237 OA
ATOM     93  O   UNL A   1      48.661  26.105  36.907  1.00  0.00    -0.237 OA
ATOM     94  O   UNL A   1      49.076  28.249  38.050  1.00  0.00    -0.744 OA
ENDBRANCH  90  91
ENDBRANCH  64  85
ENDBRANCH  38  39
ENDBRANCH  30  33
ENDBRANCH  28  29
ENDBRANCH  27  28
ENDBRANCH  26  27
ENDBRANCH   1  26
TORSDOF 21
ENDMDL
MODEL 3
REMARK VINA RESULT:     -10.1      5.811     11.644
REMARK SMILES CC(C)C[C@H](NS(=O)(=O)N1C[C@@H](C)C[C@H](C)C1)C(=O)NCCCCCCNC(=O)c1ccc(-c2c3nc(c(-c4ccc(S(=O)(=O)[O-])cc4)c4ccc([nH]4)c(-c4ccc(S(=O)(=O)[O-])cc4)c4nc(c(-c5ccc(S(=O)(=O)[O-])cc5)c5ccc2[nH]5)C=C4)C=C3)cc1
REMARK SMILES IDX 23 1 22 2 21 3 20 4 18 5 19 6 5 8 4 9 2 10 1 11 3 12 6 13
REMARK SMILES IDX 7 15 8 16 9 17 10 18 11 19 17 20 12 21 15 22 13 23 14 24
REMARK SMILES IDX 16 25 24 26 25 27 26 28 27 29 28 30 29 32 30 33 31 34 89 35
REMARK SMILES IDX 32 36 88 37 33 38 34 39 35 40 82 41 36 42 87 43 81 44 83 45
REMARK SMILES IDX 37 46 86 47 80 48 79 49 38 51 68 52 49 53 67 54 50 55 53 56
REMARK SMILES IDX 66 57 84 58 51 59 52 60 65 62 85 63 54 64 39 65 40 66 48 67
REMARK SMILES IDX 41 68 47 69 42 70 43 71 44 72 45 73 46 74 69 75 70 76 78 77
REMARK SMILES IDX 71 78 77 79 72 80 73 81 74 82 75 83 76 84 55 85 56 86 64 87
REMARK SMILES IDX 57 88 63 89 58 90 59 91 60 92 61 93 62 94
REMARK H PARENT 20 7 6 14 27 31 83 50 53 61
REMARK Flexibility Score: inf
ROOT
ATOM      1  C   UNL A   1      39.383  22.915  26.358  1.00  0.00     0.002 C 
ENDROOT
BRANCH   1   2
ATOM      2  C   UNL A   1      38.100  22.267  25.829  1.00  0.00     0.021 C 
BRANCH   2   3
ATOM      3  C   UNL A   1      37.038  23.266  25.383  1.00  0.00     0.116 C 
BRANCH   3   4
ATOM      4  N   UNL A   1      35.967  23.372  26.362  1.00  0.00    -0.355 N 
ATOM      5  C   UNL A   1      34.630  23.109  26.249  1.00  0.00     0.238 C 
ATOM      6  O   UNL A   1      33.923  23.274  27.246  1.00  0.00    -0.273 OA
ATOM      7  H   UNL A   1      36.252  23.683  27.252  1.00  0.00     0.163 HD
BRANCH   5   8
ATOM      8  C   UNL A   1      34.035  22.626  24.911  1.00  0.00     0.160 C 
BRANCH   8   9
ATOM      9  C   UNL A   1      34.560  21.230  24.562  1.00  0.00     0.033 C 
BRANCH   9  10
ATOM     10  C   UNL A   1      33.475  20.202  24.167  1.00  0.00    -0.015 C 
ATOM     11  C   UNL A   1      33.858  18.776  24.560  1.00  0.00     0.007 C 
ATOM     12  C   UNL A   1      32.142  20.588  24.815  1.00  0.00     0.007 C 
ENDBRANCH   9  10
ENDBRANCH   8   9
BRANCH   8  13
ATOM     13  N   UNL A   1      34.278  23.722  23.950  1.00  0.00    -0.190 NA
ATOM     14  H   UNL A   1      34.763  23.280  23.169  1.00  0.00     0.143 HD
BRANCH  13  15
ATOM     15  S   UNL A   1      33.163  24.708  23.247  1.00  0.00     0.280 S 
ATOM     16  O   UNL A   1      33.502  24.629  21.843  1.00  0.00    -0.195 OA
ATOM     17  O   UNL A   1      31.850  24.364  23.721  1.00  0.00    -0.195 OA
BRANCH  15  18
ATOM     18  N   UNL A   1      33.630  26.195  23.854  1.00  0.00    -0.188 NA
ATOM     19  C   UNL A   1      33.566  27.374  22.962  1.00  0.00     0.106 C 
ATOM     20  C   UNL A   1      33.343  26.519  25.264  1.00  0.00     0.106 C 
ATOM     21  C   UNL A   1      32.201  28.080  23.042  1.00  0.00     0.001 C 
ATOM     22  C   UNL A   1      31.942  27.124  25.398  1.00  0.00     0.001 C 
ATOM     23  C   UNL A   1      31.088  27.322  22.310  1.00  0.00     0.009 C 
ATOM     24  C   UNL A   1      31.814  28.366  24.503  1.00  0.00     0.009 C 
ATOM     25  C   UNL A   1      31.640  27.468  26.855  1.00  0.00     0.009 C 
ENDBRANCH  15  18
ENDBRANCH  13  15
ENDBRANCH   8  13
ENDBRANCH   5   8
ENDBRANCH   3   4
ENDBRANCH   2   3
ENDBRANCH   1   2
BRANCH   1  26
ATOM     26  C   UNL A   1      40.539  21.942  26.608  1.00  0.00     0.002 C 
BRANCH  26  27
ATOM     27  C   UNL A   1      41.405  22.267  27.827  1.00  0.00     0.021 C 
BRANCH  27  28
ATOM     28  C   UNL A   1      42.721  22.962  27.500  1.00  0.00     0.116 C 
BRANCH  28  29
ATOM     29  N   UNL A   1      42.621  23.789  26.308  1.00  0.00    -0.352 N 
ATOM     30  C   UNL A   1      42.226  25.098  26.190  1.00  0.00     0.251 C 
ATOM     31  H   UNL A   1      42.873  23.347  25.465  1.00  0.00     0.163 HD
ATOM     32  O   UNL A   1      42.008  25.577  25.082  1.00  0.00    -0.269 OA
BRANCH  30  33
ATOM     33  C   UNL A   1      42.044  25.920  27.405  1.00  0.00     0.039 A 
ATOM     34  C   UNL A   1      43.043  26.827  27.765  1.00  0.00     0.014 A 
ATOM     35  C   UNL A   1      40.888  25.800  28.183  1.00  0.00     0.014 A 
ATOM     36  C   UNL A   1      42.854  27.657  28.871  1.00  0.00     0.010 A 
ATOM     37  C   UNL A   1      40.667  26.684  29.234  1.00  0.00     0.010 A 
ATOM     38  C   UNL A   1      41.649  27.619  29.593  1.00  0.00    -0.014 A 
BRANCH  38  39
ATOM     39  C   UNL A   1      41.396  28.560  30.715  1.00  0.00     0.031 A 
ATOM     40  C   UNL A   1      42.216  28.484  31.973  1.00  0.00     0.074 A 
ATOM     41  C   UNL A   1      40.384  29.446  30.623  1.00  0.00     0.049 A 
ATOM     42  N   UNL A   1      42.118  29.197  33.066  1.00  0.00    -0.248 NA
ATOM     43  C   UNL A   1      43.268  27.456  32.019  1.00  0.00     0.031 C 
ATOM     44  C   UNL A   1      39.486  29.587  29.474  1.00  0.00     0.029 A 
ATOM     45  N   UNL A   1      39.936  30.390  31.512  1.00  0.00    -0.354 N 
ATOM     46  C   UNL A   1      43.084  28.698  33.931  1.00  0.00     0.074 A 
ATOM     47  C   UNL A   1      43.715  27.583  33.260  1.00  0.00     0.031 C 
ATOM     48  C   UNL A   1      38.614  30.578  29.717  1.00  0.00     0.029 A 
ATOM     49  C   UNL A   1      38.858  31.110  31.054  1.00  0.00     0.049 A 
ATOM     50  H   UNL A   1      40.347  30.537  32.395  1.00  0.00     0.167 HD
ATOM     51  C   UNL A   1      43.428  29.137  35.166  1.00  0.00     0.031 A 
ATOM     52  C   UNL A   1      38.137  32.084  31.644  1.00  0.00     0.031 A 
ATOM     53  C   UNL A   1      42.784  30.239  35.835  1.00  0.00     0.049 A 
ATOM     54  C   UNL A   1      38.516  32.542  33.024  1.00  0.00     0.074 A 
ATOM     55  C   UNL A   1      43.090  30.796  37.065  1.00  0.00     0.029 A 
ATOM     56  N   UNL A   1      41.697  30.944  35.338  1.00  0.00    -0.354 N 
ATOM     57  N   UNL A   1      39.484  32.109  33.798  1.00  0.00    -0.248 NA
ATOM     58  C   UNL A   1      37.718  33.628  33.606  1.00  0.00     0.031 C 
ATOM     59  C   UNL A   1      42.144  31.788  37.342  1.00  0.00     0.029 A 
ATOM     60  C   UNL A   1      41.296  31.906  36.251  1.00  0.00     0.049 A 
ATOM     61  H   UNL A   1      41.272  30.782  34.465  1.00  0.00     0.167 HD
ATOM     62  C   UNL A   1      39.424  32.886  34.950  1.00  0.00     0.074 A 
ATOM     63  C   UNL A   1      38.337  33.825  34.762  1.00  0.00     0.031 C 
ATOM     64  C   UNL A   1      40.201  32.826  36.061  1.00  0.00     0.031 A 
BRANCH  51  65
ATOM     65  C   UNL A   1      44.537  28.403  35.879  1.00  0.00    -0.014 A 
ATOM     66  C   UNL A   1      45.879  28.809  35.757  1.00  0.00     0.010 A 
ATOM     67  C   UNL A   1      44.234  27.293  36.688  1.00  0.00     0.010 A 
ATOM     68  C   UNL A   1      46.901  28.080  36.375  1.00  0.00     0.020 A 
ATOM     69  C   UNL A   1      45.248  26.584  37.338  1.00  0.00     0.020 A 
ATOM     70  C   UNL A   1      46.577  26.968  37.156  1.00  0.00     0.054 A 
BRANCH  70  71
ATOM     71  S   UNL A   1      47.924  26.034  37.935  1.00  0.00     0.124 S 
ATOM     72  O   UNL A   1      48.234  25.041  36.909  1.00  0.00    -0.237 OA
ATOM     73  O   UNL A   1      48.943  27.058  38.144  1.00  0.00    -0.237 OA
ATOM     74  O   UNL A   1      47.319  25.503  39.153  1.00  0.00    -0.744 OA
ENDBRANCH  70  71
ENDBRANCH  51  65
BRANCH  52  75
ATOM     75  C   UNL A   1      36.989  32.688  30.913  1.00  0.00    -0.014 A 
ATOM     76  C   UNL A   1      37.198  33.696  29.955  1.00  0.00     0.010 A 
ATOM     77  C   UNL A   1      35.681  32.219  31.137  1.00  0.00     0.010 A 
ATOM     78  C   UNL A   1      36.121  34.220  29.233  1.00  0.00     0.020 A 
ATOM     79  C   UNL A   1      34.607  32.719  30.395  1.00  0.00     0.020 A 
ATOM     80  C   UNL A   1      34.834  33.720  29.451  1.00  0.00     0.054 A 
BRANCH  80  81
ATOM     81  S   UNL A   1      33.468  34.354  28.437  1.00  0.00     0.124 S 
ATOM     82  O   UNL A   1      32.557  34.880  29.449  1.00  0.00    -0.237 OA
ATOM     83  O   UNL A   1      34.133  35.350  27.603  1.00  0.00    -0.237 OA
ATOM     84  O   UNL A   1      32.994  33.170  27.723  1.00  0.00    -0.744 OA
ENDBRANCH  80  81
ENDBRANCH  52  75
BRANCH  64  85
ATOM     85  C   UNL A   1      39.925  33.824  37.156  1.00  0.00    -0.014 A 
ATOM     86  C   UNL A   1      39.172  33.476  38.293  1.00  0.00     0.010 A 
ATOM     87  C   UNL A   1      40.475  35.117  37.072  1.00  0.00     0.010 A 
ATOM     88  C   UNL A   1      38.949  34.413  39.307  1.00  0.00     0.020 A 
ATOM     89  C   UNL A   1      40.282  36.045  38.097  1.00  0.00     0.020 A 
ATOM     90  C   UNL A   1      39.507  35.690  39.203  1.00  0.00     0.054 A 
BRANCH  90  91
ATOM     91  S   UNL A   1      39.239  36.871  40.554  1.00  0.00     0.124 S 
ATOM     92  O   UNL A   1      38.603  37.988  39.860  1.00  0.00    -0.237 OA
ATOM     93  O   UNL A   1      38.377  36.124  41.465  1.00  0.00    -0.237 OA
ATOM     94  O   UNL A   1      40.586  37.137  41.056  1.00  0.00    -0.744 OA
ENDBRANCH  90  91
ENDBRANCH  64  85
ENDBRANCH  38  39
ENDBRANCH  30  33
ENDBRANCH  28  29
ENDBRANCH  27  28
ENDBRANCH  26  27
ENDBRANCH   1  26
TORSDOF 21
ENDMDL
