MODEL 1
REMARK VINA RESULT:     -11.2      0.000      0.000
REMARK SMILES Cc1cc(OC(F)(F)F)cc2c1O[C@@H](C(F)(F)F)C(C(=O)NCCCCCCNC(=O)c1ccc(-c3c4nc(c(-c5ccc(S(=O)(=O)[O-])cc5)c5ccc([nH]5)c(-c5ccc(S(=O)(=O)[O-])cc5)c5nc(c(-c6ccc(S(=O)(=O)[O-])cc6)c6ccc3[nH]6)C=C5)C=C4)cc1)=C2
REMARK SMILES IDX 26 1 25 2 24 3 23 4 22 5 20 6 21 7 19 9 1 10 2 11 3 12 12 13
REMARK SMILES IDX 4 14 11 15 13 16 10 17 92 18 14 19 5 20 6 21 7 22 8 23 9 24
REMARK SMILES IDX 15 25 16 26 17 27 18 28 27 29 28 30 29 31 30 32 31 34 32 35
REMARK SMILES IDX 33 36 91 37 34 38 90 39 35 40 36 41 37 42 84 43 38 44 89 45
REMARK SMILES IDX 83 46 85 47 39 48 88 49 82 50 81 51 40 53 70 54 51 55 69 56
REMARK SMILES IDX 52 57 55 58 68 59 86 60 53 61 54 62 67 64 87 65 56 66 41 67
REMARK SMILES IDX 42 68 50 69 43 70 49 71 44 72 45 73 46 74 47 75 48 76 71 77
REMARK SMILES IDX 72 78 80 79 73 80 79 81 74 82 75 83 76 84 77 85 78 86 57 87
REMARK SMILES IDX 58 88 66 89 59 90 65 91 60 92 61 93 62 94 63 95 64 96
REMARK H PARENT 22 8 29 33 85 52 55 63
REMARK Flexibility Score: inf
ROOT
ATOM      1  C   UNL A   1      35.344  22.324  24.235  1.00  0.00     0.002 C 
ENDROOT
BRANCH   1   2
ATOM      2  C   UNL A   1      34.736  21.186  25.065  1.00  0.00     0.002 C 
BRANCH   2   3
ATOM      3  C   UNL A   1      33.594  21.590  25.999  1.00  0.00     0.021 C 
BRANCH   3   4
ATOM      4  C   UNL A   1      32.230  21.699  25.320  1.00  0.00     0.116 C 
BRANCH   4   5
ATOM      5  N   UNL A   1      31.211  22.190  26.234  1.00  0.00    -0.352 N 
ATOM      6  C   UNL A   1      30.620  23.372  26.529  1.00  0.00     0.251 C 
ATOM      7  O   UNL A   1      29.752  23.315  27.407  1.00  0.00    -0.270 OA
ATOM      8  H   UNL A   1      30.852  21.463  26.792  1.00  0.00     0.163 HD
BRANCH   6   9
ATOM      9  C   UNL A   1      30.929  24.688  25.889  1.00  0.00     0.067 C 
ATOM     10  C   UNL A   1      30.960  29.054  23.201  1.00  0.00     0.048 C 
ATOM     11  C   UNL A   1      31.776  28.505  24.339  1.00  0.00    -0.005 A 
ATOM     12  C   UNL A   1      32.857  29.232  24.857  1.00  0.00     0.054 A 
ATOM     13  C   UNL A   1      31.471  27.255  24.891  1.00  0.00     0.131 A 
ATOM     14  C   UNL A   1      33.612  28.725  25.918  1.00  0.00     0.130 A 
ATOM     15  C   UNL A   1      32.211  26.737  25.954  1.00  0.00     0.021 A 
ATOM     16  O   UNL A   1      30.395  26.596  24.373  1.00  0.00    -0.475 OA
ATOM     17  C   UNL A   1      33.281  27.477  26.463  1.00  0.00     0.058 A 
ATOM     18  C   UNL A   1      31.831  25.453  26.533  1.00  0.00     0.025 C 
ATOM     19  C   UNL A   1      30.344  25.164  24.589  1.00  0.00     0.314 C 
BRANCH  14  20
ATOM     20  O   UNL A   1      34.680  29.335  26.512  1.00  0.00    -0.406 OA
BRANCH  20  21
ATOM     21  C   UNL A   1      34.415  30.273  27.541  1.00  0.00     0.573 C 
ATOM     22  F   UNL A   1      33.092  30.525  27.643  1.00  0.00    -0.132 F 
ATOM     23  F   UNL A   1      34.887  29.843  28.730  1.00  0.00    -0.132 F 
ATOM     24  F   UNL A   1      35.039  31.434  27.239  1.00  0.00    -0.132 F 
ENDBRANCH  20  21
ENDBRANCH  14  20
BRANCH  19  25
ATOM     25  C   UNL A   1      30.939  24.440  23.370  1.00  0.00     0.429 C 
ATOM     26  F   UNL A   1      30.229  23.344  23.021  1.00  0.00    -0.167 F 
ATOM     27  F   UNL A   1      30.947  25.255  22.287  1.00  0.00    -0.167 F 
ATOM     28  F   UNL A   1      32.211  24.029  23.579  1.00  0.00    -0.167 F 
ENDBRANCH  19  25
ENDBRANCH   6   9
ENDBRANCH   4   5
ENDBRANCH   3   4
ENDBRANCH   2   3
ENDBRANCH   1   2
BRANCH   1  29
ATOM     29  C   UNL A   1      35.292  23.712  24.877  1.00  0.00     0.021 C 
BRANCH  29  30
ATOM     30  C   UNL A   1      36.514  24.072  25.716  1.00  0.00     0.116 C 
BRANCH  30  31
ATOM     31  N   UNL A   1      37.498  23.003  25.721  1.00  0.00    -0.352 N 
ATOM     32  C   UNL A   1      38.814  23.056  26.110  1.00  0.00     0.251 C 
ATOM     33  H   UNL A   1      37.179  22.127  25.406  1.00  0.00     0.163 HD
ATOM     34  O   UNL A   1      39.574  22.129  25.868  1.00  0.00    -0.269 OA
BRANCH  32  35
ATOM     35  C   UNL A   1      39.299  24.260  26.812  1.00  0.00     0.039 A 
ATOM     36  C   UNL A   1      40.048  25.203  26.106  1.00  0.00     0.014 A 
ATOM     37  C   UNL A   1      38.991  24.456  28.163  1.00  0.00     0.014 A 
ATOM     38  C   UNL A   1      40.459  26.371  26.750  1.00  0.00     0.010 A 
ATOM     39  C   UNL A   1      39.360  25.643  28.787  1.00  0.00     0.010 A 
ATOM     40  C   UNL A   1      40.105  26.605  28.089  1.00  0.00    -0.014 A 
BRANCH  40  41
ATOM     41  C   UNL A   1      40.560  27.828  28.789  1.00  0.00     0.031 A 
ATOM     42  C   UNL A   1      41.963  27.897  29.321  1.00  0.00     0.074 A 
ATOM     43  C   UNL A   1      39.712  28.863  28.959  1.00  0.00     0.049 A 
ATOM     44  N   UNL A   1      42.548  28.872  29.965  1.00  0.00    -0.248 NA
ATOM     45  C   UNL A   1      42.816  26.713  29.115  1.00  0.00     0.031 C 
ATOM     46  C   UNL A   1      38.322  28.902  28.503  1.00  0.00     0.029 A 
ATOM     47  N   UNL A   1      39.902  30.083  29.558  1.00  0.00    -0.354 N 
ATOM     48  C   UNL A   1      43.833  28.421  30.240  1.00  0.00     0.074 A 
ATOM     49  C   UNL A   1      43.931  27.071  29.736  1.00  0.00     0.031 C 
ATOM     50  C   UNL A   1      37.793  30.099  28.811  1.00  0.00     0.029 A 
ATOM     51  C   UNL A   1      38.796  30.900  29.507  1.00  0.00     0.049 A 
ATOM     52  H   UNL A   1      40.748  30.348  29.983  1.00  0.00     0.167 HD
ATOM     53  C   UNL A   1      44.850  29.085  30.834  1.00  0.00     0.031 A 
ATOM     54  C   UNL A   1      38.616  32.155  29.963  1.00  0.00     0.031 A 
ATOM     55  C   UNL A   1      44.761  30.435  31.311  1.00  0.00     0.049 A 
ATOM     56  C   UNL A   1      39.756  32.866  30.639  1.00  0.00     0.074 A 
ATOM     57  C   UNL A   1      45.753  31.207  31.891  1.00  0.00     0.029 A 
ATOM     58  N   UNL A   1      43.620  31.219  31.255  1.00  0.00    -0.354 N 
ATOM     59  N   UNL A   1      40.975  32.433  30.857  1.00  0.00    -0.248 NA
ATOM     60  C   UNL A   1      39.504  34.230  31.123  1.00  0.00     0.031 C 
ATOM     61  C   UNL A   1      45.202  32.448  32.215  1.00  0.00     0.029 A 
ATOM     62  C   UNL A   1      43.879  32.462  31.801  1.00  0.00     0.049 A 
ATOM     63  H   UNL A   1      42.755  30.933  30.882  1.00  0.00     0.167 HD
ATOM     64  C   UNL A   1      41.641  33.482  31.482  1.00  0.00     0.074 A 
ATOM     65  C   UNL A   1      40.694  34.568  31.609  1.00  0.00     0.031 C 
ATOM     66  C   UNL A   1      42.925  33.536  31.906  1.00  0.00     0.031 A 
BRANCH  53  67
ATOM     67  C   UNL A   1      46.163  28.371  30.981  1.00  0.00    -0.014 A 
ATOM     68  C   UNL A   1      47.166  28.515  30.006  1.00  0.00     0.010 A 
ATOM     69  C   UNL A   1      46.429  27.622  32.141  1.00  0.00     0.010 A 
ATOM     70  C   UNL A   1      48.412  27.912  30.184  1.00  0.00     0.020 A 
ATOM     71  C   UNL A   1      47.683  27.033  32.330  1.00  0.00     0.020 A 
ATOM     72  C   UNL A   1      48.665  27.182  31.349  1.00  0.00     0.054 A 
BRANCH  72  73
ATOM     73  S   UNL A   1      50.311  26.453  31.568  1.00  0.00     0.124 S 
ATOM     74  O   UNL A   1      50.052  25.036  31.324  1.00  0.00    -0.237 OA
ATOM     75  O   UNL A   1      51.095  27.134  30.540  1.00  0.00    -0.237 OA
ATOM     76  O   UNL A   1      50.662  26.789  32.945  1.00  0.00    -0.744 OA
ENDBRANCH  72  73
ENDBRANCH  53  67
BRANCH  54  77
ATOM     77  C   UNL A   1      37.308  32.832  29.759  1.00  0.00    -0.014 A 
ATOM     78  C   UNL A   1      37.107  33.659  28.641  1.00  0.00     0.010 A 
ATOM     79  C   UNL A   1      36.251  32.628  30.663  1.00  0.00     0.010 A 
ATOM     80  C   UNL A   1      35.868  34.272  28.429  1.00  0.00     0.020 A 
ATOM     81  C   UNL A   1      35.005  33.226  30.445  1.00  0.00     0.020 A 
ATOM     82  C   UNL A   1      34.823  34.045  29.329  1.00  0.00     0.054 A 
BRANCH  82  83
ATOM     83  S   UNL A   1      33.212  34.814  29.000  1.00  0.00     0.124 S 
ATOM     84  O   UNL A   1      32.653  33.933  27.980  1.00  0.00    -0.237 OA
ATOM     85  O   UNL A   1      32.570  34.757  30.311  1.00  0.00    -0.237 OA
ATOM     86  O   UNL A   1      33.561  36.158  28.541  1.00  0.00    -0.744 OA
ENDBRANCH  82  83
ENDBRANCH  54  77
BRANCH  66  87
ATOM     87  C   UNL A   1      43.416  34.810  32.531  1.00  0.00    -0.014 A 
ATOM     88  C   UNL A   1      44.070  35.780  31.754  1.00  0.00     0.010 A 
ATOM     89  C   UNL A   1      43.072  35.105  33.863  1.00  0.00     0.010 A 
ATOM     90  C   UNL A   1      44.355  37.036  32.295  1.00  0.00     0.020 A 
ATOM     91  C   UNL A   1      43.341  36.364  34.401  1.00  0.00     0.020 A 
ATOM     92  C   UNL A   1      43.973  37.325  33.610  1.00  0.00     0.054 A 
BRANCH  92  93
ATOM     93  S   UNL A   1      44.261  39.000  34.245  1.00  0.00     0.124 S 
ATOM     94  O   UNL A   1      45.494  39.382  33.561  1.00  0.00    -0.237 OA
ATOM     95  O   UNL A   1      43.059  39.709  33.816  1.00  0.00    -0.237 OA
ATOM     96  O   UNL A   1      44.387  38.810  35.689  1.00  0.00    -0.744 OA
ENDBRANCH  92  93
ENDBRANCH  66  87
ENDBRANCH  40  41
ENDBRANCH  32  35
ENDBRANCH  30  31
ENDBRANCH  29  30
ENDBRANCH   1  29
TORSDOF 19
ENDMDL
MODEL 2
REMARK VINA RESULT:     -11.1      0.494      7.945
REMARK SMILES Cc1cc(OC(F)(F)F)cc2c1O[C@@H](C(F)(F)F)C(C(=O)NCCCCCCNC(=O)c1ccc(-c3c4nc(c(-c5ccc(S(=O)(=O)[O-])cc5)c5ccc([nH]5)c(-c5ccc(S(=O)(=O)[O-])cc5)c5nc(c(-c6ccc(S(=O)(=O)[O-])cc6)c6ccc3[nH]6)C=C5)C=C4)cc1)=C2
REMARK SMILES IDX 26 1 25 2 24 3 23 4 22 5 20 6 21 7 19 9 1 10 2 11 3 12 12 13
REMARK SMILES IDX 4 14 11 15 13 16 10 17 92 18 14 19 5 20 6 21 7 22 8 23 9 24
REMARK SMILES IDX 15 25 16 26 17 27 18 28 27 29 28 30 29 31 30 32 31 34 32 35
REMARK SMILES IDX 33 36 91 37 34 38 90 39 35 40 36 41 37 42 84 43 38 44 89 45
REMARK SMILES IDX 83 46 85 47 39 48 88 49 82 50 81 51 40 53 70 54 51 55 69 56
REMARK SMILES IDX 52 57 55 58 68 59 86 60 53 61 54 62 67 64 87 65 56 66 41 67
REMARK SMILES IDX 42 68 50 69 43 70 49 71 44 72 45 73 46 74 47 75 48 76 71 77
REMARK SMILES IDX 72 78 80 79 73 80 79 81 74 82 75 83 76 84 77 85 78 86 57 87
REMARK SMILES IDX 58 88 66 89 59 90 65 91 60 92 61 93 62 94 63 95 64 96
REMARK H PARENT 22 8 29 33 85 52 55 63
REMARK Flexibility Score: inf
ROOT
ATOM      1  C   UNL A   1      35.467  22.576  23.960  1.00  0.00     0.002 C 
ENDROOT
BRANCH   1   2
ATOM      2  C   UNL A   1      34.436  21.504  24.337  1.00  0.00     0.002 C 
BRANCH   2   3
ATOM      3  C   UNL A   1      33.452  21.895  25.441  1.00  0.00     0.021 C 
BRANCH   3   4
ATOM      4  C   UNL A   1      31.982  21.704  25.076  1.00  0.00     0.116 C 
BRANCH   4   5
ATOM      5  N   UNL A   1      31.099  22.197  26.120  1.00  0.00    -0.352 N 
ATOM      6  C   UNL A   1      30.609  23.390  26.533  1.00  0.00     0.251 C 
ATOM      7  O   UNL A   1      29.842  23.331  27.500  1.00  0.00    -0.270 OA
ATOM      8  H   UNL A   1      30.765  21.461  26.681  1.00  0.00     0.163 HD
BRANCH   6   9
ATOM      9  C   UNL A   1      30.916  24.720  25.922  1.00  0.00     0.067 C 
ATOM     10  C   UNL A   1      30.919  29.166  23.370  1.00  0.00     0.048 C 
ATOM     11  C   UNL A   1      31.768  28.569  24.458  1.00  0.00    -0.005 A 
ATOM     12  C   UNL A   1      32.879  29.263  24.957  1.00  0.00     0.054 A 
ATOM     13  C   UNL A   1      31.463  27.308  24.983  1.00  0.00     0.131 A 
ATOM     14  C   UNL A   1      33.665  28.712  25.972  1.00  0.00     0.130 A 
ATOM     15  C   UNL A   1      32.234  26.746  26.000  1.00  0.00     0.021 A 
ATOM     16  O   UNL A   1      30.357  26.683  24.486  1.00  0.00    -0.475 OA
ATOM     17  C   UNL A   1      33.334  27.453  26.491  1.00  0.00     0.058 A 
ATOM     18  C   UNL A   1      31.854  25.451  26.555  1.00  0.00     0.025 C 
ATOM     19  C   UNL A   1      30.290  25.245  24.660  1.00  0.00     0.314 C 
BRANCH  14  20
ATOM     20  O   UNL A   1      34.766  29.286  26.543  1.00  0.00    -0.406 OA
BRANCH  20  21
ATOM     21  C   UNL A   1      34.552  30.240  27.569  1.00  0.00     0.573 C 
ATOM     22  F   UNL A   1      33.243  30.548  27.685  1.00  0.00    -0.132 F 
ATOM     23  F   UNL A   1      35.022  29.798  28.755  1.00  0.00    -0.132 F 
ATOM     24  F   UNL A   1      35.220  31.373  27.251  1.00  0.00    -0.132 F 
ENDBRANCH  20  21
ENDBRANCH  14  20
BRANCH  19  25
ATOM     25  C   UNL A   1      30.826  24.551  23.398  1.00  0.00     0.429 C 
ATOM     26  F   UNL A   1      30.175  23.398  23.124  1.00  0.00    -0.167 F 
ATOM     27  F   UNL A   1      30.673  25.347  22.312  1.00  0.00    -0.167 F 
ATOM     28  F   UNL A   1      32.140  24.242  23.494  1.00  0.00    -0.167 F 
ENDBRANCH  19  25
ENDBRANCH   6   9
ENDBRANCH   4   5
ENDBRANCH   3   4
ENDBRANCH   2   3
ENDBRANCH   1   2
BRANCH   1  29
ATOM     29  C   UNL A   1      35.364  23.893  24.733  1.00  0.00     0.021 C 
BRANCH  29  30
ATOM     30  C   UNL A   1      36.427  24.083  25.811  1.00  0.00     0.116 C 
BRANCH  30  31
ATOM     31  N   UNL A   1      37.413  23.016  25.790  1.00  0.00    -0.352 N 
ATOM     32  C   UNL A   1      38.739  23.071  26.144  1.00  0.00     0.251 C 
ATOM     33  H   UNL A   1      37.087  22.139  25.482  1.00  0.00     0.163 HD
ATOM     34  O   UNL A   1      39.494  22.145  25.882  1.00  0.00    -0.269 OA
BRANCH  32  35
ATOM     35  C   UNL A   1      39.240  24.276  26.834  1.00  0.00     0.039 A 
ATOM     36  C   UNL A   1      38.931  24.463  28.182  1.00  0.00     0.014 A 
ATOM     37  C   UNL A   1      40.028  25.203  26.144  1.00  0.00     0.014 A 
ATOM     38  C   UNL A   1      39.450  25.570  28.855  1.00  0.00     0.010 A 
ATOM     39  C   UNL A   1      40.583  26.278  26.829  1.00  0.00     0.010 A 
ATOM     40  C   UNL A   1      40.291  26.476  28.187  1.00  0.00    -0.014 A 
BRANCH  40  41
ATOM     41  C   UNL A   1      40.824  27.668  28.884  1.00  0.00     0.031 A 
ATOM     42  C   UNL A   1      39.948  28.877  29.057  1.00  0.00     0.074 A 
ATOM     43  C   UNL A   1      42.091  27.670  29.345  1.00  0.00     0.049 A 
ATOM     44  N   UNL A   1      40.229  30.017  29.631  1.00  0.00    -0.248 NA
ATOM     45  C   UNL A   1      38.585  28.801  28.502  1.00  0.00     0.031 C 
ATOM     46  C   UNL A   1      43.040  26.563  29.218  1.00  0.00     0.029 A 
ATOM     47  N   UNL A   1      42.795  28.638  30.017  1.00  0.00    -0.354 N 
ATOM     48  C   UNL A   1      39.082  30.791  29.507  1.00  0.00     0.074 A 
ATOM     49  C   UNL A   1      38.118  30.013  28.765  1.00  0.00     0.031 C 
ATOM     50  C   UNL A   1      44.192  26.902  29.822  1.00  0.00     0.029 A 
ATOM     51  C   UNL A   1      44.073  28.256  30.355  1.00  0.00     0.049 A 
ATOM     52  H   UNL A   1      42.421  29.520  30.238  1.00  0.00     0.167 HD
ATOM     53  C   UNL A   1      38.845  32.030  29.994  1.00  0.00     0.031 A 
ATOM     54  C   UNL A   1      45.034  28.920  31.025  1.00  0.00     0.031 A 
ATOM     55  C   UNL A   1      39.794  32.792  30.753  1.00  0.00     0.049 A 
ATOM     56  C   UNL A   1      44.754  30.305  31.540  1.00  0.00     0.074 A 
ATOM     57  C   UNL A   1      39.629  34.042  31.324  1.00  0.00     0.029 A 
ATOM     58  N   UNL A   1      41.080  32.375  31.057  1.00  0.00    -0.354 N 
ATOM     59  N   UNL A   1      43.649  31.006  31.442  1.00  0.00    -0.248 NA
ATOM     60  C   UNL A   1      45.839  30.987  32.258  1.00  0.00     0.031 C 
ATOM     61  C   UNL A   1      40.827  34.395  31.948  1.00  0.00     0.029 A 
ATOM     62  C   UNL A   1      41.724  33.348  31.798  1.00  0.00     0.049 A 
ATOM     63  H   UNL A   1      41.474  31.515  30.787  1.00  0.00     0.167 HD
ATOM     64  C   UNL A   1      43.900  32.200  32.108  1.00  0.00     0.074 A 
ATOM     65  C   UNL A   1      45.258  32.131  32.603  1.00  0.00     0.031 C 
ATOM     66  C   UNL A   1      43.073  33.255  32.293  1.00  0.00     0.031 A 
BRANCH  53  67
ATOM     67  C   UNL A   1      37.493  32.635  29.744  1.00  0.00    -0.014 A 
ATOM     68  C   UNL A   1      36.423  32.371  30.617  1.00  0.00     0.010 A 
ATOM     69  C   UNL A   1      37.313  33.539  28.683  1.00  0.00     0.010 A 
ATOM     70  C   UNL A   1      35.190  32.996  30.426  1.00  0.00     0.020 A 
ATOM     71  C   UNL A   1      36.085  34.179  28.500  1.00  0.00     0.020 A 
ATOM     72  C   UNL A   1      35.031  33.903  29.373  1.00  0.00     0.054 A 
BRANCH  72  73
ATOM     73  S   UNL A   1      33.429  34.731  29.184  1.00  0.00     0.124 S 
ATOM     74  O   UNL A   1      33.817  36.022  28.619  1.00  0.00    -0.237 OA
ATOM     75  O   UNL A   1      32.718  33.835  28.276  1.00  0.00    -0.237 OA
ATOM     76  O   UNL A   1      32.901  34.786  30.545  1.00  0.00    -0.744 OA
ENDBRANCH  72  73
ENDBRANCH  53  67
BRANCH  54  77
ATOM     77  C   UNL A   1      46.344  28.263  31.279  1.00  0.00    -0.014 A 
ATOM     78  C   UNL A   1      46.531  27.480  32.432  1.00  0.00     0.010 A 
ATOM     79  C   UNL A   1      47.396  28.388  30.356  1.00  0.00     0.010 A 
ATOM     80  C   UNL A   1      47.750  26.835  32.658  1.00  0.00     0.020 A 
ATOM     81  C   UNL A   1      48.612  27.731  30.570  1.00  0.00     0.020 A 
ATOM     82  C   UNL A   1      48.780  26.958  31.720  1.00  0.00     0.054 A 
BRANCH  82  83
ATOM     83  S   UNL A   1      50.334  26.067  32.018  1.00  0.00     0.124 S 
ATOM     84  O   UNL A   1      51.326  26.986  31.469  1.00  0.00    -0.237 OA
ATOM     85  O   UNL A   1      50.334  25.927  33.472  1.00  0.00    -0.237 OA
ATOM     86  O   UNL A   1      50.161  24.819  31.276  1.00  0.00    -0.744 OA
ENDBRANCH  82  83
ENDBRANCH  54  77
BRANCH  66  87
ATOM     87  C   UNL A   1      43.580  34.428  33.083  1.00  0.00    -0.014 A 
ATOM     88  C   UNL A   1      44.162  35.528  32.433  1.00  0.00     0.010 A 
ATOM     89  C   UNL A   1      43.318  34.496  34.464  1.00  0.00     0.010 A 
ATOM     90  C   UNL A   1      44.459  36.689  33.151  1.00  0.00     0.020 A 
ATOM     91  C   UNL A   1      43.599  35.661  35.180  1.00  0.00     0.020 A 
ATOM     92  C   UNL A   1      44.158  36.754  34.516  1.00  0.00     0.054 A 
BRANCH  92  93
ATOM     93  S   UNL A   1      44.456  38.313  35.394  1.00  0.00     0.124 S 
ATOM     94  O   UNL A   1      45.913  38.411  35.364  1.00  0.00    -0.237 OA
ATOM     95  O   UNL A   1      43.745  39.281  34.563  1.00  0.00    -0.237 OA
ATOM     96  O   UNL A   1      43.877  38.087  36.717  1.00  0.00    -0.744 OA
ENDBRANCH  92  93
ENDBRANCH  66  87
ENDBRANCH  40  41
ENDBRANCH  32  35
ENDBRANCH  30  31
ENDBRANCH  29  30
ENDBRANCH   1  29
TORSDOF 19
ENDMDL
MODEL 3
REMARK VINA RESULT:     -10.2      1.608      2.642
REMARK SMILES Cc1cc(OC(F)(F)F)cc2c1O[C@@H](C(F)(F)F)C(C(=O)NCCCCCCNC(=O)c1ccc(-c3c4nc(c(-c5ccc(S(=O)(=O)[O-])cc5)c5ccc([nH]5)c(-c5ccc(S(=O)(=O)[O-])cc5)c5nc(c(-c6ccc(S(=O)(=O)[O-])cc6)c6ccc3[nH]6)C=C5)C=C4)cc1)=C2
REMARK SMILES IDX 26 1 25 2 24 3 23 4 22 5 20 6 21 7 19 9 1 10 2 11 3 12 12 13
REMARK SMILES IDX 4 14 11 15 13 16 10 17 92 18 14 19 5 20 6 21 7 22 8 23 9 24
REMARK SMILES IDX 15 25 16 26 17 27 18 28 27 29 28 30 29 31 30 32 31 34 32 35
REMARK SMILES IDX 33 36 91 37 34 38 90 39 35 40 36 41 37 42 84 43 38 44 89 45
REMARK SMILES IDX 83 46 85 47 39 48 88 49 82 50 81 51 40 53 70 54 51 55 69 56
REMARK SMILES IDX 52 57 55 58 68 59 86 60 53 61 54 62 67 64 87 65 56 66 41 67
REMARK SMILES IDX 42 68 50 69 43 70 49 71 44 72 45 73 46 74 47 75 48 76 71 77
REMARK SMILES IDX 72 78 80 79 73 80 79 81 74 82 75 83 76 84 77 85 78 86 57 87
REMARK SMILES IDX 58 88 66 89 59 90 65 91 60 92 61 93 62 94 63 95 64 96
REMARK H PARENT 22 8 29 33 85 52 55 63
REMARK Flexibility Score: inf
ROOT
ATOM      1  C   UNL A   1      34.786  23.364  24.287  1.00  0.00     0.002 C 
ENDROOT
BRANCH   1   2
ATOM      2  C   UNL A   1      34.145  21.973  24.210  1.00  0.00     0.002 C 
BRANCH   2   3
ATOM      3  C   UNL A   1      33.055  21.690  25.245  1.00  0.00     0.021 C 
BRANCH   3   4
ATOM      4  C   UNL A   1      31.634  21.962  24.758  1.00  0.00     0.116 C 
BRANCH   4   5
ATOM      5  N   UNL A   1      30.858  22.698  25.743  1.00  0.00    -0.352 N 
ATOM      6  C   UNL A   1      30.549  23.989  26.009  1.00  0.00     0.251 C 
ATOM      7  O   UNL A   1      29.811  24.157  26.986  1.00  0.00    -0.270 OA
ATOM      8  H   UNL A   1      30.444  22.090  26.397  1.00  0.00     0.163 HD
BRANCH   6   9
ATOM      9  C   UNL A   1      31.017  25.178  25.232  1.00  0.00     0.067 C 
ATOM     10  C   UNL A   1      33.475  28.551  22.255  1.00  0.00     0.048 C 
ATOM     11  C   UNL A   1      32.112  28.493  22.888  1.00  0.00    -0.005 A 
ATOM     12  C   UNL A   1      31.216  29.562  22.749  1.00  0.00     0.054 A 
ATOM     13  C   UNL A   1      31.723  27.373  23.631  1.00  0.00     0.131 A 
ATOM     14  C   UNL A   1      29.947  29.507  23.332  1.00  0.00     0.130 A 
ATOM     15  C   UNL A   1      30.459  27.299  24.215  1.00  0.00     0.021 A 
ATOM     16  O   UNL A   1      32.618  26.347  23.716  1.00  0.00    -0.475 OA
ATOM     17  C   UNL A   1      29.575  28.370  24.062  1.00  0.00     0.058 A 
ATOM     18  C   UNL A   1      30.073  26.093  24.940  1.00  0.00     0.025 C 
ATOM     19  C   UNL A   1      32.441  25.420  24.817  1.00  0.00     0.314 C 
BRANCH  14  20
ATOM     20  O   UNL A   1      28.986  30.475  23.266  1.00  0.00    -0.406 OA
BRANCH  20  21
ATOM     21  C   UNL A   1      27.935  30.298  22.331  1.00  0.00     0.573 C 
ATOM     22  F   UNL A   1      26.927  29.574  22.862  1.00  0.00    -0.132 F 
ATOM     23  F   UNL A   1      27.462  31.485  21.895  1.00  0.00    -0.132 F 
ATOM     24  F   UNL A   1      28.417  29.623  21.263  1.00  0.00    -0.132 F 
ENDBRANCH  20  21
ENDBRANCH  14  20
BRANCH  19  25
ATOM     25  C   UNL A   1      33.338  25.843  25.991  1.00  0.00     0.429 C 
ATOM     26  F   UNL A   1      33.751  24.791  26.733  1.00  0.00    -0.167 F 
ATOM     27  F   UNL A   1      34.458  26.459  25.540  1.00  0.00    -0.167 F 
ATOM     28  F   UNL A   1      32.718  26.697  26.838  1.00  0.00    -0.167 F 
ENDBRANCH  19  25
ENDBRANCH   6   9
ENDBRANCH   4   5
ENDBRANCH   3   4
ENDBRANCH   2   3
ENDBRANCH   1   2
BRANCH   1  29
ATOM     29  C   UNL A   1      36.299  23.409  24.059  1.00  0.00     0.021 C 
BRANCH  29  30
ATOM     30  C   UNL A   1      37.121  23.738  25.301  1.00  0.00     0.116 C 
BRANCH  30  31
ATOM     31  N   UNL A   1      38.094  22.700  25.593  1.00  0.00    -0.352 N 
ATOM     32  C   UNL A   1      39.322  22.826  26.196  1.00  0.00     0.251 C 
ATOM     33  H   UNL A   1      37.840  21.788  25.325  1.00  0.00     0.163 HD
ATOM     34  O   UNL A   1      40.118  21.897  26.193  1.00  0.00    -0.269 OA
BRANCH  32  35
ATOM     35  C   UNL A   1      39.670  24.110  26.836  1.00  0.00     0.039 A 
ATOM     36  C   UNL A   1      39.228  24.362  28.136  1.00  0.00     0.014 A 
ATOM     37  C   UNL A   1      40.448  25.048  26.150  1.00  0.00     0.014 A 
ATOM     38  C   UNL A   1      39.602  25.549  28.767  1.00  0.00     0.010 A 
ATOM     39  C   UNL A   1      40.860  26.207  26.799  1.00  0.00     0.010 A 
ATOM     40  C   UNL A   1      40.432  26.471  28.109  1.00  0.00    -0.014 A 
BRANCH  40  41
ATOM     41  C   UNL A   1      40.813  27.746  28.760  1.00  0.00     0.031 A 
ATOM     42  C   UNL A   1      42.203  27.910  29.308  1.00  0.00     0.074 A 
ATOM     43  C   UNL A   1      39.912  28.742  28.872  1.00  0.00     0.049 A 
ATOM     44  N   UNL A   1      42.727  28.941  29.915  1.00  0.00    -0.248 NA
ATOM     45  C   UNL A   1      43.118  26.764  29.166  1.00  0.00     0.031 C 
ATOM     46  C   UNL A   1      38.528  28.690  28.396  1.00  0.00     0.029 A 
ATOM     47  N   UNL A   1      40.030  29.995  29.419  1.00  0.00    -0.354 N 
ATOM     48  C   UNL A   1      44.029  28.569  30.227  1.00  0.00     0.074 A 
ATOM     49  C   UNL A   1      44.203  27.204  29.786  1.00  0.00     0.031 C 
ATOM     50  C   UNL A   1      37.935  29.870  28.644  1.00  0.00     0.029 A 
ATOM     51  C   UNL A   1      38.885  30.752  29.317  1.00  0.00     0.049 A 
ATOM     52  H   UNL A   1      40.855  30.322  29.843  1.00  0.00     0.167 HD
ATOM     53  C   UNL A   1      45.002  29.310  30.805  1.00  0.00     0.031 A 
ATOM     54  C   UNL A   1      38.634  32.014  29.713  1.00  0.00     0.031 A 
ATOM     55  C   UNL A   1      44.836  30.673  31.220  1.00  0.00     0.049 A 
ATOM     56  C   UNL A   1      39.726  32.812  30.372  1.00  0.00     0.074 A 
ATOM     57  C   UNL A   1      45.778  31.519  31.778  1.00  0.00     0.029 A 
ATOM     58  N   UNL A   1      43.658  31.394  31.113  1.00  0.00    -0.354 N 
ATOM     59  N   UNL A   1      40.962  32.452  30.626  1.00  0.00    -0.248 NA
ATOM     60  C   UNL A   1      39.398  34.182  30.792  1.00  0.00     0.031 C 
ATOM     61  C   UNL A   1      45.160  32.744  32.039  1.00  0.00     0.029 A 
ATOM     62  C   UNL A   1      43.845  32.672  31.607  1.00  0.00     0.049 A 
ATOM     63  H   UNL A   1      42.815  31.048  30.742  1.00  0.00     0.167 HD
ATOM     64  C   UNL A   1      41.564  33.560  31.213  1.00  0.00     0.074 A 
ATOM     65  C   UNL A   1      40.560  34.601  31.278  1.00  0.00     0.031 C 
ATOM     66  C   UNL A   1      42.837  33.698  31.651  1.00  0.00     0.031 A 
BRANCH  53  67
ATOM     67  C   UNL A   1      46.347  28.671  31.002  1.00  0.00    -0.014 A 
ATOM     68  C   UNL A   1      47.337  28.778  30.010  1.00  0.00     0.010 A 
ATOM     69  C   UNL A   1      46.651  28.036  32.218  1.00  0.00     0.010 A 
ATOM     70  C   UNL A   1      48.611  28.250  30.228  1.00  0.00     0.020 A 
ATOM     71  C   UNL A   1      47.931  27.522  32.447  1.00  0.00     0.020 A 
ATOM     72  C   UNL A   1      48.902  27.633  31.449  1.00  0.00     0.054 A 
BRANCH  72  73
ATOM     73  S   UNL A   1      50.581  27.001  31.715  1.00  0.00     0.124 S 
ATOM     74  O   UNL A   1      50.467  26.378  33.033  1.00  0.00    -0.237 OA
ATOM     75  O   UNL A   1      50.749  26.077  30.597  1.00  0.00    -0.237 OA
ATOM     76  O   UNL A   1      51.416  28.197  31.667  1.00  0.00    -0.744 OA
ENDBRANCH  72  73
ENDBRANCH  53  67
BRANCH  54  77
ATOM     77  C   UNL A   1      37.297  32.614  29.462  1.00  0.00    -0.014 A 
ATOM     78  C   UNL A   1      36.339  32.661  30.490  1.00  0.00     0.010 A 
ATOM     79  C   UNL A   1      36.987  33.168  28.208  1.00  0.00     0.010 A 
ATOM     80  C   UNL A   1      35.092  33.253  30.267  1.00  0.00     0.020 A 
ATOM     81  C   UNL A   1      35.747  33.776  27.986  1.00  0.00     0.020 A 
ATOM     82  C   UNL A   1      34.808  33.813  29.018  1.00  0.00     0.054 A 
BRANCH  82  83
ATOM     83  S   UNL A   1      33.199  34.618  28.776  1.00  0.00     0.124 S 
ATOM     84  O   UNL A   1      33.584  35.924  28.250  1.00  0.00    -0.237 OA
ATOM     85  O   UNL A   1      32.545  33.720  27.827  1.00  0.00    -0.237 OA
ATOM     86  O   UNL A   1      32.617  34.632  30.116  1.00  0.00    -0.744 OA
ENDBRANCH  82  83
ENDBRANCH  54  77
BRANCH  66  87
ATOM     87  C   UNL A   1      43.253  35.023  32.225  1.00  0.00    -0.014 A 
ATOM     88  C   UNL A   1      43.780  36.026  31.396  1.00  0.00     0.010 A 
ATOM     89  C   UNL A   1      42.957  35.317  33.568  1.00  0.00     0.010 A 
ATOM     90  C   UNL A   1      43.988  37.312  31.898  1.00  0.00     0.020 A 
ATOM     91  C   UNL A   1      43.149  36.607  34.069  1.00  0.00     0.020 A 
ATOM     92  C   UNL A   1      43.654  37.599  33.226  1.00  0.00     0.054 A 
BRANCH  92  93
ATOM     93  S   UNL A   1      43.836  39.304  33.815  1.00  0.00     0.124 S 
ATOM     94  O   UNL A   1      44.061  39.116  35.246  1.00  0.00    -0.237 OA
ATOM     95  O   UNL A   1      44.989  39.777  33.055  1.00  0.00    -0.237 OA
ATOM     96  O   UNL A   1      42.563  39.932  33.466  1.00  0.00    -0.744 OA
ENDBRANCH  92  93
ENDBRANCH  66  87
ENDBRANCH  40  41
ENDBRANCH  32  35
ENDBRANCH  30  31
ENDBRANCH  29  30
ENDBRANCH   1  29
TORSDOF 19
ENDMDL
