MODEL 1
REMARK VINA RESULT:     -10.2      0.000      0.000
REMARK SMILES CCC[NH2+][C@@]1(C(=O)NCCCCCCNC(=O)c2ccc(-c3c4nc(c(-c5ccc(S(=O)(=O)[O-])cc5)c5ccc([nH]5)c(-c5ccc(S(=O)(=O)[O-])cc5)c5nc(c(-c6ccc(S(=O)(=O)[O-])cc6)c6ccc3[nH]6)C=C5)C=C4)cc2)CCC[C@H](n2nc(C)c(C)c2C)C1
REMARK SMILES IDX 11 1 10 2 9 3 8 4 6 5 7 6 5 8 78 9 90 10 79 11 81 12 80 13
REMARK SMILES IDX 4 14 3 17 2 18 1 19 82 20 83 21 88 22 84 23 86 24 89 25
REMARK SMILES IDX 85 26 87 27 12 28 13 29 14 30 15 31 16 32 17 34 18 35 19 36
REMARK SMILES IDX 77 37 20 38 76 39 21 40 22 41 23 42 70 43 24 44 75 45 69 46
REMARK SMILES IDX 71 47 25 48 74 49 68 50 67 51 26 53 56 54 37 55 55 56 38 57
REMARK SMILES IDX 41 58 54 59 72 60 39 61 40 62 53 64 73 65 42 66 27 67 28 68
REMARK SMILES IDX 36 69 29 70 35 71 30 72 31 73 32 74 33 75 34 76 57 77 58 78
REMARK SMILES IDX 66 79 59 80 65 81 60 82 61 83 62 84 63 85 64 86 43 87 44 88
REMARK SMILES IDX 52 89 45 90 51 91 46 92 47 93 48 94 49 95 50 96
REMARK H PARENT 8 7 4 15 4 16 15 33 71 52 41 63
REMARK Flexibility Score: inf
ROOT
ATOM      1  C   UNL A   1      35.399  29.355  27.543  1.00  0.00     0.002 C 
ENDROOT
BRANCH   1   2
ATOM      2  C   UNL A   1      34.235  29.043  26.609  1.00  0.00     0.021 C 
BRANCH   2   3
ATOM      3  C   UNL A   1      33.561  27.657  26.523  1.00  0.00     0.116 C 
BRANCH   3   4
ATOM      4  N   UNL A   1      33.759  26.836  25.319  1.00  0.00    -0.351 N 
ATOM      5  C   UNL A   1      33.111  26.578  24.141  1.00  0.00     0.281 C 
ATOM      6  O   UNL A   1      33.872  26.246  23.210  1.00  0.00    -0.268 OA
ATOM      7  H   UNL A   1      34.599  26.324  25.377  1.00  0.00     0.163 HD
BRANCH   5   8
ATOM      8  C   UNL A   1      31.530  26.504  23.863  1.00  0.00     0.177 C 
ATOM      9  C   UNL A   1      30.681  27.120  24.962  1.00  0.00     0.079 C 
ATOM     10  C   UNL A   1      31.042  25.060  23.619  1.00  0.00     0.106 C 
ATOM     11  C   UNL A   1      30.426  26.183  26.149  1.00  0.00     0.009 C 
ATOM     12  C   UNL A   1      31.400  24.085  24.729  1.00  0.00     0.114 C 
ATOM     13  C   UNL A   1      30.656  24.644  25.987  1.00  0.00     0.028 C 
BRANCH   8  14
ATOM     14  N   UNL A   1      31.325  27.214  22.544  1.00  0.00    -0.334 N 
ATOM     15  H   UNL A   1      32.172  27.075  21.993  1.00  0.00     0.347 HD
ATOM     16  H   UNL A   1      30.471  26.801  22.170  1.00  0.00     0.347 HD
BRANCH  14  17
ATOM     17  C   UNL A   1      31.049  28.654  22.556  1.00  0.00     0.261 C 
BRANCH  17  18
ATOM     18  C   UNL A   1      29.557  29.038  22.510  1.00  0.00     0.058 C 
ATOM     19  C   UNL A   1      29.209  30.297  23.298  1.00  0.00     0.010 C 
ENDBRANCH  17  18
ENDBRANCH  14  17
ENDBRANCH   8  14
BRANCH  12  20
ATOM     20  N   UNL A   1      32.815  23.680  24.687  1.00  0.00    -0.266 N 
ATOM     21  N   UNL A   1      33.664  23.850  25.730  1.00  0.00    -0.178 NA
ATOM     22  C   UNL A   1      33.467  23.023  23.643  1.00  0.00     0.039 A 
ATOM     23  C   UNL A   1      34.887  23.614  25.212  1.00  0.00     0.063 A 
ATOM     24  C   UNL A   1      34.817  23.191  23.872  1.00  0.00    -0.007 A 
ATOM     25  C   UNL A   1      32.834  22.374  22.471  1.00  0.00     0.066 C 
ATOM     26  C   UNL A   1      36.156  23.808  25.971  1.00  0.00     0.069 C 
ATOM     27  C   UNL A   1      35.952  22.944  22.949  1.00  0.00     0.048 C 
ENDBRANCH  12  20
ENDBRANCH   5   8
ENDBRANCH   3   4
ENDBRANCH   2   3
ENDBRANCH   1   2
BRANCH   1  28
ATOM     28  C   UNL A   1      35.388  30.685  28.273  1.00  0.00     0.002 C 
BRANCH  28  29
ATOM     29  C   UNL A   1      34.298  31.626  27.774  1.00  0.00     0.021 C 
BRANCH  29  30
ATOM     30  C   UNL A   1      34.662  33.106  27.838  1.00  0.00     0.116 C 
BRANCH  30  31
ATOM     31  N   UNL A   1      33.603  33.950  28.383  1.00  0.00    -0.352 N 
ATOM     32  C   UNL A   1      33.487  34.363  29.689  1.00  0.00     0.251 C 
ATOM     33  H   UNL A   1      32.907  34.252  27.755  1.00  0.00     0.163 HD
ATOM     34  O   UNL A   1      32.537  35.023  30.091  1.00  0.00    -0.269 OA
BRANCH  32  35
ATOM     35  C   UNL A   1      34.574  33.960  30.591  1.00  0.00     0.039 A 
ATOM     36  C   UNL A   1      34.479  32.747  31.274  1.00  0.00     0.014 A 
ATOM     37  C   UNL A   1      35.767  34.687  30.545  1.00  0.00     0.014 A 
ATOM     38  C   UNL A   1      35.615  32.236  31.896  1.00  0.00     0.010 A 
ATOM     39  C   UNL A   1      36.910  34.139  31.106  1.00  0.00     0.010 A 
ATOM     40  C   UNL A   1      36.840  32.917  31.794  1.00  0.00    -0.014 A 
BRANCH  40  41
ATOM     41  C   UNL A   1      38.054  32.399  32.462  1.00  0.00     0.031 A 
ATOM     42  C   UNL A   1      38.988  31.520  31.678  1.00  0.00     0.074 A 
ATOM     43  C   UNL A   1      38.288  32.680  33.758  1.00  0.00     0.049 A 
ATOM     44  N   UNL A   1      40.086  30.929  32.066  1.00  0.00    -0.248 NA
ATOM     45  C   UNL A   1      38.619  31.246  30.277  1.00  0.00     0.031 C 
ATOM     46  C   UNL A   1      37.423  33.486  34.624  1.00  0.00     0.029 A 
ATOM     47  N   UNL A   1      39.330  32.321  34.574  1.00  0.00    -0.354 N 
ATOM     48  C   UNL A   1      40.527  30.205  30.965  1.00  0.00     0.074 A 
ATOM     49  C   UNL A   1      39.545  30.371  29.920  1.00  0.00     0.031 C 
ATOM     50  C   UNL A   1      37.990  33.588  35.840  1.00  0.00     0.029 A 
ATOM     51  C   UNL A   1      39.240  32.837  35.846  1.00  0.00     0.049 A 
ATOM     52  H   UNL A   1      40.073  31.747  34.278  1.00  0.00     0.167 HD
ATOM     53  C   UNL A   1      41.668  29.493  30.825  1.00  0.00     0.031 A 
ATOM     54  C   UNL A   1      40.083  32.721  36.891  1.00  0.00     0.031 A 
ATOM     55  C   UNL A   1      42.649  29.356  31.864  1.00  0.00     0.049 A 
ATOM     56  C   UNL A   1      41.351  31.929  36.708  1.00  0.00     0.074 A 
ATOM     57  C   UNL A   1      43.862  28.693  31.825  1.00  0.00     0.029 A 
ATOM     58  N   UNL A   1      42.531  29.906  33.132  1.00  0.00    -0.354 N 
ATOM     59  N   UNL A   1      41.780  31.294  35.643  1.00  0.00    -0.248 NA
ATOM     60  C   UNL A   1      42.256  31.851  37.863  1.00  0.00     0.031 C 
ATOM     61  C   UNL A   1      44.462  28.814  33.082  1.00  0.00     0.029 A 
ATOM     62  C   UNL A   1      43.644  29.593  33.888  1.00  0.00     0.049 A 
ATOM     63  H   UNL A   1      41.765  30.440  33.446  1.00  0.00     0.167 HD
ATOM     64  C   UNL A   1      43.019  30.766  35.989  1.00  0.00     0.074 A 
ATOM     65  C   UNL A   1      43.275  31.169  37.358  1.00  0.00     0.031 C 
ATOM     66  C   UNL A   1      43.870  30.017  35.246  1.00  0.00     0.031 A 
BRANCH  53  67
ATOM     67  C   UNL A   1      41.908  28.832  29.495  1.00  0.00    -0.014 A 
ATOM     68  C   UNL A   1      42.533  29.531  28.445  1.00  0.00     0.010 A 
ATOM     69  C   UNL A   1      41.508  27.500  29.287  1.00  0.00     0.010 A 
ATOM     70  C   UNL A   1      42.711  28.927  27.198  1.00  0.00     0.020 A 
ATOM     71  C   UNL A   1      41.712  26.882  28.049  1.00  0.00     0.020 A 
ATOM     72  C   UNL A   1      42.295  27.607  27.007  1.00  0.00     0.054 A 
BRANCH  72  73
ATOM     73  S   UNL A   1      42.554  26.842  25.384  1.00  0.00     0.124 S 
ATOM     74  O   UNL A   1      43.827  26.150  25.578  1.00  0.00    -0.237 OA
ATOM     75  O   UNL A   1      41.385  25.979  25.244  1.00  0.00    -0.237 OA
ATOM     76  O   UNL A   1      42.598  27.980  24.468  1.00  0.00    -0.744 OA
ENDBRANCH  72  73
ENDBRANCH  53  67
BRANCH  54  77
ATOM     77  C   UNL A   1      39.780  33.396  38.183  1.00  0.00    -0.014 A 
ATOM     78  C   UNL A   1      38.980  32.760  39.148  1.00  0.00     0.010 A 
ATOM     79  C   UNL A   1      40.284  34.681  38.454  1.00  0.00     0.010 A 
ATOM     80  C   UNL A   1      38.667  33.404  40.349  1.00  0.00     0.020 A 
ATOM     81  C   UNL A   1      39.994  35.319  39.665  1.00  0.00     0.020 A 
ATOM     82  C   UNL A   1      39.175  34.682  40.599  1.00  0.00     0.054 A 
BRANCH  82  83
ATOM     83  S   UNL A   1      38.783  35.488  42.178  1.00  0.00     0.124 S 
ATOM     84  O   UNL A   1      37.363  35.187  42.327  1.00  0.00    -0.237 OA
ATOM     85  O   UNL A   1      39.677  34.806  43.112  1.00  0.00    -0.237 OA
ATOM     86  O   UNL A   1      39.105  36.892  41.932  1.00  0.00    -0.744 OA
ENDBRANCH  82  83
ENDBRANCH  54  77
BRANCH  66  87
ATOM     87  C   UNL A   1      45.171  29.616  35.885  1.00  0.00    -0.014 A 
ATOM     88  C   UNL A   1      45.292  28.401  36.581  1.00  0.00     0.010 A 
ATOM     89  C   UNL A   1      46.301  30.439  35.727  1.00  0.00     0.010 A 
ATOM     90  C   UNL A   1      46.520  28.028  37.133  1.00  0.00     0.020 A 
ATOM     91  C   UNL A   1      47.535  30.056  36.255  1.00  0.00     0.020 A 
ATOM     92  C   UNL A   1      47.633  28.860  36.966  1.00  0.00     0.054 A 
BRANCH  92  93
ATOM     93  S   UNL A   1      49.226  28.329  37.649  1.00  0.00     0.124 S 
ATOM     94  O   UNL A   1      49.160  26.879  37.484  1.00  0.00    -0.237 OA
ATOM     95  O   UNL A   1      50.189  29.015  36.791  1.00  0.00    -0.237 OA
ATOM     96  O   UNL A   1      49.185  28.802  39.031  1.00  0.00    -0.744 OA
ENDBRANCH  92  93
ENDBRANCH  66  87
ENDBRANCH  40  41
ENDBRANCH  32  35
ENDBRANCH  30  31
ENDBRANCH  29  30
ENDBRANCH  28  29
ENDBRANCH   1  28
TORSDOF 20
ENDMDL
MODEL 2
REMARK VINA RESULT:      -9.7      1.024      8.039
REMARK SMILES CCC[NH2+][C@@]1(C(=O)NCCCCCCNC(=O)c2ccc(-c3c4nc(c(-c5ccc(S(=O)(=O)[O-])cc5)c5ccc([nH]5)c(-c5ccc(S(=O)(=O)[O-])cc5)c5nc(c(-c6ccc(S(=O)(=O)[O-])cc6)c6ccc3[nH]6)C=C5)C=C4)cc2)CCC[C@H](n2nc(C)c(C)c2C)C1
REMARK SMILES IDX 11 1 10 2 9 3 8 4 6 5 7 6 5 8 78 9 90 10 79 11 81 12 80 13
REMARK SMILES IDX 4 14 3 17 2 18 1 19 82 20 83 21 88 22 84 23 86 24 89 25
REMARK SMILES IDX 85 26 87 27 12 28 13 29 14 30 15 31 16 32 17 34 18 35 19 36
REMARK SMILES IDX 77 37 20 38 76 39 21 40 22 41 23 42 70 43 24 44 75 45 69 46
REMARK SMILES IDX 71 47 25 48 74 49 68 50 67 51 26 53 56 54 37 55 55 56 38 57
REMARK SMILES IDX 41 58 54 59 72 60 39 61 40 62 53 64 73 65 42 66 27 67 28 68
REMARK SMILES IDX 36 69 29 70 35 71 30 72 31 73 32 74 33 75 34 76 57 77 58 78
REMARK SMILES IDX 66 79 59 80 65 81 60 82 61 83 62 84 63 85 64 86 43 87 44 88
REMARK SMILES IDX 52 89 45 90 51 91 46 92 47 93 48 94 49 95 50 96
REMARK H PARENT 8 7 4 15 4 16 15 33 71 52 41 63
REMARK Flexibility Score: inf
ROOT
ATOM      1  C   UNL A   1      34.012  29.818  27.805  1.00  0.00     0.002 C 
ENDROOT
BRANCH   1   2
ATOM      2  C   UNL A   1      34.186  28.883  26.614  1.00  0.00     0.021 C 
BRANCH   2   3
ATOM      3  C   UNL A   1      33.460  27.526  26.485  1.00  0.00     0.116 C 
BRANCH   3   4
ATOM      4  N   UNL A   1      33.646  26.726  25.264  1.00  0.00    -0.351 N 
ATOM      5  C   UNL A   1      32.972  26.465  24.102  1.00  0.00     0.281 C 
ATOM      6  O   UNL A   1      33.715  26.166  23.145  1.00  0.00    -0.268 OA
ATOM      7  H   UNL A   1      34.501  26.237  25.292  1.00  0.00     0.163 HD
BRANCH   5   8
ATOM      8  C   UNL A   1      31.386  26.351  23.868  1.00  0.00     0.177 C 
ATOM      9  C   UNL A   1      30.552  26.941  24.992  1.00  0.00     0.079 C 
ATOM     10  C   UNL A   1      30.928  24.896  23.631  1.00  0.00     0.106 C 
ATOM     11  C   UNL A   1      30.355  25.995  26.183  1.00  0.00     0.009 C 
ATOM     12  C   UNL A   1      31.343  23.927  24.728  1.00  0.00     0.114 C 
ATOM     13  C   UNL A   1      30.620  24.462  26.008  1.00  0.00     0.028 C 
BRANCH   8  14
ATOM     14  N   UNL A   1      31.126  27.061  22.558  1.00  0.00    -0.334 N 
ATOM     15  H   UNL A   1      31.732  26.632  21.858  1.00  0.00     0.347 HD
ATOM     16  H   UNL A   1      30.122  26.952  22.412  1.00  0.00     0.347 HD
BRANCH  14  17
ATOM     17  C   UNL A   1      31.342  28.509  22.487  1.00  0.00     0.261 C 
BRANCH  17  18
ATOM     18  C   UNL A   1      30.112  29.338  22.069  1.00  0.00     0.058 C 
ATOM     19  C   UNL A   1      29.400  30.031  23.226  1.00  0.00     0.010 C 
ENDBRANCH  17  18
ENDBRANCH  14  17
ENDBRANCH   8  14
BRANCH  12  20
ATOM     20  N   UNL A   1      32.766  23.559  24.643  1.00  0.00    -0.266 N 
ATOM     21  N   UNL A   1      33.629  23.704  25.679  1.00  0.00    -0.178 NA
ATOM     22  C   UNL A   1      33.415  22.965  23.561  1.00  0.00     0.039 A 
ATOM     23  C   UNL A   1      34.847  23.520  25.131  1.00  0.00     0.063 A 
ATOM     24  C   UNL A   1      34.764  23.155  23.775  1.00  0.00    -0.007 A 
ATOM     25  C   UNL A   1      32.777  22.352  22.372  1.00  0.00     0.066 C 
ATOM     26  C   UNL A   1      36.124  23.711  25.878  1.00  0.00     0.069 C 
ATOM     27  C   UNL A   1      35.889  22.977  22.824  1.00  0.00     0.048 C 
ENDBRANCH  12  20
ENDBRANCH   5   8
ENDBRANCH   3   4
ENDBRANCH   2   3
ENDBRANCH   1   2
BRANCH   1  28
ATOM     28  C   UNL A   1      34.414  31.271  27.632  1.00  0.00     0.002 C 
BRANCH  28  29
ATOM     29  C   UNL A   1      33.222  32.221  27.647  1.00  0.00     0.021 C 
BRANCH  29  30
ATOM     30  C   UNL A   1      33.587  33.695  27.494  1.00  0.00     0.116 C 
BRANCH  30  31
ATOM     31  N   UNL A   1      32.997  34.556  28.514  1.00  0.00    -0.352 N 
ATOM     32  C   UNL A   1      33.421  34.678  29.817  1.00  0.00     0.251 C 
ATOM     33  H   UNL A   1      32.222  35.101  28.244  1.00  0.00     0.163 HD
ATOM     34  O   UNL A   1      32.839  35.376  30.637  1.00  0.00    -0.269 OA
BRANCH  32  35
ATOM     35  C   UNL A   1      34.620  33.909  30.178  1.00  0.00     0.039 A 
ATOM     36  C   UNL A   1      35.875  34.393  29.811  1.00  0.00     0.014 A 
ATOM     37  C   UNL A   1      34.473  32.853  31.081  1.00  0.00     0.014 A 
ATOM     38  C   UNL A   1      37.008  33.827  30.390  1.00  0.00     0.010 A 
ATOM     39  C   UNL A   1      35.600  32.342  31.706  1.00  0.00     0.010 A 
ATOM     40  C   UNL A   1      36.874  32.816  31.356  1.00  0.00    -0.014 A 
BRANCH  40  41
ATOM     41  C   UNL A   1      38.066  32.190  31.970  1.00  0.00     0.031 A 
ATOM     42  C   UNL A   1      38.513  32.667  33.323  1.00  0.00     0.074 A 
ATOM     43  C   UNL A   1      38.754  31.243  31.305  1.00  0.00     0.049 A 
ATOM     44  N   UNL A   1      39.543  32.290  34.032  1.00  0.00    -0.248 NA
ATOM     45  C   UNL A   1      37.711  33.734  33.948  1.00  0.00     0.031 C 
ATOM     46  C   UNL A   1      38.432  30.739  29.966  1.00  0.00     0.029 A 
ATOM     47  N   UNL A   1      39.867  30.529  31.667  1.00  0.00    -0.354 N 
ATOM     48  C   UNL A   1      39.517  33.081  35.174  1.00  0.00     0.074 A 
ATOM     49  C   UNL A   1      38.418  34.006  35.033  1.00  0.00     0.031 C 
ATOM     50  C   UNL A   1      39.308  29.773  29.638  1.00  0.00     0.029 A 
ATOM     51  C   UNL A   1      40.264  29.608  30.727  1.00  0.00     0.049 A 
ATOM     52  H   UNL A   1      40.338  30.664  32.521  1.00  0.00     0.167 HD
ATOM     53  C   UNL A   1      40.319  33.019  36.263  1.00  0.00     0.031 A 
ATOM     54  C   UNL A   1      41.282  28.725  30.753  1.00  0.00     0.031 A 
ATOM     55  C   UNL A   1      41.394  32.079  36.403  1.00  0.00     0.049 A 
ATOM     56  C   UNL A   1      42.155  28.669  31.979  1.00  0.00     0.074 A 
ATOM     57  C   UNL A   1      42.247  31.895  37.475  1.00  0.00     0.029 A 
ATOM     58  N   UNL A   1      41.755  31.151  35.436  1.00  0.00    -0.354 N 
ATOM     59  N   UNL A   1      42.085  29.388  33.074  1.00  0.00    -0.248 NA
ATOM     60  C   UNL A   1      43.235  27.672  31.978  1.00  0.00     0.031 C 
ATOM     61  C   UNL A   1      43.147  30.878  37.143  1.00  0.00     0.029 A 
ATOM     62  C   UNL A   1      42.823  30.396  35.882  1.00  0.00     0.049 A 
ATOM     63  H   UNL A   1      41.315  31.047  34.561  1.00  0.00     0.167 HD
ATOM     64  C   UNL A   1      43.092  28.912  33.906  1.00  0.00     0.074 A 
ATOM     65  C   UNL A   1      43.746  27.834  33.192  1.00  0.00     0.031 C 
ATOM     66  C   UNL A   1      43.445  29.324  35.148  1.00  0.00     0.031 A 
BRANCH  53  67
ATOM     67  C   UNL A   1      40.038  33.987  37.379  1.00  0.00    -0.014 A 
ATOM     68  C   UNL A   1      39.154  33.649  38.422  1.00  0.00     0.010 A 
ATOM     69  C   UNL A   1      40.662  35.247  37.394  1.00  0.00     0.010 A 
ATOM     70  C   UNL A   1      38.862  34.569  39.430  1.00  0.00     0.020 A 
ATOM     71  C   UNL A   1      40.395  36.160  38.419  1.00  0.00     0.020 A 
ATOM     72  C   UNL A   1      39.481  35.822  39.420  1.00  0.00     0.054 A 
BRANCH  72  73
ATOM     73  S   UNL A   1      39.098  36.990  40.752  1.00  0.00     0.124 S 
ATOM     74  O   UNL A   1      38.446  36.125  41.733  1.00  0.00    -0.237 OA
ATOM     75  O   UNL A   1      40.417  37.488  41.133  1.00  0.00    -0.237 OA
ATOM     76  O   UNL A   1      38.226  37.973  40.112  1.00  0.00    -0.744 OA
ENDBRANCH  72  73
ENDBRANCH  53  67
BRANCH  54  77
ATOM     77  C   UNL A   1      41.507  27.799  29.609  1.00  0.00    -0.014 A 
ATOM     78  C   UNL A   1      40.536  26.840  29.268  1.00  0.00     0.010 A 
ATOM     79  C   UNL A   1      42.693  27.866  28.856  1.00  0.00     0.010 A 
ATOM     80  C   UNL A   1      40.758  25.948  28.214  1.00  0.00     0.020 A 
ATOM     81  C   UNL A   1      42.907  26.991  27.785  1.00  0.00     0.020 A 
ATOM     82  C   UNL A   1      41.944  26.028  27.480  1.00  0.00     0.054 A 
BRANCH  82  83
ATOM     83  S   UNL A   1      42.198  24.882  26.095  1.00  0.00     0.124 S 
ATOM     84  O   UNL A   1      41.483  23.693  26.551  1.00  0.00    -0.237 OA
ATOM     85  O   UNL A   1      41.589  25.597  24.976  1.00  0.00    -0.237 OA
ATOM     86  O   UNL A   1      43.651  24.751  26.024  1.00  0.00    -0.744 OA
ENDBRANCH  82  83
ENDBRANCH  54  77
BRANCH  66  87
ATOM     87  C   UNL A   1      44.566  28.586  35.826  1.00  0.00    -0.014 A 
ATOM     88  C   UNL A   1      44.312  27.455  36.622  1.00  0.00     0.010 A 
ATOM     89  C   UNL A   1      45.894  28.993  35.607  1.00  0.00     0.010 A 
ATOM     90  C   UNL A   1      45.370  26.759  37.211  1.00  0.00     0.020 A 
ATOM     91  C   UNL A   1      46.955  28.284  36.173  1.00  0.00     0.020 A 
ATOM     92  C   UNL A   1      46.684  27.179  36.981  1.00  0.00     0.054 A 
BRANCH  92  93
ATOM     93  S   UNL A   1      48.043  26.229  37.716  1.00  0.00     0.124 S 
ATOM     94  O   UNL A   1      47.574  26.038  39.086  1.00  0.00    -0.237 OA
ATOM     95  O   UNL A   1      48.077  25.025  36.890  1.00  0.00    -0.237 OA
ATOM     96  O   UNL A   1      49.199  27.110  37.570  1.00  0.00    -0.744 OA
ENDBRANCH  92  93
ENDBRANCH  66  87
ENDBRANCH  40  41
ENDBRANCH  32  35
ENDBRANCH  30  31
ENDBRANCH  29  30
ENDBRANCH  28  29
ENDBRANCH   1  28
TORSDOF 20
ENDMDL
MODEL 3
REMARK VINA RESULT:      -9.7      2.610      8.978
REMARK SMILES CCC[NH2+][C@@]1(C(=O)NCCCCCCNC(=O)c2ccc(-c3c4nc(c(-c5ccc(S(=O)(=O)[O-])cc5)c5ccc([nH]5)c(-c5ccc(S(=O)(=O)[O-])cc5)c5nc(c(-c6ccc(S(=O)(=O)[O-])cc6)c6ccc3[nH]6)C=C5)C=C4)cc2)CCC[C@H](n2nc(C)c(C)c2C)C1
REMARK SMILES IDX 11 1 10 2 9 3 8 4 6 5 7 6 5 8 78 9 90 10 79 11 81 12 80 13
REMARK SMILES IDX 4 14 3 17 2 18 1 19 82 20 83 21 88 22 84 23 86 24 89 25
REMARK SMILES IDX 85 26 87 27 12 28 13 29 14 30 15 31 16 32 17 34 18 35 19 36
REMARK SMILES IDX 77 37 20 38 76 39 21 40 22 41 23 42 70 43 24 44 75 45 69 46
REMARK SMILES IDX 71 47 25 48 74 49 68 50 67 51 26 53 56 54 37 55 55 56 38 57
REMARK SMILES IDX 41 58 54 59 72 60 39 61 40 62 53 64 73 65 42 66 27 67 28 68
REMARK SMILES IDX 36 69 29 70 35 71 30 72 31 73 32 74 33 75 34 76 57 77 58 78
REMARK SMILES IDX 66 79 59 80 65 81 60 82 61 83 62 84 63 85 64 86 43 87 44 88
REMARK SMILES IDX 52 89 45 90 51 91 46 92 47 93 48 94 49 95 50 96
REMARK H PARENT 8 7 4 15 4 16 15 33 71 52 41 63
REMARK Flexibility Score: inf
ROOT
ATOM      1  C   UNL A   1      33.957  27.411  24.283  1.00  0.00     0.002 C 
ENDROOT
BRANCH   1   2
ATOM      2  C   UNL A   1      33.473  26.534  25.432  1.00  0.00     0.021 C 
BRANCH   2   3
ATOM      3  C   UNL A   1      34.099  25.167  25.781  1.00  0.00     0.116 C 
BRANCH   3   4
ATOM      4  N   UNL A   1      34.425  24.229  24.695  1.00  0.00    -0.351 N 
ATOM      5  C   UNL A   1      34.431  22.876  24.482  1.00  0.00     0.281 C 
ATOM      6  O   UNL A   1      34.267  22.554  23.288  1.00  0.00    -0.268 OA
ATOM      7  H   UNL A   1      34.724  24.712  23.891  1.00  0.00     0.163 HD
BRANCH   5   8
ATOM      8  C   UNL A   1      34.767  21.700  25.524  1.00  0.00     0.177 C 
ATOM      9  C   UNL A   1      35.216  20.405  24.870  1.00  0.00     0.079 C 
ATOM     10  C   UNL A   1      33.582  21.388  26.463  1.00  0.00     0.106 C 
ATOM     11  C   UNL A   1      34.061  19.522  24.382  1.00  0.00     0.009 C 
ATOM     12  C   UNL A   1      32.284  21.060  25.741  1.00  0.00     0.114 C 
ATOM     13  C   UNL A   1      32.614  19.765  24.927  1.00  0.00     0.028 C 
BRANCH   8  14
ATOM     14  N   UNL A   1      35.842  22.264  26.426  1.00  0.00    -0.334 N 
ATOM     15  H   UNL A   1      35.523  23.182  26.736  1.00  0.00     0.347 HD
ATOM     16  H   UNL A   1      35.953  21.556  27.152  1.00  0.00     0.347 HD
BRANCH  14  17
ATOM     17  C   UNL A   1      37.194  22.437  25.886  1.00  0.00     0.261 C 
BRANCH  17  18
ATOM     18  C   UNL A   1      37.739  23.878  25.925  1.00  0.00     0.058 C 
ATOM     19  C   UNL A   1      38.757  24.134  27.031  1.00  0.00     0.010 C 
ENDBRANCH  17  18
ENDBRANCH  14  17
ENDBRANCH   8  14
BRANCH  12  20
ATOM     20  N   UNL A   1      31.623  22.260  25.202  1.00  0.00    -0.266 N 
ATOM     21  N   UNL A   1      31.700  22.624  23.899  1.00  0.00    -0.178 NA
ATOM     22  C   UNL A   1      30.789  23.139  25.895  1.00  0.00     0.039 A 
ATOM     23  C   UNL A   1      31.208  23.879  23.869  1.00  0.00     0.063 A 
ATOM     24  C   UNL A   1      30.719  24.282  25.125  1.00  0.00    -0.007 A 
ATOM     25  C   UNL A   1      30.193  22.927  27.235  1.00  0.00     0.066 C 
ATOM     26  C   UNL A   1      31.213  24.738  22.649  1.00  0.00     0.069 C 
ATOM     27  C   UNL A   1      30.206  25.622  25.500  1.00  0.00     0.048 C 
ENDBRANCH  12  20
ENDBRANCH   5   8
ENDBRANCH   3   4
ENDBRANCH   2   3
ENDBRANCH   1   2
BRANCH   1  28
ATOM     28  C   UNL A   1      33.611  28.888  24.321  1.00  0.00     0.002 C 
BRANCH  28  29
ATOM     29  C   UNL A   1      33.025  29.325  25.659  1.00  0.00     0.021 C 
BRANCH  29  30
ATOM     30  C   UNL A   1      34.058  29.802  26.676  1.00  0.00     0.116 C 
BRANCH  30  31
ATOM     31  N   UNL A   1      33.671  31.020  27.380  1.00  0.00    -0.352 N 
ATOM     32  C   UNL A   1      34.387  31.643  28.376  1.00  0.00     0.251 C 
ATOM     33  H   UNL A   1      32.817  31.435  27.118  1.00  0.00     0.163 HD
ATOM     34  O   UNL A   1      33.972  32.632  28.967  1.00  0.00    -0.269 OA
BRANCH  32  35
ATOM     35  C   UNL A   1      35.689  31.047  28.701  1.00  0.00     0.039 A 
ATOM     36  C   UNL A   1      36.856  31.692  28.291  1.00  0.00     0.014 A 
ATOM     37  C   UNL A   1      35.715  29.988  29.614  1.00  0.00     0.014 A 
ATOM     38  C   UNL A   1      38.073  31.290  28.836  1.00  0.00     0.010 A 
ATOM     39  C   UNL A   1      36.920  29.639  30.204  1.00  0.00     0.010 A 
ATOM     40  C   UNL A   1      38.107  30.278  29.811  1.00  0.00    -0.014 A 
BRANCH  40  41
ATOM     41  C   UNL A   1      39.391  29.824  30.388  1.00  0.00     0.031 A 
ATOM     42  C   UNL A   1      39.926  30.533  31.601  1.00  0.00     0.074 A 
ATOM     43  C   UNL A   1      40.081  28.823  29.808  1.00  0.00     0.049 A 
ATOM     44  N   UNL A   1      41.041  30.331  32.251  1.00  0.00    -0.248 NA
ATOM     45  C   UNL A   1      39.111  31.639  32.135  1.00  0.00     0.031 C 
ATOM     46  C   UNL A   1      39.674  28.098  28.601  1.00  0.00     0.029 A 
ATOM     47  N   UNL A   1      41.270  28.239  30.159  1.00  0.00    -0.354 N 
ATOM     48  C   UNL A   1      41.064  31.289  33.256  1.00  0.00     0.074 A 
ATOM     49  C   UNL A   1      39.894  32.117  33.088  1.00  0.00     0.031 C 
ATOM     50  C   UNL A   1      40.582  27.142  28.335  1.00  0.00     0.029 A 
ATOM     51  C   UNL A   1      41.644  27.204  29.334  1.00  0.00     0.049 A 
ATOM     52  H   UNL A   1      41.807  28.533  30.930  1.00  0.00     0.167 HD
ATOM     53  C   UNL A   1      41.964  31.445  34.254  1.00  0.00     0.031 A 
ATOM     54  C   UNL A   1      42.719  26.394  29.391  1.00  0.00     0.031 A 
ATOM     55  C   UNL A   1      43.111  30.599  34.425  1.00  0.00     0.049 A 
ATOM     56  C   UNL A   1      43.703  26.582  30.515  1.00  0.00     0.074 A 
ATOM     57  C   UNL A   1      44.070  30.635  35.420  1.00  0.00     0.029 A 
ATOM     58  N   UNL A   1      43.447  29.552  33.579  1.00  0.00    -0.354 N 
ATOM     59  N   UNL A   1      43.683  27.460  31.490  1.00  0.00    -0.248 NA
ATOM     60  C   UNL A   1      44.846  25.659  30.557  1.00  0.00     0.031 C 
ATOM     61  C   UNL A   1      45.005  29.629  35.157  1.00  0.00     0.029 A 
ATOM     62  C   UNL A   1      44.602  28.937  34.024  1.00  0.00     0.049 A 
ATOM     63  H   UNL A   1      42.937  29.286  32.779  1.00  0.00     0.167 HD
ATOM     64  C   UNL A   1      44.793  27.177  32.278  1.00  0.00     0.074 A 
ATOM     65  C   UNL A   1      45.454  26.038  31.673  1.00  0.00     0.031 C 
ATOM     66  C   UNL A   1      45.229  27.799  33.401  1.00  0.00     0.031 A 
BRANCH  53  67
ATOM     67  C   UNL A   1      41.719  32.559  35.233  1.00  0.00    -0.014 A 
ATOM     68  C   UNL A   1      40.652  32.493  36.150  1.00  0.00     0.010 A 
ATOM     69  C   UNL A   1      42.561  33.685  35.245  1.00  0.00     0.010 A 
ATOM     70  C   UNL A   1      40.403  33.552  37.025  1.00  0.00     0.020 A 
ATOM     71  C   UNL A   1      42.332  34.735  36.140  1.00  0.00     0.020 A 
ATOM     72  C   UNL A   1      41.242  34.669  37.012  1.00  0.00     0.054 A 
BRANCH  72  73
ATOM     73  S   UNL A   1      40.905  36.021  38.172  1.00  0.00     0.124 S 
ATOM     74  O   UNL A   1      42.197  36.703  38.223  1.00  0.00    -0.237 OA
ATOM     75  O   UNL A   1      39.834  36.756  37.506  1.00  0.00    -0.237 OA
ATOM     76  O   UNL A   1      40.515  35.334  39.401  1.00  0.00    -0.744 OA
ENDBRANCH  72  73
ENDBRANCH  53  67
BRANCH  54  77
ATOM     77  C   UNL A   1      42.903  25.313  28.383  1.00  0.00    -0.014 A 
ATOM     78  C   UNL A   1      42.306  24.054  28.573  1.00  0.00     0.010 A 
ATOM     79  C   UNL A   1      43.679  25.533  27.230  1.00  0.00     0.010 A 
ATOM     80  C   UNL A   1      42.503  23.027  27.645  1.00  0.00     0.020 A 
ATOM     81  C   UNL A   1      43.858  24.515  26.287  1.00  0.00     0.020 A 
ATOM     82  C   UNL A   1      43.280  23.264  26.508  1.00  0.00     0.054 A 
BRANCH  82  83
ATOM     83  S   UNL A   1      43.496  21.927  25.300  1.00  0.00     0.124 S 
ATOM     84  O   UNL A   1      42.368  21.054  25.608  1.00  0.00    -0.237 OA
ATOM     85  O   UNL A   1      43.419  22.636  24.024  1.00  0.00    -0.237 OA
ATOM     86  O   UNL A   1      44.815  21.386  25.623  1.00  0.00    -0.744 OA
ENDBRANCH  82  83
ENDBRANCH  54  77
BRANCH  66  87
ATOM     87  C   UNL A   1      46.456  27.240  34.066  1.00  0.00    -0.014 A 
ATOM     88  C   UNL A   1      46.358  26.223  35.030  1.00  0.00     0.010 A 
ATOM     89  C   UNL A   1      47.726  27.697  33.668  1.00  0.00     0.010 A 
ATOM     90  C   UNL A   1      47.513  25.689  35.608  1.00  0.00     0.020 A 
ATOM     91  C   UNL A   1      48.882  27.147  34.224  1.00  0.00     0.020 A 
ATOM     92  C   UNL A   1      48.767  26.156  35.199  1.00  0.00     0.054 A 
BRANCH  92  93
ATOM     93  S   UNL A   1      50.251  25.412  35.927  1.00  0.00     0.124 S 
ATOM     94  O   UNL A   1      49.944  23.986  35.852  1.00  0.00    -0.237 OA
ATOM     95  O   UNL A   1      51.313  25.872  35.035  1.00  0.00    -0.237 OA
ATOM     96  O   UNL A   1      50.293  25.971  37.276  1.00  0.00    -0.744 OA
ENDBRANCH  92  93
ENDBRANCH  66  87
ENDBRANCH  40  41
ENDBRANCH  32  35
ENDBRANCH  30  31
ENDBRANCH  29  30
ENDBRANCH  28  29
ENDBRANCH   1  28
TORSDOF 20
ENDMDL
