MODEL 1
REMARK VINA RESULT:     -10.2      0.000      0.000
REMARK SMILES COc1ccc(C(=O)NCCCCCCNC(=O)c2ccc(-c3c4nc(c(-c5ccc(S(=O)(=O)[O-])cc5)c5ccc([nH]5)c(-c5ccc(S(=O)(=O)[O-])cc5)c5nc(c(-c6ccc(S(=O)(=O)[O-])cc6)c6ccc3[nH]6)C=C5)C=C4)cc2)cc1C(F)(F)F
REMARK SMILES IDX 13 1 12 2 11 3 10 4 9 5 7 6 8 7 6 9 3 10 4 11 80 12 5 13
REMARK SMILES IDX 79 14 2 15 1 16 81 17 82 18 83 19 84 20 14 21 15 22 16 23
REMARK SMILES IDX 17 24 18 26 19 27 20 28 78 29 21 30 77 31 22 32 23 33 24 34
REMARK SMILES IDX 71 35 25 36 76 37 70 38 72 39 26 40 75 41 69 42 68 43 27 45
REMARK SMILES IDX 57 46 38 47 56 48 39 49 42 50 55 51 73 52 40 53 41 54 54 56
REMARK SMILES IDX 74 57 43 58 28 59 29 60 37 61 30 62 36 63 31 64 32 65 33 66
REMARK SMILES IDX 34 67 35 68 58 69 59 70 67 71 60 72 66 73 61 74 62 75 63 76
REMARK SMILES IDX 64 77 65 78 44 79 45 80 53 81 46 82 52 83 47 84 48 85 49 86
REMARK SMILES IDX 50 87 51 88
REMARK H PARENT 9 8 16 25 72 44 42 55
REMARK Flexibility Score: inf
ROOT
ATOM      1  C   UNL A   1      31.646  27.928  26.395  1.00  0.00     0.002 C 
ENDROOT
BRANCH   1   2
ATOM      2  C   UNL A   1      30.896  27.616  25.094  1.00  0.00     0.002 C 
BRANCH   2   3
ATOM      3  C   UNL A   1      31.489  28.269  23.838  1.00  0.00     0.021 C 
BRANCH   3   4
ATOM      4  C   UNL A   1      30.778  27.846  22.550  1.00  0.00     0.116 C 
BRANCH   4   5
ATOM      5  N   UNL A   1      31.729  27.242  21.634  1.00  0.00    -0.352 N 
ATOM      6  C   UNL A   1      32.453  26.079  21.682  1.00  0.00     0.251 C 
ATOM      7  O   UNL A   1      33.186  25.818  20.728  1.00  0.00    -0.269 OA
ATOM      8  H   UNL A   1      31.883  27.771  20.818  1.00  0.00     0.163 HD
BRANCH   6   9
ATOM      9  C   UNL A   1      32.338  25.094  22.795  1.00  0.00     0.040 A 
ATOM     10  C   UNL A   1      31.909  23.323  24.929  1.00  0.00     0.131 A 
ATOM     11  C   UNL A   1      30.889  23.568  24.008  1.00  0.00     0.048 A 
ATOM     12  C   UNL A   1      33.174  23.891  24.759  1.00  0.00     0.098 A 
ATOM     13  C   UNL A   1      31.098  24.465  22.959  1.00  0.00     0.017 A 
ATOM     14  C   UNL A   1      33.382  24.751  23.660  1.00  0.00     0.030 A 
BRANCH  10  15
ATOM     15  O   UNL A   1      31.653  22.433  25.933  1.00  0.00    -0.496 OA
ATOM     16  C   UNL A   1      30.731  22.976  26.880  1.00  0.00     0.278 C 
ENDBRANCH  10  15
BRANCH  12  17
ATOM     17  C   UNL A   1      34.284  23.694  25.759  1.00  0.00     0.419 C 
ATOM     18  F   UNL A   1      34.772  22.419  25.757  1.00  0.00    -0.166 F 
ATOM     19  F   UNL A   1      35.355  24.490  25.474  1.00  0.00    -0.166 F 
ATOM     20  F   UNL A   1      33.950  23.958  27.049  1.00  0.00    -0.166 F 
ENDBRANCH  12  17
ENDBRANCH   6   9
ENDBRANCH   4   5
ENDBRANCH   3   4
ENDBRANCH   2   3
ENDBRANCH   1   2
BRANCH   1  21
ATOM     21  C   UNL A   1      33.054  27.332  26.488  1.00  0.00     0.021 C 
BRANCH  21  22
ATOM     22  C   UNL A   1      34.178  28.340  26.273  1.00  0.00     0.116 C 
BRANCH  22  23
ATOM     23  N   UNL A   1      33.872  29.622  26.888  1.00  0.00    -0.352 N 
ATOM     24  C   UNL A   1      34.591  30.331  27.816  1.00  0.00     0.251 C 
ATOM     25  H   UNL A   1      33.028  30.038  26.598  1.00  0.00     0.163 HD
ATOM     26  O   UNL A   1      34.070  31.277  28.398  1.00  0.00    -0.269 OA
BRANCH  24  27
ATOM     27  C   UNL A   1      35.989  29.951  28.115  1.00  0.00     0.039 A 
ATOM     28  C   UNL A   1      36.296  29.444  29.380  1.00  0.00     0.014 A 
ATOM     29  C   UNL A   1      37.000  30.130  27.165  1.00  0.00     0.014 A 
ATOM     30  C   UNL A   1      37.613  29.088  29.682  1.00  0.00     0.010 A 
ATOM     31  C   UNL A   1      38.296  29.706  27.443  1.00  0.00     0.010 A 
ATOM     32  C   UNL A   1      38.620  29.202  28.711  1.00  0.00    -0.014 A 
BRANCH  32  33
ATOM     33  C   UNL A   1      40.028  28.845  29.018  1.00  0.00     0.031 A 
ATOM     34  C   UNL A   1      40.923  29.842  29.705  1.00  0.00     0.074 A 
ATOM     35  C   UNL A   1      40.511  27.645  28.646  1.00  0.00     0.049 A 
ATOM     36  N   UNL A   1      42.183  29.729  30.037  1.00  0.00    -0.248 NA
ATOM     37  C   UNL A   1      40.328  31.145  30.041  1.00  0.00     0.031 C 
ATOM     38  C   UNL A   1      39.753  26.603  27.950  1.00  0.00     0.029 A 
ATOM     39  N   UNL A   1      41.760  27.097  28.805  1.00  0.00    -0.354 N 
ATOM     40  C   UNL A   1      42.536  30.950  30.602  1.00  0.00     0.074 A 
ATOM     41  C   UNL A   1      41.374  31.806  30.515  1.00  0.00     0.031 C 
ATOM     42  C   UNL A   1      40.540  25.527  27.780  1.00  0.00     0.029 A 
ATOM     43  C   UNL A   1      41.865  25.815  28.319  1.00  0.00     0.049 A 
ATOM     44  H   UNL A   1      42.509  27.576  29.228  1.00  0.00     0.167 HD
ATOM     45  C   UNL A   1      43.713  31.320  31.164  1.00  0.00     0.031 A 
ATOM     46  C   UNL A   1      42.910  24.965  28.317  1.00  0.00     0.031 A 
ATOM     47  C   UNL A   1      44.864  30.463  31.254  1.00  0.00     0.049 A 
ATOM     48  C   UNL A   1      44.211  25.401  28.932  1.00  0.00     0.074 A 
ATOM     49  C   UNL A   1      46.090  30.724  31.841  1.00  0.00     0.029 A 
ATOM     50  N   UNL A   1      44.932  29.176  30.743  1.00  0.00    -0.354 N 
ATOM     51  N   UNL A   1      44.510  26.541  29.508  1.00  0.00    -0.248 NA
ATOM     52  C   UNL A   1      45.311  24.427  28.909  1.00  0.00     0.031 C 
ATOM     53  C   UNL A   1      46.914  29.610  31.646  1.00  0.00     0.029 A 
ATOM     54  C   UNL A   1      46.183  28.635  30.986  1.00  0.00     0.049 A 
ATOM     55  H   UNL A   1      44.198  28.715  30.277  1.00  0.00     0.167 HD
ATOM     56  C   UNL A   1      45.822  26.409  29.948  1.00  0.00     0.074 A 
ATOM     57  C   UNL A   1      46.255  25.076  29.577  1.00  0.00     0.031 C 
ATOM     58  C   UNL A   1      46.597  27.306  30.608  1.00  0.00     0.031 A 
BRANCH  45  59
ATOM     59  C   UNL A   1      43.802  32.723  31.708  1.00  0.00    -0.014 A 
ATOM     60  C   UNL A   1      43.473  33.006  33.047  1.00  0.00     0.010 A 
ATOM     61  C   UNL A   1      44.212  33.775  30.869  1.00  0.00     0.010 A 
ATOM     62  C   UNL A   1      43.485  34.322  33.517  1.00  0.00     0.020 A 
ATOM     63  C   UNL A   1      44.257  35.090  31.346  1.00  0.00     0.020 A 
ATOM     64  C   UNL A   1      43.866  35.357  32.659  1.00  0.00     0.054 A 
BRANCH  64  65
ATOM     65  S   UNL A   1      43.854  37.059  33.287  1.00  0.00     0.124 S 
ATOM     66  O   UNL A   1      42.608  37.087  34.052  1.00  0.00    -0.237 OA
ATOM     67  O   UNL A   1      45.079  37.119  34.080  1.00  0.00    -0.237 OA
ATOM     68  O   UNL A   1      43.858  37.875  32.076  1.00  0.00    -0.744 OA
ENDBRANCH  64  65
ENDBRANCH  45  59
BRANCH  46  69
ATOM     69  C   UNL A   1      42.749  23.595  27.757  1.00  0.00    -0.014 A 
ATOM     70  C   UNL A   1      42.288  22.549  28.575  1.00  0.00     0.010 A 
ATOM     71  C   UNL A   1      43.031  23.334  26.403  1.00  0.00     0.010 A 
ATOM     72  C   UNL A   1      42.123  21.263  28.054  1.00  0.00     0.020 A 
ATOM     73  C   UNL A   1      42.842  22.054  25.874  1.00  0.00     0.020 A 
ATOM     74  C   UNL A   1      42.398  21.024  26.705  1.00  0.00     0.054 A 
BRANCH  74  75
ATOM     75  S   UNL A   1      42.118  19.360  26.038  1.00  0.00     0.124 S 
ATOM     76  O   UNL A   1      42.598  18.512  27.124  1.00  0.00    -0.237 OA
ATOM     77  O   UNL A   1      40.674  19.348  25.816  1.00  0.00    -0.237 OA
ATOM     78  O   UNL A   1      42.927  19.340  24.821  1.00  0.00    -0.744 OA
ENDBRANCH  74  75
ENDBRANCH  46  69
BRANCH  58  79
ATOM     79  C   UNL A   1      47.977  26.861  31.012  1.00  0.00    -0.014 A 
ATOM     80  C   UNL A   1      49.091  27.088  30.186  1.00  0.00     0.010 A 
ATOM     81  C   UNL A   1      48.163  26.240  32.261  1.00  0.00     0.010 A 
ATOM     82  C   UNL A   1      50.364  26.670  30.587  1.00  0.00     0.020 A 
ATOM     83  C   UNL A   1      49.436  25.845  32.677  1.00  0.00     0.020 A 
ATOM     84  C   UNL A   1      50.527  26.048  31.829  1.00  0.00     0.054 A 
BRANCH  84  85
ATOM     85  S   UNL A   1      52.192  25.544  32.344  1.00  0.00     0.124 S 
ATOM     86  O   UNL A   1      52.391  26.343  33.550  1.00  0.00    -0.237 OA
ATOM     87  O   UNL A   1      52.040  24.107  32.560  1.00  0.00    -0.237 OA
ATOM     88  O   UNL A   1      53.032  25.911  31.206  1.00  0.00    -0.744 OA
ENDBRANCH  84  85
ENDBRANCH  58  79
ENDBRANCH  32  33
ENDBRANCH  24  27
ENDBRANCH  22  23
ENDBRANCH  21  22
ENDBRANCH   1  21
TORSDOF 18
ENDMDL
MODEL 2
REMARK VINA RESULT:     -10.0      3.107      9.396
REMARK SMILES COc1ccc(C(=O)NCCCCCCNC(=O)c2ccc(-c3c4nc(c(-c5ccc(S(=O)(=O)[O-])cc5)c5ccc([nH]5)c(-c5ccc(S(=O)(=O)[O-])cc5)c5nc(c(-c6ccc(S(=O)(=O)[O-])cc6)c6ccc3[nH]6)C=C5)C=C4)cc2)cc1C(F)(F)F
REMARK SMILES IDX 13 1 12 2 11 3 10 4 9 5 7 6 8 7 6 9 3 10 4 11 80 12 5 13
REMARK SMILES IDX 79 14 2 15 1 16 81 17 82 18 83 19 84 20 14 21 15 22 16 23
REMARK SMILES IDX 17 24 18 26 19 27 20 28 78 29 21 30 77 31 22 32 23 33 24 34
REMARK SMILES IDX 71 35 25 36 76 37 70 38 72 39 26 40 75 41 69 42 68 43 27 45
REMARK SMILES IDX 57 46 38 47 56 48 39 49 42 50 55 51 73 52 40 53 41 54 54 56
REMARK SMILES IDX 74 57 43 58 28 59 29 60 37 61 30 62 36 63 31 64 32 65 33 66
REMARK SMILES IDX 34 67 35 68 58 69 59 70 67 71 60 72 66 73 61 74 62 75 63 76
REMARK SMILES IDX 64 77 65 78 44 79 45 80 53 81 46 82 52 83 47 84 48 85 49 86
REMARK SMILES IDX 50 87 51 88
REMARK H PARENT 9 8 16 25 72 44 42 55
REMARK Flexibility Score: inf
ROOT
ATOM      1  C   UNL A   1      35.101  21.789  26.502  1.00  0.00     0.002 C 
ENDROOT
BRANCH   1   2
ATOM      2  C   UNL A   1      33.667  21.263  26.362  1.00  0.00     0.002 C 
BRANCH   2   3
ATOM      3  C   UNL A   1      33.155  21.170  24.919  1.00  0.00     0.021 C 
BRANCH   3   4
ATOM      4  C   UNL A   1      32.169  22.284  24.559  1.00  0.00     0.116 C 
BRANCH   4   5
ATOM      5  N   UNL A   1      31.314  22.576  25.696  1.00  0.00    -0.352 N 
ATOM      6  C   UNL A   1      30.872  23.749  26.248  1.00  0.00     0.251 C 
ATOM      7  O   UNL A   1      30.128  23.681  27.226  1.00  0.00    -0.269 OA
ATOM      8  H   UNL A   1      30.987  21.772  26.161  1.00  0.00     0.163 HD
BRANCH   6   9
ATOM      9  C   UNL A   1      31.194  25.089  25.678  1.00  0.00     0.040 A 
ATOM     10  C   UNL A   1      31.877  27.671  24.816  1.00  0.00     0.131 A 
ATOM     11  C   UNL A   1      32.732  26.968  25.666  1.00  0.00     0.048 A 
ATOM     12  C   UNL A   1      30.713  27.074  24.324  1.00  0.00     0.098 A 
ATOM     13  C   UNL A   1      32.381  25.692  26.110  1.00  0.00     0.017 A 
ATOM     14  C   UNL A   1      30.405  25.761  24.739  1.00  0.00     0.030 A 
BRANCH  10  15
ATOM     15  O   UNL A   1      32.272  28.914  24.409  1.00  0.00    -0.496 OA
ATOM     16  C   UNL A   1      33.423  28.838  23.566  1.00  0.00     0.278 C 
ENDBRANCH  10  15
BRANCH  12  17
ATOM     17  C   UNL A   1      29.738  27.816  23.449  1.00  0.00     0.419 C 
ATOM     18  F   UNL A   1      30.097  27.802  22.132  1.00  0.00    -0.166 F 
ATOM     19  F   UNL A   1      28.500  27.245  23.490  1.00  0.00    -0.166 F 
ATOM     20  F   UNL A   1      29.560  29.125  23.768  1.00  0.00    -0.166 F 
ENDBRANCH  12  17
ENDBRANCH   6   9
ENDBRANCH   4   5
ENDBRANCH   3   4
ENDBRANCH   2   3
ENDBRANCH   1   2
BRANCH   1  21
ATOM     21  C   UNL A   1      35.248  23.309  26.377  1.00  0.00     0.021 C 
BRANCH  21  22
ATOM     22  C   UNL A   1      36.564  23.765  25.757  1.00  0.00     0.116 C 
BRANCH  22  23
ATOM     23  N   UNL A   1      37.613  22.774  25.943  1.00  0.00    -0.352 N 
ATOM     24  C   UNL A   1      38.905  22.951  26.369  1.00  0.00     0.251 C 
ATOM     25  H   UNL A   1      37.360  21.846  25.734  1.00  0.00     0.163 HD
ATOM     26  O   UNL A   1      39.718  22.041  26.242  1.00  0.00    -0.269 OA
BRANCH  24  27
ATOM     27  C   UNL A   1      39.315  24.237  26.971  1.00  0.00     0.039 A 
ATOM     28  C   UNL A   1      40.020  25.157  26.191  1.00  0.00     0.014 A 
ATOM     29  C   UNL A   1      39.039  24.520  28.314  1.00  0.00     0.014 A 
ATOM     30  C   UNL A   1      40.423  26.373  26.748  1.00  0.00     0.010 A 
ATOM     31  C   UNL A   1      39.376  25.762  28.844  1.00  0.00     0.010 A 
ATOM     32  C   UNL A   1      40.091  26.692  28.074  1.00  0.00    -0.014 A 
BRANCH  32  33
ATOM     33  C   UNL A   1      40.524  27.972  28.689  1.00  0.00     0.031 A 
ATOM     34  C   UNL A   1      41.939  28.129  29.177  1.00  0.00     0.074 A 
ATOM     35  C   UNL A   1      39.638  28.974  28.844  1.00  0.00     0.049 A 
ATOM     36  N   UNL A   1      42.502  29.156  29.761  1.00  0.00    -0.248 NA
ATOM     37  C   UNL A   1      42.832  26.972  29.007  1.00  0.00     0.031 C 
ATOM     38  C   UNL A   1      38.232  28.935  28.438  1.00  0.00     0.029 A 
ATOM     39  N   UNL A   1      39.793  30.226  29.384  1.00  0.00    -0.354 N 
ATOM     40  C   UNL A   1      43.805  28.762  30.045  1.00  0.00     0.074 A 
ATOM     41  C   UNL A   1      43.931  27.385  29.620  1.00  0.00     0.031 C 
ATOM     42  C   UNL A   1      37.665  30.123  28.704  1.00  0.00     0.029 A 
ATOM     43  C   UNL A   1      38.653  30.993  29.333  1.00  0.00     0.049 A 
ATOM     44  H   UNL A   1      40.640  30.546  29.770  1.00  0.00     0.167 HD
ATOM     45  C   UNL A   1      44.815  29.485  30.587  1.00  0.00     0.031 A 
ATOM     46  C   UNL A   1      38.433  32.258  29.740  1.00  0.00     0.031 A 
ATOM     47  C   UNL A   1      44.688  30.856  31.001  1.00  0.00     0.049 A 
ATOM     48  C   UNL A   1      39.563  33.038  30.353  1.00  0.00     0.074 A 
ATOM     49  C   UNL A   1      45.658  31.693  31.523  1.00  0.00     0.029 A 
ATOM     50  N   UNL A   1      43.515  31.593  30.940  1.00  0.00    -0.354 N 
ATOM     51  N   UNL A   1      40.803  32.666  30.566  1.00  0.00    -0.248 NA
ATOM     52  C   UNL A   1      39.265  34.417  30.767  1.00  0.00     0.031 C 
ATOM     53  C   UNL A   1      45.061  32.924  31.818  1.00  0.00     0.029 A 
ATOM     54  C   UNL A   1      43.732  32.871  31.429  1.00  0.00     0.049 A 
ATOM     55  H   UNL A   1      42.655  31.258  30.598  1.00  0.00     0.167 HD
ATOM     56  C   UNL A   1      41.443  33.776  31.106  1.00  0.00     0.074 A 
ATOM     57  C   UNL A   1      40.454  34.832  31.180  1.00  0.00     0.031 C 
ATOM     58  C   UNL A   1      42.735  33.910  31.497  1.00  0.00     0.031 A 
BRANCH  45  59
ATOM     59  C   UNL A   1      46.138  28.787  30.771  1.00  0.00    -0.014 A 
ATOM     60  C   UNL A   1      47.105  28.780  29.748  1.00  0.00     0.010 A 
ATOM     61  C   UNL A   1      46.416  28.120  31.978  1.00  0.00     0.010 A 
ATOM     62  C   UNL A   1      48.295  28.063  29.903  1.00  0.00     0.020 A 
ATOM     63  C   UNL A   1      47.621  27.428  32.148  1.00  0.00     0.020 A 
ATOM     64  C   UNL A   1      48.540  27.382  31.098  1.00  0.00     0.054 A 
BRANCH  64  65
ATOM     65  S   UNL A   1      50.082  26.442  31.266  1.00  0.00     0.124 S 
ATOM     66  O   UNL A   1      50.921  27.057  30.239  1.00  0.00    -0.237 OA
ATOM     67  O   UNL A   1      50.478  26.714  32.645  1.00  0.00    -0.237 OA
ATOM     68  O   UNL A   1      49.679  25.064  30.997  1.00  0.00    -0.744 OA
ENDBRANCH  64  65
ENDBRANCH  45  59
BRANCH  46  69
ATOM     69  C   UNL A   1      37.098  32.882  29.530  1.00  0.00    -0.014 A 
ATOM     70  C   UNL A   1      36.191  32.983  30.600  1.00  0.00     0.010 A 
ATOM     71  C   UNL A   1      36.735  33.399  28.273  1.00  0.00     0.010 A 
ATOM     72  C   UNL A   1      34.941  33.578  30.415  1.00  0.00     0.020 A 
ATOM     73  C   UNL A   1      35.494  34.017  28.092  1.00  0.00     0.020 A 
ATOM     74  C   UNL A   1      34.601  34.095  29.162  1.00  0.00     0.054 A 
BRANCH  74  75
ATOM     75  S   UNL A   1      32.996  34.917  28.963  1.00  0.00     0.124 S 
ATOM     76  O   UNL A   1      33.384  36.221  28.437  1.00  0.00    -0.237 OA
ATOM     77  O   UNL A   1      32.305  34.036  28.025  1.00  0.00    -0.237 OA
ATOM     78  O   UNL A   1      32.447  34.925  30.318  1.00  0.00    -0.744 OA
ENDBRANCH  74  75
ENDBRANCH  46  69
BRANCH  58  79
ATOM     79  C   UNL A   1      43.166  35.262  31.999  1.00  0.00    -0.014 A 
ATOM     80  C   UNL A   1      43.753  36.210  31.142  1.00  0.00     0.010 A 
ATOM     81  C   UNL A   1      42.941  35.602  33.346  1.00  0.00     0.010 A 
ATOM     82  C   UNL A   1      44.139  37.461  31.633  1.00  0.00     0.020 A 
ATOM     83  C   UNL A   1      43.299  36.860  33.834  1.00  0.00     0.020 A 
ATOM     84  C   UNL A   1      43.912  37.776  32.976  1.00  0.00     0.054 A 
BRANCH  84  85
ATOM     85  S   UNL A   1      44.389  39.418  33.583  1.00  0.00     0.124 S 
ATOM     86  O   UNL A   1      45.074  39.983  32.423  1.00  0.00    -0.237 OA
ATOM     87  O   UNL A   1      43.102  40.027  33.909  1.00  0.00    -0.237 OA
ATOM     88  O   UNL A   1      45.243  39.128  34.733  1.00  0.00    -0.744 OA
ENDBRANCH  84  85
ENDBRANCH  58  79
ENDBRANCH  32  33
ENDBRANCH  24  27
ENDBRANCH  22  23
ENDBRANCH  21  22
ENDBRANCH   1  21
TORSDOF 18
ENDMDL
MODEL 3
REMARK VINA RESULT:     -10.0      1.581      2.547
REMARK SMILES COc1ccc(C(=O)NCCCCCCNC(=O)c2ccc(-c3c4nc(c(-c5ccc(S(=O)(=O)[O-])cc5)c5ccc([nH]5)c(-c5ccc(S(=O)(=O)[O-])cc5)c5nc(c(-c6ccc(S(=O)(=O)[O-])cc6)c6ccc3[nH]6)C=C5)C=C4)cc2)cc1C(F)(F)F
REMARK SMILES IDX 13 1 12 2 11 3 10 4 9 5 7 6 8 7 6 9 3 10 4 11 80 12 5 13
REMARK SMILES IDX 79 14 2 15 1 16 81 17 82 18 83 19 84 20 14 21 15 22 16 23
REMARK SMILES IDX 17 24 18 26 19 27 20 28 78 29 21 30 77 31 22 32 23 33 24 34
REMARK SMILES IDX 71 35 25 36 76 37 70 38 72 39 26 40 75 41 69 42 68 43 27 45
REMARK SMILES IDX 57 46 38 47 56 48 39 49 42 50 55 51 73 52 40 53 41 54 54 56
REMARK SMILES IDX 74 57 43 58 28 59 29 60 37 61 30 62 36 63 31 64 32 65 33 66
REMARK SMILES IDX 34 67 35 68 58 69 59 70 67 71 60 72 66 73 61 74 62 75 63 76
REMARK SMILES IDX 64 77 65 78 44 79 45 80 53 81 46 82 52 83 47 84 48 85 49 86
REMARK SMILES IDX 50 87 51 88
REMARK H PARENT 9 8 16 25 72 44 42 55
REMARK Flexibility Score: inf
ROOT
ATOM      1  C   UNL A   1      32.923  25.940  26.188  1.00  0.00     0.002 C 
ENDROOT
BRANCH   1   2
ATOM      2  C   UNL A   1      34.174  25.635  25.353  1.00  0.00     0.002 C 
BRANCH   2   3
ATOM      3  C   UNL A   1      34.667  24.185  25.442  1.00  0.00     0.021 C 
BRANCH   3   4
ATOM      4  C   UNL A   1      33.541  23.184  25.710  1.00  0.00     0.116 C 
BRANCH   4   5
ATOM      5  N   UNL A   1      33.287  22.391  24.521  1.00  0.00    -0.352 N 
ATOM      6  C   UNL A   1      32.633  22.661  23.347  1.00  0.00     0.251 C 
ATOM      7  O   UNL A   1      32.589  21.774  22.495  1.00  0.00    -0.269 OA
ATOM      8  H   UNL A   1      33.658  21.480  24.566  1.00  0.00     0.163 HD
BRANCH   6   9
ATOM      9  C   UNL A   1      32.039  23.992  23.034  1.00  0.00     0.040 A 
ATOM     10  C   UNL A   1      31.139  26.579  22.424  1.00  0.00     0.131 A 
ATOM     11  C   UNL A   1      32.209  26.027  21.718  1.00  0.00     0.048 A 
ATOM     12  C   UNL A   1      30.455  25.829  23.384  1.00  0.00     0.098 A 
ATOM     13  C   UNL A   1      32.668  24.748  22.037  1.00  0.00     0.017 A 
ATOM     14  C   UNL A   1      30.899  24.516  23.652  1.00  0.00     0.030 A 
BRANCH  10  15
ATOM     15  O   UNL A   1      30.726  27.832  22.067  1.00  0.00    -0.496 OA
ATOM     16  C   UNL A   1      31.691  28.817  22.441  1.00  0.00     0.278 C 
ENDBRANCH  10  15
BRANCH  12  17
ATOM     17  C   UNL A   1      29.331  26.406  24.204  1.00  0.00     0.419 C 
ATOM     18  F   UNL A   1      29.426  27.760  24.347  1.00  0.00    -0.166 F 
ATOM     19  F   UNL A   1      28.122  26.191  23.609  1.00  0.00    -0.166 F 
ATOM     20  F   UNL A   1      29.225  25.910  25.464  1.00  0.00    -0.166 F 
ENDBRANCH  12  17
ENDBRANCH   6   9
ENDBRANCH   4   5
ENDBRANCH   3   4
ENDBRANCH   2   3
ENDBRANCH   1   2
BRANCH   1  21
ATOM     21  C   UNL A   1      32.634  27.429  26.400  1.00  0.00     0.021 C 
BRANCH  21  22
ATOM     22  C   UNL A   1      33.870  28.322  26.353  1.00  0.00     0.116 C 
BRANCH  22  23
ATOM     23  N   UNL A   1      33.594  29.644  26.894  1.00  0.00    -0.352 N 
ATOM     24  C   UNL A   1      34.337  30.393  27.770  1.00  0.00     0.251 C 
ATOM     25  H   UNL A   1      32.755  30.058  26.589  1.00  0.00     0.163 HD
ATOM     26  O   UNL A   1      33.840  31.382  28.300  1.00  0.00    -0.269 OA
BRANCH  24  27
ATOM     27  C   UNL A   1      35.731  30.005  28.076  1.00  0.00     0.039 A 
ATOM     28  C   UNL A   1      36.044  29.566  29.365  1.00  0.00     0.014 A 
ATOM     29  C   UNL A   1      36.734  30.111  27.107  1.00  0.00     0.014 A 
ATOM     30  C   UNL A   1      37.357  29.204  29.674  1.00  0.00     0.010 A 
ATOM     31  C   UNL A   1      38.025  29.680  27.395  1.00  0.00     0.010 A 
ATOM     32  C   UNL A   1      38.355  29.244  28.688  1.00  0.00    -0.014 A 
BRANCH  32  33
ATOM     33  C   UNL A   1      39.760  28.879  29.000  1.00  0.00     0.031 A 
ATOM     34  C   UNL A   1      40.657  29.871  29.690  1.00  0.00     0.074 A 
ATOM     35  C   UNL A   1      40.238  27.676  28.630  1.00  0.00     0.049 A 
ATOM     36  N   UNL A   1      41.916  29.752  30.027  1.00  0.00    -0.248 NA
ATOM     37  C   UNL A   1      40.069  31.178  30.024  1.00  0.00     0.031 C 
ATOM     38  C   UNL A   1      39.477  26.638  27.931  1.00  0.00     0.029 A 
ATOM     39  N   UNL A   1      41.483  27.122  28.794  1.00  0.00    -0.354 N 
ATOM     40  C   UNL A   1      42.273  30.971  30.593  1.00  0.00     0.074 A 
ATOM     41  C   UNL A   1      41.116  31.833  30.502  1.00  0.00     0.031 C 
ATOM     42  C   UNL A   1      40.258  25.558  27.765  1.00  0.00     0.029 A 
ATOM     43  C   UNL A   1      41.583  25.839  28.309  1.00  0.00     0.049 A 
ATOM     44  H   UNL A   1      42.233  27.596  29.220  1.00  0.00     0.167 HD
ATOM     45  C   UNL A   1      43.449  31.335  31.160  1.00  0.00     0.031 A 
ATOM     46  C   UNL A   1      42.623  24.983  28.311  1.00  0.00     0.031 A 
ATOM     47  C   UNL A   1      44.596  30.472  31.255  1.00  0.00     0.049 A 
ATOM     48  C   UNL A   1      43.924  25.413  28.931  1.00  0.00     0.074 A 
ATOM     49  C   UNL A   1      45.820  30.726  31.846  1.00  0.00     0.029 A 
ATOM     50  N   UNL A   1      44.658  29.184  30.745  1.00  0.00    -0.354 N 
ATOM     51  N   UNL A   1      44.227  26.551  29.508  1.00  0.00    -0.248 NA
ATOM     52  C   UNL A   1      45.019  24.432  28.913  1.00  0.00     0.031 C 
ATOM     53  C   UNL A   1      46.639  29.608  31.655  1.00  0.00     0.029 A 
ATOM     54  C   UNL A   1      45.906  28.636  30.992  1.00  0.00     0.049 A 
ATOM     55  H   UNL A   1      43.924  28.726  30.276  1.00  0.00     0.167 HD
ATOM     56  C   UNL A   1      45.537  26.412  29.954  1.00  0.00     0.074 A 
ATOM     57  C   UNL A   1      45.963  25.077  29.584  1.00  0.00     0.031 C 
ATOM     58  C   UNL A   1      46.314  27.305  30.617  1.00  0.00     0.031 A 
BRANCH  45  59
ATOM     59  C   UNL A   1      43.544  32.737  31.704  1.00  0.00    -0.014 A 
ATOM     60  C   UNL A   1      43.942  33.810  30.885  1.00  0.00     0.010 A 
ATOM     61  C   UNL A   1      43.242  32.986  33.055  1.00  0.00     0.010 A 
ATOM     62  C   UNL A   1      44.101  35.091  31.422  1.00  0.00     0.020 A 
ATOM     63  C   UNL A   1      43.368  34.273  33.588  1.00  0.00     0.020 A 
ATOM     64  C   UNL A   1      43.824  35.311  32.773  1.00  0.00     0.054 A 
BRANCH  64  65
ATOM     65  S   UNL A   1      44.058  36.978  33.450  1.00  0.00     0.124 S 
ATOM     66  O   UNL A   1      42.831  37.163  34.222  1.00  0.00    -0.237 OA
ATOM     67  O   UNL A   1      45.280  36.837  34.238  1.00  0.00    -0.237 OA
ATOM     68  O   UNL A   1      44.179  37.820  32.263  1.00  0.00    -0.744 OA
ENDBRANCH  64  65
ENDBRANCH  45  59
BRANCH  46  69
ATOM     69  C   UNL A   1      42.458  23.614  27.750  1.00  0.00    -0.014 A 
ATOM     70  C   UNL A   1      42.679  23.382  26.381  1.00  0.00     0.010 A 
ATOM     71  C   UNL A   1      42.104  22.535  28.581  1.00  0.00     0.010 A 
ATOM     72  C   UNL A   1      42.537  22.097  25.850  1.00  0.00     0.020 A 
ATOM     73  C   UNL A   1      41.987  21.245  28.056  1.00  0.00     0.020 A 
ATOM     74  C   UNL A   1      42.196  21.036  26.691  1.00  0.00     0.054 A 
BRANCH  74  75
ATOM     75  S   UNL A   1      42.077  19.367  25.988  1.00  0.00     0.124 S 
ATOM     76  O   UNL A   1      42.606  18.542  27.069  1.00  0.00    -0.237 OA
ATOM     77  O   UNL A   1      40.646  19.234  25.730  1.00  0.00    -0.237 OA
ATOM     78  O   UNL A   1      42.913  19.443  24.790  1.00  0.00    -0.744 OA
ENDBRANCH  74  75
ENDBRANCH  46  69
BRANCH  58  79
ATOM     79  C   UNL A   1      47.689  26.852  31.026  1.00  0.00    -0.014 A 
ATOM     80  C   UNL A   1      48.816  27.115  30.226  1.00  0.00     0.010 A 
ATOM     81  C   UNL A   1      47.860  26.187  32.254  1.00  0.00     0.010 A 
ATOM     82  C   UNL A   1      50.084  26.689  30.632  1.00  0.00     0.020 A 
ATOM     83  C   UNL A   1      49.128  25.784  32.676  1.00  0.00     0.020 A 
ATOM     84  C   UNL A   1      50.231  26.023  31.854  1.00  0.00     0.054 A 
BRANCH  84  85
ATOM     85  S   UNL A   1      51.890  25.510  32.376  1.00  0.00     0.124 S 
ATOM     86  O   UNL A   1      51.965  26.054  33.729  1.00  0.00    -0.237 OA
ATOM     87  O   UNL A   1      51.818  24.053  32.289  1.00  0.00    -0.237 OA
ATOM     88  O   UNL A   1      52.773  26.143  31.399  1.00  0.00    -0.744 OA
ENDBRANCH  84  85
ENDBRANCH  58  79
ENDBRANCH  32  33
ENDBRANCH  24  27
ENDBRANCH  22  23
ENDBRANCH  21  22
ENDBRANCH   1  21
TORSDOF 18
ENDMDL
