MODEL 1
REMARK VINA RESULT:     -10.2      0.000      0.000
REMARK SMILES O=C(CSCc1ccc(Cl)s1)Nc1ccsc1C(=O)NCCCCCCNC(=O)c1ccc(-c2c3nc(c(-c4ccc(S(=O)(=O)[O-])cc4)c4ccc([nH]4)c(-c4ccc(S(=O)(=O)[O-])cc4)c4nc(c(-c5ccc(S(=O)(=O)[O-])cc5)c5ccc2[nH]5)C=C4)C=C3)cc1
REMARK SMILES IDX 22 1 21 2 20 3 18 4 19 5 17 7 13 8 14 9 15 10 16 11 12 12
REMARK SMILES IDX 1 13 2 14 3 16 4 17 5 18 6 19 7 20 11 21 8 22 9 23 10 24
REMARK SMILES IDX 23 25 24 26 25 27 26 28 27 29 28 30 29 32 30 33 31 34 89 35
REMARK SMILES IDX 32 36 88 37 33 38 34 39 35 40 82 41 36 42 87 43 81 44 83 45
REMARK SMILES IDX 37 46 86 47 80 48 79 49 38 51 68 52 49 53 67 54 50 55 53 56
REMARK SMILES IDX 66 57 84 58 51 59 52 60 65 62 85 63 54 64 39 65 40 66 48 67
REMARK SMILES IDX 41 68 47 69 42 70 43 71 44 72 45 73 46 74 69 75 70 76 78 77
REMARK SMILES IDX 71 78 77 79 72 80 73 81 74 82 75 83 76 84 55 85 56 86 64 87
REMARK SMILES IDX 57 88 63 89 58 90 59 91 60 92 61 93 62 94
REMARK H PARENT 20 6 12 15 27 31 83 50 53 61
REMARK Flexibility Score: inf
ROOT
ATOM      1  C   UNL A   1      35.513  23.360  25.676  1.00  0.00     0.021 C 
ENDROOT
BRANCH   1   2
ATOM      2  C   UNL A   1      34.840  24.702  25.394  1.00  0.00     0.116 C 
BRANCH   2   3
ATOM      3  N   UNL A   1      34.596  24.863  23.988  1.00  0.00    -0.351 N 
ATOM      4  C   UNL A   1      33.553  25.257  23.202  1.00  0.00     0.263 C 
ATOM      5  O   UNL A   1      33.913  25.352  22.018  1.00  0.00    -0.268 OA
ATOM      6  H   UNL A   1      35.388  24.629  23.452  1.00  0.00     0.163 HD
BRANCH   4   7
ATOM      7  C   UNL A   1      32.173  25.536  23.620  1.00  0.00     0.115 A 
ATOM      8  C   UNL A   1      31.036  24.846  24.058  1.00  0.00     0.065 A 
ATOM      9  C   UNL A   1      29.872  25.705  24.074  1.00  0.00     0.038 A 
ATOM     10  C   UNL A   1      30.123  27.000  23.711  1.00  0.00     0.068 A 
ATOM     11  S   UNL A   1      31.758  27.230  23.366  1.00  0.00    -0.137 S 
BRANCH   8  12
ATOM     12  N   UNL A   1      30.914  23.513  24.468  1.00  0.00    -0.324 N 
ATOM     13  O   UNL A   1      31.842  23.753  26.577  1.00  0.00    -0.274 OA
ATOM     14  C   UNL A   1      31.490  23.037  25.639  1.00  0.00     0.234 C 
ATOM     15  H   UNL A   1      30.401  22.891  23.905  1.00  0.00     0.170 HD
BRANCH  14  16
ATOM     16  C   UNL A   1      31.667  21.534  25.715  1.00  0.00     0.170 C 
BRANCH  16  17
ATOM     17  S   UNL A   1      32.342  20.772  24.218  1.00  0.00    -0.146 SA
BRANCH  17  18
ATOM     18  C   UNL A   1      33.949  20.117  24.791  1.00  0.00     0.116 C 
BRANCH  18  19
ATOM     19  C   UNL A   1      33.970  18.627  24.815  1.00  0.00     0.016 A 
ATOM     20  C   UNL A   1      34.945  17.770  24.330  1.00  0.00     0.018 A 
ATOM     21  S   UNL A   1      32.632  17.754  25.442  1.00  0.00    -0.128 S 
ATOM     22  C   UNL A   1      34.592  16.398  24.489  1.00  0.00     0.033 A 
ATOM     23  C   UNL A   1      33.359  16.273  25.075  1.00  0.00     0.093 A 
ATOM     24  Cl  UNL A   1      32.537  14.809  25.436  1.00  0.00    -0.072 Cl
ENDBRANCH  18  19
ENDBRANCH  17  18
ENDBRANCH  16  17
ENDBRANCH  14  16
ENDBRANCH   8  12
ENDBRANCH   4   7
ENDBRANCH   2   3
ENDBRANCH   1   2
BRANCH   1  25
ATOM     25  C   UNL A   1      36.887  23.180  25.022  1.00  0.00     0.002 C 
BRANCH  25  26
ATOM     26  C   UNL A   1      37.072  21.885  24.219  1.00  0.00     0.002 C 
BRANCH  26  27
ATOM     27  C   UNL A   1      37.798  20.746  24.941  1.00  0.00     0.021 C 
BRANCH  27  28
ATOM     28  C   UNL A   1      39.001  21.166  25.786  1.00  0.00     0.116 C 
BRANCH  28  29
ATOM     29  N   UNL A   1      39.994  20.114  25.890  1.00  0.00    -0.352 N 
ATOM     30  C   UNL A   1      41.350  20.182  26.061  1.00  0.00     0.251 C 
ATOM     31  H   UNL A   1      39.634  19.201  25.828  1.00  0.00     0.163 HD
ATOM     32  O   UNL A   1      42.011  19.147  25.939  1.00  0.00    -0.269 OA
BRANCH  30  33
ATOM     33  C   UNL A   1      42.042  21.454  26.380  1.00  0.00     0.039 A 
ATOM     34  C   UNL A   1      42.307  21.739  27.725  1.00  0.00     0.014 A 
ATOM     35  C   UNL A   1      42.347  22.408  25.403  1.00  0.00     0.014 A 
ATOM     36  C   UNL A   1      42.881  22.960  28.086  1.00  0.00     0.010 A 
ATOM     37  C   UNL A   1      42.977  23.604  25.760  1.00  0.00     0.010 A 
ATOM     38  C   UNL A   1      43.227  23.906  27.107  1.00  0.00    -0.014 A 
BRANCH  38  39
ATOM     39  C   UNL A   1      43.796  25.222  27.502  1.00  0.00     0.031 A 
ATOM     40  C   UNL A   1      45.262  25.510  27.295  1.00  0.00     0.074 A 
ATOM     41  C   UNL A   1      42.999  26.165  28.043  1.00  0.00     0.049 A 
ATOM     42  N   UNL A   1      45.931  26.607  27.545  1.00  0.00    -0.248 NA
ATOM     43  C   UNL A   1      46.088  24.420  26.751  1.00  0.00     0.031 C 
ATOM     44  C   UNL A   1      41.572  26.005  28.328  1.00  0.00     0.029 A 
ATOM     45  N   UNL A   1      43.276  27.449  28.445  1.00  0.00    -0.354 N 
ATOM     46  C   UNL A   1      47.251  26.337  27.202  1.00  0.00     0.074 A 
ATOM     47  C   UNL A   1      47.299  24.957  26.770  1.00  0.00     0.031 C 
ATOM     48  C   UNL A   1      41.093  27.155  28.831  1.00  0.00     0.029 A 
ATOM     49  C   UNL A   1      42.181  28.124  28.932  1.00  0.00     0.049 A 
ATOM     50  H   UNL A   1      44.174  27.848  28.390  1.00  0.00     0.167 HD
ATOM     51  C   UNL A   1      48.324  27.165  27.222  1.00  0.00     0.031 A 
ATOM     52  C   UNL A   1      42.062  29.382  29.400  1.00  0.00     0.031 A 
ATOM     53  C   UNL A   1      48.276  28.543  27.633  1.00  0.00     0.049 A 
ATOM     54  C   UNL A   1      43.266  30.285  29.400  1.00  0.00     0.074 A 
ATOM     55  C   UNL A   1      49.301  29.475  27.641  1.00  0.00     0.029 A 
ATOM     56  N   UNL A   1      47.145  29.191  28.103  1.00  0.00    -0.354 N 
ATOM     57  N   UNL A   1      44.492  30.027  29.012  1.00  0.00    -0.248 NA
ATOM     58  C   UNL A   1      43.062  31.660  29.878  1.00  0.00     0.031 C 
ATOM     59  C   UNL A   1      48.798  30.674  28.159  1.00  0.00     0.029 A 
ATOM     60  C   UNL A   1      47.448  30.506  28.418  1.00  0.00     0.049 A 
ATOM     61  H   UNL A   1      46.256  28.778  28.200  1.00  0.00     0.167 HD
ATOM     62  C   UNL A   1      45.196  31.217  29.166  1.00  0.00     0.074 A 
ATOM     63  C   UNL A   1      44.257  32.197  29.669  1.00  0.00     0.031 C 
ATOM     64  C   UNL A   1      46.503  31.474  28.912  1.00  0.00     0.031 A 
BRANCH  51  65
ATOM     65  C   UNL A   1      49.651  26.602  26.785  1.00  0.00    -0.014 A 
ATOM     66  C   UNL A   1      50.523  25.997  27.710  1.00  0.00     0.010 A 
ATOM     67  C   UNL A   1      50.007  26.626  25.424  1.00  0.00     0.010 A 
ATOM     68  C   UNL A   1      51.742  25.459  27.285  1.00  0.00     0.020 A 
ATOM     69  C   UNL A   1      51.212  26.064  24.992  1.00  0.00     0.020 A 
ATOM     70  C   UNL A   1      52.078  25.496  25.930  1.00  0.00     0.054 A 
BRANCH  70  71
ATOM     71  S   UNL A   1      53.650  24.758  25.403  1.00  0.00     0.124 S 
ATOM     72  O   UNL A   1      54.467  24.904  26.605  1.00  0.00    -0.237 OA
ATOM     73  O   UNL A   1      53.264  23.389  25.069  1.00  0.00    -0.237 OA
ATOM     74  O   UNL A   1      54.058  25.581  24.269  1.00  0.00    -0.744 OA
ENDBRANCH  70  71
ENDBRANCH  51  65
BRANCH  52  75
ATOM     75  C   UNL A   1      40.746  29.874  29.893  1.00  0.00    -0.014 A 
ATOM     76  C   UNL A   1      40.482  29.962  31.272  1.00  0.00     0.010 A 
ATOM     77  C   UNL A   1      39.742  30.244  28.981  1.00  0.00     0.010 A 
ATOM     78  C   UNL A   1      39.228  30.380  31.728  1.00  0.00     0.020 A 
ATOM     79  C   UNL A   1      38.497  30.692  29.433  1.00  0.00     0.020 A 
ATOM     80  C   UNL A   1      38.244  30.742  30.805  1.00  0.00     0.054 A 
BRANCH  80  81
ATOM     81  S   UNL A   1      36.634  31.314  31.417  1.00  0.00     0.124 S 
ATOM     82  O   UNL A   1      36.994  32.548  32.108  1.00  0.00    -0.237 OA
ATOM     83  O   UNL A   1      35.866  31.476  30.186  1.00  0.00    -0.237 OA
ATOM     84  O   UNL A   1      36.191  30.220  32.279  1.00  0.00    -0.744 OA
ENDBRANCH  80  81
ENDBRANCH  52  75
BRANCH  64  85
ATOM     85  C   UNL A   1      46.984  32.886  29.122  1.00  0.00    -0.014 A 
ATOM     86  C   UNL A   1      46.759  33.890  28.165  1.00  0.00     0.010 A 
ATOM     87  C   UNL A   1      47.650  33.217  30.318  1.00  0.00     0.010 A 
ATOM     88  C   UNL A   1      47.235  35.188  28.376  1.00  0.00     0.020 A 
ATOM     89  C   UNL A   1      48.101  34.518  30.546  1.00  0.00     0.020 A 
ATOM     90  C   UNL A   1      47.909  35.491  29.563  1.00  0.00     0.054 A 
BRANCH  90  91
ATOM     91  S   UNL A   1      48.506  37.185  29.823  1.00  0.00     0.124 S 
ATOM     92  O   UNL A   1      49.954  36.997  29.835  1.00  0.00    -0.237 OA
ATOM     93  O   UNL A   1      47.973  37.895  28.662  1.00  0.00    -0.237 OA
ATOM     94  O   UNL A   1      47.915  37.567  31.104  1.00  0.00    -0.744 OA
ENDBRANCH  90  91
ENDBRANCH  64  85
ENDBRANCH  38  39
ENDBRANCH  30  33
ENDBRANCH  28  29
ENDBRANCH  27  28
ENDBRANCH  26  27
ENDBRANCH  25  26
ENDBRANCH   1  25
TORSDOF 21
ENDMDL
MODEL 2
REMARK VINA RESULT:      -9.8      0.806      8.104
REMARK SMILES O=C(CSCc1ccc(Cl)s1)Nc1ccsc1C(=O)NCCCCCCNC(=O)c1ccc(-c2c3nc(c(-c4ccc(S(=O)(=O)[O-])cc4)c4ccc([nH]4)c(-c4ccc(S(=O)(=O)[O-])cc4)c4nc(c(-c5ccc(S(=O)(=O)[O-])cc5)c5ccc2[nH]5)C=C4)C=C3)cc1
REMARK SMILES IDX 22 1 21 2 20 3 18 4 19 5 17 7 13 8 14 9 15 10 16 11 12 12
REMARK SMILES IDX 1 13 2 14 3 16 4 17 5 18 6 19 7 20 11 21 8 22 9 23 10 24
REMARK SMILES IDX 23 25 24 26 25 27 26 28 27 29 28 30 29 32 30 33 31 34 89 35
REMARK SMILES IDX 32 36 88 37 33 38 34 39 35 40 82 41 36 42 87 43 81 44 83 45
REMARK SMILES IDX 37 46 86 47 80 48 79 49 38 51 68 52 49 53 67 54 50 55 53 56
REMARK SMILES IDX 66 57 84 58 51 59 52 60 65 62 85 63 54 64 39 65 40 66 48 67
REMARK SMILES IDX 41 68 47 69 42 70 43 71 44 72 45 73 46 74 69 75 70 76 78 77
REMARK SMILES IDX 71 78 77 79 72 80 73 81 74 82 75 83 76 84 55 85 56 86 64 87
REMARK SMILES IDX 57 88 63 89 58 90 59 91 60 92 61 93 62 94
REMARK H PARENT 20 6 12 15 27 31 83 50 53 61
REMARK Flexibility Score: inf
ROOT
ATOM      1  C   UNL A   1      35.509  23.659  25.637  1.00  0.00     0.021 C 
ENDROOT
BRANCH   1   2
ATOM      2  C   UNL A   1      34.623  24.860  25.311  1.00  0.00     0.116 C 
BRANCH   2   3
ATOM      3  N   UNL A   1      34.367  24.935  23.900  1.00  0.00    -0.351 N 
ATOM      4  C   UNL A   1      33.416  25.488  23.093  1.00  0.00     0.263 C 
ATOM      5  O   UNL A   1      33.739  25.375  21.900  1.00  0.00    -0.268 OA
ATOM      6  H   UNL A   1      35.058  24.465  23.379  1.00  0.00     0.163 HD
BRANCH   4   7
ATOM      7  C   UNL A   1      32.160  26.130  23.502  1.00  0.00     0.115 A 
ATOM      8  C   UNL A   1      30.917  25.783  24.046  1.00  0.00     0.065 A 
ATOM      9  C   UNL A   1      29.986  26.889  23.978  1.00  0.00     0.038 A 
ATOM     10  C   UNL A   1      30.512  28.037  23.452  1.00  0.00     0.068 A 
ATOM     11  S   UNL A   1      32.136  27.833  23.048  1.00  0.00    -0.137 S 
BRANCH   8  12
ATOM     12  N   UNL A   1      30.511  24.574  24.620  1.00  0.00    -0.324 N 
ATOM     13  O   UNL A   1      31.217  25.007  26.784  1.00  0.00    -0.274 OA
ATOM     14  C   UNL A   1      30.852  24.212  25.917  1.00  0.00     0.234 C 
ATOM     15  H   UNL A   1      29.962  23.957  24.086  1.00  0.00     0.170 HD
BRANCH  14  16
ATOM     16  C   UNL A   1      30.745  22.734  26.232  1.00  0.00     0.170 C 
BRANCH  16  17
ATOM     17  S   UNL A   1      32.309  21.824  26.151  1.00  0.00    -0.146 SA
BRANCH  17  18
ATOM     18  C   UNL A   1      32.030  20.674  24.758  1.00  0.00     0.116 C 
BRANCH  18  19
ATOM     19  C   UNL A   1      32.986  19.530  24.776  1.00  0.00     0.016 A 
ATOM     20  C   UNL A   1      34.354  19.546  24.557  1.00  0.00     0.018 A 
ATOM     21  S   UNL A   1      32.415  17.932  25.027  1.00  0.00    -0.128 S 
ATOM     22  C   UNL A   1      34.928  18.241  24.610  1.00  0.00     0.033 A 
ATOM     23  C   UNL A   1      33.970  17.292  24.852  1.00  0.00     0.093 A 
ATOM     24  Cl  UNL A   1      34.212  15.597  24.977  1.00  0.00    -0.072 Cl
ENDBRANCH  18  19
ENDBRANCH  17  18
ENDBRANCH  16  17
ENDBRANCH  14  16
ENDBRANCH   8  12
ENDBRANCH   4   7
ENDBRANCH   2   3
ENDBRANCH   1   2
BRANCH   1  25
ATOM     25  C   UNL A   1      36.763  23.530  24.766  1.00  0.00     0.002 C 
BRANCH  25  26
ATOM     26  C   UNL A   1      36.964  22.164  24.096  1.00  0.00     0.002 C 
BRANCH  26  27
ATOM     27  C   UNL A   1      37.535  21.056  24.987  1.00  0.00     0.021 C 
BRANCH  27  28
ATOM     28  C   UNL A   1      38.744  21.453  25.833  1.00  0.00     0.116 C 
BRANCH  28  29
ATOM     29  N   UNL A   1      39.646  20.340  26.059  1.00  0.00    -0.352 N 
ATOM     30  C   UNL A   1      40.997  20.318  26.281  1.00  0.00     0.251 C 
ATOM     31  H   UNL A   1      39.217  19.455  26.052  1.00  0.00     0.163 HD
ATOM     32  O   UNL A   1      41.577  19.228  26.266  1.00  0.00    -0.269 OA
BRANCH  30  33
ATOM     33  C   UNL A   1      41.775  21.554  26.530  1.00  0.00     0.039 A 
ATOM     34  C   UNL A   1      42.029  21.915  27.859  1.00  0.00     0.014 A 
ATOM     35  C   UNL A   1      42.176  22.410  25.498  1.00  0.00     0.014 A 
ATOM     36  C   UNL A   1      42.684  23.114  28.151  1.00  0.00     0.010 A 
ATOM     37  C   UNL A   1      42.887  23.578  25.789  1.00  0.00     0.010 A 
ATOM     38  C   UNL A   1      43.126  23.957  27.118  1.00  0.00    -0.014 A 
BRANCH  38  39
ATOM     39  C   UNL A   1      43.784  25.253  27.436  1.00  0.00     0.031 A 
ATOM     40  C   UNL A   1      42.987  26.385  28.033  1.00  0.00     0.074 A 
ATOM     41  C   UNL A   1      45.100  25.416  27.193  1.00  0.00     0.049 A 
ATOM     42  N   UNL A   1      43.393  27.573  28.406  1.00  0.00    -0.248 NA
ATOM     43  C   UNL A   1      41.545  26.161  28.222  1.00  0.00     0.031 C 
ATOM     44  C   UNL A   1      45.981  24.414  26.589  1.00  0.00     0.029 A 
ATOM     45  N   UNL A   1      45.929  26.485  27.432  1.00  0.00    -0.354 N 
ATOM     46  C   UNL A   1      42.260  28.238  28.860  1.00  0.00     0.074 A 
ATOM     47  C   UNL A   1      41.141  27.340  28.673  1.00  0.00     0.031 C 
ATOM     48  C   UNL A   1      47.230  24.905  26.530  1.00  0.00     0.029 A 
ATOM     49  C   UNL A   1      47.237  26.263  27.066  1.00  0.00     0.049 A 
ATOM     50  H   UNL A   1      45.617  27.330  27.828  1.00  0.00     0.167 HD
ATOM     51  C   UNL A   1      42.158  29.476  29.405  1.00  0.00     0.031 A 
ATOM     52  C   UNL A   1      48.320  27.059  27.155  1.00  0.00     0.031 A 
ATOM     53  C   UNL A   1      43.271  30.364  29.610  1.00  0.00     0.049 A 
ATOM     54  C   UNL A   1      48.183  28.424  27.776  1.00  0.00     0.074 A 
ATOM     55  C   UNL A   1      43.275  31.618  30.199  1.00  0.00     0.029 A 
ATOM     56  N   UNL A   1      44.579  30.095  29.240  1.00  0.00    -0.354 N 
ATOM     57  N   UNL A   1      47.112  29.008  28.256  1.00  0.00    -0.248 NA
ATOM     58  C   UNL A   1      49.410  29.226  27.889  1.00  0.00     0.031 C 
ATOM     59  C   UNL A   1      44.578  32.124  30.144  1.00  0.00     0.029 A 
ATOM     60  C   UNL A   1      45.396  31.162  29.574  1.00  0.00     0.049 A 
ATOM     61  H   UNL A   1      44.884  29.266  28.802  1.00  0.00     0.167 HD
ATOM     62  C   UNL A   1      47.543  30.232  28.760  1.00  0.00     0.074 A 
ATOM     63  C   UNL A   1      48.971  30.296  28.538  1.00  0.00     0.031 C 
ATOM     64  C   UNL A   1      46.819  31.213  29.354  1.00  0.00     0.031 A 
BRANCH  51  65
ATOM     65  C   UNL A   1      40.789  29.947  29.821  1.00  0.00    -0.014 A 
ATOM     66  C   UNL A   1      39.747  30.069  28.882  1.00  0.00     0.010 A 
ATOM     67  C   UNL A   1      40.524  30.218  31.176  1.00  0.00     0.010 A 
ATOM     68  C   UNL A   1      38.476  30.486  29.287  1.00  0.00     0.020 A 
ATOM     69  C   UNL A   1      39.247  30.608  31.588  1.00  0.00     0.020 A 
ATOM     70  C   UNL A   1      38.234  30.753  30.637  1.00  0.00     0.054 A 
BRANCH  70  71
ATOM     71  S   UNL A   1      36.565  31.259  31.139  1.00  0.00     0.124 S 
ATOM     72  O   UNL A   1      36.824  32.541  31.791  1.00  0.00    -0.237 OA
ATOM     73  O   UNL A   1      35.858  31.337  29.863  1.00  0.00    -0.237 OA
ATOM     74  O   UNL A   1      36.128  30.186  32.025  1.00  0.00    -0.744 OA
ENDBRANCH  70  71
ENDBRANCH  51  65
BRANCH  52  75
ATOM     75  C   UNL A   1      49.641  26.580  26.663  1.00  0.00    -0.014 A 
ATOM     76  C   UNL A   1      50.025  26.780  25.324  1.00  0.00     0.010 A 
ATOM     77  C   UNL A   1      50.519  25.907  27.531  1.00  0.00     0.010 A 
ATOM     78  C   UNL A   1      51.246  26.287  24.855  1.00  0.00     0.020 A 
ATOM     79  C   UNL A   1      51.755  25.439  27.073  1.00  0.00     0.020 A 
ATOM     80  C   UNL A   1      52.103  25.619  25.734  1.00  0.00     0.054 A 
BRANCH  80  81
ATOM     81  S   UNL A   1      53.698  25.016  25.115  1.00  0.00     0.124 S 
ATOM     82  O   UNL A   1      53.774  25.651  23.803  1.00  0.00    -0.237 OA
ATOM     83  O   UNL A   1      54.636  25.515  26.116  1.00  0.00    -0.237 OA
ATOM     84  O   UNL A   1      53.530  23.564  25.100  1.00  0.00    -0.744 OA
ENDBRANCH  80  81
ENDBRANCH  52  75
BRANCH  64  85
ATOM     85  C   UNL A   1      47.569  32.418  29.857  1.00  0.00    -0.014 A 
ATOM     86  C   UNL A   1      47.805  33.533  29.035  1.00  0.00     0.010 A 
ATOM     87  C   UNL A   1      48.020  32.443  31.190  1.00  0.00     0.010 A 
ATOM     88  C   UNL A   1      48.522  34.630  29.520  1.00  0.00     0.020 A 
ATOM     89  C   UNL A   1      48.712  33.548  31.688  1.00  0.00     0.020 A 
ATOM     90  C   UNL A   1      48.977  34.627  30.843  1.00  0.00     0.054 A 
BRANCH  90  91
ATOM     91  S   UNL A   1      49.894  36.067  31.456  1.00  0.00     0.124 S 
ATOM     92  O   UNL A   1      50.764  36.377  30.325  1.00  0.00    -0.237 OA
ATOM     93  O   UNL A   1      48.833  37.037  31.718  1.00  0.00    -0.237 OA
ATOM     94  O   UNL A   1      50.575  35.562  32.647  1.00  0.00    -0.744 OA
ENDBRANCH  90  91
ENDBRANCH  64  85
ENDBRANCH  38  39
ENDBRANCH  30  33
ENDBRANCH  28  29
ENDBRANCH  27  28
ENDBRANCH  26  27
ENDBRANCH  25  26
ENDBRANCH   1  25
TORSDOF 21
ENDMDL
MODEL 3
REMARK VINA RESULT:      -9.8      2.988      3.572
REMARK SMILES O=C(CSCc1ccc(Cl)s1)Nc1ccsc1C(=O)NCCCCCCNC(=O)c1ccc(-c2c3nc(c(-c4ccc(S(=O)(=O)[O-])cc4)c4ccc([nH]4)c(-c4ccc(S(=O)(=O)[O-])cc4)c4nc(c(-c5ccc(S(=O)(=O)[O-])cc5)c5ccc2[nH]5)C=C4)C=C3)cc1
REMARK SMILES IDX 22 1 21 2 20 3 18 4 19 5 17 7 13 8 14 9 15 10 16 11 12 12
REMARK SMILES IDX 1 13 2 14 3 16 4 17 5 18 6 19 7 20 11 21 8 22 9 23 10 24
REMARK SMILES IDX 23 25 24 26 25 27 26 28 27 29 28 30 29 32 30 33 31 34 89 35
REMARK SMILES IDX 32 36 88 37 33 38 34 39 35 40 82 41 36 42 87 43 81 44 83 45
REMARK SMILES IDX 37 46 86 47 80 48 79 49 38 51 68 52 49 53 67 54 50 55 53 56
REMARK SMILES IDX 66 57 84 58 51 59 52 60 65 62 85 63 54 64 39 65 40 66 48 67
REMARK SMILES IDX 41 68 47 69 42 70 43 71 44 72 45 73 46 74 69 75 70 76 78 77
REMARK SMILES IDX 71 78 77 79 72 80 73 81 74 82 75 83 76 84 55 85 56 86 64 87
REMARK SMILES IDX 57 88 63 89 58 90 59 91 60 92 61 93 62 94
REMARK H PARENT 20 6 12 15 27 31 83 50 53 61
REMARK Flexibility Score: inf
ROOT
ATOM      1  C   UNL A   1      35.531  23.642  25.551  1.00  0.00     0.021 C 
ENDROOT
BRANCH   1   2
ATOM      2  C   UNL A   1      34.614  24.833  25.284  1.00  0.00     0.116 C 
BRANCH   2   3
ATOM      3  N   UNL A   1      34.408  25.011  23.874  1.00  0.00    -0.351 N 
ATOM      4  C   UNL A   1      33.563  25.729  23.078  1.00  0.00     0.263 C 
ATOM      5  O   UNL A   1      33.899  25.629  21.888  1.00  0.00    -0.268 OA
ATOM      6  H   UNL A   1      35.041  24.475  23.343  1.00  0.00     0.163 HD
BRANCH   4   7
ATOM      7  C   UNL A   1      32.397  26.518  23.495  1.00  0.00     0.115 A 
ATOM      8  C   UNL A   1      31.125  26.324  24.046  1.00  0.00     0.065 A 
ATOM      9  C   UNL A   1      30.334  27.535  23.985  1.00  0.00     0.038 A 
ATOM     10  C   UNL A   1      30.993  28.612  23.457  1.00  0.00     0.068 A 
ATOM     11  S   UNL A   1      32.578  28.212  23.043  1.00  0.00    -0.137 S 
BRANCH   8  12
ATOM     12  N   UNL A   1      30.577  25.172  24.621  1.00  0.00    -0.324 N 
ATOM     13  O   UNL A   1      31.375  25.493  26.772  1.00  0.00    -0.274 OA
ATOM     14  C   UNL A   1      30.895  24.758  25.909  1.00  0.00     0.234 C 
ATOM     15  H   UNL A   1      29.943  24.635  24.094  1.00  0.00     0.170 HD
BRANCH  14  16
ATOM     16  C   UNL A   1      30.604  23.304  26.217  1.00  0.00     0.170 C 
BRANCH  16  17
ATOM     17  S   UNL A   1      32.051  22.215  26.180  1.00  0.00    -0.146 SA
BRANCH  17  18
ATOM     18  C   UNL A   1      31.874  21.368  24.571  1.00  0.00     0.116 C 
BRANCH  18  19
ATOM     19  C   UNL A   1      32.760  20.174  24.466  1.00  0.00     0.016 A 
ATOM     20  C   UNL A   1      33.994  19.961  25.058  1.00  0.00     0.018 A 
ATOM     21  S   UNL A   1      32.320  18.859  23.454  1.00  0.00    -0.128 S 
ATOM     22  C   UNL A   1      34.567  18.709  24.685  1.00  0.00     0.033 A 
ATOM     23  C   UNL A   1      33.750  18.034  23.817  1.00  0.00     0.093 A 
ATOM     24  Cl  UNL A   1      34.053  16.503  23.102  1.00  0.00    -0.072 Cl
ENDBRANCH  18  19
ENDBRANCH  17  18
ENDBRANCH  16  17
ENDBRANCH  14  16
ENDBRANCH   8  12
ENDBRANCH   4   7
ENDBRANCH   2   3
ENDBRANCH   1   2
BRANCH   1  25
ATOM     25  C   UNL A   1      36.749  23.548  24.626  1.00  0.00     0.002 C 
BRANCH  25  26
ATOM     26  C   UNL A   1      36.826  22.282  23.762  1.00  0.00     0.002 C 
BRANCH  26  27
ATOM     27  C   UNL A   1      37.364  21.027  24.456  1.00  0.00     0.021 C 
BRANCH  27  28
ATOM     28  C   UNL A   1      38.362  21.279  25.586  1.00  0.00     0.116 C 
BRANCH  28  29
ATOM     29  N   UNL A   1      39.462  20.333  25.570  1.00  0.00    -0.352 N 
ATOM     30  C   UNL A   1      40.775  20.486  25.925  1.00  0.00     0.251 C 
ATOM     31  H   UNL A   1      39.225  19.433  25.251  1.00  0.00     0.163 HD
ATOM     32  O   UNL A   1      41.567  19.580  25.652  1.00  0.00    -0.269 OA
BRANCH  30  33
ATOM     33  C   UNL A   1      41.268  21.701  26.617  1.00  0.00     0.039 A 
ATOM     34  C   UNL A   1      41.055  21.804  27.997  1.00  0.00     0.014 A 
ATOM     35  C   UNL A   1      41.844  22.774  25.930  1.00  0.00     0.014 A 
ATOM     36  C   UNL A   1      41.425  22.963  28.683  1.00  0.00     0.010 A 
ATOM     37  C   UNL A   1      42.270  23.910  26.627  1.00  0.00     0.010 A 
ATOM     38  C   UNL A   1      42.041  24.028  28.006  1.00  0.00    -0.014 A 
BRANCH  38  39
ATOM     39  C   UNL A   1      42.392  25.278  28.733  1.00  0.00     0.031 A 
ATOM     40  C   UNL A   1      43.733  25.414  29.409  1.00  0.00     0.074 A 
ATOM     41  C   UNL A   1      41.509  26.296  28.785  1.00  0.00     0.049 A 
ATOM     42  N   UNL A   1      44.229  26.436  30.060  1.00  0.00    -0.248 NA
ATOM     43  C   UNL A   1      44.628  24.246  29.362  1.00  0.00     0.031 C 
ATOM     44  C   UNL A   1      40.166  26.283  28.202  1.00  0.00     0.029 A 
ATOM     45  N   UNL A   1      41.614  27.543  29.351  1.00  0.00    -0.354 N 
ATOM     46  C   UNL A   1      45.482  26.033  30.508  1.00  0.00     0.074 A 
ATOM     47  C   UNL A   1      45.653  24.656  30.095  1.00  0.00     0.031 C 
ATOM     48  C   UNL A   1      39.584  27.475  28.416  1.00  0.00     0.029 A 
ATOM     49  C   UNL A   1      40.497  28.327  29.173  1.00  0.00     0.049 A 
ATOM     50  H   UNL A   1      42.413  27.849  29.837  1.00  0.00     0.167 HD
ATOM     51  C   UNL A   1      46.417  26.746  31.182  1.00  0.00     0.031 A 
ATOM     52  C   UNL A   1      40.238  29.589  29.568  1.00  0.00     0.031 A 
ATOM     53  C   UNL A   1      46.258  28.120  31.577  1.00  0.00     0.049 A 
ATOM     54  C   UNL A   1      41.298  30.363  30.303  1.00  0.00     0.074 A 
ATOM     55  C   UNL A   1      47.170  28.941  32.220  1.00  0.00     0.029 A 
ATOM     56  N   UNL A   1      45.119  28.880  31.364  1.00  0.00    -0.354 N 
ATOM     57  N   UNL A   1      42.500  29.981  30.662  1.00  0.00    -0.248 NA
ATOM     58  C   UNL A   1      40.973  31.750  30.666  1.00  0.00     0.031 C 
ATOM     59  C   UNL A   1      46.564  30.184  32.435  1.00  0.00     0.029 A 
ATOM     60  C   UNL A   1      45.297  30.155  31.874  1.00  0.00     0.049 A 
ATOM     61  H   UNL A   1      44.302  28.560  30.915  1.00  0.00     0.167 HD
ATOM     62  C   UNL A   1      43.087  31.092  31.260  1.00  0.00     0.074 A 
ATOM     63  C   UNL A   1      42.115  32.161  31.202  1.00  0.00     0.031 C 
ATOM     64  C   UNL A   1      44.323  31.214  31.805  1.00  0.00     0.031 A 
BRANCH  51  65
ATOM     65  C   UNL A   1      47.705  26.050  31.538  1.00  0.00    -0.014 A 
ATOM     66  C   UNL A   1      48.775  25.991  30.625  1.00  0.00     0.010 A 
ATOM     67  C   UNL A   1      47.870  25.496  32.821  1.00  0.00     0.010 A 
ATOM     68  C   UNL A   1      49.972  25.362  30.977  1.00  0.00     0.020 A 
ATOM     69  C   UNL A   1      49.076  24.891  33.186  1.00  0.00     0.020 A 
ATOM     70  C   UNL A   1      50.114  24.815  32.255  1.00  0.00     0.054 A 
BRANCH  70  71
ATOM     71  S   UNL A   1      51.692  24.036  32.697  1.00  0.00     0.124 S 
ATOM     72  O   UNL A   1      51.479  22.659  32.257  1.00  0.00    -0.237 OA
ATOM     73  O   UNL A   1      52.658  24.802  31.913  1.00  0.00    -0.237 OA
ATOM     74  O   UNL A   1      51.780  24.222  34.141  1.00  0.00    -0.744 OA
ENDBRANCH  70  71
ENDBRANCH  51  65
BRANCH  52  75
ATOM     75  C   UNL A   1      38.921  30.212  29.259  1.00  0.00    -0.014 A 
ATOM     76  C   UNL A   1      38.238  30.967  30.229  1.00  0.00     0.010 A 
ATOM     77  C   UNL A   1      38.336  30.039  27.992  1.00  0.00     0.010 A 
ATOM     78  C   UNL A   1      36.981  31.511  29.949  1.00  0.00     0.020 A 
ATOM     79  C   UNL A   1      37.093  30.607  27.697  1.00  0.00     0.020 A 
ATOM     80  C   UNL A   1      36.416  31.326  28.684  1.00  0.00     0.054 A 
BRANCH  80  81
ATOM     81  S   UNL A   1      34.799  32.067  28.328  1.00  0.00     0.124 S 
ATOM     82  O   UNL A   1      34.295  32.353  29.668  1.00  0.00    -0.237 OA
ATOM     83  O   UNL A   1      35.154  33.232  27.522  1.00  0.00    -0.237 OA
ATOM     84  O   UNL A   1      34.093  31.012  27.605  1.00  0.00    -0.744 OA
ENDBRANCH  80  81
ENDBRANCH  52  75
BRANCH  64  85
ATOM     85  C   UNL A   1      44.714  32.568  32.336  1.00  0.00    -0.014 A 
ATOM     86  C   UNL A   1      45.327  33.531  31.516  1.00  0.00     0.010 A 
ATOM     87  C   UNL A   1      44.434  32.889  33.678  1.00  0.00     0.010 A 
ATOM     88  C   UNL A   1      45.699  34.773  32.040  1.00  0.00     0.020 A 
ATOM     89  C   UNL A   1      44.778  34.139  34.198  1.00  0.00     0.020 A 
ATOM     90  C   UNL A   1      45.427  35.065  33.381  1.00  0.00     0.054 A 
BRANCH  90  91
ATOM     91  S   UNL A   1      45.906  36.688  34.037  1.00  0.00     0.124 S 
ATOM     92  O   UNL A   1      46.914  37.119  33.072  1.00  0.00    -0.237 OA
ATOM     93  O   UNL A   1      44.648  37.431  34.008  1.00  0.00    -0.237 OA
ATOM     94  O   UNL A   1      46.411  36.384  35.374  1.00  0.00    -0.744 OA
ENDBRANCH  90  91
ENDBRANCH  64  85
ENDBRANCH  38  39
ENDBRANCH  30  33
ENDBRANCH  28  29
ENDBRANCH  27  28
ENDBRANCH  26  27
ENDBRANCH  25  26
ENDBRANCH   1  25
TORSDOF 21
ENDMDL
