MODEL 1
REMARK VINA RESULT:      -9.5      0.000      0.000
REMARK SMILES CC[C@H](C)Oc1ccc(NC(=O)/C=C/C(=O)NCCCCCCNC(=O)c2ccc(-c3c4nc(c(-c5ccc(S(=O)(=O)[O-])cc5)c5ccc([nH]5)c(-c5ccc(S(=O)(=O)[O-])cc5)c5nc(c(-c6ccc(S(=O)(=O)[O-])cc6)c6ccc3[nH]6)C=C5)C=C4)cc2)cc1
REMARK SMILES IDX 19 1 18 2 17 3 15 4 16 5 14 7 13 8 11 9 10 10 12 12 9 13
REMARK SMILES IDX 6 14 7 15 88 16 8 17 87 18 5 19 3 20 4 21 2 22 1 23 20 24
REMARK SMILES IDX 21 25 22 26 23 27 24 28 25 29 26 31 27 32 28 33 86 34 29 35
REMARK SMILES IDX 85 36 30 37 31 38 32 39 79 40 33 41 84 42 78 43 80 44 34 45
REMARK SMILES IDX 83 46 77 47 76 48 35 50 65 51 46 52 64 53 47 54 50 55 63 56
REMARK SMILES IDX 81 57 48 58 49 59 62 61 82 62 51 63 36 64 37 65 45 66 38 67
REMARK SMILES IDX 44 68 39 69 40 70 41 71 42 72 43 73 66 74 67 75 75 76 68 77
REMARK SMILES IDX 74 78 69 79 70 80 71 81 72 82 73 83 52 84 53 85 61 86 54 87
REMARK SMILES IDX 60 88 55 89 56 90 57 91 58 92 59 93
REMARK H PARENT 17 6 10 11 24 30 80 49 50 60
REMARK Flexibility Score: inf
ROOT
ATOM      1  C   UNL A   1      35.887  24.445  25.846  1.00  0.00     0.021 C 
ENDROOT
BRANCH   1   2
ATOM      2  C   UNL A   1      36.155  22.944  25.796  1.00  0.00     0.116 C 
BRANCH   2   3
ATOM      3  N   UNL A   1      35.271  22.229  26.693  1.00  0.00    -0.353 N 
ATOM      4  C   UNL A   1      34.273  21.360  26.400  1.00  0.00     0.244 C 
ATOM      5  O   UNL A   1      33.747  20.701  27.292  1.00  0.00    -0.270 OA
ATOM      6  H   UNL A   1      35.415  22.399  27.651  1.00  0.00     0.163 HD
BRANCH   4   7
ATOM      7  C   UNL A   1      33.810  21.204  25.009  1.00  0.00     0.077 C 
ATOM      8  C   UNL A   1      32.850  22.005  24.523  1.00  0.00     0.077 C 
BRANCH   8   9
ATOM      9  C   UNL A   1      32.179  21.668  23.261  1.00  0.00     0.248 C 
ATOM     10  N   UNL A   1      31.632  22.662  22.500  1.00  0.00    -0.323 N 
ATOM     11  H   UNL A   1      31.192  22.345  21.679  1.00  0.00     0.170 HD
ATOM     12  O   UNL A   1      32.111  20.494  22.909  1.00  0.00    -0.270 OA
BRANCH  10  13
ATOM     13  C   UNL A   1      31.585  24.058  22.678  1.00  0.00     0.041 A 
ATOM     14  C   UNL A   1      31.381  26.856  22.530  1.00  0.00     0.119 A 
ATOM     15  C   UNL A   1      30.488  26.125  23.305  1.00  0.00     0.048 A 
ATOM     16  C   UNL A   1      32.471  26.205  21.971  1.00  0.00     0.048 A 
ATOM     17  C   UNL A   1      30.611  24.739  23.405  1.00  0.00     0.030 A 
ATOM     18  C   UNL A   1      32.566  24.809  22.030  1.00  0.00     0.030 A 
BRANCH  14  19
ATOM     19  O   UNL A   1      31.126  28.186  22.462  1.00  0.00    -0.491 OA
BRANCH  19  20
ATOM     20  C   UNL A   1      30.180  28.814  23.340  1.00  0.00     0.170 C 
ATOM     21  C   UNL A   1      30.858  29.635  24.430  1.00  0.00     0.053 C 
BRANCH  20  22
ATOM     22  C   UNL A   1      28.926  29.425  22.678  1.00  0.00     0.041 C 
ATOM     23  C   UNL A   1      29.131  30.539  21.658  1.00  0.00     0.008 C 
ENDBRANCH  20  22
ENDBRANCH  19  20
ENDBRANCH  14  19
ENDBRANCH  10  13
ENDBRANCH   8   9
ENDBRANCH   4   7
ENDBRANCH   2   3
ENDBRANCH   1   2
BRANCH   1  24
ATOM     24  C   UNL A   1      34.639  24.879  25.069  1.00  0.00     0.002 C 
BRANCH  24  25
ATOM     25  C   UNL A   1      33.458  25.320  25.942  1.00  0.00     0.002 C 
BRANCH  25  26
ATOM     26  C   UNL A   1      33.107  26.807  25.845  1.00  0.00     0.021 C 
BRANCH  26  27
ATOM     27  C   UNL A   1      34.219  27.742  26.298  1.00  0.00     0.116 C 
BRANCH  27  28
ATOM     28  N   UNL A   1      33.704  29.057  26.639  1.00  0.00    -0.352 N 
ATOM     29  C   UNL A   1      34.251  30.000  27.467  1.00  0.00     0.251 C 
ATOM     30  H   UNL A   1      32.847  29.302  26.221  1.00  0.00     0.163 HD
ATOM     31  O   UNL A   1      33.577  30.957  27.847  1.00  0.00    -0.269 OA
BRANCH  29  32
ATOM     32  C   UNL A   1      35.653  29.854  27.907  1.00  0.00     0.039 A 
ATOM     33  C   UNL A   1      35.916  29.443  29.214  1.00  0.00     0.014 A 
ATOM     34  C   UNL A   1      36.704  30.119  27.022  1.00  0.00     0.014 A 
ATOM     35  C   UNL A   1      37.238  29.256  29.623  1.00  0.00     0.010 A 
ATOM     36  C   UNL A   1      38.014  29.858  27.408  1.00  0.00     0.010 A 
ATOM     37  C   UNL A   1      38.295  29.437  28.717  1.00  0.00    -0.014 A 
BRANCH  37  38
ATOM     38  C   UNL A   1      39.703  29.204  29.122  1.00  0.00     0.031 A 
ATOM     39  C   UNL A   1      40.364  27.886  28.827  1.00  0.00     0.074 A 
ATOM     40  C   UNL A   1      40.366  30.158  29.804  1.00  0.00     0.049 A 
ATOM     41  N   UNL A   1      41.566  27.477  29.143  1.00  0.00    -0.248 NA
ATOM     42  C   UNL A   1      39.560  26.885  28.105  1.00  0.00     0.031 C 
ATOM     43  C   UNL A   1      39.816  31.459  30.191  1.00  0.00     0.029 A 
ATOM     44  N   UNL A   1      41.644  30.176  30.303  1.00  0.00    -0.354 N 
ATOM     45  C   UNL A   1      41.657  26.172  28.670  1.00  0.00     0.074 A 
ATOM     46  C   UNL A   1      40.371  25.838  28.100  1.00  0.00     0.031 C 
ATOM     47  C   UNL A   1      40.758  32.156  30.847  1.00  0.00     0.029 A 
ATOM     48  C   UNL A   1      41.962  31.340  30.963  1.00  0.00     0.049 A 
ATOM     49  H   UNL A   1      42.274  29.428  30.198  1.00  0.00     0.167 HD
ATOM     50  C   UNL A   1      42.724  25.336  28.687  1.00  0.00     0.031 A 
ATOM     51  C   UNL A   1      43.091  31.705  31.600  1.00  0.00     0.031 A 
ATOM     52  C   UNL A   1      44.001  25.675  29.257  1.00  0.00     0.049 A 
ATOM     53  C   UNL A   1      44.259  30.758  31.617  1.00  0.00     0.074 A 
ATOM     54  C   UNL A   1      45.157  24.918  29.287  1.00  0.00     0.029 A 
ATOM     55  N   UNL A   1      44.287  26.869  29.902  1.00  0.00    -0.354 N 
ATOM     56  N   UNL A   1      44.350  29.554  31.105  1.00  0.00    -0.248 NA
ATOM     57  C   UNL A   1      45.482  31.225  32.284  1.00  0.00     0.031 C 
ATOM     58  C   UNL A   1      46.129  25.633  29.998  1.00  0.00     0.029 A 
ATOM     59  C   UNL A   1      45.596  26.862  30.353  1.00  0.00     0.049 A 
ATOM     60  H   UNL A   1      43.653  27.613  30.021  1.00  0.00     0.167 HD
ATOM     61  C   UNL A   1      45.647  29.127  31.367  1.00  0.00     0.074 A 
ATOM     62  C   UNL A   1      46.308  30.210  32.067  1.00  0.00     0.031 C 
ATOM     63  C   UNL A   1      46.237  27.946  31.056  1.00  0.00     0.031 A 
BRANCH  50  64
ATOM     64  C   UNL A   1      42.542  23.970  28.075  1.00  0.00    -0.014 A 
ATOM     65  C   UNL A   1      41.981  22.912  28.815  1.00  0.00     0.010 A 
ATOM     66  C   UNL A   1      42.917  23.744  26.739  1.00  0.00     0.010 A 
ATOM     67  C   UNL A   1      41.851  21.641  28.248  1.00  0.00     0.020 A 
ATOM     68  C   UNL A   1      42.758  22.483  26.157  1.00  0.00     0.020 A 
ATOM     69  C   UNL A   1      42.245  21.434  26.923  1.00  0.00     0.054 A 
BRANCH  69  70
ATOM     70  S   UNL A   1      42.061  19.776  26.213  1.00  0.00     0.124 S 
ATOM     71  O   UNL A   1      40.628  19.726  25.932  1.00  0.00    -0.237 OA
ATOM     72  O   UNL A   1      42.929  19.831  25.040  1.00  0.00    -0.237 OA
ATOM     73  O   UNL A   1      42.516  18.887  27.280  1.00  0.00    -0.744 OA
ENDBRANCH  69  70
ENDBRANCH  50  64
BRANCH  51  74
ATOM     74  C   UNL A   1      43.166  33.036  32.262  1.00  0.00    -0.014 A 
ATOM     75  C   UNL A   1      42.838  33.182  33.622  1.00  0.00     0.010 A 
ATOM     76  C   UNL A   1      43.600  34.164  31.539  1.00  0.00     0.010 A 
ATOM     77  C   UNL A   1      42.929  34.432  34.242  1.00  0.00     0.020 A 
ATOM     78  C   UNL A   1      43.721  35.409  32.163  1.00  0.00     0.020 A 
ATOM     79  C   UNL A   1      43.375  35.536  33.510  1.00  0.00     0.054 A 
BRANCH  79  80
ATOM     80  S   UNL A   1      43.548  37.135  34.353  1.00  0.00     0.124 S 
ATOM     81  O   UNL A   1      42.523  37.044  35.388  1.00  0.00    -0.237 OA
ATOM     82  O   UNL A   1      44.930  37.093  34.824  1.00  0.00    -0.237 OA
ATOM     83  O   UNL A   1      43.287  38.108  33.295  1.00  0.00    -0.744 OA
ENDBRANCH  79  80
ENDBRANCH  51  74
BRANCH  63  84
ATOM     84  C   UNL A   1      47.682  27.771  31.442  1.00  0.00    -0.014 A 
ATOM     85  C   UNL A   1      48.721  28.184  30.589  1.00  0.00     0.010 A 
ATOM     86  C   UNL A   1      48.002  27.237  32.703  1.00  0.00     0.010 A 
ATOM     87  C   UNL A   1      50.055  28.036  30.979  1.00  0.00     0.020 A 
ATOM     88  C   UNL A   1      49.333  27.115  33.109  1.00  0.00     0.020 A 
ATOM     89  C   UNL A   1      50.353  27.503  32.237  1.00  0.00     0.054 A 
BRANCH  89  90
ATOM     90  S   UNL A   1      52.091  27.364  32.736  1.00  0.00     0.124 S 
ATOM     91  O   UNL A   1      52.005  27.537  34.184  1.00  0.00    -0.237 OA
ATOM     92  O   UNL A   1      52.448  26.022  32.282  1.00  0.00    -0.237 OA
ATOM     93  O   UNL A   1      52.747  28.454  32.017  1.00  0.00    -0.744 OA
ENDBRANCH  89  90
ENDBRANCH  63  84
ENDBRANCH  37  38
ENDBRANCH  29  32
ENDBRANCH  27  28
ENDBRANCH  26  27
ENDBRANCH  25  26
ENDBRANCH  24  25
ENDBRANCH   1  24
TORSDOF 21
ENDMDL
MODEL 2
REMARK VINA RESULT:      -9.4      3.561      9.500
REMARK SMILES CC[C@H](C)Oc1ccc(NC(=O)/C=C/C(=O)NCCCCCCNC(=O)c2ccc(-c3c4nc(c(-c5ccc(S(=O)(=O)[O-])cc5)c5ccc([nH]5)c(-c5ccc(S(=O)(=O)[O-])cc5)c5nc(c(-c6ccc(S(=O)(=O)[O-])cc6)c6ccc3[nH]6)C=C5)C=C4)cc2)cc1
REMARK SMILES IDX 19 1 18 2 17 3 15 4 16 5 14 7 13 8 11 9 10 10 12 12 9 13
REMARK SMILES IDX 6 14 7 15 88 16 8 17 87 18 5 19 3 20 4 21 2 22 1 23 20 24
REMARK SMILES IDX 21 25 22 26 23 27 24 28 25 29 26 31 27 32 28 33 86 34 29 35
REMARK SMILES IDX 85 36 30 37 31 38 32 39 79 40 33 41 84 42 78 43 80 44 34 45
REMARK SMILES IDX 83 46 77 47 76 48 35 50 65 51 46 52 64 53 47 54 50 55 63 56
REMARK SMILES IDX 81 57 48 58 49 59 62 61 82 62 51 63 36 64 37 65 45 66 38 67
REMARK SMILES IDX 44 68 39 69 40 70 41 71 42 72 43 73 66 74 67 75 75 76 68 77
REMARK SMILES IDX 74 78 69 79 70 80 71 81 72 82 73 83 52 84 53 85 61 86 54 87
REMARK SMILES IDX 60 88 55 89 56 90 57 91 58 92 59 93
REMARK H PARENT 17 6 10 11 24 30 80 49 50 60
REMARK Flexibility Score: inf
ROOT
ATOM      1  C   UNL A   1      33.969  28.864  23.622  1.00  0.00     0.021 C 
ENDROOT
BRANCH   1   2
ATOM      2  C   UNL A   1      33.068  28.628  22.413  1.00  0.00     0.116 C 
BRANCH   2   3
ATOM      3  N   UNL A   1      33.466  27.434  21.695  1.00  0.00    -0.353 N 
ATOM      4  C   UNL A   1      32.771  26.291  21.481  1.00  0.00     0.244 C 
ATOM      5  O   UNL A   1      33.190  25.452  20.690  1.00  0.00    -0.270 OA
ATOM      6  H   UNL A   1      34.370  27.456  21.308  1.00  0.00     0.163 HD
BRANCH   4   7
ATOM      7  C   UNL A   1      31.507  26.046  22.201  1.00  0.00     0.077 C 
ATOM      8  C   UNL A   1      31.483  26.050  23.542  1.00  0.00     0.077 C 
BRANCH   8   9
ATOM      9  C   UNL A   1      30.318  25.517  24.259  1.00  0.00     0.248 C 
ATOM     10  N   UNL A   1      30.469  24.443  25.091  1.00  0.00    -0.323 N 
ATOM     11  H   UNL A   1      29.635  24.145  25.519  1.00  0.00     0.170 HD
ATOM     12  O   UNL A   1      29.219  26.039  24.097  1.00  0.00    -0.270 OA
BRANCH  10  13
ATOM     13  C   UNL A   1      31.603  23.686  25.446  1.00  0.00     0.041 A 
ATOM     14  C   UNL A   1      34.012  22.261  25.672  1.00  0.00     0.119 A 
ATOM     15  C   UNL A   1      33.801  23.409  26.424  1.00  0.00     0.048 A 
ATOM     16  C   UNL A   1      32.956  21.736  24.939  1.00  0.00     0.048 A 
ATOM     17  C   UNL A   1      32.591  24.098  26.337  1.00  0.00     0.030 A 
ATOM     18  C   UNL A   1      31.760  22.453  24.814  1.00  0.00     0.030 A 
BRANCH  14  19
ATOM     19  O   UNL A   1      35.247  21.713  25.794  1.00  0.00    -0.491 OA
BRANCH  19  20
ATOM     20  C   UNL A   1      36.162  21.673  24.690  1.00  0.00     0.170 C 
ATOM     21  C   UNL A   1      36.111  22.943  23.850  1.00  0.00     0.053 C 
BRANCH  20  22
ATOM     22  C   UNL A   1      37.557  21.074  24.972  1.00  0.00     0.041 C 
ATOM     23  C   UNL A   1      37.708  19.559  24.902  1.00  0.00     0.008 C 
ENDBRANCH  20  22
ENDBRANCH  19  20
ENDBRANCH  14  19
ENDBRANCH  10  13
ENDBRANCH   8   9
ENDBRANCH   4   7
ENDBRANCH   2   3
ENDBRANCH   1   2
BRANCH   1  24
ATOM     24  C   UNL A   1      33.210  28.957  24.950  1.00  0.00     0.002 C 
BRANCH  24  25
ATOM     25  C   UNL A   1      34.009  28.509  26.180  1.00  0.00     0.002 C 
BRANCH  25  26
ATOM     26  C   UNL A   1      34.248  29.603  27.225  1.00  0.00     0.021 C 
BRANCH  26  27
ATOM     27  C   UNL A   1      35.610  29.534  27.901  1.00  0.00     0.116 C 
BRANCH  27  28
ATOM     28  N   UNL A   1      35.515  29.827  29.321  1.00  0.00    -0.352 N 
ATOM     29  C   UNL A   1      36.469  29.669  30.291  1.00  0.00     0.251 C 
ATOM     30  H   UNL A   1      34.650  30.185  29.628  1.00  0.00     0.163 HD
ATOM     31  O   UNL A   1      36.157  29.727  31.481  1.00  0.00    -0.269 OA
BRANCH  29  32
ATOM     32  C   UNL A   1      37.870  29.419  29.897  1.00  0.00     0.039 A 
ATOM     33  C   UNL A   1      38.779  28.980  30.860  1.00  0.00     0.014 A 
ATOM     34  C   UNL A   1      38.278  29.616  28.574  1.00  0.00     0.014 A 
ATOM     35  C   UNL A   1      40.093  28.697  30.486  1.00  0.00     0.010 A 
ATOM     36  C   UNL A   1      39.566  29.260  28.189  1.00  0.00     0.010 A 
ATOM     37  C   UNL A   1      40.490  28.810  29.143  1.00  0.00    -0.014 A 
BRANCH  37  38
ATOM     38  C   UNL A   1      41.872  28.474  28.720  1.00  0.00     0.031 A 
ATOM     39  C   UNL A   1      42.919  29.550  28.641  1.00  0.00     0.074 A 
ATOM     40  C   UNL A   1      42.167  27.211  28.353  1.00  0.00     0.049 A 
ATOM     41  N   UNL A   1      44.164  29.463  28.249  1.00  0.00    -0.248 NA
ATOM     42  C   UNL A   1      42.506  30.910  29.029  1.00  0.00     0.031 C 
ATOM     43  C   UNL A   1      41.225  26.090  28.341  1.00  0.00     0.029 A 
ATOM     44  N   UNL A   1      43.343  26.661  27.909  1.00  0.00    -0.354 N 
ATOM     45  C   UNL A   1      44.678  30.752  28.332  1.00  0.00     0.074 A 
ATOM     46  C   UNL A   1      43.595  31.612  28.754  1.00  0.00     0.031 C 
ATOM     47  C   UNL A   1      41.865  24.983  27.933  1.00  0.00     0.029 A 
ATOM     48  C   UNL A   1      43.249  25.321  27.616  1.00  0.00     0.049 A 
ATOM     49  H   UNL A   1      44.176  27.176  27.810  1.00  0.00     0.167 HD
ATOM     50  C   UNL A   1      45.943  31.178  28.101  1.00  0.00     0.031 A 
ATOM     51  C   UNL A   1      44.169  24.462  27.136  1.00  0.00     0.031 A 
ATOM     52  C   UNL A   1      47.016  30.317  27.680  1.00  0.00     0.049 A 
ATOM     53  C   UNL A   1      45.564  24.958  26.875  1.00  0.00     0.074 A 
ATOM     54  C   UNL A   1      48.343  30.640  27.462  1.00  0.00     0.029 A 
ATOM     55  N   UNL A   1      46.883  28.963  27.409  1.00  0.00    -0.354 N 
ATOM     56  N   UNL A   1      46.049  26.167  27.024  1.00  0.00    -0.248 NA
ATOM     57  C   UNL A   1      46.540  23.970  26.396  1.00  0.00     0.031 C 
ATOM     58  C   UNL A   1      49.002  29.491  27.006  1.00  0.00     0.029 A 
ATOM     59  C   UNL A   1      48.099  28.439  27.004  1.00  0.00     0.049 A 
ATOM     60  H   UNL A   1      46.048  28.449  27.494  1.00  0.00     0.167 HD
ATOM     61  C   UNL A   1      47.394  26.082  26.681  1.00  0.00     0.074 A 
ATOM     62  C   UNL A   1      47.648  24.698  26.333  1.00  0.00     0.031 C 
ATOM     63  C   UNL A   1      48.334  27.059  26.655  1.00  0.00     0.031 A 
BRANCH  50  64
ATOM     64  C   UNL A   1      46.225  32.647  28.293  1.00  0.00    -0.014 A 
ATOM     65  C   UNL A   1      46.650  33.147  29.539  1.00  0.00     0.010 A 
ATOM     66  C   UNL A   1      46.083  33.537  27.214  1.00  0.00     0.010 A 
ATOM     67  C   UNL A   1      46.874  34.515  29.714  1.00  0.00     0.020 A 
ATOM     68  C   UNL A   1      46.337  34.902  27.376  1.00  0.00     0.020 A 
ATOM     69  C   UNL A   1      46.711  35.385  28.632  1.00  0.00     0.054 A 
BRANCH  69  70
ATOM     70  S   UNL A   1      47.012  37.155  28.888  1.00  0.00     0.124 S 
ATOM     71  O   UNL A   1      46.592  37.721  27.608  1.00  0.00    -0.237 OA
ATOM     72  O   UNL A   1      46.149  37.466  30.025  1.00  0.00    -0.237 OA
ATOM     73  O   UNL A   1      48.446  37.228  29.160  1.00  0.00    -0.744 OA
ENDBRANCH  69  70
ENDBRANCH  50  64
BRANCH  51  74
ATOM     74  C   UNL A   1      43.793  23.045  26.882  1.00  0.00    -0.014 A 
ATOM     75  C   UNL A   1      42.895  22.375  27.733  1.00  0.00     0.010 A 
ATOM     76  C   UNL A   1      44.309  22.364  25.763  1.00  0.00     0.010 A 
ATOM     77  C   UNL A   1      42.532  21.050  27.477  1.00  0.00     0.020 A 
ATOM     78  C   UNL A   1      43.925  21.049  25.487  1.00  0.00     0.020 A 
ATOM     79  C   UNL A   1      43.045  20.396  26.353  1.00  0.00     0.054 A 
BRANCH  79  80
ATOM     80  S   UNL A   1      42.509  18.698  26.005  1.00  0.00     0.124 S 
ATOM     81  O   UNL A   1      42.777  18.029  27.275  1.00  0.00    -0.237 OA
ATOM     82  O   UNL A   1      41.099  18.876  25.668  1.00  0.00    -0.237 OA
ATOM     83  O   UNL A   1      43.361  18.292  24.890  1.00  0.00    -0.744 OA
ENDBRANCH  79  80
ENDBRANCH  51  74
BRANCH  63  84
ATOM     84  C   UNL A   1      49.734  26.665  26.268  1.00  0.00    -0.014 A 
ATOM     85  C   UNL A   1      50.615  26.089  27.201  1.00  0.00     0.010 A 
ATOM     86  C   UNL A   1      50.154  26.821  24.935  1.00  0.00     0.010 A 
ATOM     87  C   UNL A   1      51.902  25.706  26.812  1.00  0.00     0.020 A 
ATOM     88  C   UNL A   1      51.429  26.411  24.536  1.00  0.00     0.020 A 
ATOM     89  C   UNL A   1      52.301  25.869  25.482  1.00  0.00     0.054 A 
BRANCH  89  90
ATOM     90  S   UNL A   1      53.960  25.322  24.995  1.00  0.00     0.124 S 
ATOM     91  O   UNL A   1      54.149  26.019  23.727  1.00  0.00    -0.237 OA
ATOM     92  O   UNL A   1      54.789  25.791  26.102  1.00  0.00    -0.237 OA
ATOM     93  O   UNL A   1      53.830  23.870  24.894  1.00  0.00    -0.744 OA
ENDBRANCH  89  90
ENDBRANCH  63  84
ENDBRANCH  37  38
ENDBRANCH  29  32
ENDBRANCH  27  28
ENDBRANCH  26  27
ENDBRANCH  25  26
ENDBRANCH  24  25
ENDBRANCH   1  24
TORSDOF 21
ENDMDL
MODEL 3
REMARK VINA RESULT:      -9.4      0.935      8.197
REMARK SMILES CC[C@H](C)Oc1ccc(NC(=O)/C=C/C(=O)NCCCCCCNC(=O)c2ccc(-c3c4nc(c(-c5ccc(S(=O)(=O)[O-])cc5)c5ccc([nH]5)c(-c5ccc(S(=O)(=O)[O-])cc5)c5nc(c(-c6ccc(S(=O)(=O)[O-])cc6)c6ccc3[nH]6)C=C5)C=C4)cc2)cc1
REMARK SMILES IDX 19 1 18 2 17 3 15 4 16 5 14 7 13 8 11 9 10 10 12 12 9 13
REMARK SMILES IDX 6 14 7 15 88 16 8 17 87 18 5 19 3 20 4 21 2 22 1 23 20 24
REMARK SMILES IDX 21 25 22 26 23 27 24 28 25 29 26 31 27 32 28 33 86 34 29 35
REMARK SMILES IDX 85 36 30 37 31 38 32 39 79 40 33 41 84 42 78 43 80 44 34 45
REMARK SMILES IDX 83 46 77 47 76 48 35 50 65 51 46 52 64 53 47 54 50 55 63 56
REMARK SMILES IDX 81 57 48 58 49 59 62 61 82 62 51 63 36 64 37 65 45 66 38 67
REMARK SMILES IDX 44 68 39 69 40 70 41 71 42 72 43 73 66 74 67 75 75 76 68 77
REMARK SMILES IDX 74 78 69 79 70 80 71 81 72 82 73 83 52 84 53 85 61 86 54 87
REMARK SMILES IDX 60 88 55 89 56 90 57 91 58 92 59 93
REMARK H PARENT 17 6 10 11 24 30 80 49 50 60
REMARK Flexibility Score: inf
ROOT
ATOM      1  C   UNL A   1      34.898  25.028  26.363  1.00  0.00     0.021 C 
ENDROOT
BRANCH   1   2
ATOM      2  C   UNL A   1      35.529  23.691  25.985  1.00  0.00     0.116 C 
BRANCH   2   3
ATOM      3  N   UNL A   1      34.880  22.597  26.678  1.00  0.00    -0.353 N 
ATOM      4  C   UNL A   1      34.117  21.596  26.177  1.00  0.00     0.244 C 
ATOM      5  O   UNL A   1      33.802  20.644  26.885  1.00  0.00    -0.270 OA
ATOM      6  H   UNL A   1      35.012  22.578  27.653  1.00  0.00     0.163 HD
BRANCH   4   7
ATOM      7  C   UNL A   1      33.657  21.645  24.776  1.00  0.00     0.077 C 
ATOM      8  C   UNL A   1      32.548  22.327  24.454  1.00  0.00     0.077 C 
BRANCH   8   9
ATOM      9  C   UNL A   1      31.922  22.136  23.140  1.00  0.00     0.248 C 
ATOM     10  N   UNL A   1      31.231  23.164  22.564  1.00  0.00    -0.323 N 
ATOM     11  H   UNL A   1      30.834  22.944  21.691  1.00  0.00     0.170 HD
ATOM     12  O   UNL A   1      32.021  21.049  22.576  1.00  0.00    -0.270 OA
BRANCH  10  13
ATOM     13  C   UNL A   1      30.985  24.483  22.993  1.00  0.00     0.041 A 
ATOM     14  C   UNL A   1      30.255  27.165  23.399  1.00  0.00     0.119 A 
ATOM     15  C   UNL A   1      29.742  26.165  24.216  1.00  0.00     0.048 A 
ATOM     16  C   UNL A   1      31.258  26.842  22.495  1.00  0.00     0.048 A 
ATOM     17  C   UNL A   1      30.131  24.837  24.036  1.00  0.00     0.030 A 
ATOM     18  C   UNL A   1      31.612  25.505  22.281  1.00  0.00     0.030 A 
BRANCH  14  19
ATOM     19  O   UNL A   1      29.759  28.406  23.629  1.00  0.00    -0.491 OA
BRANCH  19  20
ATOM     20  C   UNL A   1      28.808  29.009  22.740  1.00  0.00     0.170 C 
ATOM     21  C   UNL A   1      27.370  28.664  23.110  1.00  0.00     0.053 C 
BRANCH  20  22
ATOM     22  C   UNL A   1      29.092  30.465  22.312  1.00  0.00     0.041 C 
ATOM     23  C   UNL A   1      28.585  31.584  23.214  1.00  0.00     0.008 C 
ENDBRANCH  20  22
ENDBRANCH  19  20
ENDBRANCH  14  19
ENDBRANCH  10  13
ENDBRANCH   8   9
ENDBRANCH   4   7
ENDBRANCH   2   3
ENDBRANCH   1   2
BRANCH   1  24
ATOM     24  C   UNL A   1      34.179  25.724  25.203  1.00  0.00     0.002 C 
BRANCH  24  25
ATOM     25  C   UNL A   1      32.976  26.583  25.614  1.00  0.00     0.002 C 
BRANCH  25  26
ATOM     26  C   UNL A   1      33.293  27.691  26.622  1.00  0.00     0.021 C 
BRANCH  26  27
ATOM     27  C   UNL A   1      34.199  28.788  26.081  1.00  0.00     0.116 C 
BRANCH  27  28
ATOM     28  N   UNL A   1      33.938  30.062  26.729  1.00  0.00    -0.352 N 
ATOM     29  C   UNL A   1      34.642  30.666  27.737  1.00  0.00     0.251 C 
ATOM     30  H   UNL A   1      33.151  30.555  26.403  1.00  0.00     0.163 HD
ATOM     31  O   UNL A   1      34.156  31.620  28.345  1.00  0.00    -0.269 OA
BRANCH  29  32
ATOM     32  C   UNL A   1      35.982  30.158  28.093  1.00  0.00     0.039 A 
ATOM     33  C   UNL A   1      37.006  30.222  27.147  1.00  0.00     0.014 A 
ATOM     34  C   UNL A   1      36.221  29.623  29.363  1.00  0.00     0.014 A 
ATOM     35  C   UNL A   1      38.287  29.788  27.492  1.00  0.00     0.010 A 
ATOM     36  C   UNL A   1      37.514  29.263  29.728  1.00  0.00     0.010 A 
ATOM     37  C   UNL A   1      38.557  29.329  28.792  1.00  0.00    -0.014 A 
BRANCH  37  38
ATOM     38  C   UNL A   1      39.921  28.902  29.187  1.00  0.00     0.031 A 
ATOM     39  C   UNL A   1      40.835  29.861  29.900  1.00  0.00     0.074 A 
ATOM     40  C   UNL A   1      40.356  27.670  28.855  1.00  0.00     0.049 A 
ATOM     41  N   UNL A   1      42.074  29.689  30.284  1.00  0.00    -0.248 NA
ATOM     42  C   UNL A   1      40.294  31.198  30.199  1.00  0.00     0.031 C 
ATOM     43  C   UNL A   1      39.580  26.668  28.122  1.00  0.00     0.029 A 
ATOM     44  N   UNL A   1      41.562  27.056  29.081  1.00  0.00    -0.354 N 
ATOM     45  C   UNL A   1      42.463  30.895  30.856  1.00  0.00     0.074 A 
ATOM     46  C   UNL A   1      41.350  31.808  30.716  1.00  0.00     0.031 C 
ATOM     47  C   UNL A   1      40.321  25.557  27.978  1.00  0.00     0.029 A 
ATOM     48  C   UNL A   1      41.635  25.782  28.571  1.00  0.00     0.049 A 
ATOM     49  H   UNL A   1      42.304  27.487  29.562  1.00  0.00     0.167 HD
ATOM     50  C   UNL A   1      43.632  31.208  31.464  1.00  0.00     0.031 A 
ATOM     51  C   UNL A   1      42.650  24.895  28.571  1.00  0.00     0.031 A 
ATOM     52  C   UNL A   1      44.736  30.295  31.599  1.00  0.00     0.049 A 
ATOM     53  C   UNL A   1      43.944  25.266  29.241  1.00  0.00     0.074 A 
ATOM     54  C   UNL A   1      45.947  30.497  32.236  1.00  0.00     0.029 A 
ATOM     55  N   UNL A   1      44.765  29.008  31.083  1.00  0.00    -0.354 N 
ATOM     56  N   UNL A   1      44.269  26.388  29.838  1.00  0.00    -0.248 NA
ATOM     57  C   UNL A   1      45.001  24.246  29.254  1.00  0.00     0.031 C 
ATOM     58  C   UNL A   1      46.730  29.350  32.059  1.00  0.00     0.029 A 
ATOM     59  C   UNL A   1      45.982  28.410  31.368  1.00  0.00     0.049 A 
ATOM     60  H   UNL A   1      44.029  28.580  30.588  1.00  0.00     0.167 HD
ATOM     61  C   UNL A   1      45.561  26.202  30.317  1.00  0.00     0.074 A 
ATOM     62  C   UNL A   1      45.948  24.853  29.956  1.00  0.00     0.031 C 
ATOM     63  C   UNL A   1      46.354  27.068  30.995  1.00  0.00     0.031 A 
BRANCH  50  64
ATOM     64  C   UNL A   1      43.771  32.602  32.022  1.00  0.00    -0.014 A 
ATOM     65  C   UNL A   1      44.245  33.659  31.222  1.00  0.00     0.010 A 
ATOM     66  C   UNL A   1      43.406  32.865  33.354  1.00  0.00     0.010 A 
ATOM     67  C   UNL A   1      44.404  34.939  31.760  1.00  0.00     0.020 A 
ATOM     68  C   UNL A   1      43.533  34.151  33.887  1.00  0.00     0.020 A 
ATOM     69  C   UNL A   1      44.051  35.176  33.092  1.00  0.00     0.054 A 
BRANCH  69  70
ATOM     70  S   UNL A   1      44.264  36.847  33.761  1.00  0.00     0.124 S 
ATOM     71  O   UNL A   1      44.863  36.575  35.066  1.00  0.00    -0.237 OA
ATOM     72  O   UNL A   1      45.148  37.475  32.783  1.00  0.00    -0.237 OA
ATOM     73  O   UNL A   1      42.904  37.382  33.801  1.00  0.00    -0.744 OA
ENDBRANCH  69  70
ENDBRANCH  50  64
BRANCH  51  74
ATOM     74  C   UNL A   1      42.470  23.569  27.919  1.00  0.00    -0.014 A 
ATOM     75  C   UNL A   1      42.939  23.340  26.614  1.00  0.00     0.010 A 
ATOM     76  C   UNL A   1      41.854  22.514  28.619  1.00  0.00     0.010 A 
ATOM     77  C   UNL A   1      42.783  22.086  26.015  1.00  0.00     0.020 A 
ATOM     78  C   UNL A   1      41.723  21.251  28.035  1.00  0.00     0.020 A 
ATOM     79  C   UNL A   1      42.181  21.048  26.732  1.00  0.00     0.054 A 
BRANCH  79  80
ATOM     80  S   UNL A   1      42.049  19.411  25.959  1.00  0.00     0.124 S 
ATOM     81  O   UNL A   1      42.544  18.535  27.017  1.00  0.00    -0.237 OA
ATOM     82  O   UNL A   1      40.619  19.313  25.672  1.00  0.00    -0.237 OA
ATOM     83  O   UNL A   1      42.906  19.519  24.781  1.00  0.00    -0.744 OA
ENDBRANCH  79  80
ENDBRANCH  51  74
BRANCH  63  84
ATOM     84  C   UNL A   1      47.713  26.576  31.421  1.00  0.00    -0.014 A 
ATOM     85  C   UNL A   1      48.843  26.756  30.604  1.00  0.00     0.010 A 
ATOM     86  C   UNL A   1      47.867  25.975  32.683  1.00  0.00     0.010 A 
ATOM     87  C   UNL A   1      50.099  26.314  31.031  1.00  0.00     0.020 A 
ATOM     88  C   UNL A   1      49.126  25.561  33.126  1.00  0.00     0.020 A 
ATOM     89  C   UNL A   1      50.233  25.720  32.289  1.00  0.00     0.054 A 
BRANCH  89  90
ATOM     90  S   UNL A   1      51.880  25.198  32.837  1.00  0.00     0.124 S 
ATOM     91  O   UNL A   1      52.750  26.095  32.081  1.00  0.00    -0.237 OA
ATOM     92  O   UNL A   1      51.829  25.436  34.277  1.00  0.00    -0.237 OA
ATOM     93  O   UNL A   1      51.946  23.791  32.447  1.00  0.00    -0.744 OA
ENDBRANCH  89  90
ENDBRANCH  63  84
ENDBRANCH  37  38
ENDBRANCH  29  32
ENDBRANCH  27  28
ENDBRANCH  26  27
ENDBRANCH  25  26
ENDBRANCH  24  25
ENDBRANCH   1  24
TORSDOF 21
ENDMDL
