MODEL 1
REMARK VINA RESULT:     -10.7      0.000      0.000
REMARK SMILES O=C(NCCCCCCNC(=O)c1ccc2nc(-c3c[nH]nc3-c3ccc(F)cc3F)[nH]c2c1)c1ccc(-c2c3nc(c(-c4ccc(S(=O)(=O)[O-])cc4)c4ccc([nH]4)c(-c4ccc(S(=O)(=O)[O-])cc4)c4nc(c(-c5ccc(S(=O)(=O)[O-])cc5)c5ccc2[nH]5)C=C4)C=C3)cc1
REMARK SMILES IDX 6 1 5 2 4 3 3 4 1 5 2 6 35 8 36 9 94 10 37 11 93 12 38 13
REMARK SMILES IDX 39 14 40 15 87 16 41 17 92 18 86 19 88 20 42 21 91 22 85 23
REMARK SMILES IDX 84 24 43 26 73 27 54 28 72 29 55 30 58 31 71 32 89 33 56 34
REMARK SMILES IDX 57 35 70 37 90 38 59 39 44 40 45 41 53 42 46 43 52 44 47 45
REMARK SMILES IDX 48 46 49 47 50 48 51 49 74 50 75 51 83 52 76 53 82 54 77 55
REMARK SMILES IDX 78 56 79 57 80 58 81 59 60 60 61 61 69 62 62 63 68 64 63 65
REMARK SMILES IDX 64 66 65 67 66 68 67 69 7 70 8 71 9 72 10 73 11 74 12 76
REMARK SMILES IDX 13 77 14 78 34 79 15 80 33 81 16 82 32 83 17 84 18 85 19 87
REMARK SMILES IDX 20 88 23 89 21 90 22 91 24 93 25 94 30 95 26 96 29 97 31 98
REMARK SMILES IDX 27 99 28 100
REMARK H PARENT 3 7 88 25 58 36 10 75 32 86 21 92
REMARK Flexibility Score: inf
ROOT
ATOM      1  C   UNL A   1      47.111  26.677  27.065  1.00  0.00     0.002 C 
ENDROOT
BRANCH   1   2
ATOM      2  C   UNL A   1      46.157  25.851  26.199  1.00  0.00     0.021 C 
BRANCH   2   3
ATOM      3  C   UNL A   1      44.676  26.086  26.478  1.00  0.00     0.116 C 
BRANCH   3   4
ATOM      4  N   UNL A   1      44.024  26.796  25.392  1.00  0.00    -0.352 N 
ATOM      5  O   UNL A   1      42.433  28.048  24.407  1.00  0.00    -0.269 OA
ATOM      6  C   UNL A   1      42.995  27.701  25.442  1.00  0.00     0.251 C 
ATOM      7  H   UNL A   1      44.370  26.600  24.491  1.00  0.00     0.163 HD
BRANCH   6   8
ATOM      8  C   UNL A   1      42.557  28.245  26.744  1.00  0.00     0.039 A 
ATOM      9  C   UNL A   1      41.439  27.721  27.402  1.00  0.00     0.014 A 
ATOM     10  C   UNL A   1      43.296  29.277  27.326  1.00  0.00     0.014 A 
ATOM     11  C   UNL A   1      40.997  28.299  28.588  1.00  0.00     0.010 A 
ATOM     12  C   UNL A   1      42.891  29.811  28.550  1.00  0.00     0.010 A 
ATOM     13  C   UNL A   1      41.727  29.341  29.182  1.00  0.00    -0.014 A 
BRANCH  13  14
ATOM     14  C   UNL A   1      41.313  29.900  30.492  1.00  0.00     0.031 A 
ATOM     15  C   UNL A   1      40.083  30.755  30.606  1.00  0.00     0.074 A 
ATOM     16  C   UNL A   1      42.085  29.675  31.572  1.00  0.00     0.049 A 
ATOM     17  N   UNL A   1      39.628  31.408  31.644  1.00  0.00    -0.248 NA
ATOM     18  C   UNL A   1      39.264  30.903  29.394  1.00  0.00     0.031 C 
ATOM     19  C   UNL A   1      43.300  28.858  31.582  1.00  0.00     0.029 A 
ATOM     20  N   UNL A   1      41.974  30.125  32.862  1.00  0.00    -0.354 N 
ATOM     21  C   UNL A   1      38.488  32.071  31.206  1.00  0.00     0.074 A 
ATOM     22  C   UNL A   1      38.332  31.754  29.802  1.00  0.00     0.031 C 
ATOM     23  C   UNL A   1      43.824  28.867  32.817  1.00  0.00     0.029 A 
ATOM     24  C   UNL A   1      43.018  29.738  33.666  1.00  0.00     0.049 A 
ATOM     25  H   UNL A   1      41.220  30.674  33.180  1.00  0.00     0.167 HD
ATOM     26  C   UNL A   1      37.653  32.872  31.911  1.00  0.00     0.031 A 
ATOM     27  C   UNL A   1      43.325  30.076  34.933  1.00  0.00     0.031 A 
ATOM     28  C   UNL A   1      37.832  33.196  33.303  1.00  0.00     0.049 A 
ATOM     29  C   UNL A   1      42.414  31.001  35.685  1.00  0.00     0.074 A 
ATOM     30  C   UNL A   1      37.024  33.970  34.117  1.00  0.00     0.029 A 
ATOM     31  N   UNL A   1      38.902  32.779  34.082  1.00  0.00    -0.354 N 
ATOM     32  N   UNL A   1      41.315  31.585  35.270  1.00  0.00    -0.248 NA
ATOM     33  C   UNL A   1      42.775  31.310  37.074  1.00  0.00     0.031 C 
ATOM     34  C   UNL A   1      37.638  34.073  35.370  1.00  0.00     0.029 A 
ATOM     35  C   UNL A   1      38.792  33.304  35.358  1.00  0.00     0.049 A 
ATOM     36  H   UNL A   1      39.633  32.197  33.772  1.00  0.00     0.167 HD
ATOM     37  C   UNL A   1      40.836  32.308  36.355  1.00  0.00     0.074 A 
ATOM     38  C   UNL A   1      41.766  32.088  37.446  1.00  0.00     0.031 C 
ATOM     39  C   UNL A   1      39.722  33.075  36.439  1.00  0.00     0.031 A 
BRANCH  26  40
ATOM     40  C   UNL A   1      36.500  33.498  31.166  1.00  0.00    -0.014 A 
ATOM     41  C   UNL A   1      36.638  33.946  29.839  1.00  0.00     0.010 A 
ATOM     42  C   UNL A   1      35.255  33.638  31.807  1.00  0.00     0.010 A 
ATOM     43  C   UNL A   1      35.574  34.586  29.195  1.00  0.00     0.020 A 
ATOM     44  C   UNL A   1      34.180  34.249  31.155  1.00  0.00     0.020 A 
ATOM     45  C   UNL A   1      34.357  34.746  29.863  1.00  0.00     0.054 A 
BRANCH  45  46
ATOM     46  S   UNL A   1      33.007  35.616  29.019  1.00  0.00     0.124 S 
ATOM     47  O   UNL A   1      33.729  36.666  28.305  1.00  0.00    -0.237 OA
ATOM     48  O   UNL A   1      32.427  34.571  28.178  1.00  0.00    -0.237 OA
ATOM     49  O   UNL A   1      32.154  36.078  30.111  1.00  0.00    -0.744 OA
ENDBRANCH  45  46
ENDBRANCH  26  40
BRANCH  27  50
ATOM     50  C   UNL A   1      44.570  29.533  35.540  1.00  0.00    -0.014 A 
ATOM     51  C   UNL A   1      44.564  28.295  36.202  1.00  0.00     0.010 A 
ATOM     52  C   UNL A   1      45.791  30.214  35.370  1.00  0.00     0.010 A 
ATOM     53  C   UNL A   1      45.759  27.740  36.670  1.00  0.00     0.020 A 
ATOM     54  C   UNL A   1      46.990  29.650  35.812  1.00  0.00     0.020 A 
ATOM     55  C   UNL A   1      46.966  28.416  36.460  1.00  0.00     0.054 A 
BRANCH  55  56
ATOM     56  S   UNL A   1      48.512  27.622  36.981  1.00  0.00     0.124 S 
ATOM     57  O   UNL A   1      48.032  26.379  37.573  1.00  0.00    -0.237 OA
ATOM     58  O   UNL A   1      49.235  27.485  35.718  1.00  0.00    -0.237 OA
ATOM     59  O   UNL A   1      49.091  28.581  37.918  1.00  0.00    -0.744 OA
ENDBRANCH  55  56
ENDBRANCH  27  50
BRANCH  39  60
ATOM     60  C   UNL A   1      39.400  33.705  37.768  1.00  0.00    -0.014 A 
ATOM     61  C   UNL A   1      38.604  33.045  38.720  1.00  0.00     0.010 A 
ATOM     62  C   UNL A   1      40.003  34.931  38.106  1.00  0.00     0.010 A 
ATOM     63  C   UNL A   1      38.415  33.603  39.988  1.00  0.00     0.020 A 
ATOM     64  C   UNL A   1      39.837  35.478  39.381  1.00  0.00     0.020 A 
ATOM     65  C   UNL A   1      39.042  34.810  40.314  1.00  0.00     0.054 A 
BRANCH  65  66
ATOM     66  S   UNL A   1      38.863  35.462  41.998  1.00  0.00     0.124 S 
ATOM     67  O   UNL A   1      37.448  35.221  42.269  1.00  0.00    -0.237 OA
ATOM     68  O   UNL A   1      39.799  34.640  42.760  1.00  0.00    -0.237 OA
ATOM     69  O   UNL A   1      39.241  36.868  41.868  1.00  0.00    -0.744 OA
ENDBRANCH  65  66
ENDBRANCH  39  60
ENDBRANCH  13  14
ENDBRANCH   6   8
ENDBRANCH   3   4
ENDBRANCH   2   3
ENDBRANCH   1   2
BRANCH   1  70
ATOM     70  C   UNL A   1      46.436  27.704  27.979  1.00  0.00     0.002 C 
BRANCH  70  71
ATOM     71  C   UNL A   1      46.828  27.619  29.458  1.00  0.00     0.021 C 
BRANCH  71  72
ATOM     72  C   UNL A   1      47.092  26.203  29.965  1.00  0.00     0.116 C 
BRANCH  72  73
ATOM     73  N   UNL A   1      46.615  26.030  31.326  1.00  0.00    -0.352 N 
ATOM     74  C   UNL A   1      45.382  25.611  31.748  1.00  0.00     0.251 C 
ATOM     75  H   UNL A   1      47.262  26.242  32.037  1.00  0.00     0.163 HD
ATOM     76  O   UNL A   1      45.046  25.709  32.925  1.00  0.00    -0.269 OA
BRANCH  74  77
ATOM     77  C   UNL A   1      44.444  25.042  30.765  1.00  0.00     0.042 A 
ATOM     78  C   UNL A   1      43.526  25.880  30.116  1.00  0.00     0.016 A 
ATOM     79  C   UNL A   1      44.520  23.667  30.497  1.00  0.00     0.042 A 
ATOM     80  C   UNL A   1      42.652  25.361  29.158  1.00  0.00     0.031 A 
ATOM     81  C   UNL A   1      43.614  23.178  29.557  1.00  0.00     0.067 A 
ATOM     82  C   UNL A   1      42.724  23.993  28.862  1.00  0.00     0.089 A 
ATOM     83  N   UNL A   1      43.350  21.917  29.084  1.00  0.00    -0.338 N 
ATOM     84  N   UNL A   1      42.047  23.275  27.918  1.00  0.00    -0.228 NA
ATOM     85  C   UNL A   1      42.441  22.028  28.065  1.00  0.00     0.142 A 
ATOM     86  H   UNL A   1      43.746  21.079  29.418  1.00  0.00     0.168 HD
BRANCH  85  87
ATOM     87  C   UNL A   1      41.993  20.924  27.192  1.00  0.00     0.063 A 
ATOM     88  C   UNL A   1      40.973  20.039  27.438  1.00  0.00     0.117 A 
ATOM     89  C   UNL A   1      42.542  20.549  25.934  1.00  0.00     0.106 A 
ATOM     90  N   UNL A   1      40.893  19.269  26.313  1.00  0.00    -0.284 N 
ATOM     91  N   UNL A   1      41.868  19.506  25.420  1.00  0.00    -0.175 NA
ATOM     92  H   UNL A   1      40.185  18.600  26.168  1.00  0.00     0.189 HD
BRANCH  89  93
ATOM     93  C   UNL A   1      43.764  21.055  25.320  1.00  0.00     0.039 A 
ATOM     94  C   UNL A   1      44.889  20.212  25.233  1.00  0.00     0.016 A 
ATOM     95  C   UNL A   1      43.857  22.358  24.830  1.00  0.00     0.135 A 
ATOM     96  C   UNL A   1      46.081  20.679  24.678  1.00  0.00     0.040 A 
ATOM     97  C   UNL A   1      45.044  22.827  24.271  1.00  0.00     0.079 A 
ATOM     98  F   UNL A   1      42.813  23.199  24.903  1.00  0.00    -0.206 F 
ATOM     99  C   UNL A   1      46.145  21.983  24.202  1.00  0.00     0.126 A 
ATOM    100  F   UNL A   1      47.289  22.428  23.667  1.00  0.00    -0.207 F 
ENDBRANCH  89  93
ENDBRANCH  85  87
ENDBRANCH  74  77
ENDBRANCH  72  73
ENDBRANCH  71  72
ENDBRANCH  70  71
ENDBRANCH   1  70
TORSDOF 18
ENDMDL
MODEL 2
REMARK VINA RESULT:     -10.6      5.036     10.479
REMARK SMILES O=C(NCCCCCCNC(=O)c1ccc2nc(-c3c[nH]nc3-c3ccc(F)cc3F)[nH]c2c1)c1ccc(-c2c3nc(c(-c4ccc(S(=O)(=O)[O-])cc4)c4ccc([nH]4)c(-c4ccc(S(=O)(=O)[O-])cc4)c4nc(c(-c5ccc(S(=O)(=O)[O-])cc5)c5ccc2[nH]5)C=C4)C=C3)cc1
REMARK SMILES IDX 6 1 5 2 4 3 3 4 1 5 2 6 35 8 36 9 94 10 37 11 93 12 38 13
REMARK SMILES IDX 39 14 40 15 87 16 41 17 92 18 86 19 88 20 42 21 91 22 85 23
REMARK SMILES IDX 84 24 43 26 73 27 54 28 72 29 55 30 58 31 71 32 89 33 56 34
REMARK SMILES IDX 57 35 70 37 90 38 59 39 44 40 45 41 53 42 46 43 52 44 47 45
REMARK SMILES IDX 48 46 49 47 50 48 51 49 74 50 75 51 83 52 76 53 82 54 77 55
REMARK SMILES IDX 78 56 79 57 80 58 81 59 60 60 61 61 69 62 62 63 68 64 63 65
REMARK SMILES IDX 64 66 65 67 66 68 67 69 7 70 8 71 9 72 10 73 11 74 12 76
REMARK SMILES IDX 13 77 14 78 34 79 15 80 33 81 16 82 32 83 17 84 18 85 19 87
REMARK SMILES IDX 20 88 23 89 21 90 22 91 24 93 25 94 30 95 26 96 29 97 31 98
REMARK SMILES IDX 27 99 28 100
REMARK H PARENT 3 7 88 25 58 36 10 75 32 86 21 92
REMARK Flexibility Score: inf
ROOT
ATOM      1  C   UNL A   1      35.347  33.508  28.828  1.00  0.00     0.002 C 
ENDROOT
BRANCH   1   2
ATOM      2  C   UNL A   1      33.884  33.953  28.887  1.00  0.00     0.021 C 
BRANCH   2   3
ATOM      3  C   UNL A   1      33.669  35.373  29.401  1.00  0.00     0.116 C 
BRANCH   3   4
ATOM      4  N   UNL A   1      32.777  35.408  30.547  1.00  0.00    -0.352 N 
ATOM      5  O   UNL A   1      32.030  34.855  32.597  1.00  0.00    -0.269 OA
ATOM      6  C   UNL A   1      32.972  34.917  31.813  1.00  0.00     0.251 C 
ATOM      7  H   UNL A   1      31.910  35.847  30.394  1.00  0.00     0.163 HD
BRANCH   6   8
ATOM      8  C   UNL A   1      34.313  34.451  32.223  1.00  0.00     0.039 A 
ATOM      9  C   UNL A   1      35.392  35.338  32.291  1.00  0.00     0.014 A 
ATOM     10  C   UNL A   1      34.483  33.109  32.570  1.00  0.00     0.014 A 
ATOM     11  C   UNL A   1      36.663  34.864  32.601  1.00  0.00     0.010 A 
ATOM     12  C   UNL A   1      35.745  32.648  32.947  1.00  0.00     0.010 A 
ATOM     13  C   UNL A   1      36.850  33.517  32.947  1.00  0.00    -0.014 A 
BRANCH  13  14
ATOM     14  C   UNL A   1      38.184  33.025  33.368  1.00  0.00     0.031 A 
ATOM     15  C   UNL A   1      39.023  32.194  32.439  1.00  0.00     0.074 A 
ATOM     16  C   UNL A   1      38.614  33.287  34.617  1.00  0.00     0.049 A 
ATOM     17  N   UNL A   1      40.163  31.596  32.672  1.00  0.00    -0.248 NA
ATOM     18  C   UNL A   1      38.509  32.003  31.075  1.00  0.00     0.031 C 
ATOM     19  C   UNL A   1      37.886  34.086  35.607  1.00  0.00     0.029 A 
ATOM     20  N   UNL A   1      39.753  32.898  35.273  1.00  0.00    -0.354 N 
ATOM     21  C   UNL A   1      40.490  30.932  31.497  1.00  0.00     0.074 A 
ATOM     22  C   UNL A   1      39.417  31.186  30.558  1.00  0.00     0.031 C 
ATOM     23  C   UNL A   1      38.596  34.126  36.744  1.00  0.00     0.029 A 
ATOM     24  C   UNL A   1      39.792  33.306  36.585  1.00  0.00     0.049 A 
ATOM     25  H   UNL A   1      40.471  32.376  34.847  1.00  0.00     0.167 HD
ATOM     26  C   UNL A   1      41.582  30.176  31.229  1.00  0.00     0.031 A 
ATOM     27  C   UNL A   1      40.668  33.022  37.568  1.00  0.00     0.031 A 
ATOM     28  C   UNL A   1      42.632  29.914  32.179  1.00  0.00     0.049 A 
ATOM     29  C   UNL A   1      41.848  32.146  37.267  1.00  0.00     0.074 A 
ATOM     30  C   UNL A   1      43.797  29.190  31.995  1.00  0.00     0.029 A 
ATOM     31  N   UNL A   1      42.636  30.349  33.497  1.00  0.00    -0.354 N 
ATOM     32  N   UNL A   1      42.167  31.561  36.137  1.00  0.00    -0.248 NA
ATOM     33  C   UNL A   1      42.791  31.896  38.364  1.00  0.00     0.031 C 
ATOM     34  C   UNL A   1      44.474  29.135  33.219  1.00  0.00     0.029 A 
ATOM     35  C   UNL A   1      43.767  29.885  34.146  1.00  0.00     0.049 A 
ATOM     36  H   UNL A   1      41.936  30.906  33.909  1.00  0.00     0.167 HD
ATOM     37  C   UNL A   1      43.363  30.895  36.378  1.00  0.00     0.074 A 
ATOM     38  C   UNL A   1      43.710  31.151  37.762  1.00  0.00     0.031 C 
ATOM     39  C   UNL A   1      44.106  30.150  35.524  1.00  0.00     0.031 A 
BRANCH  26  40
ATOM     40  C   UNL A   1      41.664  29.534  29.866  1.00  0.00    -0.014 A 
ATOM     41  C   UNL A   1      40.994  28.331  29.577  1.00  0.00     0.010 A 
ATOM     42  C   UNL A   1      42.425  30.150  28.855  1.00  0.00     0.010 A 
ATOM     43  C   UNL A   1      41.142  27.720  28.328  1.00  0.00     0.020 A 
ATOM     44  C   UNL A   1      42.550  29.559  27.594  1.00  0.00     0.020 A 
ATOM     45  C   UNL A   1      41.932  28.331  27.350  1.00  0.00     0.054 A 
BRANCH  45  46
ATOM     46  S   UNL A   1      42.140  27.498  25.752  1.00  0.00     0.124 S 
ATOM     47  O   UNL A   1      42.102  28.624  24.821  1.00  0.00    -0.237 OA
ATOM     48  O   UNL A   1      43.440  26.847  25.895  1.00  0.00    -0.237 OA
ATOM     49  O   UNL A   1      40.996  26.592  25.680  1.00  0.00    -0.744 OA
ENDBRANCH  45  46
ENDBRANCH  26  40
BRANCH  27  50
ATOM     50  C   UNL A   1      40.424  33.573  38.927  1.00  0.00    -0.014 A 
ATOM     51  C   UNL A   1      39.647  32.866  39.860  1.00  0.00     0.010 A 
ATOM     52  C   UNL A   1      41.054  34.769  39.326  1.00  0.00     0.010 A 
ATOM     53  C   UNL A   1      39.516  33.336  41.170  1.00  0.00     0.020 A 
ATOM     54  C   UNL A   1      40.947  35.227  40.641  1.00  0.00     0.020 A 
ATOM     55  C   UNL A   1      40.178  34.507  41.555  1.00  0.00     0.054 A 
BRANCH  55  56
ATOM     56  S   UNL A   1      40.079  35.035  43.288  1.00  0.00     0.124 S 
ATOM     57  O   UNL A   1      38.962  35.972  43.258  1.00  0.00    -0.237 OA
ATOM     58  O   UNL A   1      39.831  33.775  43.986  1.00  0.00    -0.237 OA
ATOM     59  O   UNL A   1      41.389  35.629  43.541  1.00  0.00    -0.744 OA
ENDBRANCH  55  56
ENDBRANCH  27  50
BRANCH  39  60
ATOM     60  C   UNL A   1      45.406  29.586  36.033  1.00  0.00    -0.014 A 
ATOM     61  C   UNL A   1      46.591  30.342  36.015  1.00  0.00     0.010 A 
ATOM     62  C   UNL A   1      45.409  28.317  36.641  1.00  0.00     0.010 A 
ATOM     63  C   UNL A   1      47.757  29.836  36.597  1.00  0.00     0.020 A 
ATOM     64  C   UNL A   1      46.566  27.820  37.246  1.00  0.00     0.020 A 
ATOM     65  C   UNL A   1      47.734  28.583  37.218  1.00  0.00     0.054 A 
BRANCH  65  66
ATOM     66  S   UNL A   1      49.233  27.993  38.053  1.00  0.00     0.124 S 
ATOM     67  O   UNL A   1      48.688  27.068  39.042  1.00  0.00    -0.237 OA
ATOM     68  O   UNL A   1      49.984  27.377  36.962  1.00  0.00    -0.237 OA
ATOM     69  O   UNL A   1      49.828  29.212  38.600  1.00  0.00    -0.744 OA
ENDBRANCH  65  66
ENDBRANCH  39  60
ENDBRANCH  13  14
ENDBRANCH   6   8
ENDBRANCH   3   4
ENDBRANCH   2   3
ENDBRANCH   1   2
BRANCH   1  70
ATOM     70  C   UNL A   1      35.597  32.040  29.182  1.00  0.00     0.002 C 
BRANCH  70  71
ATOM     71  C   UNL A   1      35.855  31.115  27.988  1.00  0.00     0.021 C 
BRANCH  71  72
ATOM     72  C   UNL A   1      34.711  30.158  27.665  1.00  0.00     0.116 C 
BRANCH  72  73
ATOM     73  N   UNL A   1      33.433  30.848  27.640  1.00  0.00    -0.352 N 
ATOM     74  C   UNL A   1      32.309  30.528  26.929  1.00  0.00     0.251 C 
ATOM     75  H   UNL A   1      33.367  31.649  28.208  1.00  0.00     0.163 HD
ATOM     76  O   UNL A   1      31.368  31.313  26.839  1.00  0.00    -0.269 OA
BRANCH  74  77
ATOM     77  C   UNL A   1      32.236  29.221  26.252  1.00  0.00     0.042 A 
ATOM     78  C   UNL A   1      31.619  28.140  26.897  1.00  0.00     0.016 A 
ATOM     79  C   UNL A   1      32.775  29.114  24.961  1.00  0.00     0.042 A 
ATOM     80  C   UNL A   1      31.513  26.904  26.255  1.00  0.00     0.031 A 
ATOM     81  C   UNL A   1      32.677  27.858  24.363  1.00  0.00     0.067 A 
ATOM     82  C   UNL A   1      32.029  26.779  24.958  1.00  0.00     0.089 A 
ATOM     83  N   UNL A   1      33.124  27.359  23.164  1.00  0.00    -0.338 N 
ATOM     84  N   UNL A   1      31.972  25.717  24.102  1.00  0.00    -0.228 NA
ATOM     85  C   UNL A   1      32.634  26.087  23.027  1.00  0.00     0.142 A 
ATOM     86  H   UNL A   1      33.696  27.833  22.518  1.00  0.00     0.168 HD
BRANCH  85  87
ATOM     87  C   UNL A   1      32.762  25.245  21.819  1.00  0.00     0.063 A 
ATOM     88  C   UNL A   1      32.477  25.608  20.526  1.00  0.00     0.117 A 
ATOM     89  C   UNL A   1      33.185  23.889  21.761  1.00  0.00     0.106 A 
ATOM     90  N   UNL A   1      32.829  24.528  19.770  1.00  0.00    -0.284 N 
ATOM     91  N   UNL A   1      33.192  23.453  20.490  1.00  0.00    -0.175 NA
ATOM     92  H   UNL A   1      32.817  24.534  18.785  1.00  0.00     0.189 HD
BRANCH  89  93
ATOM     93  C   UNL A   1      33.416  22.988  22.885  1.00  0.00     0.039 A 
ATOM     94  C   UNL A   1      32.379  22.134  23.305  1.00  0.00     0.016 A 
ATOM     95  C   UNL A   1      34.633  22.960  23.568  1.00  0.00     0.135 A 
ATOM     96  C   UNL A   1      32.561  21.284  24.397  1.00  0.00     0.040 A 
ATOM     97  C   UNL A   1      34.821  22.109  24.656  1.00  0.00     0.079 A 
ATOM     98  F   UNL A   1      35.645  23.765  23.208  1.00  0.00    -0.206 F 
ATOM     99  C   UNL A   1      33.782  21.281  25.060  1.00  0.00     0.126 A 
ATOM    100  F   UNL A   1      33.956  20.462  26.105  1.00  0.00    -0.207 F 
ENDBRANCH  89  93
ENDBRANCH  85  87
ENDBRANCH  74  77
ENDBRANCH  72  73
ENDBRANCH  71  72
ENDBRANCH  70  71
ENDBRANCH   1  70
TORSDOF 18
ENDMDL
MODEL 3
REMARK VINA RESULT:     -10.6      5.014     10.763
REMARK SMILES O=C(NCCCCCCNC(=O)c1ccc2nc(-c3c[nH]nc3-c3ccc(F)cc3F)[nH]c2c1)c1ccc(-c2c3nc(c(-c4ccc(S(=O)(=O)[O-])cc4)c4ccc([nH]4)c(-c4ccc(S(=O)(=O)[O-])cc4)c4nc(c(-c5ccc(S(=O)(=O)[O-])cc5)c5ccc2[nH]5)C=C4)C=C3)cc1
REMARK SMILES IDX 6 1 5 2 4 3 3 4 1 5 2 6 35 8 36 9 94 10 37 11 93 12 38 13
REMARK SMILES IDX 39 14 40 15 87 16 41 17 92 18 86 19 88 20 42 21 91 22 85 23
REMARK SMILES IDX 84 24 43 26 73 27 54 28 72 29 55 30 58 31 71 32 89 33 56 34
REMARK SMILES IDX 57 35 70 37 90 38 59 39 44 40 45 41 53 42 46 43 52 44 47 45
REMARK SMILES IDX 48 46 49 47 50 48 51 49 74 50 75 51 83 52 76 53 82 54 77 55
REMARK SMILES IDX 78 56 79 57 80 58 81 59 60 60 61 61 69 62 62 63 68 64 63 65
REMARK SMILES IDX 64 66 65 67 66 68 67 69 7 70 8 71 9 72 10 73 11 74 12 76
REMARK SMILES IDX 13 77 14 78 34 79 15 80 33 81 16 82 32 83 17 84 18 85 19 87
REMARK SMILES IDX 20 88 23 89 21 90 22 91 24 93 25 94 30 95 26 96 29 97 31 98
REMARK SMILES IDX 27 99 28 100
REMARK H PARENT 3 7 88 25 58 36 10 75 32 86 21 92
REMARK Flexibility Score: inf
ROOT
ATOM      1  C   UNL A   1      35.570  33.561  28.903  1.00  0.00     0.002 C 
ENDROOT
BRANCH   1   2
ATOM      2  C   UNL A   1      34.180  34.200  28.859  1.00  0.00     0.021 C 
BRANCH   2   3
ATOM      3  C   UNL A   1      34.103  35.602  29.455  1.00  0.00     0.116 C 
BRANCH   3   4
ATOM      4  N   UNL A   1      33.102  35.693  30.504  1.00  0.00    -0.352 N 
ATOM      5  O   UNL A   1      32.079  35.144  32.432  1.00  0.00    -0.269 OA
ATOM      6  C   UNL A   1      33.101  35.127  31.753  1.00  0.00     0.251 C 
ATOM      7  H   UNL A   1      32.313  36.240  30.288  1.00  0.00     0.163 HD
BRANCH   6   8
ATOM      8  C   UNL A   1      34.328  34.485  32.270  1.00  0.00     0.039 A 
ATOM      9  C   UNL A   1      34.336  33.133  32.626  1.00  0.00     0.014 A 
ATOM     10  C   UNL A   1      35.494  35.247  32.373  1.00  0.00     0.014 A 
ATOM     11  C   UNL A   1      35.478  32.569  33.185  1.00  0.00     0.010 A 
ATOM     12  C   UNL A   1      36.659  34.661  32.870  1.00  0.00     0.010 A 
ATOM     13  C   UNL A   1      36.656  33.323  33.300  1.00  0.00    -0.014 A 
BRANCH  13  14
ATOM     14  C   UNL A   1      37.902  32.702  33.809  1.00  0.00     0.031 A 
ATOM     15  C   UNL A   1      38.389  32.989  35.201  1.00  0.00     0.074 A 
ATOM     16  C   UNL A   1      38.625  31.917  32.988  1.00  0.00     0.049 A 
ATOM     17  N   UNL A   1      39.503  32.617  35.777  1.00  0.00    -0.248 NA
ATOM     18  C   UNL A   1      37.513  33.807  36.053  1.00  0.00     0.031 C 
ATOM     19  C   UNL A   1      38.251  31.565  31.616  1.00  0.00     0.029 A 
ATOM     20  N   UNL A   1      39.829  31.288  33.178  1.00  0.00    -0.354 N 
ATOM     21  C   UNL A   1      39.480  33.180  37.047  1.00  0.00     0.074 A 
ATOM     22  C   UNL A   1      38.247  33.933  37.150  1.00  0.00     0.031 C 
ATOM     23  C   UNL A   1      39.207  30.786  31.088  1.00  0.00     0.029 A 
ATOM     24  C   UNL A   1      40.286  30.636  32.058  1.00  0.00     0.049 A 
ATOM     25  H   UNL A   1      40.318  31.304  34.032  1.00  0.00     0.167 HD
ATOM     26  C   UNL A   1      40.404  33.080  38.033  1.00  0.00     0.031 A 
ATOM     27  C   UNL A   1      41.459  30.021  31.816  1.00  0.00     0.031 A 
ATOM     28  C   UNL A   1      41.636  32.344  37.910  1.00  0.00     0.049 A 
ATOM     29  C   UNL A   1      42.491  29.959  32.904  1.00  0.00     0.074 A 
ATOM     30  C   UNL A   1      42.622  32.152  38.861  1.00  0.00     0.029 A 
ATOM     31  N   UNL A   1      42.059  31.694  36.759  1.00  0.00    -0.354 N 
ATOM     32  N   UNL A   1      42.435  30.459  34.115  1.00  0.00    -0.248 NA
ATOM     33  C   UNL A   1      43.738  29.246  32.601  1.00  0.00     0.031 C 
ATOM     34  C   UNL A   1      43.669  31.441  38.266  1.00  0.00     0.029 A 
ATOM     35  C   UNL A   1      43.305  31.127  36.967  1.00  0.00     0.049 A 
ATOM     36  H   UNL A   1      41.548  31.645  35.919  1.00  0.00     0.167 HD
ATOM     37  C   UNL A   1      43.628  30.097  34.730  1.00  0.00     0.074 A 
ATOM     38  C   UNL A   1      44.385  29.336  33.756  1.00  0.00     0.031 C 
ATOM     39  C   UNL A   1      44.048  30.366  35.990  1.00  0.00     0.031 A 
BRANCH  26  40
ATOM     40  C   UNL A   1      40.137  33.835  39.312  1.00  0.00    -0.014 A 
ATOM     41  C   UNL A   1      40.599  35.150  39.502  1.00  0.00     0.010 A 
ATOM     42  C   UNL A   1      39.407  33.213  40.343  1.00  0.00     0.010 A 
ATOM     43  C   UNL A   1      40.399  35.801  40.723  1.00  0.00     0.020 A 
ATOM     44  C   UNL A   1      39.178  33.872  41.554  1.00  0.00     0.020 A 
ATOM     45  C   UNL A   1      39.702  35.152  41.746  1.00  0.00     0.054 A 
BRANCH  45  46
ATOM     46  S   UNL A   1      39.492  36.003  43.334  1.00  0.00     0.124 S 
ATOM     47  O   UNL A   1      38.116  35.654  43.680  1.00  0.00    -0.237 OA
ATOM     48  O   UNL A   1      40.522  35.390  44.168  1.00  0.00    -0.237 OA
ATOM     49  O   UNL A   1      39.713  37.410  43.007  1.00  0.00    -0.744 OA
ENDBRANCH  45  46
ENDBRANCH  26  40
BRANCH  27  50
ATOM     50  C   UNL A   1      41.700  29.438  30.469  1.00  0.00    -0.014 A 
ATOM     51  C   UNL A   1      41.267  28.138  30.162  1.00  0.00     0.010 A 
ATOM     52  C   UNL A   1      42.281  30.225  29.456  1.00  0.00     0.010 A 
ATOM     53  C   UNL A   1      41.396  27.640  28.863  1.00  0.00     0.020 A 
ATOM     54  C   UNL A   1      42.387  29.740  28.150  1.00  0.00     0.020 A 
ATOM     55  C   UNL A   1      41.944  28.449  27.862  1.00  0.00     0.054 A 
BRANCH  55  56
ATOM     56  S   UNL A   1      42.000  27.818  26.162  1.00  0.00     0.124 S 
ATOM     57  O   UNL A   1      43.268  27.098  26.146  1.00  0.00    -0.237 OA
ATOM     58  O   UNL A   1      40.799  26.988  26.096  1.00  0.00    -0.237 OA
ATOM     59  O   UNL A   1      41.955  29.028  25.345  1.00  0.00    -0.744 OA
ENDBRANCH  55  56
ENDBRANCH  27  50
BRANCH  39  60
ATOM     60  C   UNL A   1      45.372  29.796  36.426  1.00  0.00    -0.014 A 
ATOM     61  C   UNL A   1      46.564  30.530  36.302  1.00  0.00     0.010 A 
ATOM     62  C   UNL A   1      45.398  28.546  37.072  1.00  0.00     0.010 A 
ATOM     63  C   UNL A   1      47.760  30.022  36.818  1.00  0.00     0.020 A 
ATOM     64  C   UNL A   1      46.587  28.048  37.611  1.00  0.00     0.020 A 
ATOM     65  C   UNL A   1      47.762  28.789  37.478  1.00  0.00     0.054 A 
BRANCH  65  66
ATOM     66  S   UNL A   1      49.306  28.199  38.226  1.00  0.00     0.124 S 
ATOM     67  O   UNL A   1      48.817  27.312  39.276  1.00  0.00    -0.237 OA
ATOM     68  O   UNL A   1      49.972  27.540  37.105  1.00  0.00    -0.237 OA
ATOM     69  O   UNL A   1      49.954  29.423  38.695  1.00  0.00    -0.744 OA
ENDBRANCH  65  66
ENDBRANCH  39  60
ENDBRANCH  13  14
ENDBRANCH   6   8
ENDBRANCH   3   4
ENDBRANCH   2   3
ENDBRANCH   1   2
BRANCH   1  70
ATOM     70  C   UNL A   1      35.596  32.084  29.304  1.00  0.00     0.002 C 
BRANCH  70  71
ATOM     71  C   UNL A   1      35.895  31.103  28.166  1.00  0.00     0.021 C 
BRANCH  71  72
ATOM     72  C   UNL A   1      34.743  30.166  27.815  1.00  0.00     0.116 C 
BRANCH  72  73
ATOM     73  N   UNL A   1      33.481  30.881  27.738  1.00  0.00    -0.352 N 
ATOM     74  C   UNL A   1      32.377  30.578  26.990  1.00  0.00     0.251 C 
ATOM     75  H   UNL A   1      33.412  31.689  28.297  1.00  0.00     0.163 HD
ATOM     76  O   UNL A   1      31.456  31.381  26.861  1.00  0.00    -0.269 OA
BRANCH  74  77
ATOM     77  C   UNL A   1      32.301  29.267  26.322  1.00  0.00     0.042 A 
ATOM     78  C   UNL A   1      31.700  28.186  26.982  1.00  0.00     0.016 A 
ATOM     79  C   UNL A   1      32.821  29.156  25.023  1.00  0.00     0.042 A 
ATOM     80  C   UNL A   1      31.592  26.945  26.348  1.00  0.00     0.031 A 
ATOM     81  C   UNL A   1      32.721  27.896  24.433  1.00  0.00     0.067 A 
ATOM     82  C   UNL A   1      32.088  26.817  25.044  1.00  0.00     0.089 A 
ATOM     83  N   UNL A   1      33.152  27.394  23.230  1.00  0.00    -0.338 N 
ATOM     84  N   UNL A   1      32.024  25.750  24.194  1.00  0.00    -0.228 NA
ATOM     85  C   UNL A   1      32.667  26.118  23.108  1.00  0.00     0.142 A 
ATOM     86  H   UNL A   1      33.711  27.867  22.573  1.00  0.00     0.168 HD
BRANCH  85  87
ATOM     87  C   UNL A   1      32.781  25.270  21.903  1.00  0.00     0.063 A 
ATOM     88  C   UNL A   1      32.513  25.636  20.607  1.00  0.00     0.117 A 
ATOM     89  C   UNL A   1      33.172  23.904  21.850  1.00  0.00     0.106 A 
ATOM     90  N   UNL A   1      32.842  24.546  19.855  1.00  0.00    -0.284 N 
ATOM     91  N   UNL A   1      33.176  23.465  20.580  1.00  0.00    -0.175 NA
ATOM     92  H   UNL A   1      32.836  24.550  18.871  1.00  0.00     0.189 HD
BRANCH  89  93
ATOM     93  C   UNL A   1      33.375  23.000  22.977  1.00  0.00     0.039 A 
ATOM     94  C   UNL A   1      32.304  22.200  23.417  1.00  0.00     0.016 A 
ATOM     95  C   UNL A   1      34.598  22.918  23.645  1.00  0.00     0.135 A 
ATOM     96  C   UNL A   1      32.459  21.349  24.512  1.00  0.00     0.040 A 
ATOM     97  C   UNL A   1      34.760  22.067  24.736  1.00  0.00     0.079 A 
ATOM     98  F   UNL A   1      35.642  23.672  23.266  1.00  0.00    -0.206 F 
ATOM     99  C   UNL A   1      33.688  21.292  25.160  1.00  0.00     0.126 A 
ATOM    100  F   UNL A   1      33.837  20.473  26.209  1.00  0.00    -0.207 F 
ENDBRANCH  89  93
ENDBRANCH  85  87
ENDBRANCH  74  77
ENDBRANCH  72  73
ENDBRANCH  71  72
ENDBRANCH  70  71
ENDBRANCH   1  70
TORSDOF 18
ENDMDL
