MODEL 1
REMARK VINA RESULT:     -10.4      0.000      0.000
REMARK SMILES COC(=O)C[C@H](c1ccc(C(=O)NCCCCCCNC(=O)c2ccc(-c3c4nc(c(-c5ccc(S(=O)(=O)[O-])cc5)c5ccc([nH]5)c(-c5ccc(S(=O)(=O)[O-])cc5)c5nc(c(-c6ccc(S(=O)(=O)[O-])cc6)c6ccc3[nH]6)C=C5)C=C4)cc2)cc1)c1c(O)n[nH]c1C
REMARK SMILES IDX 16 1 15 2 14 3 13 4 11 5 12 6 10 8 7 9 8 10 84 11 9 12 83 13
REMARK SMILES IDX 6 14 5 15 3 16 4 17 2 18 1 19 85 20 86 21 90 22 88 23 89 24
REMARK SMILES IDX 91 25 87 27 17 29 18 30 19 31 20 32 21 33 22 35 23 36 24 37
REMARK SMILES IDX 82 38 25 39 81 40 26 41 27 42 28 43 75 44 29 45 80 46 74 47
REMARK SMILES IDX 76 48 30 49 79 50 73 51 72 52 31 54 61 55 42 56 60 57 43 58
REMARK SMILES IDX 46 59 59 60 77 61 44 62 45 63 58 65 78 66 47 67 32 68 33 69
REMARK SMILES IDX 41 70 34 71 40 72 35 73 36 74 37 75 38 76 39 77 62 78 63 79
REMARK SMILES IDX 71 80 64 81 70 82 65 83 66 84 67 85 68 86 69 87 48 88 49 89
REMARK SMILES IDX 57 90 50 91 56 92 51 93 52 94 53 95 54 96 55 97
REMARK H PARENT 13 7 89 26 87 28 20 34 76 53 46 64
REMARK Flexibility Score: inf
ROOT
ATOM      1  C   UNL A   1      31.342  29.486  24.557  1.00  0.00     0.002 C 
ENDROOT
BRANCH   1   2
ATOM      2  C   UNL A   1      31.944  28.634  23.431  1.00  0.00     0.021 C 
BRANCH   2   3
ATOM      3  C   UNL A   1      30.866  28.045  22.521  1.00  0.00     0.116 C 
BRANCH   3   4
ATOM      4  N   UNL A   1      29.754  27.596  23.327  1.00  0.00    -0.352 N 
ATOM      5  C   UNL A   1      29.418  26.377  23.847  1.00  0.00     0.251 C 
ATOM      6  O   UNL A   1      28.271  26.276  24.290  1.00  0.00    -0.269 OA
ATOM      7  H   UNL A   1      29.111  28.309  23.545  1.00  0.00     0.163 HD
BRANCH   5   8
ATOM      8  C   UNL A   1      30.354  25.219  23.984  1.00  0.00     0.039 A 
ATOM      9  C   UNL A   1      32.515  23.398  24.202  1.00  0.00    -0.040 A 
ATOM     10  C   UNL A   1      32.330  24.414  25.151  1.00  0.00     0.005 A 
ATOM     11  C   UNL A   1      31.536  23.230  23.220  1.00  0.00     0.005 A 
ATOM     12  C   UNL A   1      31.281  25.321  25.030  1.00  0.00     0.014 A 
ATOM     13  C   UNL A   1      30.447  24.107  23.142  1.00  0.00     0.014 A 
BRANCH   9  14
ATOM     14  C   UNL A   1      33.758  22.518  24.194  1.00  0.00     0.068 C 
BRANCH  14  15
ATOM     15  C   UNL A   1      35.023  23.292  24.609  1.00  0.00     0.136 C 
BRANCH  15  16
ATOM     16  C   UNL A   1      36.256  22.973  23.794  1.00  0.00     0.306 C 
ATOM     17  O   UNL A   1      36.325  23.015  22.568  1.00  0.00    -0.252 OA
BRANCH  16  18
ATOM     18  O   UNL A   1      37.263  22.555  24.614  1.00  0.00    -0.469 OA
ATOM     19  C   UNL A   1      37.131  21.230  25.139  1.00  0.00     0.282 C 
ENDBRANCH  16  18
ENDBRANCH  15  16
ENDBRANCH  14  15
BRANCH  14  20
ATOM     20  C   UNL A   1      33.395  21.264  24.948  1.00  0.00     0.044 A 
ATOM     21  C   UNL A   1      32.774  20.096  24.481  1.00  0.00     0.234 A 
ATOM     22  C   UNL A   1      33.529  20.997  26.313  1.00  0.00     0.040 A 
ATOM     23  N   UNL A   1      32.581  19.153  25.389  1.00  0.00    -0.137 NA
ATOM     24  N   UNL A   1      33.074  19.719  26.502  1.00  0.00    -0.279 N 
ATOM     25  C   UNL A   1      34.060  21.799  27.446  1.00  0.00     0.066 C 
ATOM     26  H   UNL A   1      33.107  19.258  27.371  1.00  0.00     0.190 HD
BRANCH  21  27
ATOM     27  O   UNL A   1      32.322  19.791  23.270  1.00  0.00    -0.492 OA
ATOM     28  H   UNL A   1      32.199  20.467  22.633  1.00  0.00     0.295 HD
ENDBRANCH  21  27
ENDBRANCH  14  20
ENDBRANCH   9  14
ENDBRANCH   5   8
ENDBRANCH   3   4
ENDBRANCH   2   3
ENDBRANCH   1   2
BRANCH   1  29
ATOM     29  C   UNL A   1      31.874  29.144  25.954  1.00  0.00     0.002 C 
BRANCH  29  30
ATOM     30  C   UNL A   1      33.100  28.226  25.955  1.00  0.00     0.021 C 
BRANCH  30  31
ATOM     31  C   UNL A   1      34.370  28.915  26.439  1.00  0.00     0.116 C 
BRANCH  31  32
ATOM     32  N   UNL A   1      34.092  30.278  26.862  1.00  0.00    -0.352 N 
ATOM     33  C   UNL A   1      34.662  30.985  27.887  1.00  0.00     0.251 C 
ATOM     34  H   UNL A   1      33.402  30.755  26.344  1.00  0.00     0.163 HD
ATOM     35  O   UNL A   1      34.124  32.006  28.311  1.00  0.00    -0.269 OA
BRANCH  33  36
ATOM     36  C   UNL A   1      35.929  30.508  28.472  1.00  0.00     0.039 A 
ATOM     37  C   UNL A   1      37.140  30.930  27.921  1.00  0.00     0.014 A 
ATOM     38  C   UNL A   1      35.910  29.636  29.566  1.00  0.00     0.014 A 
ATOM     39  C   UNL A   1      38.339  30.503  28.493  1.00  0.00     0.010 A 
ATOM     40  C   UNL A   1      37.103  29.272  30.178  1.00  0.00     0.010 A 
ATOM     41  C   UNL A   1      38.328  29.689  29.637  1.00  0.00    -0.014 A 
BRANCH  41  42
ATOM     42  C   UNL A   1      39.589  29.242  30.276  1.00  0.00     0.031 A 
ATOM     43  C   UNL A   1      40.091  29.934  31.513  1.00  0.00     0.074 A 
ATOM     44  C   UNL A   1      40.310  28.256  29.707  1.00  0.00     0.049 A 
ATOM     45  N   UNL A   1      41.192  29.724  32.187  1.00  0.00    -0.248 NA
ATOM     46  C   UNL A   1      39.258  31.024  32.047  1.00  0.00     0.031 C 
ATOM     47  C   UNL A   1      39.944  27.535  28.486  1.00  0.00     0.029 A 
ATOM     48  N   UNL A   1      41.505  27.695  30.080  1.00  0.00    -0.354 N 
ATOM     49  C   UNL A   1      41.193  30.664  33.210  1.00  0.00     0.074 A 
ATOM     50  C   UNL A   1      40.012  31.481  33.035  1.00  0.00     0.031 C 
ATOM     51  C   UNL A   1      40.879  26.605  28.230  1.00  0.00     0.029 A 
ATOM     52  C   UNL A   1      41.927  26.691  29.242  1.00  0.00     0.049 A 
ATOM     53  H   UNL A   1      42.012  27.984  30.872  1.00  0.00     0.167 HD
ATOM     54  C   UNL A   1      42.086  30.823  34.217  1.00  0.00     0.031 A 
ATOM     55  C   UNL A   1      43.034  25.926  29.283  1.00  0.00     0.031 A 
ATOM     56  C   UNL A   1      43.256  30.004  34.386  1.00  0.00     0.049 A 
ATOM     57  C   UNL A   1      44.018  26.125  30.401  1.00  0.00     0.074 A 
ATOM     58  C   UNL A   1      44.197  30.044  35.399  1.00  0.00     0.029 A 
ATOM     59  N   UNL A   1      43.648  28.996  33.515  1.00  0.00    -0.354 N 
ATOM     60  N   UNL A   1      43.973  26.981  31.395  1.00  0.00    -0.248 NA
ATOM     61  C   UNL A   1      45.198  25.250  30.408  1.00  0.00     0.031 C 
ATOM     62  C   UNL A   1      45.186  29.097  35.113  1.00  0.00     0.029 A 
ATOM     63  C   UNL A   1      44.830  28.424  33.954  1.00  0.00     0.049 A 
ATOM     64  H   UNL A   1      43.157  28.728  32.705  1.00  0.00     0.167 HD
ATOM     65  C   UNL A   1      45.105  26.728  32.163  1.00  0.00     0.074 A 
ATOM     66  C   UNL A   1      45.808  25.633  31.522  1.00  0.00     0.031 C 
ATOM     67  C   UNL A   1      45.521  27.342  33.298  1.00  0.00     0.031 A 
BRANCH  54  68
ATOM     68  C   UNL A   1      41.829  31.938  35.196  1.00  0.00    -0.014 A 
ATOM     69  C   UNL A   1      42.315  33.239  34.966  1.00  0.00     0.010 A 
ATOM     70  C   UNL A   1      41.091  31.684  36.366  1.00  0.00     0.010 A 
ATOM     71  C   UNL A   1      42.126  34.246  35.915  1.00  0.00     0.020 A 
ATOM     72  C   UNL A   1      40.871  32.698  37.305  1.00  0.00     0.020 A 
ATOM     73  C   UNL A   1      41.414  33.966  37.084  1.00  0.00     0.054 A 
BRANCH  73  74
ATOM     74  S   UNL A   1      41.196  35.285  38.309  1.00  0.00     0.124 S 
ATOM     75  O   UNL A   1      41.222  36.480  37.471  1.00  0.00    -0.237 OA
ATOM     76  O   UNL A   1      39.899  34.963  38.901  1.00  0.00    -0.237 OA
ATOM     77  O   UNL A   1      42.341  35.124  39.201  1.00  0.00    -0.744 OA
ENDBRANCH  73  74
ENDBRANCH  54  68
BRANCH  55  78
ATOM     78  C   UNL A   1      43.242  24.879  28.248  1.00  0.00    -0.014 A 
ATOM     79  C   UNL A   1      43.987  25.166  27.090  1.00  0.00     0.010 A 
ATOM     80  C   UNL A   1      42.742  23.577  28.434  1.00  0.00     0.010 A 
ATOM     81  C   UNL A   1      44.223  24.172  26.136  1.00  0.00     0.020 A 
ATOM     82  C   UNL A   1      42.998  22.575  27.494  1.00  0.00     0.020 A 
ATOM     83  C   UNL A   1      43.733  22.881  26.348  1.00  0.00     0.054 A 
BRANCH  83  84
ATOM     84  S   UNL A   1      44.120  21.588  25.134  1.00  0.00     0.124 S 
ATOM     85  O   UNL A   1      43.949  22.298  23.870  1.00  0.00    -0.237 OA
ATOM     86  O   UNL A   1      45.494  21.234  25.481  1.00  0.00    -0.237 OA
ATOM     87  O   UNL A   1      43.129  20.552  25.411  1.00  0.00    -0.744 OA
ENDBRANCH  83  84
ENDBRANCH  55  78
BRANCH  67  88
ATOM     88  C   UNL A   1      46.782  26.829  33.939  1.00  0.00    -0.014 A 
ATOM     89  C   UNL A   1      46.752  25.769  34.863  1.00  0.00     0.010 A 
ATOM     90  C   UNL A   1      48.022  27.381  33.568  1.00  0.00     0.010 A 
ATOM     91  C   UNL A   1      47.938  25.290  35.426  1.00  0.00     0.020 A 
ATOM     92  C   UNL A   1      49.211  26.885  34.106  1.00  0.00     0.020 A 
ATOM     93  C   UNL A   1      49.160  25.851  35.042  1.00  0.00     0.054 A 
BRANCH  93  94
ATOM     94  S   UNL A   1      50.689  25.179  35.751  1.00  0.00     0.124 S 
ATOM     95  O   UNL A   1      50.494  23.741  35.587  1.00  0.00    -0.237 OA
ATOM     96  O   UNL A   1      51.721  25.774  34.904  1.00  0.00    -0.237 OA
ATOM     97  O   UNL A   1      50.672  25.659  37.131  1.00  0.00    -0.744 OA
ENDBRANCH  93  94
ENDBRANCH  67  88
ENDBRANCH  41  42
ENDBRANCH  33  36
ENDBRANCH  31  32
ENDBRANCH  30  31
ENDBRANCH  29  30
ENDBRANCH   1  29
TORSDOF 22
ENDMDL
MODEL 2
REMARK VINA RESULT:     -10.4      1.262      2.076
REMARK SMILES COC(=O)C[C@H](c1ccc(C(=O)NCCCCCCNC(=O)c2ccc(-c3c4nc(c(-c5ccc(S(=O)(=O)[O-])cc5)c5ccc([nH]5)c(-c5ccc(S(=O)(=O)[O-])cc5)c5nc(c(-c6ccc(S(=O)(=O)[O-])cc6)c6ccc3[nH]6)C=C5)C=C4)cc2)cc1)c1c(O)n[nH]c1C
REMARK SMILES IDX 16 1 15 2 14 3 13 4 11 5 12 6 10 8 7 9 8 10 84 11 9 12 83 13
REMARK SMILES IDX 6 14 5 15 3 16 4 17 2 18 1 19 85 20 86 21 90 22 88 23 89 24
REMARK SMILES IDX 91 25 87 27 17 29 18 30 19 31 20 32 21 33 22 35 23 36 24 37
REMARK SMILES IDX 82 38 25 39 81 40 26 41 27 42 28 43 75 44 29 45 80 46 74 47
REMARK SMILES IDX 76 48 30 49 79 50 73 51 72 52 31 54 61 55 42 56 60 57 43 58
REMARK SMILES IDX 46 59 59 60 77 61 44 62 45 63 58 65 78 66 47 67 32 68 33 69
REMARK SMILES IDX 41 70 34 71 40 72 35 73 36 74 37 75 38 76 39 77 62 78 63 79
REMARK SMILES IDX 71 80 64 81 70 82 65 83 66 84 67 85 68 86 69 87 48 88 49 89
REMARK SMILES IDX 57 90 50 91 56 92 51 93 52 94 53 95 54 96 55 97
REMARK H PARENT 13 7 89 26 87 28 20 34 76 53 46 64
REMARK Flexibility Score: inf
ROOT
ATOM      1  C   UNL A   1      30.927  29.344  24.565  1.00  0.00     0.002 C 
ENDROOT
BRANCH   1   2
ATOM      2  C   UNL A   1      31.529  28.731  23.293  1.00  0.00     0.021 C 
BRANCH   2   3
ATOM      3  C   UNL A   1      30.454  28.147  22.376  1.00  0.00     0.116 C 
BRANCH   3   4
ATOM      4  N   UNL A   1      29.351  27.671  23.177  1.00  0.00    -0.352 N 
ATOM      5  C   UNL A   1      29.145  26.516  23.880  1.00  0.00     0.251 C 
ATOM      6  O   UNL A   1      27.989  26.314  24.261  1.00  0.00    -0.269 OA
ATOM      7  H   UNL A   1      28.597  28.303  23.227  1.00  0.00     0.163 HD
BRANCH   5   8
ATOM      8  C   UNL A   1      30.219  25.553  24.274  1.00  0.00     0.039 A 
ATOM      9  C   UNL A   1      31.875  23.352  24.940  1.00  0.00    -0.040 A 
ATOM     10  C   UNL A   1      31.320  23.474  23.658  1.00  0.00     0.005 A 
ATOM     11  C   UNL A   1      31.693  24.406  25.839  1.00  0.00     0.005 A 
ATOM     12  C   UNL A   1      30.489  24.544  23.340  1.00  0.00     0.014 A 
ATOM     13  C   UNL A   1      30.908  25.511  25.490  1.00  0.00     0.014 A 
BRANCH   9  14
ATOM     14  C   UNL A   1      32.623  22.099  25.379  1.00  0.00     0.068 C 
BRANCH  14  15
ATOM     15  C   UNL A   1      32.247  20.869  24.533  1.00  0.00     0.136 C 
BRANCH  15  16
ATOM     16  C   UNL A   1      33.034  19.617  24.850  1.00  0.00     0.306 C 
ATOM     17  O   UNL A   1      34.181  19.388  24.472  1.00  0.00    -0.252 OA
BRANCH  16  18
ATOM     18  O   UNL A   1      32.258  18.743  25.552  1.00  0.00    -0.469 OA
ATOM     19  C   UNL A   1      32.415  17.360  25.217  1.00  0.00     0.282 C 
ENDBRANCH  16  18
ENDBRANCH  15  16
ENDBRANCH  14  15
BRANCH  14  20
ATOM     20  C   UNL A   1      34.075  22.488  25.490  1.00  0.00     0.044 A 
ATOM     21  C   UNL A   1      34.871  22.630  26.636  1.00  0.00     0.234 A 
ATOM     22  C   UNL A   1      34.955  22.869  24.475  1.00  0.00     0.040 A 
ATOM     23  N   UNL A   1      36.126  22.989  26.416  1.00  0.00    -0.137 NA
ATOM     24  N   UNL A   1      36.161  23.106  25.079  1.00  0.00    -0.279 N 
ATOM     25  C   UNL A   1      34.793  23.007  23.004  1.00  0.00     0.066 C 
ATOM     26  H   UNL A   1      36.978  23.340  24.581  1.00  0.00     0.190 HD
BRANCH  21  27
ATOM     27  O   UNL A   1      34.560  22.486  27.919  1.00  0.00    -0.492 OA
ATOM     28  H   UNL A   1      34.757  21.683  28.360  1.00  0.00     0.295 HD
ENDBRANCH  21  27
ENDBRANCH  14  20
ENDBRANCH   9  14
ENDBRANCH   5   8
ENDBRANCH   3   4
ENDBRANCH   2   3
ENDBRANCH   1   2
BRANCH   1  29
ATOM     29  C   UNL A   1      31.706  29.018  25.846  1.00  0.00     0.002 C 
BRANCH  29  30
ATOM     30  C   UNL A   1      33.051  28.327  25.607  1.00  0.00     0.021 C 
BRANCH  30  31
ATOM     31  C   UNL A   1      34.218  29.021  26.299  1.00  0.00     0.116 C 
BRANCH  31  32
ATOM     32  N   UNL A   1      33.902  30.412  26.579  1.00  0.00    -0.352 N 
ATOM     33  C   UNL A   1      34.387  31.212  27.579  1.00  0.00     0.251 C 
ATOM     34  H   UNL A   1      33.253  30.835  25.970  1.00  0.00     0.163 HD
ATOM     35  O   UNL A   1      33.813  32.260  27.870  1.00  0.00    -0.269 OA
BRANCH  33  36
ATOM     36  C   UNL A   1      35.607  30.801  28.300  1.00  0.00     0.039 A 
ATOM     37  C   UNL A   1      35.532  29.773  29.241  1.00  0.00     0.014 A 
ATOM     38  C   UNL A   1      36.822  31.444  28.044  1.00  0.00     0.014 A 
ATOM     39  C   UNL A   1      36.691  29.363  29.902  1.00  0.00     0.010 A 
ATOM     40  C   UNL A   1      37.986  30.986  28.648  1.00  0.00     0.010 A 
ATOM     41  C   UNL A   1      37.928  29.952  29.595  1.00  0.00    -0.014 A 
BRANCH  41  42
ATOM     42  C   UNL A   1      39.175  29.518  30.267  1.00  0.00     0.031 A 
ATOM     43  C   UNL A   1      39.634  30.214  31.519  1.00  0.00     0.074 A 
ATOM     44  C   UNL A   1      39.924  28.543  29.717  1.00  0.00     0.049 A 
ATOM     45  N   UNL A   1      40.718  30.015  32.223  1.00  0.00    -0.248 NA
ATOM     46  C   UNL A   1      38.774  31.293  32.032  1.00  0.00     0.031 C 
ATOM     47  C   UNL A   1      39.601  27.820  28.485  1.00  0.00     0.029 A 
ATOM     48  N   UNL A   1      41.115  27.995  30.122  1.00  0.00    -0.354 N 
ATOM     49  C   UNL A   1      40.680  30.954  33.248  1.00  0.00     0.074 A 
ATOM     50  C   UNL A   1      39.494  31.757  33.042  1.00  0.00     0.031 C 
ATOM     51  C   UNL A   1      40.553  26.902  28.254  1.00  0.00     0.029 A 
ATOM     52  C   UNL A   1      41.572  26.998  29.295  1.00  0.00     0.049 A 
ATOM     53  H   UNL A   1      41.596  28.289  30.929  1.00  0.00     0.167 HD
ATOM     54  C   UNL A   1      41.543  31.121  34.280  1.00  0.00     0.031 A 
ATOM     55  C   UNL A   1      42.686  26.246  29.365  1.00  0.00     0.031 A 
ATOM     56  C   UNL A   1      42.717  30.315  34.480  1.00  0.00     0.049 A 
ATOM     57  C   UNL A   1      43.637  26.455  30.510  1.00  0.00     0.074 A 
ATOM     58  C   UNL A   1      43.629  30.365  35.519  1.00  0.00     0.029 A 
ATOM     59  N   UNL A   1      43.145  29.314  33.619  1.00  0.00    -0.354 N 
ATOM     60  N   UNL A   1      43.554  27.307  31.505  1.00  0.00    -0.248 NA
ATOM     61  C   UNL A   1      44.826  25.593  30.549  1.00  0.00     0.031 C 
ATOM     62  C   UNL A   1      44.637  29.429  35.259  1.00  0.00     0.029 A 
ATOM     63  C   UNL A   1      44.322  28.755  34.089  1.00  0.00     0.049 A 
ATOM     64  H   UNL A   1      42.680  29.041  32.795  1.00  0.00     0.167 HD
ATOM     65  C   UNL A   1      44.666  27.066  32.303  1.00  0.00     0.074 A 
ATOM     66  C   UNL A   1      45.400  25.981  31.680  1.00  0.00     0.031 C 
ATOM     67  C   UNL A   1      45.043  27.683  33.450  1.00  0.00     0.031 A 
BRANCH  54  68
ATOM     68  C   UNL A   1      41.245  32.231  35.253  1.00  0.00    -0.014 A 
ATOM     69  C   UNL A   1      40.482  32.000  36.413  1.00  0.00     0.010 A 
ATOM     70  C   UNL A   1      41.733  33.527  35.006  1.00  0.00     0.010 A 
ATOM     71  C   UNL A   1      40.158  33.053  37.271  1.00  0.00     0.020 A 
ATOM     72  C   UNL A   1      41.438  34.579  35.880  1.00  0.00     0.020 A 
ATOM     73  C   UNL A   1      40.630  34.339  36.993  1.00  0.00     0.054 A 
BRANCH  73  74
ATOM     74  S   UNL A   1      40.182  35.693  38.113  1.00  0.00     0.124 S 
ATOM     75  O   UNL A   1      39.832  36.755  37.174  1.00  0.00    -0.237 OA
ATOM     76  O   UNL A   1      39.065  35.129  38.868  1.00  0.00    -0.237 OA
ATOM     77  O   UNL A   1      41.400  35.922  38.886  1.00  0.00    -0.744 OA
ENDBRANCH  73  74
ENDBRANCH  54  68
BRANCH  55  78
ATOM     78  C   UNL A   1      42.936  25.204  28.334  1.00  0.00    -0.014 A 
ATOM     79  C   UNL A   1      43.534  25.549  27.109  1.00  0.00     0.010 A 
ATOM     80  C   UNL A   1      42.623  23.856  28.588  1.00  0.00     0.010 A 
ATOM     81  C   UNL A   1      43.812  24.565  26.156  1.00  0.00     0.020 A 
ATOM     82  C   UNL A   1      42.923  22.867  27.647  1.00  0.00     0.020 A 
ATOM     83  C   UNL A   1      43.511  23.229  26.433  1.00  0.00     0.054 A 
BRANCH  83  84
ATOM     84  S   UNL A   1      43.953  21.961  25.213  1.00  0.00     0.124 S 
ATOM     85  O   UNL A   1      42.963  20.923  25.482  1.00  0.00    -0.237 OA
ATOM     86  O   UNL A   1      43.797  22.675  23.948  1.00  0.00    -0.237 OA
ATOM     87  O   UNL A   1      45.331  21.619  25.560  1.00  0.00    -0.744 OA
ENDBRANCH  83  84
ENDBRANCH  55  78
BRANCH  67  88
ATOM     88  C   UNL A   1      46.292  27.183  34.126  1.00  0.00    -0.014 A 
ATOM     89  C   UNL A   1      46.246  26.132  35.058  1.00  0.00     0.010 A 
ATOM     90  C   UNL A   1      47.537  27.740  33.779  1.00  0.00     0.010 A 
ATOM     91  C   UNL A   1      47.422  25.665  35.653  1.00  0.00     0.020 A 
ATOM     92  C   UNL A   1      48.716  27.256  34.349  1.00  0.00     0.020 A 
ATOM     93  C   UNL A   1      48.649  26.230  35.293  1.00  0.00     0.054 A 
BRANCH  93  94
ATOM     94  S   UNL A   1      50.165  25.574  36.043  1.00  0.00     0.124 S 
ATOM     95  O   UNL A   1      50.578  24.571  35.066  1.00  0.00    -0.237 OA
ATOM     96  O   UNL A   1      51.017  26.758  36.128  1.00  0.00    -0.237 OA
ATOM     97  O   UNL A   1      49.716  25.045  37.329  1.00  0.00    -0.744 OA
ENDBRANCH  93  94
ENDBRANCH  67  88
ENDBRANCH  41  42
ENDBRANCH  33  36
ENDBRANCH  31  32
ENDBRANCH  30  31
ENDBRANCH  29  30
ENDBRANCH   1  29
TORSDOF 22
ENDMDL
MODEL 3
REMARK VINA RESULT:      -9.4      5.295      6.671
REMARK SMILES COC(=O)C[C@H](c1ccc(C(=O)NCCCCCCNC(=O)c2ccc(-c3c4nc(c(-c5ccc(S(=O)(=O)[O-])cc5)c5ccc([nH]5)c(-c5ccc(S(=O)(=O)[O-])cc5)c5nc(c(-c6ccc(S(=O)(=O)[O-])cc6)c6ccc3[nH]6)C=C5)C=C4)cc2)cc1)c1c(O)n[nH]c1C
REMARK SMILES IDX 16 1 15 2 14 3 13 4 11 5 12 6 10 8 7 9 8 10 84 11 9 12 83 13
REMARK SMILES IDX 6 14 5 15 3 16 4 17 2 18 1 19 85 20 86 21 90 22 88 23 89 24
REMARK SMILES IDX 91 25 87 27 17 29 18 30 19 31 20 32 21 33 22 35 23 36 24 37
REMARK SMILES IDX 82 38 25 39 81 40 26 41 27 42 28 43 75 44 29 45 80 46 74 47
REMARK SMILES IDX 76 48 30 49 79 50 73 51 72 52 31 54 61 55 42 56 60 57 43 58
REMARK SMILES IDX 46 59 59 60 77 61 44 62 45 63 58 65 78 66 47 67 32 68 33 69
REMARK SMILES IDX 41 70 34 71 40 72 35 73 36 74 37 75 38 76 39 77 62 78 63 79
REMARK SMILES IDX 71 80 64 81 70 82 65 83 66 84 67 85 68 86 69 87 48 88 49 89
REMARK SMILES IDX 57 90 50 91 56 92 51 93 52 94 53 95 54 96 55 97
REMARK H PARENT 13 7 89 26 87 28 20 34 76 53 46 64
REMARK Flexibility Score: inf
ROOT
ATOM      1  C   UNL A   1      35.447  33.325  28.089  1.00  0.00     0.002 C 
ENDROOT
BRANCH   1   2
ATOM      2  C   UNL A   1      34.048  32.705  28.207  1.00  0.00     0.021 C 
BRANCH   2   3
ATOM      3  C   UNL A   1      33.998  31.293  27.623  1.00  0.00     0.116 C 
BRANCH   3   4
ATOM      4  N   UNL A   1      32.778  31.132  26.867  1.00  0.00    -0.352 N 
ATOM      5  C   UNL A   1      32.323  30.143  26.040  1.00  0.00     0.251 C 
ATOM      6  O   UNL A   1      31.337  30.422  25.354  1.00  0.00    -0.269 OA
ATOM      7  H   UNL A   1      32.149  31.883  26.967  1.00  0.00     0.163 HD
BRANCH   5   8
ATOM      8  C   UNL A   1      32.881  28.756  25.978  1.00  0.00     0.039 A 
ATOM      9  C   UNL A   1      33.621  26.077  25.428  1.00  0.00    -0.040 A 
ATOM     10  C   UNL A   1      33.876  27.099  24.502  1.00  0.00     0.005 A 
ATOM     11  C   UNL A   1      33.108  26.433  26.677  1.00  0.00     0.005 A 
ATOM     12  C   UNL A   1      33.492  28.411  24.766  1.00  0.00     0.014 A 
ATOM     13  C   UNL A   1      32.783  27.765  26.960  1.00  0.00     0.014 A 
BRANCH   9  14
ATOM     14  C   UNL A   1      33.848  24.609  25.089  1.00  0.00     0.068 C 
BRANCH  14  15
ATOM     15  C   UNL A   1      35.335  24.286  24.856  1.00  0.00     0.136 C 
BRANCH  15  16
ATOM     16  C   UNL A   1      35.593  23.125  23.922  1.00  0.00     0.306 C 
ATOM     17  O   UNL A   1      35.877  23.224  22.731  1.00  0.00    -0.252 OA
BRANCH  16  18
ATOM     18  O   UNL A   1      35.386  21.946  24.575  1.00  0.00    -0.469 OA
ATOM     19  C   UNL A   1      34.210  21.221  24.199  1.00  0.00     0.282 C 
ENDBRANCH  16  18
ENDBRANCH  15  16
ENDBRANCH  14  15
BRANCH  14  20
ATOM     20  C   UNL A   1      33.086  23.814  26.119  1.00  0.00     0.044 A 
ATOM     21  C   UNL A   1      33.573  23.061  27.199  1.00  0.00     0.234 A 
ATOM     22  C   UNL A   1      31.712  23.580  26.198  1.00  0.00     0.040 A 
ATOM     23  N   UNL A   1      32.653  22.465  27.938  1.00  0.00    -0.137 NA
ATOM     24  N   UNL A   1      31.514  22.817  27.319  1.00  0.00    -0.279 N 
ATOM     25  C   UNL A   1      30.568  24.016  25.355  1.00  0.00     0.066 C 
ATOM     26  H   UNL A   1      30.622  22.552  27.641  1.00  0.00     0.190 HD
BRANCH  21  27
ATOM     27  O   UNL A   1      34.822  22.830  27.587  1.00  0.00    -0.492 OA
ATOM     28  H   UNL A   1      35.476  22.611  26.953  1.00  0.00     0.295 HD
ENDBRANCH  21  27
ENDBRANCH  14  20
ENDBRANCH   9  14
ENDBRANCH   5   8
ENDBRANCH   3   4
ENDBRANCH   2   3
ENDBRANCH   1   2
BRANCH   1  29
ATOM     29  C   UNL A   1      36.592  32.308  28.185  1.00  0.00     0.002 C 
BRANCH  29  30
ATOM     30  C   UNL A   1      37.438  32.431  29.456  1.00  0.00     0.021 C 
BRANCH  30  31
ATOM     31  C   UNL A   1      37.511  31.139  30.260  1.00  0.00     0.116 C 
BRANCH  31  32
ATOM     32  N   UNL A   1      36.788  30.070  29.590  1.00  0.00    -0.352 N 
ATOM     33  C   UNL A   1      37.233  29.226  28.608  1.00  0.00     0.251 C 
ATOM     34  H   UNL A   1      35.856  29.935  29.880  1.00  0.00     0.163 HD
ATOM     35  O   UNL A   1      36.431  28.579  27.935  1.00  0.00    -0.269 OA
BRANCH  33  36
ATOM     36  C   UNL A   1      38.683  29.101  28.369  1.00  0.00     0.039 A 
ATOM     37  C   UNL A   1      39.518  28.704  29.414  1.00  0.00     0.014 A 
ATOM     38  C   UNL A   1      39.211  29.385  27.105  1.00  0.00     0.014 A 
ATOM     39  C   UNL A   1      40.885  28.556  29.181  1.00  0.00     0.010 A 
ATOM     40  C   UNL A   1      40.560  29.167  26.856  1.00  0.00     0.010 A 
ATOM     41  C   UNL A   1      41.412  28.766  27.897  1.00  0.00    -0.014 A 
BRANCH  41  42
ATOM     42  C   UNL A   1      42.858  28.594  27.620  1.00  0.00     0.031 A 
ATOM     43  C   UNL A   1      43.807  29.739  27.844  1.00  0.00     0.074 A 
ATOM     44  C   UNL A   1      43.304  27.430  27.109  1.00  0.00     0.049 A 
ATOM     45  N   UNL A   1      45.093  29.801  27.614  1.00  0.00    -0.248 NA
ATOM     46  C   UNL A   1      43.229  30.987  28.370  1.00  0.00     0.031 C 
ATOM     47  C   UNL A   1      42.473  26.261  26.814  1.00  0.00     0.029 A 
ATOM     48  N   UNL A   1      44.568  27.041  26.743  1.00  0.00    -0.354 N 
ATOM     49  C   UNL A   1      45.474  31.096  27.950  1.00  0.00     0.074 A 
ATOM     50  C   UNL A   1      44.273  31.800  28.345  1.00  0.00     0.031 C 
ATOM     51  C   UNL A   1      43.255  25.275  26.344  1.00  0.00     0.029 A 
ATOM     52  C   UNL A   1      44.632  25.755  26.266  1.00  0.00     0.049 A 
ATOM     53  H   UNL A   1      45.355  27.629  26.816  1.00  0.00     0.167 HD
ATOM     54  C   UNL A   1      46.712  31.644  27.948  1.00  0.00     0.031 A 
ATOM     55  C   UNL A   1      45.680  25.041  25.815  1.00  0.00     0.031 A 
ATOM     56  C   UNL A   1      47.902  30.936  27.557  1.00  0.00     0.049 A 
ATOM     57  C   UNL A   1      47.045  25.671  25.810  1.00  0.00     0.074 A 
ATOM     58  C   UNL A   1      49.211  31.379  27.568  1.00  0.00     0.029 A 
ATOM     59  N   UNL A   1      47.924  29.633  27.079  1.00  0.00    -0.354 N 
ATOM     60  N   UNL A   1      47.396  26.878  26.187  1.00  0.00    -0.248 NA
ATOM     61  C   UNL A   1      48.156  24.840  25.326  1.00  0.00     0.031 C 
ATOM     62  C   UNL A   1      50.021  30.363  27.048  1.00  0.00     0.029 A 
ATOM     63  C   UNL A   1      49.222  29.264  26.769  1.00  0.00     0.049 A 
ATOM     64  H   UNL A   1      47.133  29.055  26.977  1.00  0.00     0.167 HD
ATOM     65  C   UNL A   1      48.774  26.942  26.013  1.00  0.00     0.074 A 
ATOM     66  C   UNL A   1      49.191  25.649  25.506  1.00  0.00     0.031 C 
ATOM     67  C   UNL A   1      49.617  27.975  26.256  1.00  0.00     0.031 A 
BRANCH  54  68
ATOM     68  C   UNL A   1      46.828  33.087  28.367  1.00  0.00    -0.014 A 
ATOM     69  C   UNL A   1      46.744  34.130  27.426  1.00  0.00     0.010 A 
ATOM     70  C   UNL A   1      47.024  33.406  29.723  1.00  0.00     0.010 A 
ATOM     71  C   UNL A   1      46.920  35.458  27.821  1.00  0.00     0.020 A 
ATOM     72  C   UNL A   1      47.169  34.737  30.128  1.00  0.00     0.020 A 
ATOM     73  C   UNL A   1      47.142  35.752  29.169  1.00  0.00     0.054 A 
BRANCH  73  74
ATOM     74  S   UNL A   1      47.384  37.483  29.655  1.00  0.00     0.124 S 
ATOM     75  O   UNL A   1      48.157  37.343  30.886  1.00  0.00    -0.237 OA
ATOM     76  O   UNL A   1      48.112  38.038  28.516  1.00  0.00    -0.237 OA
ATOM     77  O   UNL A   1      46.024  37.989  29.827  1.00  0.00    -0.744 OA
ENDBRANCH  73  74
ENDBRANCH  54  68
BRANCH  55  78
ATOM     78  C   UNL A   1      45.476  23.638  25.368  1.00  0.00    -0.014 A 
ATOM     79  C   UNL A   1      45.765  22.568  26.233  1.00  0.00     0.010 A 
ATOM     80  C   UNL A   1      44.945  23.362  24.094  1.00  0.00     0.010 A 
ATOM     81  C   UNL A   1      45.532  21.250  25.832  1.00  0.00     0.020 A 
ATOM     82  C   UNL A   1      44.687  22.047  23.699  1.00  0.00     0.020 A 
ATOM     83  C   UNL A   1      44.988  20.998  24.571  1.00  0.00     0.054 A 
BRANCH  83  84
ATOM     84  S   UNL A   1      44.620  19.283  24.103  1.00  0.00     0.124 S 
ATOM     85  O   UNL A   1      45.749  18.562  24.683  1.00  0.00    -0.237 OA
ATOM     86  O   UNL A   1      43.326  19.054  24.742  1.00  0.00    -0.237 OA
ATOM     87  O   UNL A   1      44.586  19.326  22.643  1.00  0.00    -0.744 OA
ENDBRANCH  83  84
ENDBRANCH  55  78
BRANCH  67  88
ATOM     88  C   UNL A   1      51.083  27.745  26.004  1.00  0.00    -0.014 A 
ATOM     89  C   UNL A   1      51.660  28.019  24.751  1.00  0.00     0.010 A 
ATOM     90  C   UNL A   1      51.906  27.301  27.056  1.00  0.00     0.010 A 
ATOM     91  C   UNL A   1      53.029  27.824  24.547  1.00  0.00     0.020 A 
ATOM     92  C   UNL A   1      53.279  27.132  26.863  1.00  0.00     0.020 A 
ATOM     93  C   UNL A   1      53.829  27.383  25.605  1.00  0.00     0.054 A 
BRANCH  93  94
ATOM     94  S   UNL A   1      55.611  27.184  25.328  1.00  0.00     0.124 S 
ATOM     95  O   UNL A   1      55.641  26.418  24.085  1.00  0.00    -0.237 OA
ATOM     96  O   UNL A   1      56.074  28.566  25.227  1.00  0.00    -0.237 OA
ATOM     97  O   UNL A   1      56.068  26.466  26.516  1.00  0.00    -0.744 OA
ENDBRANCH  93  94
ENDBRANCH  67  88
ENDBRANCH  41  42
ENDBRANCH  33  36
ENDBRANCH  31  32
ENDBRANCH  30  31
ENDBRANCH  29  30
ENDBRANCH   1  29
TORSDOF 22
ENDMDL
