MODEL 1
REMARK VINA RESULT:     -13.2      0.000      0.000
REMARK SMILES Cc1ccc(-c2cn3c(n2)sc2cc(C(=O)NCCCCCCNC(=O)c4ccc(-c5c6nc(c(-c7ccc(S(=O)(=O)[O-])cc7)c7ccc([nH]7)c(-c7ccc(S(=O)(=O)[O-])cc7)c7nc(c(-c8ccc(S(=O)(=O)[O-])cc8)c8ccc5[nH]8)C=C7)C=C6)cc4)ccc23)cc1
REMARK SMILES IDX 21 1 20 2 19 3 18 4 17 5 15 6 16 7 14 9 6 10 7 11 10 12 8 13
REMARK SMILES IDX 9 14 89 15 11 16 12 17 88 18 13 19 87 20 5 21 1 22 2 23 3 24
REMARK SMILES IDX 91 25 4 26 90 27 22 28 23 29 24 30 25 31 26 33 27 34 28 35
REMARK SMILES IDX 86 36 29 37 85 38 30 39 31 40 32 41 79 42 33 43 84 44 78 45
REMARK SMILES IDX 80 46 34 47 83 48 77 49 76 50 35 52 65 53 46 54 64 55 47 56
REMARK SMILES IDX 50 57 63 58 81 59 48 60 49 61 62 63 82 64 51 65 36 66 37 67
REMARK SMILES IDX 45 68 38 69 44 70 39 71 40 72 41 73 42 74 43 75 66 76 67 77
REMARK SMILES IDX 75 78 68 79 74 80 69 81 70 82 71 83 72 84 73 85 52 86 53 87
REMARK SMILES IDX 61 88 54 89 60 90 55 91 56 92 57 93 58 94 59 95
REMARK H PARENT 17 8 24 32 80 51 50 62
REMARK Flexibility Score: inf
ROOT
ATOM      1  C   UNL A   1      35.607  24.454  26.014  1.00  0.00     0.002 C 
ENDROOT
BRANCH   1   2
ATOM      2  C   UNL A   1      34.135  24.146  26.344  1.00  0.00     0.002 C 
BRANCH   2   3
ATOM      3  C   UNL A   1      33.866  23.043  27.379  1.00  0.00     0.021 C 
BRANCH   3   4
ATOM      4  C   UNL A   1      33.210  21.775  26.822  1.00  0.00     0.116 C 
BRANCH   4   5
ATOM      5  N   UNL A   1      34.193  20.803  26.340  1.00  0.00    -0.352 N 
ATOM      6  C   UNL A   1      34.738  20.649  25.082  1.00  0.00     0.251 C 
ATOM      7  O   UNL A   1      35.699  19.910  24.891  1.00  0.00    -0.269 OA
ATOM      8  H   UNL A   1      34.513  20.163  27.016  1.00  0.00     0.163 HD
BRANCH   6   9
ATOM      9  C   UNL A   1      34.223  21.478  23.972  1.00  0.00     0.041 A 
ATOM     10  C   UNL A   1      32.280  26.694  23.903  1.00  0.00     0.090 A 
ATOM     11  C   UNL A   1      33.210  26.145  23.027  1.00  0.00     0.123 A 
ATOM     12  N   UNL A   1      31.088  25.983  23.875  1.00  0.00    -0.219 NA
ATOM     13  N   UNL A   1      32.671  24.919  22.745  1.00  0.00    -0.290 N 
ATOM     14  C   UNL A   1      31.367  24.923  23.159  1.00  0.00     0.195 A 
ATOM     15  C   UNL A   1      33.287  23.664  22.670  1.00  0.00     0.065 A 
ATOM     16  S   UNL A   1      30.691  23.317  23.237  1.00  0.00    -0.096 S 
ATOM     17  C   UNL A   1      32.373  22.682  23.090  1.00  0.00     0.056 A 
ATOM     18  C   UNL A   1      34.664  23.487  22.685  1.00  0.00     0.029 A 
ATOM     19  C   UNL A   1      32.843  21.552  23.732  1.00  0.00     0.035 A 
ATOM     20  C   UNL A   1      35.135  22.368  23.365  1.00  0.00     0.016 A 
BRANCH  10  21
ATOM     21  C   UNL A   1      32.589  27.677  24.935  1.00  0.00     0.002 A 
ATOM     22  C   UNL A   1      33.778  30.829  27.651  1.00  0.00     0.044 C 
ATOM     23  C   UNL A   1      33.370  29.727  26.720  1.00  0.00    -0.051 A 
ATOM     24  C   UNL A   1      32.097  29.737  26.137  1.00  0.00     0.004 A 
ATOM     25  C   UNL A   1      34.249  28.687  26.406  1.00  0.00     0.004 A 
ATOM     26  C   UNL A   1      31.710  28.722  25.255  1.00  0.00     0.010 A 
ATOM     27  C   UNL A   1      33.861  27.673  25.525  1.00  0.00     0.010 A 
ENDBRANCH  10  21
ENDBRANCH   6   9
ENDBRANCH   4   5
ENDBRANCH   3   4
ENDBRANCH   2   3
ENDBRANCH   1   2
BRANCH   1  28
ATOM     28  C   UNL A   1      36.636  23.435  26.504  1.00  0.00     0.021 C 
BRANCH  28  29
ATOM     29  C   UNL A   1      38.028  23.631  25.911  1.00  0.00     0.116 C 
BRANCH  29  30
ATOM     30  N   UNL A   1      39.085  23.181  26.810  1.00  0.00    -0.352 N 
ATOM     31  C   UNL A   1      39.980  23.966  27.518  1.00  0.00     0.251 C 
ATOM     32  H   UNL A   1      39.171  22.208  26.928  1.00  0.00     0.163 HD
ATOM     33  O   UNL A   1      41.012  23.536  28.001  1.00  0.00    -0.269 OA
BRANCH  31  34
ATOM     34  C   UNL A   1      39.538  25.343  27.801  1.00  0.00     0.039 A 
ATOM     35  C   UNL A   1      40.048  26.350  26.970  1.00  0.00     0.014 A 
ATOM     36  C   UNL A   1      38.923  25.638  29.014  1.00  0.00     0.014 A 
ATOM     37  C   UNL A   1      40.101  27.655  27.440  1.00  0.00     0.010 A 
ATOM     38  C   UNL A   1      39.052  26.919  29.511  1.00  0.00     0.010 A 
ATOM     39  C   UNL A   1      39.688  27.910  28.746  1.00  0.00    -0.014 A 
BRANCH  39  40
ATOM     40  C   UNL A   1      39.931  29.172  29.432  1.00  0.00     0.031 A 
ATOM     41  C   UNL A   1      38.923  30.250  29.342  1.00  0.00     0.074 A 
ATOM     42  C   UNL A   1      41.023  29.307  30.216  1.00  0.00     0.049 A 
ATOM     43  N   UNL A   1      39.146  31.493  29.601  1.00  0.00    -0.248 NA
ATOM     44  C   UNL A   1      37.566  29.995  28.869  1.00  0.00     0.031 C 
ATOM     45  C   UNL A   1      41.267  30.349  31.208  1.00  0.00     0.029 A 
ATOM     46  N   UNL A   1      42.250  28.648  30.108  1.00  0.00    -0.354 N 
ATOM     47  C   UNL A   1      37.924  32.130  29.638  1.00  0.00     0.074 A 
ATOM     48  C   UNL A   1      36.991  31.182  29.076  1.00  0.00     0.031 C 
ATOM     49  C   UNL A   1      42.593  30.464  31.388  1.00  0.00     0.029 A 
ATOM     50  C   UNL A   1      43.230  29.611  30.396  1.00  0.00     0.049 A 
ATOM     51  H   UNL A   1      42.398  27.703  29.877  1.00  0.00     0.167 HD
ATOM     52  C   UNL A   1      37.808  33.326  30.283  1.00  0.00     0.031 A 
ATOM     53  C   UNL A   1      44.172  30.027  29.500  1.00  0.00     0.031 A 
ATOM     54  C   UNL A   1      39.117  33.843  30.681  1.00  0.00     0.049 A 
ATOM     55  C   UNL A   1      44.116  31.520  29.246  1.00  0.00     0.074 A 
ATOM     56  C   UNL A   1      39.810  33.836  31.881  1.00  0.00     0.029 A 
ATOM     57  N   UNL A   1      40.035  34.193  29.696  1.00  0.00    -0.354 N 
ATOM     58  N   UNL A   1      43.083  32.268  29.521  1.00  0.00    -0.248 NA
ATOM     59  C   UNL A   1      45.205  32.280  28.638  1.00  0.00     0.031 C 
ATOM     60  C   UNL A   1      41.181  34.072  31.592  1.00  0.00     0.029 A 
ATOM     61  C   UNL A   1      41.309  34.264  30.227  1.00  0.00     0.049 A 
ATOM     62  H   UNL A   1      39.809  34.366  28.754  1.00  0.00     0.167 HD
ATOM     63  C   UNL A   1      43.347  33.567  29.174  1.00  0.00     0.074 A 
ATOM     64  C   UNL A   1      44.691  33.523  28.623  1.00  0.00     0.031 C 
ATOM     65  C   UNL A   1      42.446  34.573  29.369  1.00  0.00     0.031 A 
BRANCH  52  66
ATOM     66  C   UNL A   1      36.493  33.862  30.817  1.00  0.00    -0.014 A 
ATOM     67  C   UNL A   1      35.403  34.036  29.936  1.00  0.00     0.010 A 
ATOM     68  C   UNL A   1      36.284  34.295  32.140  1.00  0.00     0.010 A 
ATOM     69  C   UNL A   1      34.224  34.695  30.325  1.00  0.00     0.020 A 
ATOM     70  C   UNL A   1      35.127  34.984  32.536  1.00  0.00     0.020 A 
ATOM     71  C   UNL A   1      34.106  35.194  31.619  1.00  0.00     0.054 A 
BRANCH  71  72
ATOM     72  S   UNL A   1      32.621  36.121  32.086  1.00  0.00     0.124 S 
ATOM     73  O   UNL A   1      32.263  36.793  30.840  1.00  0.00    -0.237 OA
ATOM     74  O   UNL A   1      31.713  35.063  32.517  1.00  0.00    -0.237 OA
ATOM     75  O   UNL A   1      33.086  37.009  33.151  1.00  0.00    -0.744 OA
ENDBRANCH  71  72
ENDBRANCH  52  66
BRANCH  53  76
ATOM     76  C   UNL A   1      44.561  29.002  28.490  1.00  0.00    -0.014 A 
ATOM     77  C   UNL A   1      44.049  29.147  27.182  1.00  0.00     0.010 A 
ATOM     78  C   UNL A   1      45.699  28.200  28.686  1.00  0.00     0.010 A 
ATOM     79  C   UNL A   1      44.749  28.645  26.081  1.00  0.00     0.020 A 
ATOM     80  C   UNL A   1      46.400  27.689  27.582  1.00  0.00     0.020 A 
ATOM     81  C   UNL A   1      45.952  27.972  26.287  1.00  0.00     0.054 A 
BRANCH  81  82
ATOM     82  S   UNL A   1      47.009  27.648  24.841  1.00  0.00     0.124 S 
ATOM     83  O   UNL A   1      46.551  26.331  24.411  1.00  0.00    -0.237 OA
ATOM     84  O   UNL A   1      46.659  28.755  23.949  1.00  0.00    -0.237 OA
ATOM     85  O   UNL A   1      48.358  27.698  25.392  1.00  0.00    -0.744 OA
ENDBRANCH  81  82
ENDBRANCH  53  76
BRANCH  65  86
ATOM     86  C   UNL A   1      42.577  35.982  28.843  1.00  0.00    -0.014 A 
ATOM     87  C   UNL A   1      43.301  36.995  29.489  1.00  0.00     0.010 A 
ATOM     88  C   UNL A   1      42.061  36.279  27.558  1.00  0.00     0.010 A 
ATOM     89  C   UNL A   1      43.451  38.264  28.910  1.00  0.00     0.020 A 
ATOM     90  C   UNL A   1      42.241  37.525  26.954  1.00  0.00     0.020 A 
ATOM     91  C   UNL A   1      42.916  38.522  27.647  1.00  0.00     0.054 A 
BRANCH  91  92
ATOM     92  S   UNL A   1      43.169  40.141  26.878  1.00  0.00     0.124 S 
ATOM     93  O   UNL A   1      43.226  41.022  28.042  1.00  0.00    -0.237 OA
ATOM     94  O   UNL A   1      44.432  39.972  26.161  1.00  0.00    -0.237 OA
ATOM     95  O   UNL A   1      41.995  40.302  26.025  1.00  0.00    -0.744 OA
ENDBRANCH  91  92
ENDBRANCH  65  86
ENDBRANCH  39  40
ENDBRANCH  31  34
ENDBRANCH  29  30
ENDBRANCH  28  29
ENDBRANCH   1  28
TORSDOF 17
ENDMDL
MODEL 2
REMARK VINA RESULT:     -13.1      4.649     11.342
REMARK SMILES Cc1ccc(-c2cn3c(n2)sc2cc(C(=O)NCCCCCCNC(=O)c4ccc(-c5c6nc(c(-c7ccc(S(=O)(=O)[O-])cc7)c7ccc([nH]7)c(-c7ccc(S(=O)(=O)[O-])cc7)c7nc(c(-c8ccc(S(=O)(=O)[O-])cc8)c8ccc5[nH]8)C=C7)C=C6)cc4)ccc23)cc1
REMARK SMILES IDX 21 1 20 2 19 3 18 4 17 5 15 6 16 7 14 9 6 10 7 11 10 12 8 13
REMARK SMILES IDX 9 14 89 15 11 16 12 17 88 18 13 19 87 20 5 21 1 22 2 23 3 24
REMARK SMILES IDX 91 25 4 26 90 27 22 28 23 29 24 30 25 31 26 33 27 34 28 35
REMARK SMILES IDX 86 36 29 37 85 38 30 39 31 40 32 41 79 42 33 43 84 44 78 45
REMARK SMILES IDX 80 46 34 47 83 48 77 49 76 50 35 52 65 53 46 54 64 55 47 56
REMARK SMILES IDX 50 57 63 58 81 59 48 60 49 61 62 63 82 64 51 65 36 66 37 67
REMARK SMILES IDX 45 68 38 69 44 70 39 71 40 72 41 73 42 74 43 75 66 76 67 77
REMARK SMILES IDX 75 78 68 79 74 80 69 81 70 82 71 83 72 84 73 85 52 86 53 87
REMARK SMILES IDX 61 88 54 89 60 90 55 91 56 92 57 93 58 94 59 95
REMARK H PARENT 17 8 24 32 80 51 50 62
REMARK Flexibility Score: inf
ROOT
ATOM      1  C   UNL A   1      33.110  29.931  25.533  1.00  0.00     0.002 C 
ENDROOT
BRANCH   1   2
ATOM      2  C   UNL A   1      31.890  29.379  24.774  1.00  0.00     0.002 C 
BRANCH   2   3
ATOM      3  C   UNL A   1      32.031  29.206  23.254  1.00  0.00     0.021 C 
BRANCH   3   4
ATOM      4  C   UNL A   1      33.467  29.021  22.751  1.00  0.00     0.116 C 
BRANCH   4   5
ATOM      5  N   UNL A   1      33.604  27.860  21.867  1.00  0.00    -0.352 N 
ATOM      6  C   UNL A   1      33.493  26.516  22.153  1.00  0.00     0.251 C 
ATOM      7  O   UNL A   1      33.439  25.677  21.259  1.00  0.00    -0.269 OA
ATOM      8  H   UNL A   1      33.805  28.074  20.927  1.00  0.00     0.163 HD
BRANCH   6   9
ATOM      9  C   UNL A   1      33.322  26.094  23.560  1.00  0.00     0.041 A 
ATOM     10  C   UNL A   1      32.719  21.040  25.813  1.00  0.00     0.090 A 
ATOM     11  C   UNL A   1      33.580  22.043  26.246  1.00  0.00     0.123 A 
ATOM     12  N   UNL A   1      31.402  21.477  25.823  1.00  0.00    -0.219 NA
ATOM     13  N   UNL A   1      32.796  23.162  26.182  1.00  0.00    -0.290 N 
ATOM     14  C   UNL A   1      31.494  22.761  26.057  1.00  0.00     0.195 A 
ATOM     15  C   UNL A   1      33.095  24.440  25.696  1.00  0.00     0.065 A 
ATOM     16  S   UNL A   1      30.445  24.062  25.558  1.00  0.00    -0.096 S 
ATOM     17  C   UNL A   1      31.929  25.001  25.146  1.00  0.00     0.056 A 
ATOM     18  C   UNL A   1      34.377  24.847  25.354  1.00  0.00     0.029 A 
ATOM     19  C   UNL A   1      32.036  25.867  24.073  1.00  0.00     0.035 A 
ATOM     20  C   UNL A   1      34.484  25.687  24.250  1.00  0.00     0.016 A 
BRANCH  10  21
ATOM     21  C   UNL A   1      33.139  19.811  25.148  1.00  0.00     0.002 A 
ATOM     22  C   UNL A   1      34.412  16.437  22.758  1.00  0.00     0.044 C 
ATOM     23  C   UNL A   1      33.960  17.598  23.592  1.00  0.00    -0.051 A 
ATOM     24  C   UNL A   1      34.870  18.261  24.423  1.00  0.00     0.004 A 
ATOM     25  C   UNL A   1      32.637  18.047  23.544  1.00  0.00     0.004 A 
ATOM     26  C   UNL A   1      34.464  19.355  25.194  1.00  0.00     0.010 A 
ATOM     27  C   UNL A   1      32.233  19.141  24.315  1.00  0.00     0.010 A 
ENDBRANCH  10  21
ENDBRANCH   6   9
ENDBRANCH   4   5
ENDBRANCH   3   4
ENDBRANCH   2   3
ENDBRANCH   1   2
BRANCH   1  28
ATOM     28  C   UNL A   1      33.937  28.910  26.314  1.00  0.00     0.021 C 
BRANCH  28  29
ATOM     29  C   UNL A   1      34.297  29.360  27.727  1.00  0.00     0.116 C 
BRANCH  29  30
ATOM     30  N   UNL A   1      35.033  30.620  27.739  1.00  0.00    -0.352 N 
ATOM     31  C   UNL A   1      36.315  30.843  28.214  1.00  0.00     0.251 C 
ATOM     32  H   UNL A   1      34.565  31.401  27.366  1.00  0.00     0.163 HD
ATOM     33  O   UNL A   1      36.751  31.950  28.473  1.00  0.00    -0.269 OA
BRANCH  31  34
ATOM     34  C   UNL A   1      37.199  29.664  28.242  1.00  0.00     0.039 A 
ATOM     35  C   UNL A   1      37.300  28.984  29.463  1.00  0.00     0.014 A 
ATOM     36  C   UNL A   1      38.114  29.459  27.213  1.00  0.00     0.014 A 
ATOM     37  C   UNL A   1      38.431  28.219  29.722  1.00  0.00     0.010 A 
ATOM     38  C   UNL A   1      39.272  28.767  27.504  1.00  0.00     0.010 A 
ATOM     39  C   UNL A   1      39.451  28.197  28.774  1.00  0.00    -0.014 A 
BRANCH  39  40
ATOM     40  C   UNL A   1      40.775  27.649  29.035  1.00  0.00     0.031 A 
ATOM     41  C   UNL A   1      41.071  26.255  28.642  1.00  0.00     0.074 A 
ATOM     42  C   UNL A   1      41.740  28.447  29.541  1.00  0.00     0.049 A 
ATOM     43  N   UNL A   1      42.050  25.550  29.100  1.00  0.00    -0.248 NA
ATOM     44  C   UNL A   1      40.210  25.515  27.726  1.00  0.00     0.031 C 
ATOM     45  C   UNL A   1      43.175  28.178  29.573  1.00  0.00     0.029 A 
ATOM     46  N   UNL A   1      41.591  29.578  30.349  1.00  0.00    -0.354 N 
ATOM     47  C   UNL A   1      42.134  24.413  28.326  1.00  0.00     0.074 A 
ATOM     48  C   UNL A   1      40.910  24.391  27.560  1.00  0.00     0.031 C 
ATOM     49  C   UNL A   1      43.721  28.895  30.568  1.00  0.00     0.029 A 
ATOM     50  C   UNL A   1      42.624  29.513  31.297  1.00  0.00     0.049 A 
ATOM     51  H   UNL A   1      40.902  30.276  30.270  1.00  0.00     0.167 HD
ATOM     52  C   UNL A   1      43.296  23.700  28.301  1.00  0.00     0.031 A 
ATOM     53  C   UNL A   1      42.414  29.391  32.641  1.00  0.00     0.031 A 
ATOM     54  C   UNL A   1      44.240  24.190  29.305  1.00  0.00     0.049 A 
ATOM     55  C   UNL A   1      43.069  28.155  33.224  1.00  0.00     0.074 A 
ATOM     56  C   UNL A   1      45.342  25.028  29.236  1.00  0.00     0.029 A 
ATOM     57  N   UNL A   1      43.918  24.072  30.653  1.00  0.00    -0.354 N 
ATOM     58  N   UNL A   1      43.450  27.128  32.514  1.00  0.00    -0.248 NA
ATOM     59  C   UNL A   1      43.319  27.966  34.650  1.00  0.00     0.031 C 
ATOM     60  C   UNL A   1      45.608  25.504  30.548  1.00  0.00     0.029 A 
ATOM     61  C   UNL A   1      44.697  24.923  31.413  1.00  0.00     0.049 A 
ATOM     62  H   UNL A   1      43.231  23.466  31.015  1.00  0.00     0.167 HD
ATOM     63  C   UNL A   1      44.002  26.179  33.334  1.00  0.00     0.074 A 
ATOM     64  C   UNL A   1      43.896  26.751  34.665  1.00  0.00     0.031 C 
ATOM     65  C   UNL A   1      44.505  25.004  32.855  1.00  0.00     0.031 A 
BRANCH  52  66
ATOM     66  C   UNL A   1      43.682  22.771  27.165  1.00  0.00    -0.014 A 
ATOM     67  C   UNL A   1      42.823  21.706  26.814  1.00  0.00     0.010 A 
ATOM     68  C   UNL A   1      44.900  22.829  26.464  1.00  0.00     0.010 A 
ATOM     69  C   UNL A   1      43.203  20.708  25.902  1.00  0.00     0.020 A 
ATOM     70  C   UNL A   1      45.310  21.823  25.574  1.00  0.00     0.020 A 
ATOM     71  C   UNL A   1      44.461  20.756  25.308  1.00  0.00     0.054 A 
BRANCH  71  72
ATOM     72  S   UNL A   1      44.979  19.418  24.202  1.00  0.00     0.124 S 
ATOM     73  O   UNL A   1      46.426  19.392  24.393  1.00  0.00    -0.237 OA
ATOM     74  O   UNL A   1      44.251  18.271  24.736  1.00  0.00    -0.237 OA
ATOM     75  O   UNL A   1      44.541  19.869  22.882  1.00  0.00    -0.744 OA
ENDBRANCH  71  72
ENDBRANCH  52  66
BRANCH  53  76
ATOM     76  C   UNL A   1      41.139  29.992  33.125  1.00  0.00    -0.014 A 
ATOM     77  C   UNL A   1      41.075  31.399  33.218  1.00  0.00     0.010 A 
ATOM     78  C   UNL A   1      39.939  29.262  33.075  1.00  0.00     0.010 A 
ATOM     79  C   UNL A   1      39.853  32.068  33.094  1.00  0.00     0.020 A 
ATOM     80  C   UNL A   1      38.710  29.932  32.958  1.00  0.00     0.020 A 
ATOM     81  C   UNL A   1      38.687  31.329  32.903  1.00  0.00     0.054 A 
BRANCH  81  82
ATOM     82  S   UNL A   1      37.184  32.221  32.393  1.00  0.00     0.124 S 
ATOM     83  O   UNL A   1      37.683  33.085  31.328  1.00  0.00    -0.237 OA
ATOM     84  O   UNL A   1      36.311  31.129  31.959  1.00  0.00    -0.237 OA
ATOM     85  O   UNL A   1      36.767  32.900  33.614  1.00  0.00    -0.744 OA
ENDBRANCH  81  82
ENDBRANCH  53  76
BRANCH  65  86
ATOM     86  C   UNL A   1      44.948  23.833  33.698  1.00  0.00    -0.014 A 
ATOM     87  C   UNL A   1      44.109  22.770  34.064  1.00  0.00     0.010 A 
ATOM     88  C   UNL A   1      46.319  23.715  34.031  1.00  0.00     0.010 A 
ATOM     89  C   UNL A   1      44.600  21.671  34.783  1.00  0.00     0.020 A 
ATOM     90  C   UNL A   1      46.827  22.604  34.709  1.00  0.00     0.020 A 
ATOM     91  C   UNL A   1      45.955  21.596  35.105  1.00  0.00     0.054 A 
BRANCH  91  92
ATOM     92  S   UNL A   1      46.594  20.143  35.976  1.00  0.00     0.124 S 
ATOM     93  O   UNL A   1      48.025  20.228  35.693  1.00  0.00    -0.237 OA
ATOM     94  O   UNL A   1      46.216  20.398  37.365  1.00  0.00    -0.237 OA
ATOM     95  O   UNL A   1      45.894  19.029  35.342  1.00  0.00    -0.744 OA
ENDBRANCH  91  92
ENDBRANCH  65  86
ENDBRANCH  39  40
ENDBRANCH  31  34
ENDBRANCH  29  30
ENDBRANCH  28  29
ENDBRANCH   1  28
TORSDOF 17
ENDMDL
MODEL 3
REMARK VINA RESULT:     -12.9      4.819     11.425
REMARK SMILES Cc1ccc(-c2cn3c(n2)sc2cc(C(=O)NCCCCCCNC(=O)c4ccc(-c5c6nc(c(-c7ccc(S(=O)(=O)[O-])cc7)c7ccc([nH]7)c(-c7ccc(S(=O)(=O)[O-])cc7)c7nc(c(-c8ccc(S(=O)(=O)[O-])cc8)c8ccc5[nH]8)C=C7)C=C6)cc4)ccc23)cc1
REMARK SMILES IDX 21 1 20 2 19 3 18 4 17 5 15 6 16 7 14 9 6 10 7 11 10 12 8 13
REMARK SMILES IDX 9 14 89 15 11 16 12 17 88 18 13 19 87 20 5 21 1 22 2 23 3 24
REMARK SMILES IDX 91 25 4 26 90 27 22 28 23 29 24 30 25 31 26 33 27 34 28 35
REMARK SMILES IDX 86 36 29 37 85 38 30 39 31 40 32 41 79 42 33 43 84 44 78 45
REMARK SMILES IDX 80 46 34 47 83 48 77 49 76 50 35 52 65 53 46 54 64 55 47 56
REMARK SMILES IDX 50 57 63 58 81 59 48 60 49 61 62 63 82 64 51 65 36 66 37 67
REMARK SMILES IDX 45 68 38 69 44 70 39 71 40 72 41 73 42 74 43 75 66 76 67 77
REMARK SMILES IDX 75 78 68 79 74 80 69 81 70 82 71 83 72 84 73 85 52 86 53 87
REMARK SMILES IDX 61 88 54 89 60 90 55 91 56 92 57 93 58 94 59 95
REMARK H PARENT 17 8 24 32 80 51 50 62
REMARK Flexibility Score: inf
ROOT
ATOM      1  C   UNL A   1      33.652  28.903  24.978  1.00  0.00     0.002 C 
ENDROOT
BRANCH   1   2
ATOM      2  C   UNL A   1      32.530  28.913  23.924  1.00  0.00     0.002 C 
BRANCH   2   3
ATOM      3  C   UNL A   1      31.087  28.787  24.437  1.00  0.00     0.021 C 
BRANCH   3   4
ATOM      4  C   UNL A   1      30.292  27.609  23.863  1.00  0.00     0.116 C 
BRANCH   4   5
ATOM      5  N   UNL A   1      29.894  26.648  24.894  1.00  0.00    -0.352 N 
ATOM      6  C   UNL A   1      30.620  25.633  25.481  1.00  0.00     0.251 C 
ATOM      7  O   UNL A   1      30.202  25.044  26.473  1.00  0.00    -0.269 OA
ATOM      8  H   UNL A   1      28.968  26.742  25.216  1.00  0.00     0.163 HD
BRANCH   6   9
ATOM      9  C   UNL A   1      31.975  25.333  24.971  1.00  0.00     0.041 A 
ATOM     10  C   UNL A   1      34.843  20.566  24.800  1.00  0.00     0.090 A 
ATOM     11  C   UNL A   1      34.680  21.473  23.758  1.00  0.00     0.123 A 
ATOM     12  N   UNL A   1      35.433  21.173  25.901  1.00  0.00    -0.219 NA
ATOM     13  N   UNL A   1      34.865  22.679  24.377  1.00  0.00    -0.290 N 
ATOM     14  C   UNL A   1      35.433  22.447  25.599  1.00  0.00     0.195 A 
ATOM     15  C   UNL A   1      34.141  23.871  24.252  1.00  0.00     0.065 A 
ATOM     16  S   UNL A   1      35.345  23.839  26.647  1.00  0.00    -0.096 S 
ATOM     17  C   UNL A   1      34.156  24.543  25.487  1.00  0.00     0.056 A 
ATOM     18  C   UNL A   1      33.177  24.080  23.277  1.00  0.00     0.029 A 
ATOM     19  C   UNL A   1      33.068  25.313  25.851  1.00  0.00     0.035 A 
ATOM     20  C   UNL A   1      32.064  24.823  23.659  1.00  0.00     0.016 A 
BRANCH  10  21
ATOM     21  C   UNL A   1      34.216  19.251  24.865  1.00  0.00     0.002 A 
ATOM     22  C   UNL A   1      32.655  15.257  25.447  1.00  0.00     0.044 C 
ATOM     23  C   UNL A   1      33.198  16.639  25.231  1.00  0.00    -0.051 A 
ATOM     24  C   UNL A   1      32.478  17.752  25.678  1.00  0.00     0.004 A 
ATOM     25  C   UNL A   1      34.428  16.838  24.600  1.00  0.00     0.004 A 
ATOM     26  C   UNL A   1      32.981  19.045  25.496  1.00  0.00     0.010 A 
ATOM     27  C   UNL A   1      34.930  18.130  24.418  1.00  0.00     0.010 A 
ENDBRANCH  10  21
ENDBRANCH   6   9
ENDBRANCH   4   5
ENDBRANCH   3   4
ENDBRANCH   2   3
ENDBRANCH   1   2
BRANCH   1  28
ATOM     28  C   UNL A   1      33.351  29.625  26.291  1.00  0.00     0.021 C 
BRANCH  28  29
ATOM     29  C   UNL A   1      34.479  29.537  27.315  1.00  0.00     0.116 C 
BRANCH  29  30
ATOM     30  N   UNL A   1      35.194  30.800  27.464  1.00  0.00    -0.352 N 
ATOM     31  C   UNL A   1      36.449  30.998  28.015  1.00  0.00     0.251 C 
ATOM     32  H   UNL A   1      34.731  31.604  27.135  1.00  0.00     0.163 HD
ATOM     33  O   UNL A   1      36.856  32.085  28.384  1.00  0.00    -0.269 OA
BRANCH  31  34
ATOM     34  C   UNL A   1      37.350  29.832  27.988  1.00  0.00     0.039 A 
ATOM     35  C   UNL A   1      37.400  29.050  29.150  1.00  0.00     0.014 A 
ATOM     36  C   UNL A   1      38.317  29.726  26.993  1.00  0.00     0.014 A 
ATOM     37  C   UNL A   1      38.528  28.280  29.401  1.00  0.00     0.010 A 
ATOM     38  C   UNL A   1      39.471  29.026  27.283  1.00  0.00     0.010 A 
ATOM     39  C   UNL A   1      39.595  28.350  28.508  1.00  0.00    -0.014 A 
BRANCH  39  40
ATOM     40  C   UNL A   1      40.913  27.798  28.788  1.00  0.00     0.031 A 
ATOM     41  C   UNL A   1      41.192  26.386  28.451  1.00  0.00     0.074 A 
ATOM     42  C   UNL A   1      41.888  28.603  29.262  1.00  0.00     0.049 A 
ATOM     43  N   UNL A   1      42.163  25.688  28.934  1.00  0.00    -0.248 NA
ATOM     44  C   UNL A   1      40.320  25.621  27.564  1.00  0.00     0.031 C 
ATOM     45  C   UNL A   1      43.319  28.319  29.303  1.00  0.00     0.029 A 
ATOM     46  N   UNL A   1      41.754  29.766  30.025  1.00  0.00    -0.354 N 
ATOM     47  C   UNL A   1      42.232  24.520  28.205  1.00  0.00     0.074 A 
ATOM     48  C   UNL A   1      41.007  24.483  27.442  1.00  0.00     0.031 C 
ATOM     49  C   UNL A   1      43.876  29.067  30.269  1.00  0.00     0.029 A 
ATOM     50  C   UNL A   1      42.787  29.726  30.974  1.00  0.00     0.049 A 
ATOM     51  H   UNL A   1      41.073  30.469  29.919  1.00  0.00     0.167 HD
ATOM     52  C   UNL A   1      43.386  23.793  28.207  1.00  0.00     0.031 A 
ATOM     53  C   UNL A   1      42.578  29.660  32.321  1.00  0.00     0.031 A 
ATOM     54  C   UNL A   1      44.337  24.311  29.190  1.00  0.00     0.049 A 
ATOM     55  C   UNL A   1      43.219  28.440  32.952  1.00  0.00     0.074 A 
ATOM     56  C   UNL A   1      45.448  25.132  29.087  1.00  0.00     0.029 A 
ATOM     57  N   UNL A   1      44.016  24.249  30.542  1.00  0.00    -0.354 N 
ATOM     58  N   UNL A   1      43.587  27.382  32.282  1.00  0.00    -0.248 NA
ATOM     59  C   UNL A   1      43.470  28.304  34.384  1.00  0.00     0.031 C 
ATOM     60  C   UNL A   1      45.723  25.657  30.378  1.00  0.00     0.029 A 
ATOM     61  C   UNL A   1      44.806  25.121  31.267  1.00  0.00     0.049 A 
ATOM     62  H   UNL A   1      43.323  23.666  30.928  1.00  0.00     0.167 HD
ATOM     63  C   UNL A   1      44.129  26.459  33.138  1.00  0.00     0.074 A 
ATOM     64  C   UNL A   1      44.032  27.084  34.446  1.00  0.00     0.031 C 
ATOM     65  C   UNL A   1      44.618  25.260  32.705  1.00  0.00     0.031 A 
BRANCH  52  66
ATOM     66  C   UNL A   1      43.759  22.816  27.107  1.00  0.00    -0.014 A 
ATOM     67  C   UNL A   1      42.843  21.809  26.732  1.00  0.00     0.010 A 
ATOM     68  C   UNL A   1      45.012  22.772  26.469  1.00  0.00     0.010 A 
ATOM     69  C   UNL A   1      43.194  20.768  25.856  1.00  0.00     0.020 A 
ATOM     70  C   UNL A   1      45.390  21.721  25.618  1.00  0.00     0.020 A 
ATOM     71  C   UNL A   1      44.481  20.713  25.327  1.00  0.00     0.054 A 
BRANCH  71  72
ATOM     72  S   UNL A   1      44.954  19.318  24.271  1.00  0.00     0.124 S 
ATOM     73  O   UNL A   1      44.396  19.698  22.977  1.00  0.00    -0.237 OA
ATOM     74  O   UNL A   1      46.410  19.337  24.362  1.00  0.00    -0.237 OA
ATOM     75  O   UNL A   1      44.309  18.169  24.905  1.00  0.00    -0.744 OA
ENDBRANCH  71  72
ENDBRANCH  52  66
BRANCH  53  76
ATOM     76  C   UNL A   1      41.311  30.295  32.784  1.00  0.00    -0.014 A 
ATOM     77  C   UNL A   1      40.248  29.440  33.148  1.00  0.00     0.010 A 
ATOM     78  C   UNL A   1      41.303  31.620  33.251  1.00  0.00     0.010 A 
ATOM     79  C   UNL A   1      39.295  29.845  34.087  1.00  0.00     0.020 A 
ATOM     80  C   UNL A   1      40.343  32.032  34.189  1.00  0.00     0.020 A 
ATOM     81  C   UNL A   1      39.387  31.119  34.646  1.00  0.00     0.054 A 
BRANCH  81  82
ATOM     82  S   UNL A   1      38.364  31.487  36.106  1.00  0.00     0.124 S 
ATOM     83  O   UNL A   1      37.167  32.069  35.508  1.00  0.00    -0.237 OA
ATOM     84  O   UNL A   1      38.188  30.162  36.701  1.00  0.00    -0.237 OA
ATOM     85  O   UNL A   1      39.196  32.406  36.874  1.00  0.00    -0.744 OA
ENDBRANCH  81  82
ENDBRANCH  53  76
BRANCH  65  86
ATOM     86  C   UNL A   1      45.048  24.118  33.592  1.00  0.00    -0.014 A 
ATOM     87  C   UNL A   1      44.231  23.023  33.911  1.00  0.00     0.010 A 
ATOM     88  C   UNL A   1      46.395  24.063  34.026  1.00  0.00     0.010 A 
ATOM     89  C   UNL A   1      44.715  21.953  34.677  1.00  0.00     0.020 A 
ATOM     90  C   UNL A   1      46.899  22.982  34.753  1.00  0.00     0.020 A 
ATOM     91  C   UNL A   1      46.045  21.941  35.097  1.00  0.00     0.054 A 
BRANCH  91  92
ATOM     92  S   UNL A   1      46.681  20.525  36.031  1.00  0.00     0.124 S 
ATOM     93  O   UNL A   1      45.829  20.540  37.217  1.00  0.00    -0.237 OA
ATOM     94  O   UNL A   1      46.463  19.404  35.119  1.00  0.00    -0.237 OA
ATOM     95  O   UNL A   1      48.083  20.868  36.259  1.00  0.00    -0.744 OA
ENDBRANCH  91  92
ENDBRANCH  65  86
ENDBRANCH  39  40
ENDBRANCH  31  34
ENDBRANCH  29  30
ENDBRANCH  28  29
ENDBRANCH   1  28
TORSDOF 17
ENDMDL
