MODEL 1
REMARK VINA RESULT:     -10.8      0.000      0.000
REMARK SMILES Cc1cc(C)c(C(N)=O)c(N[C@H]2C=C[C@H](C(=O)NCCCCCCNC(=O)c3ccc(-c4c5nc(c(-c6ccc(S(=O)(=O)[O-])cc6)c6ccc([nH]6)c(-c6ccc(S(=O)(=O)[O-])cc6)c6nc(c(-c7ccc(S(=O)(=O)[O-])cc7)c7ccc4[nH]7)C=C6)C=C5)cc3)C2)n1
REMARK SMILES IDX 21 1 20 2 19 3 18 4 16 5 17 6 15 8 12 9 13 10 88 11 14 12
REMARK SMILES IDX 11 13 10 15 1 16 2 17 3 18 89 19 4 20 5 21 6 22 7 23 8 24
REMARK SMILES IDX 9 25 22 28 23 29 24 30 25 31 26 32 27 34 28 35 29 36 87 37
REMARK SMILES IDX 30 38 86 39 31 40 32 41 33 42 80 43 34 44 85 45 79 46 81 47
REMARK SMILES IDX 35 48 84 49 78 50 77 51 36 53 66 54 47 55 65 56 48 57 51 58
REMARK SMILES IDX 64 59 82 60 49 61 50 62 63 64 83 65 52 66 37 67 38 68 46 69
REMARK SMILES IDX 39 70 45 71 40 72 41 73 42 74 43 75 44 76 67 77 68 78 76 79
REMARK SMILES IDX 69 80 75 81 70 82 71 83 72 84 73 85 74 86 53 87 54 88 62 89
REMARK SMILES IDX 55 90 61 91 56 92 57 93 58 94 59 95 60 96
REMARK H PARENT 18 7 11 14 8 26 8 27 25 33 81 52 51 63
REMARK Flexibility Score: inf
ROOT
ATOM      1  C   UNL A   1      31.807  29.064  24.652  1.00  0.00     0.002 C 
ENDROOT
BRANCH   1   2
ATOM      2  C   UNL A   1      30.655  29.419  23.707  1.00  0.00     0.021 C 
BRANCH   2   3
ATOM      3  C   UNL A   1      30.057  28.232  22.960  1.00  0.00     0.116 C 
BRANCH   3   4
ATOM      4  N   UNL A   1      31.032  27.589  22.101  1.00  0.00    -0.356 N 
ATOM      5  C   UNL A   1      31.685  26.405  22.288  1.00  0.00     0.227 C 
ATOM      6  O   UNL A   1      32.418  25.996  21.387  1.00  0.00    -0.274 OA
ATOM      7  H   UNL A   1      31.253  28.071  21.271  1.00  0.00     0.163 HD
BRANCH   5   8
ATOM      8  C   UNL A   1      31.470  25.653  23.598  1.00  0.00     0.103 C 
ATOM      9  C   UNL A   1      32.587  23.492  23.865  1.00  0.00     0.104 C 
ATOM     10  C   UNL A   1      31.149  23.317  23.514  1.00  0.00    -0.006 C 
ATOM     11  C   UNL A   1      32.762  24.993  24.106  1.00  0.00     0.046 C 
ATOM     12  C   UNL A   1      30.536  24.495  23.371  1.00  0.00    -0.016 C 
BRANCH   9  13
ATOM     13  N   UNL A   1      32.987  22.682  25.002  1.00  0.00    -0.363 N 
ATOM     14  H   UNL A   1      32.718  22.982  25.900  1.00  0.00     0.162 HD
BRANCH  13  15
ATOM     15  C   UNL A   1      33.729  21.506  24.900  1.00  0.00     0.139 A 
ATOM     16  C   UNL A   1      32.889  17.944  24.442  1.00  0.00     0.067 C 
ATOM     17  C   UNL A   1      33.713  19.183  24.617  1.00  0.00     0.040 A 
ATOM     18  C   UNL A   1      35.090  19.111  24.728  1.00  0.00     0.028 A 
ATOM     19  N   UNL A   1      33.052  20.354  24.691  1.00  0.00    -0.236 NA
ATOM     20  C   UNL A   1      35.831  20.288  24.906  1.00  0.00    -0.033 A 
ATOM     21  C   UNL A   1      37.322  20.135  25.022  1.00  0.00     0.045 C 
ATOM     22  C   UNL A   1      35.137  21.514  24.999  1.00  0.00     0.084 A 
BRANCH  22  23
ATOM     23  C   UNL A   1      35.870  22.791  25.257  1.00  0.00     0.252 C 
ATOM     24  N   UNL A   1      36.225  23.060  26.553  1.00  0.00    -0.365 N 
ATOM     25  O   UNL A   1      36.170  23.575  24.367  1.00  0.00    -0.269 OA
ATOM     26  H   UNL A   1      35.984  22.430  27.270  1.00  0.00     0.159 HD
ATOM     27  H   UNL A   1      36.722  23.883  26.766  1.00  0.00     0.159 HD
ENDBRANCH  22  23
ENDBRANCH  13  15
ENDBRANCH   9  13
ENDBRANCH   5   8
ENDBRANCH   3   4
ENDBRANCH   2   3
ENDBRANCH   1   2
BRANCH   1  28
ATOM     28  C   UNL A   1      31.387  28.568  26.038  1.00  0.00     0.002 C 
BRANCH  28  29
ATOM     29  C   UNL A   1      32.455  27.780  26.798  1.00  0.00     0.021 C 
BRANCH  29  30
ATOM     30  C   UNL A   1      33.801  28.484  26.925  1.00  0.00     0.116 C 
BRANCH  30  31
ATOM     31  N   UNL A   1      33.666  29.855  27.388  1.00  0.00    -0.352 N 
ATOM     32  C   UNL A   1      34.548  30.616  28.114  1.00  0.00     0.251 C 
ATOM     33  H   UNL A   1      32.822  30.302  27.147  1.00  0.00     0.163 HD
ATOM     34  O   UNL A   1      34.194  31.699  28.571  1.00  0.00    -0.269 OA
BRANCH  32  35
ATOM     35  C   UNL A   1      35.916  30.113  28.365  1.00  0.00     0.039 A 
ATOM     36  C   UNL A   1      36.868  30.212  27.348  1.00  0.00     0.014 A 
ATOM     37  C   UNL A   1      36.259  29.553  29.598  1.00  0.00     0.014 A 
ATOM     38  C   UNL A   1      38.181  29.801  27.589  1.00  0.00     0.010 A 
ATOM     39  C   UNL A   1      37.585  29.215  29.861  1.00  0.00     0.010 A 
ATOM     40  C   UNL A   1      38.559  29.330  28.857  1.00  0.00    -0.014 A 
BRANCH  40  41
ATOM     41  C   UNL A   1      39.968  28.961  29.152  1.00  0.00     0.031 A 
ATOM     42  C   UNL A   1      40.898  29.966  29.777  1.00  0.00     0.074 A 
ATOM     43  C   UNL A   1      40.423  27.741  28.806  1.00  0.00     0.049 A 
ATOM     44  N   UNL A   1      42.169  29.841  30.069  1.00  0.00    -0.248 NA
ATOM     45  C   UNL A   1      40.338  31.289  30.097  1.00  0.00     0.031 C 
ATOM     46  C   UNL A   1      39.631  26.692  28.159  1.00  0.00     0.029 A 
ATOM     47  N   UNL A   1      41.666  27.175  28.949  1.00  0.00    -0.354 N 
ATOM     48  C   UNL A   1      42.560  31.069  30.590  1.00  0.00     0.074 A 
ATOM     49  C   UNL A   1      41.408  31.941  30.527  1.00  0.00     0.031 C 
ATOM     50  C   UNL A   1      40.398  25.603  27.988  1.00  0.00     0.029 A 
ATOM     51  C   UNL A   1      41.745  25.888  28.470  1.00  0.00     0.049 A 
ATOM     52  H   UNL A   1      42.429  27.647  29.355  1.00  0.00     0.167 HD
ATOM     53  C   UNL A   1      43.764  31.432  31.095  1.00  0.00     0.031 A 
ATOM     54  C   UNL A   1      42.786  25.034  28.417  1.00  0.00     0.031 A 
ATOM     55  C   UNL A   1      44.906  30.559  31.162  1.00  0.00     0.049 A 
ATOM     56  C   UNL A   1      44.118  25.467  28.966  1.00  0.00     0.074 A 
ATOM     57  C   UNL A   1      46.154  30.816  31.704  1.00  0.00     0.029 A 
ATOM     58  N   UNL A   1      44.944  29.264  30.668  1.00  0.00    -0.354 N 
ATOM     59  N   UNL A   1      44.449  26.611  29.518  1.00  0.00    -0.248 NA
ATOM     60  C   UNL A   1      45.214  24.491  28.898  1.00  0.00     0.031 C 
ATOM     61  C   UNL A   1      46.964  29.699  31.483  1.00  0.00     0.029 A 
ATOM     62  C   UNL A   1      46.202  28.719  30.867  1.00  0.00     0.049 A 
ATOM     63  H   UNL A   1      44.188  28.800  30.241  1.00  0.00     0.167 HD
ATOM     64  C   UNL A   1      45.784  26.480  29.888  1.00  0.00     0.074 A 
ATOM     65  C   UNL A   1      46.192  25.141  29.514  1.00  0.00     0.031 C 
ATOM     66  C   UNL A   1      46.596  27.385  30.487  1.00  0.00     0.031 A 
BRANCH  53  67
ATOM     67  C   UNL A   1      43.909  32.841  31.610  1.00  0.00    -0.014 A 
ATOM     68  C   UNL A   1      43.621  33.162  32.949  1.00  0.00     0.010 A 
ATOM     69  C   UNL A   1      44.385  33.852  30.754  1.00  0.00     0.010 A 
ATOM     70  C   UNL A   1      43.766  34.473  33.412  1.00  0.00     0.020 A 
ATOM     71  C   UNL A   1      44.562  35.158  31.221  1.00  0.00     0.020 A 
ATOM     72  C   UNL A   1      44.234  35.463  32.543  1.00  0.00     0.054 A 
BRANCH  72  73
ATOM     73  S   UNL A   1      44.437  37.149  33.179  1.00  0.00     0.124 S 
ATOM     74  O   UNL A   1      45.767  37.086  33.782  1.00  0.00    -0.237 OA
ATOM     75  O   UNL A   1      44.336  37.962  31.969  1.00  0.00    -0.237 OA
ATOM     76  O   UNL A   1      43.333  37.300  34.123  1.00  0.00    -0.744 OA
ENDBRANCH  72  73
ENDBRANCH  53  67
BRANCH  54  77
ATOM     77  C   UNL A   1      42.606  23.677  27.829  1.00  0.00    -0.014 A 
ATOM     78  C   UNL A   1      42.845  23.452  26.461  1.00  0.00     0.010 A 
ATOM     79  C   UNL A   1      42.201  22.599  28.637  1.00  0.00     0.010 A 
ATOM     80  C   UNL A   1      42.662  22.180  25.910  1.00  0.00     0.020 A 
ATOM     81  C   UNL A   1      42.048  21.320  28.096  1.00  0.00     0.020 A 
ATOM     82  C   UNL A   1      42.267  21.121  26.732  1.00  0.00     0.054 A 
BRANCH  82  83
ATOM     83  S   UNL A   1      42.081  19.471  26.003  1.00  0.00     0.124 S 
ATOM     84  O   UNL A   1      40.644  19.402  25.768  1.00  0.00    -0.237 OA
ATOM     85  O   UNL A   1      42.917  19.559  24.809  1.00  0.00    -0.237 OA
ATOM     86  O   UNL A   1      42.589  18.579  27.045  1.00  0.00    -0.744 OA
ENDBRANCH  82  83
ENDBRANCH  54  77
BRANCH  66  87
ATOM     87  C   UNL A   1      48.001  26.951  30.812  1.00  0.00    -0.014 A 
ATOM     88  C   UNL A   1      49.088  27.317  29.998  1.00  0.00     0.010 A 
ATOM     89  C   UNL A   1      48.243  26.207  31.983  1.00  0.00     0.010 A 
ATOM     90  C   UNL A   1      50.386  26.919  30.331  1.00  0.00     0.020 A 
ATOM     91  C   UNL A   1      49.542  25.834  32.336  1.00  0.00     0.020 A 
ATOM     92  C   UNL A   1      50.605  26.181  31.499  1.00  0.00     0.054 A 
BRANCH  92  93
ATOM     93  S   UNL A   1      52.303  25.715  31.931  1.00  0.00     0.124 S 
ATOM     94  O   UNL A   1      52.668  26.754  32.891  1.00  0.00    -0.237 OA
ATOM     95  O   UNL A   1      52.135  24.376  32.490  1.00  0.00    -0.237 OA
ATOM     96  O   UNL A   1      53.013  25.767  30.656  1.00  0.00    -0.744 OA
ENDBRANCH  92  93
ENDBRANCH  66  87
ENDBRANCH  40  41
ENDBRANCH  32  35
ENDBRANCH  30  31
ENDBRANCH  29  30
ENDBRANCH  28  29
ENDBRANCH   1  28
TORSDOF 19
ENDMDL
MODEL 2
REMARK VINA RESULT:     -10.3      2.675      3.205
REMARK SMILES Cc1cc(C)c(C(N)=O)c(N[C@H]2C=C[C@H](C(=O)NCCCCCCNC(=O)c3ccc(-c4c5nc(c(-c6ccc(S(=O)(=O)[O-])cc6)c6ccc([nH]6)c(-c6ccc(S(=O)(=O)[O-])cc6)c6nc(c(-c7ccc(S(=O)(=O)[O-])cc7)c7ccc4[nH]7)C=C6)C=C5)cc3)C2)n1
REMARK SMILES IDX 21 1 20 2 19 3 18 4 16 5 17 6 15 8 12 9 13 10 88 11 14 12
REMARK SMILES IDX 11 13 10 15 1 16 2 17 3 18 89 19 4 20 5 21 6 22 7 23 8 24
REMARK SMILES IDX 9 25 22 28 23 29 24 30 25 31 26 32 27 34 28 35 29 36 87 37
REMARK SMILES IDX 30 38 86 39 31 40 32 41 33 42 80 43 34 44 85 45 79 46 81 47
REMARK SMILES IDX 35 48 84 49 78 50 77 51 36 53 66 54 47 55 65 56 48 57 51 58
REMARK SMILES IDX 64 59 82 60 49 61 50 62 63 64 83 65 52 66 37 67 38 68 46 69
REMARK SMILES IDX 39 70 45 71 40 72 41 73 42 74 43 75 44 76 67 77 68 78 76 79
REMARK SMILES IDX 69 80 75 81 70 82 71 83 72 84 73 85 74 86 53 87 54 88 62 89
REMARK SMILES IDX 55 90 61 91 56 92 57 93 58 94 59 95 60 96
REMARK H PARENT 18 7 11 14 8 26 8 27 25 33 81 52 51 63
REMARK Flexibility Score: inf
ROOT
ATOM      1  C   UNL A   1      31.592  29.420  24.120  1.00  0.00     0.002 C 
ENDROOT
BRANCH   1   2
ATOM      2  C   UNL A   1      30.254  29.418  23.376  1.00  0.00     0.021 C 
BRANCH   2   3
ATOM      3  C   UNL A   1      29.850  28.068  22.796  1.00  0.00     0.116 C 
BRANCH   3   4
ATOM      4  N   UNL A   1      30.898  27.501  21.970  1.00  0.00    -0.356 N 
ATOM      5  C   UNL A   1      31.670  26.401  22.207  1.00  0.00     0.227 C 
ATOM      6  O   UNL A   1      32.454  26.040  21.328  1.00  0.00    -0.274 OA
ATOM      7  H   UNL A   1      31.076  27.973  21.125  1.00  0.00     0.163 HD
BRANCH   5   8
ATOM      8  C   UNL A   1      31.521  25.680  23.543  1.00  0.00     0.103 C 
ATOM      9  C   UNL A   1      32.691  23.548  23.821  1.00  0.00     0.104 C 
ATOM     10  C   UNL A   1      31.245  23.336  23.530  1.00  0.00    -0.006 C 
ATOM     11  C   UNL A   1      32.844  25.058  24.018  1.00  0.00     0.046 C 
ATOM     12  C   UNL A   1      30.603  24.498  23.381  1.00  0.00    -0.016 C 
BRANCH   9  13
ATOM     13  N   UNL A   1      33.151  22.776  24.962  1.00  0.00    -0.363 N 
ATOM     14  H   UNL A   1      33.017  23.156  25.861  1.00  0.00     0.162 HD
BRANCH  13  15
ATOM     15  C   UNL A   1      33.769  21.530  24.864  1.00  0.00     0.139 A 
ATOM     16  C   UNL A   1      32.568  18.066  24.467  1.00  0.00     0.067 C 
ATOM     17  C   UNL A   1      33.515  19.218  24.613  1.00  0.00     0.040 A 
ATOM     18  C   UNL A   1      34.879  19.009  24.701  1.00  0.00     0.028 A 
ATOM     19  N   UNL A   1      32.976  20.450  24.682  1.00  0.00    -0.236 NA
ATOM     20  C   UNL A   1      35.738  20.107  24.852  1.00  0.00    -0.033 A 
ATOM     21  C   UNL A   1      37.207  19.807  24.945  1.00  0.00     0.045 C 
ATOM     22  C   UNL A   1      35.172  21.398  24.940  1.00  0.00     0.084 A 
BRANCH  22  23
ATOM     23  C   UNL A   1      36.033  22.597  25.169  1.00  0.00     0.252 C 
ATOM     24  N   UNL A   1      36.455  22.832  26.451  1.00  0.00    -0.365 N 
ATOM     25  O   UNL A   1      36.379  23.348  24.266  1.00  0.00    -0.269 OA
ATOM     26  H   UNL A   1      36.177  22.230  27.179  1.00  0.00     0.159 HD
ATOM     27  H   UNL A   1      37.037  23.603  26.645  1.00  0.00     0.159 HD
ENDBRANCH  22  23
ENDBRANCH  13  15
ENDBRANCH   9  13
ENDBRANCH   5   8
ENDBRANCH   3   4
ENDBRANCH   2   3
ENDBRANCH   1   2
BRANCH   1  28
ATOM     28  C   UNL A   1      31.537  28.924  25.567  1.00  0.00     0.002 C 
BRANCH  28  29
ATOM     29  C   UNL A   1      32.801  28.217  26.061  1.00  0.00     0.021 C 
BRANCH  29  30
ATOM     30  C   UNL A   1      34.042  29.098  26.129  1.00  0.00     0.116 C 
BRANCH  30  31
ATOM     31  N   UNL A   1      33.744  30.437  26.610  1.00  0.00    -0.352 N 
ATOM     32  C   UNL A   1      34.358  31.158  27.603  1.00  0.00     0.251 C 
ATOM     33  H   UNL A   1      32.996  30.891  26.159  1.00  0.00     0.163 HD
ATOM     34  O   UNL A   1      33.861  32.207  27.999  1.00  0.00    -0.269 OA
BRANCH  32  35
ATOM     35  C   UNL A   1      35.608  30.651  28.212  1.00  0.00     0.039 A 
ATOM     36  C   UNL A   1      36.823  31.227  27.838  1.00  0.00     0.014 A 
ATOM     37  C   UNL A   1      35.579  29.616  29.152  1.00  0.00     0.014 A 
ATOM     38  C   UNL A   1      38.005  30.804  28.450  1.00  0.00     0.010 A 
ATOM     39  C   UNL A   1      36.748  29.250  29.815  1.00  0.00     0.010 A 
ATOM     40  C   UNL A   1      37.974  29.836  29.468  1.00  0.00    -0.014 A 
BRANCH  40  41
ATOM     41  C   UNL A   1      39.213  29.431  30.181  1.00  0.00     0.031 A 
ATOM     42  C   UNL A   1      39.627  30.141  31.442  1.00  0.00     0.074 A 
ATOM     43  C   UNL A   1      39.993  28.461  29.664  1.00  0.00     0.049 A 
ATOM     44  N   UNL A   1      40.693  29.958  32.179  1.00  0.00    -0.248 NA
ATOM     45  C   UNL A   1      38.741  31.212  31.928  1.00  0.00     0.031 C 
ATOM     46  C   UNL A   1      39.721  27.723  28.428  1.00  0.00     0.029 A 
ATOM     47  N   UNL A   1      41.176  27.930  30.113  1.00  0.00    -0.354 N 
ATOM     48  C   UNL A   1      40.613  30.895  33.202  1.00  0.00     0.074 A 
ATOM     49  C   UNL A   1      39.423  31.680  32.963  1.00  0.00     0.031 C 
ATOM     50  C   UNL A   1      40.693  26.816  28.234  1.00  0.00     0.029 A 
ATOM     51  C   UNL A   1      41.678  26.937  29.304  1.00  0.00     0.049 A 
ATOM     52  H   UNL A   1      41.625  28.230  30.937  1.00  0.00     0.167 HD
ATOM     53  C   UNL A   1      41.445  31.073  34.257  1.00  0.00     0.031 A 
ATOM     54  C   UNL A   1      42.808  26.209  29.404  1.00  0.00     0.031 A 
ATOM     55  C   UNL A   1      42.626  30.285  34.495  1.00  0.00     0.049 A 
ATOM     56  C   UNL A   1      43.725  26.439  30.574  1.00  0.00     0.074 A 
ATOM     57  C   UNL A   1      43.503  30.352  35.563  1.00  0.00     0.029 A 
ATOM     58  N   UNL A   1      43.097  29.289  33.652  1.00  0.00    -0.354 N 
ATOM     59  N   UNL A   1      43.596  27.286  31.569  1.00  0.00    -0.248 NA
ATOM     60  C   UNL A   1      44.935  25.607  30.643  1.00  0.00     0.031 C 
ATOM     61  C   UNL A   1      44.539  29.441  35.336  1.00  0.00     0.029 A 
ATOM     62  C   UNL A   1      44.269  28.755  34.162  1.00  0.00     0.049 A 
ATOM     63  H   UNL A   1      42.663  29.004  32.816  1.00  0.00     0.167 HD
ATOM     64  C   UNL A   1      44.693  27.067  32.396  1.00  0.00     0.074 A 
ATOM     65  C   UNL A   1      45.464  25.998  31.795  1.00  0.00     0.031 C 
ATOM     66  C   UNL A   1      45.029  27.692  33.551  1.00  0.00     0.031 A 
BRANCH  53  67
ATOM     67  C   UNL A   1      41.109  32.171  35.234  1.00  0.00    -0.014 A 
ATOM     68  C   UNL A   1      40.283  31.930  36.347  1.00  0.00     0.010 A 
ATOM     69  C   UNL A   1      41.666  33.453  35.062  1.00  0.00     0.010 A 
ATOM     70  C   UNL A   1      39.986  32.959  37.246  1.00  0.00     0.020 A 
ATOM     71  C   UNL A   1      41.396  34.476  35.976  1.00  0.00     0.020 A 
ATOM     72  C   UNL A   1      40.544  34.226  37.053  1.00  0.00     0.054 A 
BRANCH  72  73
ATOM     73  S   UNL A   1      40.161  35.533  38.250  1.00  0.00     0.124 S 
ATOM     74  O   UNL A   1      41.300  35.448  39.163  1.00  0.00    -0.237 OA
ATOM     75  O   UNL A   1      40.116  36.730  37.413  1.00  0.00    -0.237 OA
ATOM     76  O   UNL A   1      38.879  35.122  38.815  1.00  0.00    -0.744 OA
ENDBRANCH  72  73
ENDBRANCH  53  67
BRANCH  54  77
ATOM     77  C   UNL A   1      43.130  25.187  28.370  1.00  0.00    -0.014 A 
ATOM     78  C   UNL A   1      42.580  23.895  28.445  1.00  0.00     0.010 A 
ATOM     79  C   UNL A   1      43.984  25.504  27.298  1.00  0.00     0.010 A 
ATOM     80  C   UNL A   1      42.895  22.934  27.479  1.00  0.00     0.020 A 
ATOM     81  C   UNL A   1      44.276  24.555  26.314  1.00  0.00     0.020 A 
ATOM     82  C   UNL A   1      43.739  23.271  26.418  1.00  0.00     0.054 A 
BRANCH  82  83
ATOM     83  S   UNL A   1      44.097  22.022  25.153  1.00  0.00     0.124 S 
ATOM     84  O   UNL A   1      43.676  22.698  23.930  1.00  0.00    -0.237 OA
ATOM     85  O   UNL A   1      45.536  21.823  25.305  1.00  0.00    -0.237 OA
ATOM     86  O   UNL A   1      43.273  20.883  25.555  1.00  0.00    -0.744 OA
ENDBRANCH  82  83
ENDBRANCH  54  77
BRANCH  66  87
ATOM     87  C   UNL A   1      46.265  27.215  34.266  1.00  0.00    -0.014 A 
ATOM     88  C   UNL A   1      47.523  27.796  34.022  1.00  0.00     0.010 A 
ATOM     89  C   UNL A   1      46.156  26.204  35.240  1.00  0.00     0.010 A 
ATOM     90  C   UNL A   1      48.654  27.349  34.713  1.00  0.00     0.020 A 
ATOM     91  C   UNL A   1      47.277  25.778  35.955  1.00  0.00     0.020 A 
ATOM     92  C   UNL A   1      48.523  26.344  35.676  1.00  0.00     0.054 A 
BRANCH  92  93
ATOM     93  S   UNL A   1      49.997  25.814  36.589  1.00  0.00     0.124 S 
ATOM     94  O   UNL A   1      49.639  24.451  36.979  1.00  0.00    -0.237 OA
ATOM     95  O   UNL A   1      51.052  25.924  35.586  1.00  0.00    -0.237 OA
ATOM     96  O   UNL A   1      50.087  26.772  37.688  1.00  0.00    -0.744 OA
ENDBRANCH  92  93
ENDBRANCH  66  87
ENDBRANCH  40  41
ENDBRANCH  32  35
ENDBRANCH  30  31
ENDBRANCH  29  30
ENDBRANCH  28  29
ENDBRANCH   1  28
TORSDOF 19
ENDMDL
MODEL 3
REMARK VINA RESULT:     -10.2      2.982      4.097
REMARK SMILES Cc1cc(C)c(C(N)=O)c(N[C@H]2C=C[C@H](C(=O)NCCCCCCNC(=O)c3ccc(-c4c5nc(c(-c6ccc(S(=O)(=O)[O-])cc6)c6ccc([nH]6)c(-c6ccc(S(=O)(=O)[O-])cc6)c6nc(c(-c7ccc(S(=O)(=O)[O-])cc7)c7ccc4[nH]7)C=C6)C=C5)cc3)C2)n1
REMARK SMILES IDX 21 1 20 2 19 3 18 4 16 5 17 6 15 8 12 9 13 10 88 11 14 12
REMARK SMILES IDX 11 13 10 15 1 16 2 17 3 18 89 19 4 20 5 21 6 22 7 23 8 24
REMARK SMILES IDX 9 25 22 28 23 29 24 30 25 31 26 32 27 34 28 35 29 36 87 37
REMARK SMILES IDX 30 38 86 39 31 40 32 41 33 42 80 43 34 44 85 45 79 46 81 47
REMARK SMILES IDX 35 48 84 49 78 50 77 51 36 53 66 54 47 55 65 56 48 57 51 58
REMARK SMILES IDX 64 59 82 60 49 61 50 62 63 64 83 65 52 66 37 67 38 68 46 69
REMARK SMILES IDX 39 70 45 71 40 72 41 73 42 74 43 75 44 76 67 77 68 78 76 79
REMARK SMILES IDX 69 80 75 81 70 82 71 83 72 84 73 85 74 86 53 87 54 88 62 89
REMARK SMILES IDX 55 90 61 91 56 92 57 93 58 94 59 95 60 96
REMARK H PARENT 18 7 11 14 8 26 8 27 25 33 81 52 51 63
REMARK Flexibility Score: inf
ROOT
ATOM      1  C   UNL A   1      34.626  31.278  28.195  1.00  0.00     0.002 C 
ENDROOT
BRANCH   1   2
ATOM      2  C   UNL A   1      34.015  30.412  27.090  1.00  0.00     0.021 C 
BRANCH   2   3
ATOM      3  C   UNL A   1      32.532  30.108  27.267  1.00  0.00     0.116 C 
BRANCH   3   4
ATOM      4  N   UNL A   1      31.827  30.110  26.001  1.00  0.00    -0.356 N 
ATOM      5  C   UNL A   1      31.504  29.051  25.202  1.00  0.00     0.227 C 
ATOM      6  O   UNL A   1      30.823  29.265  24.199  1.00  0.00    -0.274 OA
ATOM      7  H   UNL A   1      31.542  30.993  25.672  1.00  0.00     0.163 HD
BRANCH   5   8
ATOM      8  C   UNL A   1      32.002  27.664  25.595  1.00  0.00     0.103 C 
ATOM      9  C   UNL A   1      30.981  25.733  24.491  1.00  0.00     0.104 C 
ATOM     10  C   UNL A   1      30.419  25.933  25.856  1.00  0.00    -0.006 C 
ATOM     11  C   UNL A   1      32.137  26.731  24.381  1.00  0.00     0.046 C 
ATOM     12  C   UNL A   1      30.977  26.984  26.463  1.00  0.00    -0.016 C 
BRANCH   9  13
ATOM     13  N   UNL A   1      31.388  24.360  24.249  1.00  0.00    -0.363 N 
ATOM     14  H   UNL A   1      30.747  23.760  23.803  1.00  0.00     0.162 HD
BRANCH  13  15
ATOM     15  C   UNL A   1      32.631  23.840  24.609  1.00  0.00     0.139 A 
ATOM     16  C   UNL A   1      34.151  22.717  27.776  1.00  0.00     0.067 C 
ATOM     17  C   UNL A   1      34.006  23.020  26.315  1.00  0.00     0.040 A 
ATOM     18  C   UNL A   1      35.064  22.841  25.444  1.00  0.00     0.028 A 
ATOM     19  N   UNL A   1      32.815  23.497  25.904  1.00  0.00    -0.236 NA
ATOM     20  C   UNL A   1      34.900  23.148  24.086  1.00  0.00    -0.033 A 
ATOM     21  C   UNL A   1      36.093  22.933  23.197  1.00  0.00     0.045 C 
ATOM     22  C   UNL A   1      33.657  23.664  23.657  1.00  0.00     0.084 A 
BRANCH  22  23
ATOM     23  C   UNL A   1      33.448  24.072  22.234  1.00  0.00     0.252 C 
ATOM     24  N   UNL A   1      32.988  23.115  21.368  1.00  0.00    -0.365 N 
ATOM     25  O   UNL A   1      33.653  25.209  21.833  1.00  0.00    -0.269 OA
ATOM     26  H   UNL A   1      32.822  22.199  21.689  1.00  0.00     0.159 HD
ATOM     27  H   UNL A   1      32.821  23.344  20.425  1.00  0.00     0.159 HD
ENDBRANCH  22  23
ENDBRANCH  13  15
ENDBRANCH   9  13
ENDBRANCH   5   8
ENDBRANCH   3   4
ENDBRANCH   2   3
ENDBRANCH   1   2
BRANCH   1  28
ATOM     28  C   UNL A   1      35.626  32.335  27.720  1.00  0.00     0.002 C 
BRANCH  28  29
ATOM     29  C   UNL A   1      35.864  33.490  28.695  1.00  0.00     0.021 C 
BRANCH  29  30
ATOM     30  C   UNL A   1      36.872  33.198  29.800  1.00  0.00     0.116 C 
BRANCH  30  31
ATOM     31  N   UNL A   1      36.320  32.343  30.838  1.00  0.00    -0.352 N 
ATOM     32  C   UNL A   1      36.744  31.106  31.259  1.00  0.00     0.251 C 
ATOM     33  H   UNL A   1      35.531  32.700  31.306  1.00  0.00     0.163 HD
ATOM     34  O   UNL A   1      36.051  30.448  32.028  1.00  0.00    -0.269 OA
BRANCH  32  35
ATOM     35  C   UNL A   1      38.026  30.562  30.760  1.00  0.00     0.039 A 
ATOM     36  C   UNL A   1      38.216  30.440  29.382  1.00  0.00     0.014 A 
ATOM     37  C   UNL A   1      39.036  30.179  31.646  1.00  0.00     0.014 A 
ATOM     38  C   UNL A   1      39.443  29.988  28.892  1.00  0.00     0.010 A 
ATOM     39  C   UNL A   1      40.283  29.803  31.154  1.00  0.00     0.010 A 
ATOM     40  C   UNL A   1      40.499  29.697  29.772  1.00  0.00    -0.014 A 
BRANCH  40  41
ATOM     41  C   UNL A   1      41.834  29.289  29.263  1.00  0.00     0.031 A 
ATOM     42  C   UNL A   1      42.951  30.294  29.177  1.00  0.00     0.074 A 
ATOM     43  C   UNL A   1      42.023  28.028  28.827  1.00  0.00     0.049 A 
ATOM     44  N   UNL A   1      44.168  30.136  28.722  1.00  0.00    -0.248 NA
ATOM     45  C   UNL A   1      42.659  31.660  29.641  1.00  0.00     0.031 C 
ATOM     46  C   UNL A   1      41.009  26.971  28.822  1.00  0.00     0.029 A 
ATOM     47  N   UNL A   1      43.137  27.420  28.301  1.00  0.00    -0.354 N 
ATOM     48  C   UNL A   1      44.779  31.379  28.831  1.00  0.00     0.074 A 
ATOM     49  C   UNL A   1      43.784  32.294  29.346  1.00  0.00     0.031 C 
ATOM     50  C   UNL A   1      41.555  25.839  28.346  1.00  0.00     0.029 A 
ATOM     51  C   UNL A   1      42.941  26.099  27.971  1.00  0.00     0.049 A 
ATOM     52  H   UNL A   1      43.995  27.886  28.172  1.00  0.00     0.167 HD
ATOM     53  C   UNL A   1      46.058  31.725  28.548  1.00  0.00     0.031 A 
ATOM     54  C   UNL A   1      43.778  25.198  27.421  1.00  0.00     0.031 A 
ATOM     55  C   UNL A   1      47.047  30.810  28.042  1.00  0.00     0.049 A 
ATOM     56  C   UNL A   1      45.188  25.612  27.097  1.00  0.00     0.074 A 
ATOM     57  C   UNL A   1      48.384  31.050  27.775  1.00  0.00     0.029 A 
ATOM     58  N   UNL A   1      46.808  29.481  27.723  1.00  0.00    -0.354 N 
ATOM     59  N   UNL A   1      45.766  26.777  27.272  1.00  0.00    -0.248 NA
ATOM     60  C   UNL A   1      46.063  24.585  26.513  1.00  0.00     0.031 C 
ATOM     61  C   UNL A   1      48.938  29.885  27.235  1.00  0.00     0.029 A 
ATOM     62  C   UNL A   1      47.965  28.898  27.233  1.00  0.00     0.049 A 
ATOM     63  H   UNL A   1      45.944  29.021  27.829  1.00  0.00     0.167 HD
ATOM     64  C   UNL A   1      47.081  26.614  26.846  1.00  0.00     0.074 A 
ATOM     65  C   UNL A   1      47.216  25.235  26.423  1.00  0.00     0.031 C 
ATOM     66  C   UNL A   1      48.085  27.524  26.813  1.00  0.00     0.031 A 
BRANCH  53  67
ATOM     67  C   UNL A   1      46.460  33.160  28.774  1.00  0.00    -0.014 A 
ATOM     68  C   UNL A   1      47.015  33.578  29.997  1.00  0.00     0.010 A 
ATOM     69  C   UNL A   1      46.325  34.095  27.731  1.00  0.00     0.010 A 
ATOM     70  C   UNL A   1      47.388  34.912  30.188  1.00  0.00     0.020 A 
ATOM     71  C   UNL A   1      46.725  35.424  27.906  1.00  0.00     0.020 A 
ATOM     72  C   UNL A   1      47.238  35.827  29.140  1.00  0.00     0.054 A 
BRANCH  72  73
ATOM     73  S   UNL A   1      47.755  37.544  29.408  1.00  0.00     0.124 S 
ATOM     74  O   UNL A   1      47.973  38.010  28.040  1.00  0.00    -0.237 OA
ATOM     75  O   UNL A   1      46.600  38.122  30.091  1.00  0.00    -0.237 OA
ATOM     76  O   UNL A   1      48.961  37.422  30.224  1.00  0.00    -0.744 OA
ENDBRANCH  72  73
ENDBRANCH  53  67
BRANCH  54  77
ATOM     77  C   UNL A   1      43.306  23.812  27.149  1.00  0.00    -0.014 A 
ATOM     78  C   UNL A   1      43.291  22.847  28.173  1.00  0.00     0.010 A 
ATOM     79  C   UNL A   1      42.863  23.450  25.864  1.00  0.00     0.010 A 
ATOM     80  C   UNL A   1      42.860  21.543  27.911  1.00  0.00     0.020 A 
ATOM     81  C   UNL A   1      42.402  22.156  25.607  1.00  0.00     0.020 A 
ATOM     82  C   UNL A   1      42.415  21.206  26.630  1.00  0.00     0.054 A 
BRANCH  82  83
ATOM     83  S   UNL A   1      41.818  19.521  26.326  1.00  0.00     0.124 S 
ATOM     84  O   UNL A   1      42.212  18.833  27.550  1.00  0.00    -0.237 OA
ATOM     85  O   UNL A   1      40.382  19.724  26.147  1.00  0.00    -0.237 OA
ATOM     86  O   UNL A   1      42.537  19.116  25.119  1.00  0.00    -0.744 OA
ENDBRANCH  82  83
ENDBRANCH  54  77
BRANCH  66  87
ATOM     87  C   UNL A   1      49.434  27.052  26.336  1.00  0.00    -0.014 A 
ATOM     88  C   UNL A   1      50.414  26.603  27.240  1.00  0.00     0.010 A 
ATOM     89  C   UNL A   1      49.704  27.009  24.955  1.00  0.00     0.010 A 
ATOM     90  C   UNL A   1      51.652  26.151  26.772  1.00  0.00     0.020 A 
ATOM     91  C   UNL A   1      50.928  26.527  24.482  1.00  0.00     0.020 A 
ATOM     92  C   UNL A   1      51.900  26.115  25.396  1.00  0.00     0.054 A 
BRANCH  92  93
ATOM     93  S   UNL A   1      53.497  25.483  24.813  1.00  0.00     0.124 S 
ATOM     94  O   UNL A   1      54.430  26.114  25.744  1.00  0.00    -0.237 OA
ATOM     95  O   UNL A   1      53.342  24.039  24.961  1.00  0.00    -0.237 OA
ATOM     96  O   UNL A   1      53.576  25.959  23.434  1.00  0.00    -0.744 OA
ENDBRANCH  92  93
ENDBRANCH  66  87
ENDBRANCH  40  41
ENDBRANCH  32  35
ENDBRANCH  30  31
ENDBRANCH  29  30
ENDBRANCH  28  29
ENDBRANCH   1  28
TORSDOF 19
ENDMDL
