MODEL 1
REMARK VINA RESULT:     -11.3      0.000      0.000
REMARK SMILES O=C(NCCCCCCNC(=O)[C@H]1CCCN(c2cc(-c3ccccn3)nc(-c3ccccc3F)n2)C1)c1ccc(-c2c3nc(c(-c4ccc(S(=O)(=O)[O-])cc4)c4ccc([nH]4)c(-c4ccc(S(=O)(=O)[O-])cc4)c4nc(c(-c5ccc(S(=O)(=O)[O-])cc5)c5ccc2[nH]5)C=C4)C=C3)cc1
REMARK SMILES IDX 6 1 5 2 4 3 3 4 1 5 2 6 38 8 39 9 97 10 40 11 96 12 41 13
REMARK SMILES IDX 42 14 43 15 90 16 44 17 95 18 89 19 91 20 45 21 94 22 88 23
REMARK SMILES IDX 87 24 46 26 76 27 57 28 75 29 58 30 61 31 74 32 92 33 59 34
REMARK SMILES IDX 60 35 73 37 93 38 62 39 47 40 48 41 56 42 49 43 55 44 50 45
REMARK SMILES IDX 51 46 52 47 53 48 54 49 77 50 78 51 86 52 79 53 85 54 80 55
REMARK SMILES IDX 81 56 82 57 83 58 84 59 63 60 64 61 72 62 65 63 71 64 66 65
REMARK SMILES IDX 67 66 68 67 69 68 70 69 7 70 8 71 9 72 10 73 11 74 12 76
REMARK SMILES IDX 13 77 14 78 37 79 15 80 17 81 16 82 18 83 19 84 36 85 20 86
REMARK SMILES IDX 28 87 27 88 21 89 22 90 26 91 23 92 25 93 24 94 29 95 30 96
REMARK SMILES IDX 34 97 31 98 33 99 35 100 32 101
REMARK H PARENT 3 7 91 25 61 36 10 75
REMARK Flexibility Score: inf
ROOT
ATOM      1  C   UNL A   1      34.715  32.443  27.862  1.00  0.00     0.002 C 
ENDROOT
BRANCH   1   2
ATOM      2  C   UNL A   1      33.680  33.046  28.815  1.00  0.00     0.021 C 
BRANCH   2   3
ATOM      3  C   UNL A   1      33.634  34.569  28.818  1.00  0.00     0.116 C 
BRANCH   3   4
ATOM      4  N   UNL A   1      32.878  35.088  29.946  1.00  0.00    -0.352 N 
ATOM      5  O   UNL A   1      32.261  35.263  32.106  1.00  0.00    -0.269 OA
ATOM      6  C   UNL A   1      33.116  34.932  31.289  1.00  0.00     0.251 C 
ATOM      7  H   UNL A   1      32.086  35.626  29.714  1.00  0.00     0.163 HD
BRANCH   6   8
ATOM      8  C   UNL A   1      34.397  34.352  31.743  1.00  0.00     0.039 A 
ATOM      9  C   UNL A   1      35.570  35.111  31.707  1.00  0.00     0.014 A 
ATOM     10  C   UNL A   1      34.423  33.042  32.228  1.00  0.00     0.014 A 
ATOM     11  C   UNL A   1      36.785  34.525  32.042  1.00  0.00     0.010 A 
ATOM     12  C   UNL A   1      35.634  32.480  32.643  1.00  0.00     0.010 A 
ATOM     13  C   UNL A   1      36.828  33.210  32.536  1.00  0.00    -0.014 A 
BRANCH  13  14
ATOM     14  C   UNL A   1      38.117  32.656  33.016  1.00  0.00     0.031 A 
ATOM     15  C   UNL A   1      38.595  32.894  34.422  1.00  0.00     0.074 A 
ATOM     16  C   UNL A   1      38.853  31.914  32.164  1.00  0.00     0.049 A 
ATOM     17  N   UNL A   1      39.691  32.468  34.997  1.00  0.00    -0.248 NA
ATOM     18  C   UNL A   1      37.741  33.716  35.294  1.00  0.00     0.031 C 
ATOM     19  C   UNL A   1      38.492  31.623  30.773  1.00  0.00     0.029 A 
ATOM     20  N   UNL A   1      40.043  31.257  32.340  1.00  0.00    -0.354 N 
ATOM     21  C   UNL A   1      39.671  32.984  36.288  1.00  0.00     0.074 A 
ATOM     22  C   UNL A   1      38.462  33.771  36.406  1.00  0.00     0.031 C 
ATOM     23  C   UNL A   1      39.416  30.813  30.237  1.00  0.00     0.029 A 
ATOM     24  C   UNL A   1      40.466  30.579  31.221  1.00  0.00     0.049 A 
ATOM     25  H   UNL A   1      40.546  31.268  33.186  1.00  0.00     0.167 HD
ATOM     26  C   UNL A   1      40.578  32.813  37.281  1.00  0.00     0.031 A 
ATOM     27  C   UNL A   1      41.585  29.864  30.998  1.00  0.00     0.031 A 
ATOM     28  C   UNL A   1      41.781  32.030  37.151  1.00  0.00     0.049 A 
ATOM     29  C   UNL A   1      42.585  29.717  32.107  1.00  0.00     0.074 A 
ATOM     30  C   UNL A   1      42.745  31.771  38.110  1.00  0.00     0.029 A 
ATOM     31  N   UNL A   1      42.187  31.383  35.993  1.00  0.00    -0.354 N 
ATOM     32  N   UNL A   1      42.527  30.183  33.332  1.00  0.00    -0.248 NA
ATOM     33  C   UNL A   1      43.799  28.948  31.806  1.00  0.00     0.031 C 
ATOM     34  C   UNL A   1      43.761  31.014  37.516  1.00  0.00     0.029 A 
ATOM     35  C   UNL A   1      43.400  30.749  36.205  1.00  0.00     0.049 A 
ATOM     36  H   UNL A   1      41.688  31.377  35.144  1.00  0.00     0.167 HD
ATOM     37  C   UNL A   1      43.691  29.747  33.955  1.00  0.00     0.074 A 
ATOM     38  C   UNL A   1      44.420  28.964  32.978  1.00  0.00     0.031 C 
ATOM     39  C   UNL A   1      44.115  29.976  35.221  1.00  0.00     0.031 A 
BRANCH  26  40
ATOM     40  C   UNL A   1      40.323  33.506  38.594  1.00  0.00    -0.014 A 
ATOM     41  C   UNL A   1      39.594  32.879  39.621  1.00  0.00     0.010 A 
ATOM     42  C   UNL A   1      40.880  34.777  38.829  1.00  0.00     0.010 A 
ATOM     43  C   UNL A   1      39.402  33.524  40.847  1.00  0.00     0.020 A 
ATOM     44  C   UNL A   1      40.711  35.414  40.063  1.00  0.00     0.020 A 
ATOM     45  C   UNL A   1      39.962  34.788  41.060  1.00  0.00     0.054 A 
BRANCH  45  46
ATOM     46  S   UNL A   1      39.725  35.585  42.673  1.00  0.00     0.124 S 
ATOM     47  O   UNL A   1      38.275  35.506  42.838  1.00  0.00    -0.237 OA
ATOM     48  O   UNL A   1      40.507  34.736  43.568  1.00  0.00    -0.237 OA
ATOM     49  O   UNL A   1      40.256  36.932  42.475  1.00  0.00    -0.744 OA
ENDBRANCH  45  46
ENDBRANCH  26  40
BRANCH  27  50
ATOM     50  C   UNL A   1      41.817  29.254  29.662  1.00  0.00    -0.014 A 
ATOM     51  C   UNL A   1      42.644  29.886  28.717  1.00  0.00     0.010 A 
ATOM     52  C   UNL A   1      41.226  28.019  29.337  1.00  0.00     0.010 A 
ATOM     53  C   UNL A   1      42.860  29.302  27.466  1.00  0.00     0.020 A 
ATOM     54  C   UNL A   1      41.464  27.417  28.100  1.00  0.00     0.020 A 
ATOM     55  C   UNL A   1      42.269  28.071  27.166  1.00  0.00     0.054 A 
BRANCH  55  56
ATOM     56  S   UNL A   1      42.600  27.309  25.553  1.00  0.00     0.124 S 
ATOM     57  O   UNL A   1      43.991  26.891  25.697  1.00  0.00    -0.237 OA
ATOM     58  O   UNL A   1      41.616  26.231  25.505  1.00  0.00    -0.237 OA
ATOM     59  O   UNL A   1      42.366  28.397  24.607  1.00  0.00    -0.744 OA
ENDBRANCH  55  56
ENDBRANCH  27  50
BRANCH  39  60
ATOM     60  C   UNL A   1      45.417  29.343  35.633  1.00  0.00    -0.014 A 
ATOM     61  C   UNL A   1      45.462  28.032  36.140  1.00  0.00     0.010 A 
ATOM     62  C   UNL A   1      46.617  30.059  35.472  1.00  0.00     0.010 A 
ATOM     63  C   UNL A   1      46.682  27.461  36.510  1.00  0.00     0.020 A 
ATOM     64  C   UNL A   1      47.841  29.481  35.813  1.00  0.00     0.020 A 
ATOM     65  C   UNL A   1      47.864  28.190  36.344  1.00  0.00     0.054 A 
BRANCH  65  66
ATOM     66  S   UNL A   1      49.440  27.413  36.794  1.00  0.00     0.124 S 
ATOM     67  O   UNL A   1      49.265  26.055  36.284  1.00  0.00    -0.237 OA
ATOM     68  O   UNL A   1      50.416  28.231  36.080  1.00  0.00    -0.237 OA
ATOM     69  O   UNL A   1      49.482  27.531  38.249  1.00  0.00    -0.744 OA
ENDBRANCH  65  66
ENDBRANCH  39  60
ENDBRANCH  13  14
ENDBRANCH   6   8
ENDBRANCH   3   4
ENDBRANCH   2   3
ENDBRANCH   1   2
BRANCH   1  70
ATOM     70  C   UNL A   1      34.901  30.925  27.969  1.00  0.00     0.002 C 
BRANCH  70  71
ATOM     71  C   UNL A   1      33.879  30.084  27.196  1.00  0.00     0.021 C 
BRANCH  71  72
ATOM     72  C   UNL A   1      34.500  29.042  26.268  1.00  0.00     0.116 C 
BRANCH  72  73
ATOM     73  N   UNL A   1      33.733  28.902  25.042  1.00  0.00    -0.356 N 
ATOM     74  C   UNL A   1      33.033  27.916  24.435  1.00  0.00     0.224 C 
ATOM     75  H   UNL A   1      33.720  29.737  24.519  1.00  0.00     0.163 HD
ATOM     76  O   UNL A   1      32.545  28.229  23.339  1.00  0.00    -0.275 OA
BRANCH  74  77
ATOM     77  C   UNL A   1      32.788  26.505  24.970  1.00  0.00     0.098 C 
ATOM     78  C   UNL A   1      31.284  26.330  25.277  1.00  0.00     0.017 C 
ATOM     79  C   UNL A   1      33.280  25.337  24.143  1.00  0.00     0.131 C 
ATOM     80  C   UNL A   1      30.968  24.949  25.867  1.00  0.00     0.022 C 
ATOM     81  N   UNL A   1      32.916  24.069  24.757  1.00  0.00    -0.356 N 
ATOM     82  C   UNL A   1      31.514  23.809  25.002  1.00  0.00     0.118 C 
BRANCH  81  83
ATOM     83  C   UNL A   1      33.902  23.123  24.875  1.00  0.00     0.133 A 
ATOM     84  C   UNL A   1      35.196  23.459  25.200  1.00  0.00     0.077 A 
ATOM     85  N   UNL A   1      33.531  21.844  24.722  1.00  0.00    -0.211 NA
ATOM     86  C   UNL A   1      36.086  22.418  25.403  1.00  0.00     0.095 A 
ATOM     87  C   UNL A   1      34.465  20.895  24.897  1.00  0.00     0.165 A 
ATOM     88  N   UNL A   1      35.736  21.125  25.246  1.00  0.00    -0.226 NA
BRANCH  86  89
ATOM     89  C   UNL A   1      37.459  22.676  25.851  1.00  0.00     0.089 A 
ATOM     90  C   UNL A   1      37.852  23.941  26.295  1.00  0.00     0.030 A 
ATOM     91  N   UNL A   1      38.325  21.631  25.781  1.00  0.00    -0.255 NA
ATOM     92  C   UNL A   1      39.171  24.138  26.694  1.00  0.00     0.004 A 
ATOM     93  C   UNL A   1      39.591  21.848  26.197  1.00  0.00     0.112 A 
ATOM     94  C   UNL A   1      40.058  23.070  26.650  1.00  0.00     0.020 A 
ENDBRANCH  86  89
BRANCH  87  95
ATOM     95  C   UNL A   1      34.065  19.524  24.597  1.00  0.00     0.055 A 
ATOM     96  C   UNL A   1      32.713  19.210  24.353  1.00  0.00     0.015 A 
ATOM     97  C   UNL A   1      34.993  18.480  24.550  1.00  0.00     0.134 A 
ATOM     98  C   UNL A   1      32.316  17.903  24.056  1.00  0.00     0.001 A 
ATOM     99  C   UNL A   1      34.603  17.171  24.263  1.00  0.00     0.040 A 
ATOM    100  F   UNL A   1      36.287  18.708  24.822  1.00  0.00    -0.206 F 
ATOM    101  C   UNL A   1      33.262  16.882  24.009  1.00  0.00     0.003 A 
ENDBRANCH  87  95
ENDBRANCH  81  83
ENDBRANCH  74  77
ENDBRANCH  72  73
ENDBRANCH  71  72
ENDBRANCH  70  71
ENDBRANCH   1  70
TORSDOF 19
ENDMDL
MODEL 2
REMARK VINA RESULT:     -10.6      5.554     11.595
REMARK SMILES O=C(NCCCCCCNC(=O)[C@H]1CCCN(c2cc(-c3ccccn3)nc(-c3ccccc3F)n2)C1)c1ccc(-c2c3nc(c(-c4ccc(S(=O)(=O)[O-])cc4)c4ccc([nH]4)c(-c4ccc(S(=O)(=O)[O-])cc4)c4nc(c(-c5ccc(S(=O)(=O)[O-])cc5)c5ccc2[nH]5)C=C4)C=C3)cc1
REMARK SMILES IDX 6 1 5 2 4 3 3 4 1 5 2 6 38 8 39 9 97 10 40 11 96 12 41 13
REMARK SMILES IDX 42 14 43 15 90 16 44 17 95 18 89 19 91 20 45 21 94 22 88 23
REMARK SMILES IDX 87 24 46 26 76 27 57 28 75 29 58 30 61 31 74 32 92 33 59 34
REMARK SMILES IDX 60 35 73 37 93 38 62 39 47 40 48 41 56 42 49 43 55 44 50 45
REMARK SMILES IDX 51 46 52 47 53 48 54 49 77 50 78 51 86 52 79 53 85 54 80 55
REMARK SMILES IDX 81 56 82 57 83 58 84 59 63 60 64 61 72 62 65 63 71 64 66 65
REMARK SMILES IDX 67 66 68 67 69 68 70 69 7 70 8 71 9 72 10 73 11 74 12 76
REMARK SMILES IDX 13 77 14 78 37 79 15 80 17 81 16 82 18 83 19 84 36 85 20 86
REMARK SMILES IDX 28 87 27 88 21 89 22 90 26 91 23 92 25 93 24 94 29 95 30 96
REMARK SMILES IDX 34 97 31 98 33 99 35 100 32 101
REMARK H PARENT 3 7 91 25 61 36 10 75
REMARK Flexibility Score: inf
ROOT
ATOM      1  C   UNL A   1      43.814  35.914  29.033  1.00  0.00     0.002 C 
ENDROOT
BRANCH   1   2
ATOM      2  C   UNL A   1      43.609  36.053  27.522  1.00  0.00     0.021 C 
BRANCH   2   3
ATOM      3  C   UNL A   1      44.850  35.768  26.686  1.00  0.00     0.116 C 
BRANCH   3   4
ATOM      4  N   UNL A   1      44.527  35.070  25.453  1.00  0.00    -0.352 N 
ATOM      5  O   UNL A   1      44.430  33.312  24.046  1.00  0.00    -0.269 OA
ATOM      6  C   UNL A   1      44.527  33.721  25.200  1.00  0.00     0.251 C 
ATOM      7  H   UNL A   1      44.273  35.645  24.694  1.00  0.00     0.163 HD
BRANCH   6   8
ATOM      8  C   UNL A   1      44.657  32.766  26.321  1.00  0.00     0.039 A 
ATOM      9  C   UNL A   1      43.565  32.493  27.150  1.00  0.00     0.014 A 
ATOM     10  C   UNL A   1      45.879  32.122  26.534  1.00  0.00     0.014 A 
ATOM     11  C   UNL A   1      43.726  31.671  28.258  1.00  0.00     0.010 A 
ATOM     12  C   UNL A   1      46.016  31.231  27.602  1.00  0.00     0.010 A 
ATOM     13  C   UNL A   1      44.946  31.013  28.484  1.00  0.00    -0.014 A 
BRANCH  13  14
ATOM     14  C   UNL A   1      45.050  30.034  29.595  1.00  0.00     0.031 A 
ATOM     15  C   UNL A   1      44.697  28.586  29.397  1.00  0.00     0.074 A 
ATOM     16  C   UNL A   1      45.486  30.470  30.794  1.00  0.00     0.049 A 
ATOM     17  N   UNL A   1      44.745  27.606  30.262  1.00  0.00    -0.248 NA
ATOM     18  C   UNL A   1      44.225  28.185  28.062  1.00  0.00     0.031 C 
ATOM     19  C   UNL A   1      45.850  31.856  31.105  1.00  0.00     0.029 A 
ATOM     20  N   UNL A   1      45.713  29.799  31.967  1.00  0.00    -0.354 N 
ATOM     21  C   UNL A   1      44.293  26.478  29.587  1.00  0.00     0.074 A 
ATOM     22  C   UNL A   1      43.957  26.898  28.244  1.00  0.00     0.031 C 
ATOM     23  C   UNL A   1      46.295  31.922  32.368  1.00  0.00     0.029 A 
ATOM     24  C   UNL A   1      46.187  30.602  32.977  1.00  0.00     0.049 A 
ATOM     25  H   UNL A   1      45.553  28.833  32.076  1.00  0.00     0.167 HD
ATOM     26  C   UNL A   1      44.173  25.208  30.049  1.00  0.00     0.031 A 
ATOM     27  C   UNL A   1      46.483  30.318  34.259  1.00  0.00     0.031 A 
ATOM     28  C   UNL A   1      44.509  24.800  31.390  1.00  0.00     0.049 A 
ATOM     29  C   UNL A   1      46.312  28.911  34.749  1.00  0.00     0.074 A 
ATOM     30  C   UNL A   1      44.451  23.532  31.941  1.00  0.00     0.029 A 
ATOM     31  N   UNL A   1      44.957  25.649  32.390  1.00  0.00    -0.354 N 
ATOM     32  N   UNL A   1      45.919  27.851  34.082  1.00  0.00    -0.248 NA
ATOM     33  C   UNL A   1      46.626  28.658  36.161  1.00  0.00     0.031 C 
ATOM     34  C   UNL A   1      44.814  23.624  33.289  1.00  0.00     0.029 A 
ATOM     35  C   UNL A   1      45.156  24.938  33.562  1.00  0.00     0.049 A 
ATOM     36  H   UNL A   1      45.111  26.617  32.284  1.00  0.00     0.167 HD
ATOM     37  C   UNL A   1      45.955  26.801  34.992  1.00  0.00     0.074 A 
ATOM     38  C   UNL A   1      46.429  27.350  36.246  1.00  0.00     0.031 C 
ATOM     39  C   UNL A   1      45.625  25.500  34.803  1.00  0.00     0.031 A 
BRANCH  26  40
ATOM     40  C   UNL A   1      43.633  24.164  29.106  1.00  0.00    -0.014 A 
ATOM     41  C   UNL A   1      44.467  23.523  28.172  1.00  0.00     0.010 A 
ATOM     42  C   UNL A   1      42.285  23.771  29.202  1.00  0.00     0.010 A 
ATOM     43  C   UNL A   1      43.954  22.529  27.332  1.00  0.00     0.020 A 
ATOM     44  C   UNL A   1      41.775  22.760  28.381  1.00  0.00     0.020 A 
ATOM     45  C   UNL A   1      42.611  22.154  27.442  1.00  0.00     0.054 A 
BRANCH  45  46
ATOM     46  S   UNL A   1      41.983  20.837  26.362  1.00  0.00     0.124 S 
ATOM     47  O   UNL A   1      40.762  21.439  25.833  1.00  0.00    -0.237 OA
ATOM     48  O   UNL A   1      43.069  20.666  25.400  1.00  0.00    -0.237 OA
ATOM     49  O   UNL A   1      41.779  19.712  27.272  1.00  0.00    -0.744 OA
ENDBRANCH  45  46
ENDBRANCH  26  40
BRANCH  27  50
ATOM     50  C   UNL A   1      46.952  31.400  35.165  1.00  0.00    -0.014 A 
ATOM     51  C   UNL A   1      48.311  31.757  35.215  1.00  0.00     0.010 A 
ATOM     52  C   UNL A   1      46.032  32.097  35.970  1.00  0.00     0.010 A 
ATOM     53  C   UNL A   1      48.742  32.778  36.067  1.00  0.00     0.020 A 
ATOM     54  C   UNL A   1      46.454  33.138  36.800  1.00  0.00     0.020 A 
ATOM     55  C   UNL A   1      47.810  33.462  36.853  1.00  0.00     0.054 A 
BRANCH  55  56
ATOM     56  S   UNL A   1      48.385  34.815  37.916  1.00  0.00     0.124 S 
ATOM     57  O   UNL A   1      47.436  35.875  37.594  1.00  0.00    -0.237 OA
ATOM     58  O   UNL A   1      48.262  34.240  39.253  1.00  0.00    -0.237 OA
ATOM     59  O   UNL A   1      49.757  35.041  37.468  1.00  0.00    -0.744 OA
ENDBRANCH  55  56
ENDBRANCH  27  50
BRANCH  39  60
ATOM     60  C   UNL A   1      45.797  24.572  35.976  1.00  0.00    -0.014 A 
ATOM     61  C   UNL A   1      44.852  24.528  37.016  1.00  0.00     0.010 A 
ATOM     62  C   UNL A   1      46.902  23.703  36.013  1.00  0.00     0.010 A 
ATOM     63  C   UNL A   1      45.028  23.653  38.091  1.00  0.00     0.020 A 
ATOM     64  C   UNL A   1      47.066  22.807  37.072  1.00  0.00     0.020 A 
ATOM     65  C   UNL A   1      46.135  22.799  38.112  1.00  0.00     0.054 A 
BRANCH  65  66
ATOM     66  S   UNL A   1      46.321  21.645  39.499  1.00  0.00     0.124 S 
ATOM     67  O   UNL A   1      46.109  20.354  38.849  1.00  0.00    -0.237 OA
ATOM     68  O   UNL A   1      47.685  21.904  39.952  1.00  0.00    -0.237 OA
ATOM     69  O   UNL A   1      45.273  22.052  40.432  1.00  0.00    -0.744 OA
ENDBRANCH  65  66
ENDBRANCH  39  60
ENDBRANCH  13  14
ENDBRANCH   6   8
ENDBRANCH   3   4
ENDBRANCH   2   3
ENDBRANCH   1   2
BRANCH   1  70
ATOM     70  C   UNL A   1      42.788  35.035  29.757  1.00  0.00     0.002 C 
BRANCH  70  71
ATOM     71  C   UNL A   1      41.390  35.008  29.129  1.00  0.00     0.021 C 
BRANCH  71  72
ATOM     72  C   UNL A   1      40.342  34.278  29.968  1.00  0.00     0.116 C 
BRANCH  72  73
ATOM     73  N   UNL A   1      40.897  33.087  30.587  1.00  0.00    -0.356 N 
ATOM     74  C   UNL A   1      40.720  31.751  30.467  1.00  0.00     0.224 C 
ATOM     75  H   UNL A   1      41.573  33.308  31.269  1.00  0.00     0.163 HD
ATOM     76  O   UNL A   1      41.400  31.068  31.245  1.00  0.00    -0.275 OA
BRANCH  74  77
ATOM     77  C   UNL A   1      39.797  31.036  29.479  1.00  0.00     0.098 C 
ATOM     78  C   UNL A   1      40.489  29.751  28.974  1.00  0.00     0.017 C 
ATOM     79  C   UNL A   1      38.388  30.714  29.930  1.00  0.00     0.131 C 
ATOM     80  C   UNL A   1      39.640  29.002  27.937  1.00  0.00     0.022 C 
ATOM     81  N   UNL A   1      37.663  29.982  28.902  1.00  0.00    -0.356 N 
ATOM     82  C   UNL A   1      38.219  28.730  28.438  1.00  0.00     0.118 C 
BRANCH  81  83
ATOM     83  C   UNL A   1      36.403  30.424  28.589  1.00  0.00     0.133 A 
ATOM     84  C   UNL A   1      35.579  29.727  27.736  1.00  0.00     0.077 A 
ATOM     85  N   UNL A   1      35.984  31.537  29.209  1.00  0.00    -0.211 NA
ATOM     86  C   UNL A   1      34.289  30.202  27.577  1.00  0.00     0.095 A 
ATOM     87  C   UNL A   1      34.730  31.954  28.970  1.00  0.00     0.165 A 
ATOM     88  N   UNL A   1      33.850  31.324  28.183  1.00  0.00    -0.226 NA
BRANCH  86  89
ATOM     89  C   UNL A   1      33.308  29.469  26.768  1.00  0.00     0.089 A 
ATOM     90  C   UNL A   1      32.539  28.441  27.317  1.00  0.00     0.030 A 
ATOM     91  N   UNL A   1      33.218  29.823  25.459  1.00  0.00    -0.255 NA
ATOM     92  C   UNL A   1      31.634  27.765  26.503  1.00  0.00     0.004 A 
ATOM     93  C   UNL A   1      32.314  29.164  24.702  1.00  0.00     0.112 A 
ATOM     94  C   UNL A   1      31.515  28.135  25.170  1.00  0.00     0.020 A 
ENDBRANCH  86  89
BRANCH  87  95
ATOM     95  C   UNL A   1      34.347  33.236  29.553  1.00  0.00     0.055 A 
ATOM     96  C   UNL A   1      34.685  33.546  30.885  1.00  0.00     0.015 A 
ATOM     97  C   UNL A   1      33.631  34.191  28.826  1.00  0.00     0.134 A 
ATOM     98  C   UNL A   1      34.333  34.773  31.455  1.00  0.00     0.001 A 
ATOM     99  C   UNL A   1      33.268  35.414  29.390  1.00  0.00     0.040 A 
ATOM    100  F   UNL A   1      33.238  33.934  27.569  1.00  0.00    -0.206 F 
ATOM    101  C   UNL A   1      33.624  35.709  30.706  1.00  0.00     0.003 A 
ENDBRANCH  87  95
ENDBRANCH  81  83
ENDBRANCH  74  77
ENDBRANCH  72  73
ENDBRANCH  71  72
ENDBRANCH  70  71
ENDBRANCH   1  70
TORSDOF 19
ENDMDL
MODEL 3
REMARK VINA RESULT:     -10.5      5.223     11.253
REMARK SMILES O=C(NCCCCCCNC(=O)[C@H]1CCCN(c2cc(-c3ccccn3)nc(-c3ccccc3F)n2)C1)c1ccc(-c2c3nc(c(-c4ccc(S(=O)(=O)[O-])cc4)c4ccc([nH]4)c(-c4ccc(S(=O)(=O)[O-])cc4)c4nc(c(-c5ccc(S(=O)(=O)[O-])cc5)c5ccc2[nH]5)C=C4)C=C3)cc1
REMARK SMILES IDX 6 1 5 2 4 3 3 4 1 5 2 6 38 8 39 9 97 10 40 11 96 12 41 13
REMARK SMILES IDX 42 14 43 15 90 16 44 17 95 18 89 19 91 20 45 21 94 22 88 23
REMARK SMILES IDX 87 24 46 26 76 27 57 28 75 29 58 30 61 31 74 32 92 33 59 34
REMARK SMILES IDX 60 35 73 37 93 38 62 39 47 40 48 41 56 42 49 43 55 44 50 45
REMARK SMILES IDX 51 46 52 47 53 48 54 49 77 50 78 51 86 52 79 53 85 54 80 55
REMARK SMILES IDX 81 56 82 57 83 58 84 59 63 60 64 61 72 62 65 63 71 64 66 65
REMARK SMILES IDX 67 66 68 67 69 68 70 69 7 70 8 71 9 72 10 73 11 74 12 76
REMARK SMILES IDX 13 77 14 78 37 79 15 80 17 81 16 82 18 83 19 84 36 85 20 86
REMARK SMILES IDX 28 87 27 88 21 89 22 90 26 91 23 92 25 93 24 94 29 95 30 96
REMARK SMILES IDX 34 97 31 98 33 99 35 100 32 101
REMARK H PARENT 3 7 91 25 61 36 10 75
REMARK Flexibility Score: inf
ROOT
ATOM      1  C   UNL A   1      45.395  24.558  34.894  1.00  0.00     0.002 C 
ENDROOT
BRANCH   1   2
ATOM      2  C   UNL A   1      46.540  24.290  35.874  1.00  0.00     0.021 C 
BRANCH   2   3
ATOM      3  C   UNL A   1      46.150  24.383  37.343  1.00  0.00     0.116 C 
BRANCH   3   4
ATOM      4  N   UNL A   1      46.984  25.326  38.069  1.00  0.00    -0.352 N 
ATOM      5  O   UNL A   1      47.889  27.335  38.544  1.00  0.00    -0.269 OA
ATOM      6  C   UNL A   1      46.977  26.698  38.022  1.00  0.00     0.251 C 
ATOM      7  H   UNL A   1      47.646  24.925  38.679  1.00  0.00     0.163 HD
BRANCH   6   8
ATOM      8  C   UNL A   1      45.876  27.401  37.331  1.00  0.00     0.039 A 
ATOM      9  C   UNL A   1      44.544  27.107  37.638  1.00  0.00     0.014 A 
ATOM     10  C   UNL A   1      46.178  28.379  36.380  1.00  0.00     0.014 A 
ATOM     11  C   UNL A   1      43.519  27.702  36.913  1.00  0.00     0.010 A 
ATOM     12  C   UNL A   1      45.144  29.036  35.708  1.00  0.00     0.010 A 
ATOM     13  C   UNL A   1      43.806  28.689  35.955  1.00  0.00    -0.014 A 
BRANCH  13  14
ATOM     14  C   UNL A   1      42.688  29.407  35.294  1.00  0.00     0.031 A 
ATOM     15  C   UNL A   1      42.036  30.600  35.936  1.00  0.00     0.074 A 
ATOM     16  C   UNL A   1      42.274  28.974  34.086  1.00  0.00     0.049 A 
ATOM     17  N   UNL A   1      41.058  31.342  35.482  1.00  0.00    -0.248 NA
ATOM     18  C   UNL A   1      42.539  31.013  37.257  1.00  0.00     0.031 C 
ATOM     19  C   UNL A   1      42.828  27.821  33.370  1.00  0.00     0.029 A 
ATOM     20  N   UNL A   1      41.309  29.454  33.240  1.00  0.00    -0.354 N 
ATOM     21  C   UNL A   1      40.813  32.295  36.464  1.00  0.00     0.074 A 
ATOM     22  C   UNL A   1      41.734  32.026  37.549  1.00  0.00     0.031 C 
ATOM     23  C   UNL A   1      42.225  27.710  32.178  1.00  0.00     0.029 A 
ATOM     24  C   UNL A   1      41.199  28.740  32.071  1.00  0.00     0.049 A 
ATOM     25  H   UNL A   1      40.748  30.236  33.450  1.00  0.00     0.167 HD
ATOM     26  C   UNL A   1      39.905  33.302  36.458  1.00  0.00     0.031 A 
ATOM     27  C   UNL A   1      40.354  28.881  31.032  1.00  0.00     0.031 A 
ATOM     28  C   UNL A   1      38.991  33.558  35.373  1.00  0.00     0.049 A 
ATOM     29  C   UNL A   1      39.340  29.986  31.067  1.00  0.00     0.074 A 
ATOM     30  C   UNL A   1      38.056  34.573  35.260  1.00  0.00     0.029 A 
ATOM     31  N   UNL A   1      38.892  32.795  34.220  1.00  0.00    -0.354 N 
ATOM     32  N   UNL A   1      39.151  30.899  31.989  1.00  0.00    -0.248 NA
ATOM     33  C   UNL A   1      38.426  30.082  29.921  1.00  0.00     0.031 C 
ATOM     34  C   UNL A   1      37.355  34.391  34.063  1.00  0.00     0.029 A 
ATOM     35  C   UNL A   1      37.894  33.300  33.402  1.00  0.00     0.049 A 
ATOM     36  H   UNL A   1      39.447  32.009  34.013  1.00  0.00     0.167 HD
ATOM     37  C   UNL A   1      38.107  31.691  31.526  1.00  0.00     0.074 A 
ATOM     38  C   UNL A   1      37.722  31.161  30.233  1.00  0.00     0.031 C 
ATOM     39  C   UNL A   1      37.521  32.759  32.119  1.00  0.00     0.031 A 
BRANCH  26  40
ATOM     40  C   UNL A   1      39.832  34.192  37.671  1.00  0.00    -0.014 A 
ATOM     41  C   UNL A   1      38.929  33.927  38.717  1.00  0.00     0.010 A 
ATOM     42  C   UNL A   1      40.726  35.271  37.797  1.00  0.00     0.010 A 
ATOM     43  C   UNL A   1      38.904  34.743  39.853  1.00  0.00     0.020 A 
ATOM     44  C   UNL A   1      40.721  36.074  38.942  1.00  0.00     0.020 A 
ATOM     45  C   UNL A   1      39.800  35.812  39.958  1.00  0.00     0.054 A 
BRANCH  45  46
ATOM     46  S   UNL A   1      39.767  36.832  41.458  1.00  0.00     0.124 S 
ATOM     47  O   UNL A   1      39.192  38.080  40.961  1.00  0.00    -0.237 OA
ATOM     48  O   UNL A   1      38.912  36.058  42.354  1.00  0.00    -0.237 OA
ATOM     49  O   UNL A   1      41.171  36.909  41.855  1.00  0.00    -0.744 OA
ENDBRANCH  45  46
ENDBRANCH  26  40
BRANCH  27  50
ATOM     50  C   UNL A   1      40.427  27.935  29.887  1.00  0.00    -0.014 A 
ATOM     51  C   UNL A   1      41.500  27.985  28.981  1.00  0.00     0.010 A 
ATOM     52  C   UNL A   1      39.428  26.959  29.712  1.00  0.00     0.010 A 
ATOM     53  C   UNL A   1      41.562  27.089  27.910  1.00  0.00     0.020 A 
ATOM     54  C   UNL A   1      39.502  26.042  28.662  1.00  0.00     0.020 A 
ATOM     55  C   UNL A   1      40.563  26.123  27.759  1.00  0.00     0.054 A 
BRANCH  55  56
ATOM     56  S   UNL A   1      40.689  24.939  26.389  1.00  0.00     0.124 S 
ATOM     57  O   UNL A   1      41.615  23.950  26.929  1.00  0.00    -0.237 OA
ATOM     58  O   UNL A   1      39.307  24.493  26.230  1.00  0.00    -0.237 OA
ATOM     59  O   UNL A   1      41.205  25.747  25.287  1.00  0.00    -0.744 OA
ENDBRANCH  55  56
ENDBRANCH  27  50
BRANCH  39  60
ATOM     60  C   UNL A   1      36.420  33.448  31.358  1.00  0.00    -0.014 A 
ATOM     61  C   UNL A   1      35.168  33.693  31.949  1.00  0.00     0.010 A 
ATOM     62  C   UNL A   1      36.659  33.892  30.045  1.00  0.00     0.010 A 
ATOM     63  C   UNL A   1      34.162  34.341  31.227  1.00  0.00     0.020 A 
ATOM     64  C   UNL A   1      35.667  34.565  29.330  1.00  0.00     0.020 A 
ATOM     65  C   UNL A   1      34.418  34.772  29.921  1.00  0.00     0.054 A 
BRANCH  65  66
ATOM     66  S   UNL A   1      33.111  35.645  29.017  1.00  0.00     0.124 S 
ATOM     67  O   UNL A   1      32.563  34.585  28.176  1.00  0.00    -0.237 OA
ATOM     68  O   UNL A   1      32.237  36.114  30.089  1.00  0.00    -0.237 OA
ATOM     69  O   UNL A   1      33.829  36.698  28.303  1.00  0.00    -0.744 OA
ENDBRANCH  65  66
ENDBRANCH  39  60
ENDBRANCH  13  14
ENDBRANCH   6   8
ENDBRANCH   3   4
ENDBRANCH   2   3
ENDBRANCH   1   2
BRANCH   1  70
ATOM     70  C   UNL A   1      45.673  25.631  33.835  1.00  0.00     0.002 C 
BRANCH  70  71
ATOM     71  C   UNL A   1      45.341  25.230  32.394  1.00  0.00     0.021 C 
BRANCH  71  72
ATOM     72  C   UNL A   1      46.030  26.086  31.332  1.00  0.00     0.116 C 
BRANCH  72  73
ATOM     73  N   UNL A   1      45.846  27.503  31.595  1.00  0.00    -0.356 N 
ATOM     74  C   UNL A   1      45.575  28.606  30.860  1.00  0.00     0.224 C 
ATOM     75  H   UNL A   1      45.945  27.716  32.552  1.00  0.00     0.163 HD
ATOM     76  O   UNL A   1      45.538  29.663  31.507  1.00  0.00    -0.275 OA
BRANCH  74  77
ATOM     77  C   UNL A   1      45.307  28.659  29.355  1.00  0.00     0.098 C 
ATOM     78  C   UNL A   1      44.649  30.012  29.002  1.00  0.00     0.017 C 
ATOM     79  C   UNL A   1      46.465  28.393  28.417  1.00  0.00     0.131 C 
ATOM     80  C   UNL A   1      44.304  30.119  27.511  1.00  0.00     0.022 C 
ATOM     81  N   UNL A   1      46.059  28.542  27.028  1.00  0.00    -0.356 N 
ATOM     82  C   UNL A   1      45.505  29.813  26.612  1.00  0.00     0.118 C 
BRANCH  81  83
ATOM     83  C   UNL A   1      46.416  27.541  26.160  1.00  0.00     0.133 A 
ATOM     84  C   UNL A   1      45.830  26.297  26.205  1.00  0.00     0.077 A 
ATOM     85  N   UNL A   1      47.319  27.853  25.221  1.00  0.00    -0.211 NA
ATOM     86  C   UNL A   1      46.183  25.398  25.214  1.00  0.00     0.095 A 
ATOM     87  C   UNL A   1      47.638  26.911  24.318  1.00  0.00     0.165 A 
ATOM     88  N   UNL A   1      47.096  25.688  24.264  1.00  0.00    -0.226 NA
BRANCH  86  89
ATOM     89  C   UNL A   1      45.535  24.085  25.120  1.00  0.00     0.089 A 
ATOM     90  C   UNL A   1      46.212  22.916  25.475  1.00  0.00     0.030 A 
ATOM     91  N   UNL A   1      44.263  24.070  24.643  1.00  0.00    -0.255 NA
ATOM     92  C   UNL A   1      45.559  21.692  25.352  1.00  0.00     0.004 A 
ATOM     93  C   UNL A   1      43.649  22.869  24.557  1.00  0.00     0.112 A 
ATOM     94  C   UNL A   1      44.250  21.667  24.889  1.00  0.00     0.020 A 
ENDBRANCH  86  89
BRANCH  87  95
ATOM     95  C   UNL A   1      48.717  27.233  23.391  1.00  0.00     0.055 A 
ATOM     96  C   UNL A   1      48.432  27.778  22.123  1.00  0.00     0.015 A 
ATOM     97  C   UNL A   1      50.058  27.009  23.715  1.00  0.00     0.134 A 
ATOM     98  C   UNL A   1      49.455  28.100  21.227  1.00  0.00     0.001 A 
ATOM     99  C   UNL A   1      51.084  27.320  22.822  1.00  0.00     0.040 A 
ATOM    100  F   UNL A   1      50.389  26.448  24.887  1.00  0.00    -0.206 F 
ATOM    101  C   UNL A   1      50.784  27.872  21.577  1.00  0.00     0.003 A 
ENDBRANCH  87  95
ENDBRANCH  81  83
ENDBRANCH  74  77
ENDBRANCH  72  73
ENDBRANCH  71  72
ENDBRANCH  70  71
ENDBRANCH   1  70
TORSDOF 19
ENDMDL
