MODEL 1
REMARK VINA RESULT:     -12.0      0.000      0.000
REMARK SMILES Cc1cc2c(c(C)c1Br)C=C(C(=O)NCCCCCCNC(=O)c1ccc(-c3c4nc(c(-c5ccc(S(=O)(=O)[O-])cc5)c5ccc([nH]5)c(-c5ccc(S(=O)(=O)[O-])cc5)c5nc(c(-c6ccc(S(=O)(=O)[O-])cc6)c6ccc3[nH]6)C=C5)C=C4)cc1)[C@@H](C(F)(F)F)O2
REMARK SMILES IDX 18 1 17 2 16 3 15 4 14 5 12 6 13 7 11 9 1 10 2 11 3 12 8 13
REMARK SMILES IDX 4 14 6 15 9 16 5 17 89 18 7 19 10 20 84 21 85 22 86 23 87 24
REMARK SMILES IDX 88 25 19 26 20 27 21 28 22 29 23 31 24 32 25 33 83 34 26 35
REMARK SMILES IDX 82 36 27 37 28 38 29 39 76 40 30 41 81 42 75 43 77 44 31 45
REMARK SMILES IDX 80 46 74 47 73 48 32 50 62 51 43 52 61 53 44 54 47 55 60 56
REMARK SMILES IDX 78 57 45 58 46 59 59 61 79 62 48 63 33 64 34 65 42 66 35 67
REMARK SMILES IDX 41 68 36 69 37 70 38 71 39 72 40 73 63 74 64 75 72 76 65 77
REMARK SMILES IDX 71 78 66 79 67 80 68 81 69 82 70 83 49 84 50 85 58 86 51 87
REMARK SMILES IDX 57 88 52 89 53 90 54 91 55 92 56 93
REMARK H PARENT 14 8 21 30 77 49 47 60
REMARK Flexibility Score: inf
ROOT
ATOM      1  C   UNL A   1      33.988  29.441  26.066  1.00  0.00     0.002 C 
ENDROOT
BRANCH   1   2
ATOM      2  C   UNL A   1      34.129  28.362  24.984  1.00  0.00     0.002 C 
BRANCH   2   3
ATOM      3  C   UNL A   1      33.285  28.590  23.728  1.00  0.00     0.021 C 
BRANCH   3   4
ATOM      4  C   UNL A   1      31.863  28.056  23.845  1.00  0.00     0.116 C 
BRANCH   4   5
ATOM      5  N   UNL A   1      31.496  27.810  25.228  1.00  0.00    -0.352 N 
ATOM      6  C   UNL A   1      31.421  26.745  26.061  1.00  0.00     0.251 C 
ATOM      7  O   UNL A   1      31.063  27.003  27.215  1.00  0.00    -0.270 OA
ATOM      8  H   UNL A   1      31.229  28.642  25.683  1.00  0.00     0.163 HD
BRANCH   6   9
ATOM      9  C   UNL A   1      31.732  25.334  25.682  1.00  0.00     0.067 C 
ATOM     10  C   UNL A   1      34.247  19.437  24.564  1.00  0.00     0.046 C 
ATOM     11  C   UNL A   1      34.023  20.885  24.909  1.00  0.00    -0.033 A 
ATOM     12  C   UNL A   1      32.705  21.345  24.906  1.00  0.00     0.051 A 
ATOM     13  C   UNL A   1      35.061  21.803  25.178  1.00  0.00     0.024 A 
ATOM     14  C   UNL A   1      32.414  22.674  25.187  1.00  0.00     0.128 A 
ATOM     15  C   UNL A   1      34.776  23.160  25.490  1.00  0.00    -0.026 A 
ATOM     16  Br  UNL A   1      36.869  21.177  25.100  1.00  0.00    -0.050 Br
ATOM     17  C   UNL A   1      33.423  23.587  25.499  1.00  0.00     0.021 A 
ATOM     18  O   UNL A   1      31.088  22.980  25.173  1.00  0.00    -0.475 OA
ATOM     19  C   UNL A   1      35.858  24.165  25.812  1.00  0.00     0.046 C 
ATOM     20  C   UNL A   1      33.010  24.948  25.860  1.00  0.00     0.026 C 
ATOM     21  C   UNL A   1      30.731  24.380  25.104  1.00  0.00     0.314 C 
BRANCH  21  22
ATOM     22  C   UNL A   1      30.337  24.734  23.658  1.00  0.00     0.429 C 
ATOM     23  F   UNL A   1      29.328  25.639  23.649  1.00  0.00    -0.167 F 
ATOM     24  F   UNL A   1      31.355  25.290  22.962  1.00  0.00    -0.167 F 
ATOM     25  F   UNL A   1      29.924  23.654  22.957  1.00  0.00    -0.167 F 
ENDBRANCH  21  22
ENDBRANCH   6   9
ENDBRANCH   4   5
ENDBRANCH   3   4
ENDBRANCH   2   3
ENDBRANCH   1   2
BRANCH   1  26
ATOM     26  C   UNL A   1      34.403  29.010  27.475  1.00  0.00     0.021 C 
BRANCH  26  27
ATOM     27  C   UNL A   1      35.624  29.740  28.022  1.00  0.00     0.116 C 
BRANCH  27  28
ATOM     28  N   UNL A   1      35.569  29.866  29.468  1.00  0.00    -0.352 N 
ATOM     29  C   UNL A   1      36.544  29.602  30.395  1.00  0.00     0.251 C 
ATOM     30  H   UNL A   1      34.712  30.187  29.834  1.00  0.00     0.163 HD
ATOM     31  O   UNL A   1      36.256  29.534  31.589  1.00  0.00    -0.269 OA
BRANCH  29  32
ATOM     32  C   UNL A   1      37.934  29.389  29.949  1.00  0.00     0.039 A 
ATOM     33  C   UNL A   1      38.884  28.952  30.872  1.00  0.00     0.014 A 
ATOM     34  C   UNL A   1      38.296  29.629  28.619  1.00  0.00     0.014 A 
ATOM     35  C   UNL A   1      40.192  28.712  30.451  1.00  0.00     0.010 A 
ATOM     36  C   UNL A   1      39.580  29.319  28.186  1.00  0.00     0.010 A 
ATOM     37  C   UNL A   1      40.544  28.872  29.101  1.00  0.00    -0.014 A 
BRANCH  37  38
ATOM     38  C   UNL A   1      41.928  28.608  28.637  1.00  0.00     0.031 A 
ATOM     39  C   UNL A   1      42.315  27.228  28.183  1.00  0.00     0.074 A 
ATOM     40  C   UNL A   1      42.838  29.602  28.648  1.00  0.00     0.049 A 
ATOM     41  N   UNL A   1      43.475  26.794  27.762  1.00  0.00    -0.248 NA
ATOM     42  C   UNL A   1      41.266  26.192  28.223  1.00  0.00     0.031 C 
ATOM     43  C   UNL A   1      42.586  30.977  29.086  1.00  0.00     0.029 A 
ATOM     44  N   UNL A   1      44.157  29.611  28.273  1.00  0.00    -0.354 N 
ATOM     45  C   UNL A   1      43.296  25.443  27.488  1.00  0.00     0.074 A 
ATOM     46  C   UNL A   1      41.936  25.112  27.849  1.00  0.00     0.031 C 
ATOM     47  C   UNL A   1      43.702  31.704  28.915  1.00  0.00     0.029 A 
ATOM     48  C   UNL A   1      44.759  30.842  28.397  1.00  0.00     0.049 A 
ATOM     49  H   UNL A   1      44.629  28.811  27.945  1.00  0.00     0.167 HD
ATOM     50  C   UNL A   1      44.176  24.564  26.955  1.00  0.00     0.031 A 
ATOM     51  C   UNL A   1      46.020  31.231  28.123  1.00  0.00     0.031 A 
ATOM     52  C   UNL A   1      45.526  24.900  26.589  1.00  0.00     0.049 A 
ATOM     53  C   UNL A   1      46.994  30.222  27.577  1.00  0.00     0.074 A 
ATOM     54  C   UNL A   1      46.485  24.088  26.012  1.00  0.00     0.029 A 
ATOM     55  N   UNL A   1      46.105  26.147  26.763  1.00  0.00    -0.354 N 
ATOM     56  N   UNL A   1      46.791  28.959  27.281  1.00  0.00    -0.248 NA
ATOM     57  C   UNL A   1      48.363  30.690  27.324  1.00  0.00     0.031 C 
ATOM     58  C   UNL A   1      47.663  24.831  25.888  1.00  0.00     0.029 A 
ATOM     59  C   UNL A   1      47.420  26.120  26.330  1.00  0.00     0.049 A 
ATOM     60  H   UNL A   1      45.650  26.935  27.138  1.00  0.00     0.167 HD
ATOM     61  C   UNL A   1      48.003  28.488  26.788  1.00  0.00     0.074 A 
ATOM     62  C   UNL A   1      48.926  29.605  26.807  1.00  0.00     0.031 C 
ATOM     63  C   UNL A   1      48.325  27.241  26.363  1.00  0.00     0.031 A 
BRANCH  50  64
ATOM     64  C   UNL A   1      43.703  23.153  26.725  1.00  0.00    -0.014 A 
ATOM     65  C   UNL A   1      43.976  22.491  25.514  1.00  0.00     0.010 A 
ATOM     66  C   UNL A   1      43.033  22.460  27.748  1.00  0.00     0.010 A 
ATOM     67  C   UNL A   1      43.561  21.172  25.320  1.00  0.00     0.020 A 
ATOM     68  C   UNL A   1      42.641  21.130  27.569  1.00  0.00     0.020 A 
ATOM     69  C   UNL A   1      42.899  20.498  26.350  1.00  0.00     0.054 A 
BRANCH  69  70
ATOM     70  S   UNL A   1      42.411  18.772  26.081  1.00  0.00     0.124 S 
ATOM     71  O   UNL A   1      43.346  18.354  25.040  1.00  0.00    -0.237 OA
ATOM     72  O   UNL A   1      42.626  18.173  27.396  1.00  0.00    -0.237 OA
ATOM     73  O   UNL A   1      41.015  18.866  25.663  1.00  0.00    -0.744 OA
ENDBRANCH  69  70
ENDBRANCH  50  64
BRANCH  51  74
ATOM     74  C   UNL A   1      46.425  32.647  28.340  1.00  0.00    -0.014 A 
ATOM     75  C   UNL A   1      46.961  33.054  29.574  1.00  0.00     0.010 A 
ATOM     76  C   UNL A   1      46.293  33.595  27.308  1.00  0.00     0.010 A 
ATOM     77  C   UNL A   1      47.345  34.382  29.778  1.00  0.00     0.020 A 
ATOM     78  C   UNL A   1      46.701  34.918  27.498  1.00  0.00     0.020 A 
ATOM     79  C   UNL A   1      47.217  35.305  28.737  1.00  0.00     0.054 A 
BRANCH  79  80
ATOM     80  S   UNL A   1      47.772  37.011  29.011  1.00  0.00     0.124 S 
ATOM     81  O   UNL A   1      47.770  37.101  30.468  1.00  0.00    -0.237 OA
ATOM     82  O   UNL A   1      49.087  37.017  28.376  1.00  0.00    -0.237 OA
ATOM     83  O   UNL A   1      46.757  37.815  28.333  1.00  0.00    -0.744 OA
ENDBRANCH  79  80
ENDBRANCH  51  74
BRANCH  63  84
ATOM     84  C   UNL A   1      49.730  27.013  25.871  1.00  0.00    -0.014 A 
ATOM     85  C   UNL A   1      50.699  26.429  26.704  1.00  0.00     0.010 A 
ATOM     86  C   UNL A   1      50.058  27.307  24.536  1.00  0.00     0.010 A 
ATOM     87  C   UNL A   1      51.980  26.160  26.215  1.00  0.00     0.020 A 
ATOM     88  C   UNL A   1      51.329  27.013  24.035  1.00  0.00     0.020 A 
ATOM     89  C   UNL A   1      52.285  26.450  24.881  1.00  0.00     0.054 A 
BRANCH  89  90
ATOM     90  S   UNL A   1      53.937  26.033  24.259  1.00  0.00     0.124 S 
ATOM     91  O   UNL A   1      54.754  27.103  24.825  1.00  0.00    -0.237 OA
ATOM     92  O   UNL A   1      54.163  24.705  24.822  1.00  0.00    -0.237 OA
ATOM     93  O   UNL A   1      53.781  26.071  22.807  1.00  0.00    -0.744 OA
ENDBRANCH  89  90
ENDBRANCH  63  84
ENDBRANCH  37  38
ENDBRANCH  29  32
ENDBRANCH  27  28
ENDBRANCH  26  27
ENDBRANCH   1  26
TORSDOF 17
ENDMDL
MODEL 2
REMARK VINA RESULT:     -11.9      5.028      9.379
REMARK SMILES Cc1cc2c(c(C)c1Br)C=C(C(=O)NCCCCCCNC(=O)c1ccc(-c3c4nc(c(-c5ccc(S(=O)(=O)[O-])cc5)c5ccc([nH]5)c(-c5ccc(S(=O)(=O)[O-])cc5)c5nc(c(-c6ccc(S(=O)(=O)[O-])cc6)c6ccc3[nH]6)C=C5)C=C4)cc1)[C@@H](C(F)(F)F)O2
REMARK SMILES IDX 18 1 17 2 16 3 15 4 14 5 12 6 13 7 11 9 1 10 2 11 3 12 8 13
REMARK SMILES IDX 4 14 6 15 9 16 5 17 89 18 7 19 10 20 84 21 85 22 86 23 87 24
REMARK SMILES IDX 88 25 19 26 20 27 21 28 22 29 23 31 24 32 25 33 83 34 26 35
REMARK SMILES IDX 82 36 27 37 28 38 29 39 76 40 30 41 81 42 75 43 77 44 31 45
REMARK SMILES IDX 80 46 74 47 73 48 32 50 62 51 43 52 61 53 44 54 47 55 60 56
REMARK SMILES IDX 78 57 45 58 46 59 59 61 79 62 48 63 33 64 34 65 42 66 35 67
REMARK SMILES IDX 41 68 36 69 37 70 38 71 39 72 40 73 63 74 64 75 72 76 65 77
REMARK SMILES IDX 71 78 66 79 67 80 68 81 69 82 70 83 49 84 50 85 58 86 51 87
REMARK SMILES IDX 57 88 52 89 53 90 54 91 55 92 56 93
REMARK H PARENT 14 8 21 30 77 49 47 60
REMARK Flexibility Score: inf
ROOT
ATOM      1  C   UNL A   1      33.459  26.623  25.860  1.00  0.00     0.002 C 
ENDROOT
BRANCH   1   2
ATOM      2  C   UNL A   1      33.294  26.414  24.348  1.00  0.00     0.002 C 
BRANCH   2   3
ATOM      3  C   UNL A   1      31.852  26.481  23.839  1.00  0.00     0.021 C 
BRANCH   3   4
ATOM      4  C   UNL A   1      31.287  25.125  23.433  1.00  0.00     0.116 C 
BRANCH   4   5
ATOM      5  N   UNL A   1      30.745  24.407  24.572  1.00  0.00    -0.352 N 
ATOM      6  C   UNL A   1      31.083  23.329  25.317  1.00  0.00     0.251 C 
ATOM      7  O   UNL A   1      30.311  23.068  26.247  1.00  0.00    -0.270 OA
ATOM      8  H   UNL A   1      29.905  24.814  24.888  1.00  0.00     0.163 HD
BRANCH   6   9
ATOM      9  C   UNL A   1      32.283  22.469  25.091  1.00  0.00     0.067 C 
ATOM     10  C   UNL A   1      38.102  19.563  24.905  1.00  0.00     0.046 C 
ATOM     11  C   UNL A   1      36.952  20.509  25.120  1.00  0.00    -0.033 A 
ATOM     12  C   UNL A   1      35.680  20.059  24.759  1.00  0.00     0.051 A 
ATOM     13  C   UNL A   1      37.092  21.827  25.606  1.00  0.00     0.024 A 
ATOM     14  C   UNL A   1      34.568  20.879  24.900  1.00  0.00     0.128 A 
ATOM     15  C   UNL A   1      35.960  22.669  25.777  1.00  0.00    -0.026 A 
ATOM     16  Br  UNL A   1      38.851  22.458  26.019  1.00  0.00    -0.050 Br
ATOM     17  C   UNL A   1      34.680  22.170  25.421  1.00  0.00     0.021 A 
ATOM     18  O   UNL A   1      33.389  20.305  24.535  1.00  0.00    -0.475 OA
ATOM     19  C   UNL A   1      36.067  24.074  26.322  1.00  0.00     0.046 C 
ATOM     20  C   UNL A   1      33.439  22.929  25.606  1.00  0.00     0.026 C 
ATOM     21  C   UNL A   1      32.262  21.186  24.317  1.00  0.00     0.314 C 
BRANCH  21  22
ATOM     22  C   UNL A   1      32.073  21.405  22.805  1.00  0.00     0.429 C 
ATOM     23  F   UNL A   1      32.130  20.224  22.143  1.00  0.00    -0.167 F 
ATOM     24  F   UNL A   1      30.872  21.953  22.504  1.00  0.00    -0.167 F 
ATOM     25  F   UNL A   1      33.018  22.215  22.278  1.00  0.00    -0.167 F 
ENDBRANCH  21  22
ENDBRANCH   6   9
ENDBRANCH   4   5
ENDBRANCH   3   4
ENDBRANCH   2   3
ENDBRANCH   1   2
BRANCH   1  26
ATOM     26  C   UNL A   1      33.129  28.031  26.363  1.00  0.00     0.021 C 
BRANCH  26  27
ATOM     27  C   UNL A   1      34.326  28.972  26.430  1.00  0.00     0.116 C 
BRANCH  27  28
ATOM     28  N   UNL A   1      33.930  30.317  26.808  1.00  0.00    -0.352 N 
ATOM     29  C   UNL A   1      34.441  31.123  27.791  1.00  0.00     0.251 C 
ATOM     30  H   UNL A   1      33.191  30.704  26.284  1.00  0.00     0.163 HD
ATOM     31  O   UNL A   1      33.835  32.137  28.134  1.00  0.00    -0.269 OA
BRANCH  29  32
ATOM     32  C   UNL A   1      35.715  30.760  28.440  1.00  0.00     0.039 A 
ATOM     33  C   UNL A   1      35.728  29.733  29.384  1.00  0.00     0.014 A 
ATOM     34  C   UNL A   1      36.894  31.442  28.119  1.00  0.00     0.014 A 
ATOM     35  C   UNL A   1      36.935  29.358  29.976  1.00  0.00     0.010 A 
ATOM     36  C   UNL A   1      38.106  31.018  28.653  1.00  0.00     0.010 A 
ATOM     37  C   UNL A   1      38.135  29.982  29.598  1.00  0.00    -0.014 A 
BRANCH  37  38
ATOM     38  C   UNL A   1      39.427  29.584  30.209  1.00  0.00     0.031 A 
ATOM     39  C   UNL A   1      39.943  30.323  31.413  1.00  0.00     0.074 A 
ATOM     40  C   UNL A   1      40.141  28.578  29.668  1.00  0.00     0.049 A 
ATOM     41  N   UNL A   1      41.055  30.139  32.077  1.00  0.00    -0.248 NA
ATOM     42  C   UNL A   1      39.112  31.425  31.929  1.00  0.00     0.031 C 
ATOM     43  C   UNL A   1      39.753  27.801  28.489  1.00  0.00     0.029 A 
ATOM     44  N   UNL A   1      41.342  28.031  30.044  1.00  0.00    -0.354 N 
ATOM     45  C   UNL A   1      41.055  31.097  33.085  1.00  0.00     0.074 A 
ATOM     46  C   UNL A   1      39.867  31.901  32.908  1.00  0.00     0.031 C 
ATOM     47  C   UNL A   1      40.676  26.852  28.265  1.00  0.00     0.029 A 
ATOM     48  C   UNL A   1      41.740  26.978  29.254  1.00  0.00     0.049 A 
ATOM     49  H   UNL A   1      41.868  28.360  30.809  1.00  0.00     0.167 HD
ATOM     50  C   UNL A   1      41.949  31.272  34.086  1.00  0.00     0.031 A 
ATOM     51  C   UNL A   1      42.840  26.202  29.320  1.00  0.00     0.031 A 
ATOM     52  C   UNL A   1      43.126  30.464  34.263  1.00  0.00     0.049 A 
ATOM     53  C   UNL A   1      43.844  26.449  30.414  1.00  0.00     0.074 A 
ATOM     54  C   UNL A   1      44.077  30.542  35.264  1.00  0.00     0.029 A 
ATOM     55  N   UNL A   1      43.510  29.432  33.421  1.00  0.00    -0.354 N 
ATOM     56  N   UNL A   1      43.803  27.331  31.385  1.00  0.00    -0.248 NA
ATOM     57  C   UNL A   1      45.039  25.595  30.423  1.00  0.00     0.031 C 
ATOM     58  C   UNL A   1      45.067  29.592  34.996  1.00  0.00     0.029 A 
ATOM     59  C   UNL A   1      44.702  28.882  33.864  1.00  0.00     0.049 A 
ATOM     60  H   UNL A   1      43.011  29.134  32.627  1.00  0.00     0.167 HD
ATOM     61  C   UNL A   1      44.957  27.123  32.132  1.00  0.00     0.074 A 
ATOM     62  C   UNL A   1      45.665  26.021  31.513  1.00  0.00     0.031 C 
ATOM     63  C   UNL A   1      45.394  27.789  33.230  1.00  0.00     0.031 A 
BRANCH  50  64
ATOM     64  C   UNL A   1      41.685  32.376  35.075  1.00  0.00    -0.014 A 
ATOM     65  C   UNL A   1      42.239  33.656  34.891  1.00  0.00     0.010 A 
ATOM     66  C   UNL A   1      40.828  32.152  36.167  1.00  0.00     0.010 A 
ATOM     67  C   UNL A   1      41.964  34.683  35.795  1.00  0.00     0.020 A 
ATOM     68  C   UNL A   1      40.527  33.185  37.059  1.00  0.00     0.020 A 
ATOM     69  C   UNL A   1      41.108  34.442  36.873  1.00  0.00     0.054 A 
BRANCH  69  70
ATOM     70  S   UNL A   1      40.738  35.809  38.007  1.00  0.00     0.124 S 
ATOM     71  O   UNL A   1      39.760  36.579  37.242  1.00  0.00    -0.237 OA
ATOM     72  O   UNL A   1      40.213  35.115  39.180  1.00  0.00    -0.237 OA
ATOM     73  O   UNL A   1      42.031  36.462  38.198  1.00  0.00    -0.744 OA
ENDBRANCH  69  70
ENDBRANCH  50  64
BRANCH  51  74
ATOM     74  C   UNL A   1      43.036  25.104  28.334  1.00  0.00    -0.014 A 
ATOM     75  C   UNL A   1      43.593  25.371  27.072  1.00  0.00     0.010 A 
ATOM     76  C   UNL A   1      42.682  23.780  28.657  1.00  0.00     0.010 A 
ATOM     77  C   UNL A   1      43.782  24.341  26.146  1.00  0.00     0.020 A 
ATOM     78  C   UNL A   1      42.894  22.743  27.745  1.00  0.00     0.020 A 
ATOM     79  C   UNL A   1      43.434  23.032  26.490  1.00  0.00     0.054 A 
BRANCH  79  80
ATOM     80  S   UNL A   1      43.738  21.705  25.290  1.00  0.00     0.124 S 
ATOM     81  O   UNL A   1      42.621  20.800  25.549  1.00  0.00    -0.237 OA
ATOM     82  O   UNL A   1      43.693  22.419  24.017  1.00  0.00    -0.237 OA
ATOM     83  O   UNL A   1      45.055  21.196  25.667  1.00  0.00    -0.744 OA
ENDBRANCH  79  80
ENDBRANCH  51  74
BRANCH  63  84
ATOM     84  C   UNL A   1      46.694  27.343  33.845  1.00  0.00    -0.014 A 
ATOM     85  C   UNL A   1      47.911  27.938  33.471  1.00  0.00     0.010 A 
ATOM     86  C   UNL A   1      46.687  26.377  34.868  1.00  0.00     0.010 A 
ATOM     87  C   UNL A   1      49.102  27.562  34.097  1.00  0.00     0.020 A 
ATOM     88  C   UNL A   1      47.872  26.019  35.516  1.00  0.00     0.020 A 
ATOM     89  C   UNL A   1      49.074  26.608  35.120  1.00  0.00     0.054 A 
BRANCH  89  90
ATOM     90  S   UNL A   1      50.628  26.186  35.955  1.00  0.00     0.124 S 
ATOM     91  O   UNL A   1      50.430  26.770  37.279  1.00  0.00    -0.237 OA
ATOM     92  O   UNL A   1      50.628  24.727  35.905  1.00  0.00    -0.237 OA
ATOM     93  O   UNL A   1      51.649  26.833  35.135  1.00  0.00    -0.744 OA
ENDBRANCH  89  90
ENDBRANCH  63  84
ENDBRANCH  37  38
ENDBRANCH  29  32
ENDBRANCH  27  28
ENDBRANCH  26  27
ENDBRANCH   1  26
TORSDOF 17
ENDMDL
MODEL 3
REMARK VINA RESULT:     -11.8      1.851      8.394
REMARK SMILES Cc1cc2c(c(C)c1Br)C=C(C(=O)NCCCCCCNC(=O)c1ccc(-c3c4nc(c(-c5ccc(S(=O)(=O)[O-])cc5)c5ccc([nH]5)c(-c5ccc(S(=O)(=O)[O-])cc5)c5nc(c(-c6ccc(S(=O)(=O)[O-])cc6)c6ccc3[nH]6)C=C5)C=C4)cc1)[C@@H](C(F)(F)F)O2
REMARK SMILES IDX 18 1 17 2 16 3 15 4 14 5 12 6 13 7 11 9 1 10 2 11 3 12 8 13
REMARK SMILES IDX 4 14 6 15 9 16 5 17 89 18 7 19 10 20 84 21 85 22 86 23 87 24
REMARK SMILES IDX 88 25 19 26 20 27 21 28 22 29 23 31 24 32 25 33 83 34 26 35
REMARK SMILES IDX 82 36 27 37 28 38 29 39 76 40 30 41 81 42 75 43 77 44 31 45
REMARK SMILES IDX 80 46 74 47 73 48 32 50 62 51 43 52 61 53 44 54 47 55 60 56
REMARK SMILES IDX 78 57 45 58 46 59 59 61 79 62 48 63 33 64 34 65 42 66 35 67
REMARK SMILES IDX 41 68 36 69 37 70 38 71 39 72 40 73 63 74 64 75 72 76 65 77
REMARK SMILES IDX 71 78 66 79 67 80 68 81 69 82 70 83 49 84 50 85 58 86 51 87
REMARK SMILES IDX 57 88 52 89 53 90 54 91 55 92 56 93
REMARK H PARENT 14 8 21 30 77 49 47 60
REMARK Flexibility Score: inf
ROOT
ATOM      1  C   UNL A   1      34.458  29.069  26.916  1.00  0.00     0.002 C 
ENDROOT
BRANCH   1   2
ATOM      2  C   UNL A   1      33.116  28.385  27.214  1.00  0.00     0.002 C 
BRANCH   2   3
ATOM      3  C   UNL A   1      31.878  29.236  26.922  1.00  0.00     0.021 C 
BRANCH   3   4
ATOM      4  C   UNL A   1      32.118  30.323  25.881  1.00  0.00     0.116 C 
BRANCH   4   5
ATOM      5  N   UNL A   1      31.049  30.370  24.900  1.00  0.00    -0.352 N 
ATOM      6  C   UNL A   1      30.546  29.558  23.942  1.00  0.00     0.251 C 
ATOM      7  O   UNL A   1      29.575  30.009  23.325  1.00  0.00    -0.270 OA
ATOM      8  H   UNL A   1      30.559  31.223  24.943  1.00  0.00     0.163 HD
BRANCH   6   9
ATOM      9  C   UNL A   1      31.073  28.202  23.599  1.00  0.00     0.067 C 
ATOM     10  C   UNL A   1      32.521  21.887  22.999  1.00  0.00     0.046 C 
ATOM     11  C   UNL A   1      31.997  23.227  23.442  1.00  0.00    -0.033 A 
ATOM     12  C   UNL A   1      32.260  24.319  22.613  1.00  0.00     0.051 A 
ATOM     13  C   UNL A   1      31.313  23.446  24.657  1.00  0.00     0.024 A 
ATOM     14  C   UNL A   1      31.834  25.595  22.961  1.00  0.00     0.128 A 
ATOM     15  C   UNL A   1      30.851  24.742  25.014  1.00  0.00    -0.026 A 
ATOM     16  Br  UNL A   1      31.030  21.952  25.821  1.00  0.00    -0.050 Br
ATOM     17  C   UNL A   1      31.117  25.825  24.137  1.00  0.00     0.021 A 
ATOM     18  O   UNL A   1      32.136  26.562  22.052  1.00  0.00    -0.475 OA
ATOM     19  C   UNL A   1      30.090  25.010  26.291  1.00  0.00     0.046 C 
ATOM     20  C   UNL A   1      30.642  27.192  24.378  1.00  0.00     0.026 C 
ATOM     21  C   UNL A   1      32.048  27.937  22.492  1.00  0.00     0.314 C 
BRANCH  21  22
ATOM     22  C   UNL A   1      33.461  28.463  22.804  1.00  0.00     0.429 C 
ATOM     23  F   UNL A   1      34.313  28.164  21.793  1.00  0.00    -0.167 F 
ATOM     24  F   UNL A   1      33.497  29.808  22.948  1.00  0.00    -0.167 F 
ATOM     25  F   UNL A   1      33.970  27.932  23.938  1.00  0.00    -0.167 F 
ENDBRANCH  21  22
ENDBRANCH   6   9
ENDBRANCH   4   5
ENDBRANCH   3   4
ENDBRANCH   2   3
ENDBRANCH   1   2
BRANCH   1  26
ATOM     26  C   UNL A   1      35.361  29.290  28.133  1.00  0.00     0.021 C 
BRANCH  26  27
ATOM     27  C   UNL A   1      35.594  30.755  28.484  1.00  0.00     0.116 C 
BRANCH  27  28
ATOM     28  N   UNL A   1      35.579  30.970  29.920  1.00  0.00    -0.352 N 
ATOM     29  C   UNL A   1      36.542  30.672  30.848  1.00  0.00     0.251 C 
ATOM     30  H   UNL A   1      34.762  31.390  30.277  1.00  0.00     0.163 HD
ATOM     31  O   UNL A   1      36.273  30.701  32.048  1.00  0.00    -0.269 OA
BRANCH  29  32
ATOM     32  C   UNL A   1      37.898  30.305  30.397  1.00  0.00     0.039 A 
ATOM     33  C   UNL A   1      38.675  29.464  31.194  1.00  0.00     0.014 A 
ATOM     34  C   UNL A   1      38.401  30.801  29.189  1.00  0.00     0.014 A 
ATOM     35  C   UNL A   1      39.944  29.082  30.758  1.00  0.00     0.010 A 
ATOM     36  C   UNL A   1      39.634  30.360  28.721  1.00  0.00     0.010 A 
ATOM     37  C   UNL A   1      40.423  29.509  29.508  1.00  0.00    -0.014 A 
BRANCH  37  38
ATOM     38  C   UNL A   1      41.765  29.100  29.027  1.00  0.00     0.031 A 
ATOM     39  C   UNL A   1      42.892  30.097  29.017  1.00  0.00     0.074 A 
ATOM     40  C   UNL A   1      41.962  27.845  28.579  1.00  0.00     0.049 A 
ATOM     41  N   UNL A   1      44.127  29.938  28.617  1.00  0.00    -0.248 NA
ATOM     42  C   UNL A   1      42.588  31.455  29.502  1.00  0.00     0.031 C 
ATOM     43  C   UNL A   1      40.940  26.796  28.521  1.00  0.00     0.029 A 
ATOM     44  N   UNL A   1      43.090  27.234  28.094  1.00  0.00    -0.354 N 
ATOM     45  C   UNL A   1      44.745  31.170  28.803  1.00  0.00     0.074 A 
ATOM     46  C   UNL A   1      43.736  32.082  29.290  1.00  0.00     0.031 C 
ATOM     47  C   UNL A   1      41.500  25.663  28.068  1.00  0.00     0.029 A 
ATOM     48  C   UNL A   1      42.905  25.912  27.764  1.00  0.00     0.049 A 
ATOM     49  H   UNL A   1      43.952  27.699  27.992  1.00  0.00     0.167 HD
ATOM     50  C   UNL A   1      46.043  31.503  28.614  1.00  0.00     0.031 A 
ATOM     51  C   UNL A   1      43.770  25.003  27.271  1.00  0.00     0.031 A 
ATOM     52  C   UNL A   1      47.046  30.589  28.136  1.00  0.00     0.049 A 
ATOM     53  C   UNL A   1      45.196  25.412  27.023  1.00  0.00     0.074 A 
ATOM     54  C   UNL A   1      48.395  30.821  27.941  1.00  0.00     0.029 A 
ATOM     55  N   UNL A   1      46.808  29.270  27.781  1.00  0.00    -0.354 N 
ATOM     56  N   UNL A   1      45.772  26.570  27.249  1.00  0.00    -0.248 NA
ATOM     57  C   UNL A   1      46.091  24.393  26.458  1.00  0.00     0.031 C 
ATOM     58  C   UNL A   1      48.964  29.658  27.415  1.00  0.00     0.029 A 
ATOM     59  C   UNL A   1      47.983  28.683  27.340  1.00  0.00     0.049 A 
ATOM     60  H   UNL A   1      45.936  28.817  27.834  1.00  0.00     0.167 HD
ATOM     61  C   UNL A   1      47.101  26.412  26.872  1.00  0.00     0.074 A 
ATOM     62  C   UNL A   1      47.248  25.042  26.423  1.00  0.00     0.031 C 
ATOM     63  C   UNL A   1      48.108  27.319  26.891  1.00  0.00     0.031 A 
BRANCH  50  64
ATOM     64  C   UNL A   1      46.456  32.915  28.932  1.00  0.00    -0.014 A 
ATOM     65  C   UNL A   1      46.384  33.924  27.955  1.00  0.00     0.010 A 
ATOM     66  C   UNL A   1      46.865  33.252  30.235  1.00  0.00     0.010 A 
ATOM     67  C   UNL A   1      46.740  35.238  28.266  1.00  0.00     0.020 A 
ATOM     68  C   UNL A   1      47.194  34.571  30.559  1.00  0.00     0.020 A 
ATOM     69  C   UNL A   1      47.141  35.554  29.567  1.00  0.00     0.054 A 
BRANCH  69  70
ATOM     70  S   UNL A   1      47.556  37.278  29.949  1.00  0.00     0.124 S 
ATOM     71  O   UNL A   1      47.899  37.198  31.367  1.00  0.00    -0.237 OA
ATOM     72  O   UNL A   1      48.674  37.542  29.047  1.00  0.00    -0.237 OA
ATOM     73  O   UNL A   1      46.327  38.007  29.647  1.00  0.00    -0.744 OA
ENDBRANCH  69  70
ENDBRANCH  50  64
BRANCH  51  74
ATOM     74  C   UNL A   1      43.314  23.611  27.003  1.00  0.00    -0.014 A 
ATOM     75  C   UNL A   1      43.064  23.185  25.688  1.00  0.00     0.010 A 
ATOM     76  C   UNL A   1      43.143  22.698  28.061  1.00  0.00     0.010 A 
ATOM     77  C   UNL A   1      42.640  21.877  25.434  1.00  0.00     0.020 A 
ATOM     78  C   UNL A   1      42.746  21.382  27.810  1.00  0.00     0.020 A 
ATOM     79  C   UNL A   1      42.488  20.983  26.497  1.00  0.00     0.054 A 
BRANCH  79  80
ATOM     80  S   UNL A   1      41.987  19.276  26.135  1.00  0.00     0.124 S 
ATOM     81  O   UNL A   1      40.551  19.422  25.913  1.00  0.00    -0.237 OA
ATOM     82  O   UNL A   1      42.783  18.961  24.952  1.00  0.00    -0.237 OA
ATOM     83  O   UNL A   1      42.362  18.546  27.344  1.00  0.00    -0.744 OA
ENDBRANCH  79  80
ENDBRANCH  51  74
BRANCH  63  84
ATOM     84  C   UNL A   1      49.465  26.866  26.423  1.00  0.00    -0.014 A 
ATOM     85  C   UNL A   1      49.858  27.027  25.083  1.00  0.00     0.010 A 
ATOM     86  C   UNL A   1      50.388  26.351  27.353  1.00  0.00     0.010 A 
ATOM     87  C   UNL A   1      51.144  26.664  24.677  1.00  0.00     0.020 A 
ATOM     88  C   UNL A   1      51.684  26.013  26.955  1.00  0.00     0.020 A 
ATOM     89  C   UNL A   1      52.051  26.164  25.617  1.00  0.00     0.054 A 
BRANCH  89  90
ATOM     90  S   UNL A   1      53.732  25.759  25.070  1.00  0.00     0.124 S 
ATOM     91  O   UNL A   1      53.606  24.347  24.717  1.00  0.00    -0.237 OA
ATOM     92  O   UNL A   1      53.929  26.672  23.948  1.00  0.00    -0.237 OA
ATOM     93  O   UNL A   1      54.555  26.036  26.244  1.00  0.00    -0.744 OA
ENDBRANCH  89  90
ENDBRANCH  63  84
ENDBRANCH  37  38
ENDBRANCH  29  32
ENDBRANCH  27  28
ENDBRANCH  26  27
ENDBRANCH   1  26
TORSDOF 17
ENDMDL
