MODEL 1
REMARK VINA RESULT:     -11.3      0.000      0.000
REMARK SMILES Cc1ccc(Cl)c(Nc2ccccc2C(=O)NCCCCCCNC(=O)c2ccc(-c3c4nc(c(-c5ccc(S(=O)(=O)[O-])cc5)c5ccc([nH]5)c(-c5ccc(S(=O)(=O)[O-])cc5)c5nc(c(-c6ccc(S(=O)(=O)[O-])cc6)c6ccc3[nH]6)C=C5)C=C4)cc2)c1Cl
REMARK SMILES IDX 21 1 20 2 19 3 18 4 17 5 15 6 16 7 14 9 9 10 10 11 11 12
REMARK SMILES IDX 13 13 12 14 8 15 7 17 1 18 2 19 3 20 87 21 4 22 88 23 5 24
REMARK SMILES IDX 6 25 22 26 23 27 24 28 25 29 26 31 27 32 28 33 86 34 29 35
REMARK SMILES IDX 85 36 30 37 31 38 32 39 79 40 33 41 84 42 78 43 80 44 34 45
REMARK SMILES IDX 83 46 77 47 76 48 35 50 65 51 46 52 64 53 47 54 50 55 63 56
REMARK SMILES IDX 81 57 48 58 49 59 62 61 82 62 51 63 36 64 37 65 45 66 38 67
REMARK SMILES IDX 44 68 39 69 40 70 41 71 42 72 43 73 66 74 67 75 75 76 68 77
REMARK SMILES IDX 74 78 69 79 70 80 71 81 72 82 73 83 52 84 53 85 61 86 54 87
REMARK SMILES IDX 60 88 55 89 56 90 57 91 58 92 59 93
REMARK H PARENT 17 8 8 16 24 30 80 49 50 60
REMARK Flexibility Score: inf
ROOT
ATOM      1  C   UNL A   1      33.778  29.154  26.540  1.00  0.00     0.002 C 
ENDROOT
BRANCH   1   2
ATOM      2  C   UNL A   1      32.321  28.767  26.255  1.00  0.00     0.002 C 
BRANCH   2   3
ATOM      3  C   UNL A   1      31.699  27.626  27.074  1.00  0.00     0.021 C 
BRANCH   3   4
ATOM      4  C   UNL A   1      31.776  26.220  26.483  1.00  0.00     0.116 C 
BRANCH   4   5
ATOM      5  N   UNL A   1      30.720  25.334  26.911  1.00  0.00    -0.352 N 
ATOM      6  C   UNL A   1      30.450  24.033  26.562  1.00  0.00     0.253 C 
ATOM      7  O   UNL A   1      29.495  23.490  27.126  1.00  0.00    -0.269 OA
ATOM      8  H   UNL A   1      30.090  25.725  27.560  1.00  0.00     0.163 HD
BRANCH   6   9
ATOM      9  C   UNL A   1      31.154  23.292  25.471  1.00  0.00     0.063 A 
ATOM     10  C   UNL A   1      31.068  23.502  24.079  1.00  0.00     0.051 A 
ATOM     11  C   UNL A   1      31.800  22.632  23.232  1.00  0.00     0.027 A 
ATOM     12  C   UNL A   1      32.644  21.640  23.729  1.00  0.00     0.002 A 
ATOM     13  C   UNL A   1      32.033  22.292  25.956  1.00  0.00     0.016 A 
ATOM     14  C   UNL A   1      32.778  21.483  25.098  1.00  0.00     0.001 A 
BRANCH  10  15
ATOM     15  N   UNL A   1      30.427  24.559  23.406  1.00  0.00    -0.352 N 
ATOM     16  H   UNL A   1      29.561  24.294  23.023  1.00  0.00     0.167 HD
BRANCH  15  17
ATOM     17  C   UNL A   1      30.741  25.917  23.151  1.00  0.00     0.077 A 
ATOM     18  C   UNL A   1      33.619  28.289  22.233  1.00  0.00     0.046 C 
ATOM     19  C   UNL A   1      32.277  27.772  22.676  1.00  0.00    -0.030 A 
ATOM     20  C   UNL A   1      31.304  28.689  23.097  1.00  0.00     0.006 A 
ATOM     21  C   UNL A   1      31.973  26.392  22.658  1.00  0.00     0.069 A 
ATOM     22  C   UNL A   1      30.042  28.250  23.478  1.00  0.00     0.023 A 
ATOM     23  Cl  UNL A   1      33.081  25.322  21.848  1.00  0.00    -0.082 Cl
ATOM     24  C   UNL A   1      29.768  26.884  23.505  1.00  0.00     0.066 A 
ATOM     25  Cl  UNL A   1      28.190  26.391  24.040  1.00  0.00    -0.082 Cl
ENDBRANCH  15  17
ENDBRANCH  10  15
ENDBRANCH   6   9
ENDBRANCH   4   5
ENDBRANCH   3   4
ENDBRANCH   2   3
ENDBRANCH   1   2
BRANCH   1  26
ATOM     26  C   UNL A   1      34.029  30.186  27.640  1.00  0.00     0.021 C 
BRANCH  26  27
ATOM     27  C   UNL A   1      35.460  30.327  28.144  1.00  0.00     0.116 C 
BRANCH  27  28
ATOM     28  N   UNL A   1      35.538  30.728  29.536  1.00  0.00    -0.352 N 
ATOM     29  C   UNL A   1      36.592  30.681  30.415  1.00  0.00     0.251 C 
ATOM     30  H   UNL A   1      34.702  31.093  29.910  1.00  0.00     0.163 HD
ATOM     31  O   UNL A   1      36.392  30.959  31.600  1.00  0.00    -0.269 OA
BRANCH  29  32
ATOM     32  C   UNL A   1      37.953  30.278  29.981  1.00  0.00     0.039 A 
ATOM     33  C   UNL A   1      38.858  29.825  30.950  1.00  0.00     0.014 A 
ATOM     34  C   UNL A   1      38.373  30.387  28.652  1.00  0.00     0.014 A 
ATOM     35  C   UNL A   1      40.150  29.433  30.583  1.00  0.00     0.010 A 
ATOM     36  C   UNL A   1      39.640  29.935  28.276  1.00  0.00     0.010 A 
ATOM     37  C   UNL A   1      40.546  29.460  29.237  1.00  0.00    -0.014 A 
BRANCH  37  38
ATOM     38  C   UNL A   1      41.904  29.016  28.819  1.00  0.00     0.031 A 
ATOM     39  C   UNL A   1      43.038  30.005  28.748  1.00  0.00     0.074 A 
ATOM     40  C   UNL A   1      42.110  27.739  28.441  1.00  0.00     0.049 A 
ATOM     41  N   UNL A   1      44.266  29.827  28.330  1.00  0.00    -0.248 NA
ATOM     42  C   UNL A   1      42.746  31.382  29.179  1.00  0.00     0.031 C 
ATOM     43  C   UNL A   1      41.095  26.684  28.429  1.00  0.00     0.029 A 
ATOM     44  N   UNL A   1      43.242  27.113  27.979  1.00  0.00    -0.354 N 
ATOM     45  C   UNL A   1      44.884  31.069  28.422  1.00  0.00     0.074 A 
ATOM     46  C   UNL A   1      43.885  32.000  28.901  1.00  0.00     0.031 C 
ATOM     47  C   UNL A   1      41.652  25.542  27.996  1.00  0.00     0.029 A 
ATOM     48  C   UNL A   1      43.053  25.788  27.665  1.00  0.00     0.049 A 
ATOM     49  H   UNL A   1      44.109  27.571  27.882  1.00  0.00     0.167 HD
ATOM     50  C   UNL A   1      46.168  31.405  28.146  1.00  0.00     0.031 A 
ATOM     51  C   UNL A   1      43.903  24.873  27.157  1.00  0.00     0.031 A 
ATOM     52  C   UNL A   1      47.168  30.478  27.690  1.00  0.00     0.049 A 
ATOM     53  C   UNL A   1      45.325  25.264  26.868  1.00  0.00     0.074 A 
ATOM     54  C   UNL A   1      48.511  30.712  27.445  1.00  0.00     0.029 A 
ATOM     55  N   UNL A   1      46.939  29.139  27.409  1.00  0.00    -0.354 N 
ATOM     56  N   UNL A   1      45.904  26.431  27.017  1.00  0.00    -0.248 NA
ATOM     57  C   UNL A   1      46.213  24.212  26.350  1.00  0.00     0.031 C 
ATOM     58  C   UNL A   1      49.084  29.525  26.977  1.00  0.00     0.029 A 
ATOM     59  C   UNL A   1      48.110  28.540  26.975  1.00  0.00     0.049 A 
ATOM     60  H   UNL A   1      46.072  28.683  27.505  1.00  0.00     0.167 HD
ATOM     61  C   UNL A   1      47.228  26.249  26.633  1.00  0.00     0.074 A 
ATOM     62  C   UNL A   1      47.367  24.858  26.255  1.00  0.00     0.031 C 
ATOM     63  C   UNL A   1      48.236  27.154  26.600  1.00  0.00     0.031 A 
BRANCH  50  64
ATOM     64  C   UNL A   1      46.557  32.850  28.317  1.00  0.00    -0.014 A 
ATOM     65  C   UNL A   1      47.068  33.325  29.539  1.00  0.00     0.010 A 
ATOM     66  C   UNL A   1      46.433  33.739  27.235  1.00  0.00     0.010 A 
ATOM     67  C   UNL A   1      47.398  34.675  29.690  1.00  0.00     0.020 A 
ATOM     68  C   UNL A   1      46.788  35.084  27.374  1.00  0.00     0.020 A 
ATOM     69  C   UNL A   1      47.247  35.548  28.608  1.00  0.00     0.054 A 
BRANCH  69  70
ATOM     70  S   UNL A   1      47.682  37.295  28.830  1.00  0.00     0.124 S 
ATOM     71  O   UNL A   1      49.129  37.221  29.016  1.00  0.00    -0.237 OA
ATOM     72  O   UNL A   1      47.240  37.900  27.576  1.00  0.00    -0.237 OA
ATOM     73  O   UNL A   1      46.921  37.693  30.012  1.00  0.00    -0.744 OA
ENDBRANCH  69  70
ENDBRANCH  50  64
BRANCH  51  74
ATOM     74  C   UNL A   1      43.425  23.487  26.903  1.00  0.00    -0.014 A 
ATOM     75  C   UNL A   1      43.229  23.032  25.588  1.00  0.00     0.010 A 
ATOM     76  C   UNL A   1      43.197  22.606  27.976  1.00  0.00     0.010 A 
ATOM     77  C   UNL A   1      42.810  21.721  25.348  1.00  0.00     0.020 A 
ATOM     78  C   UNL A   1      42.800  21.287  27.739  1.00  0.00     0.020 A 
ATOM     79  C   UNL A   1      42.602  20.854  26.426  1.00  0.00     0.054 A 
BRANCH  79  80
ATOM     80  S   UNL A   1      42.135  19.133  26.090  1.00  0.00     0.124 S 
ATOM     81  O   UNL A   1      42.971  18.813  24.937  1.00  0.00    -0.237 OA
ATOM     82  O   UNL A   1      42.491  18.459  27.336  1.00  0.00    -0.237 OA
ATOM     83  O   UNL A   1      40.700  19.215  25.823  1.00  0.00    -0.744 OA
ENDBRANCH  79  80
ENDBRANCH  51  74
BRANCH  63  84
ATOM     84  C   UNL A   1      49.592  26.669  26.164  1.00  0.00    -0.014 A 
ATOM     85  C   UNL A   1      50.057  26.888  24.855  1.00  0.00     0.010 A 
ATOM     86  C   UNL A   1      50.439  26.044  27.098  1.00  0.00     0.010 A 
ATOM     87  C   UNL A   1      51.337  26.471  24.482  1.00  0.00     0.020 A 
ATOM     88  C   UNL A   1      51.728  25.646  26.735  1.00  0.00     0.020 A 
ATOM     89  C   UNL A   1      52.166  25.853  25.425  1.00  0.00     0.054 A 
BRANCH  89  90
ATOM     90  S   UNL A   1      53.844  25.371  24.933  1.00  0.00     0.124 S 
ATOM     91  O   UNL A   1      53.736  23.916  24.869  1.00  0.00    -0.237 OA
ATOM     92  O   UNL A   1      54.010  26.046  23.648  1.00  0.00    -0.237 OA
ATOM     93  O   UNL A   1      54.682  25.888  26.014  1.00  0.00    -0.744 OA
ENDBRANCH  89  90
ENDBRANCH  63  84
ENDBRANCH  37  38
ENDBRANCH  29  32
ENDBRANCH  27  28
ENDBRANCH  26  27
ENDBRANCH   1  26
TORSDOF 18
ENDMDL
MODEL 2
REMARK VINA RESULT:     -11.2      6.293     12.031
REMARK SMILES Cc1ccc(Cl)c(Nc2ccccc2C(=O)NCCCCCCNC(=O)c2ccc(-c3c4nc(c(-c5ccc(S(=O)(=O)[O-])cc5)c5ccc([nH]5)c(-c5ccc(S(=O)(=O)[O-])cc5)c5nc(c(-c6ccc(S(=O)(=O)[O-])cc6)c6ccc3[nH]6)C=C5)C=C4)cc2)c1Cl
REMARK SMILES IDX 21 1 20 2 19 3 18 4 17 5 15 6 16 7 14 9 9 10 10 11 11 12
REMARK SMILES IDX 13 13 12 14 8 15 7 17 1 18 2 19 3 20 87 21 4 22 88 23 5 24
REMARK SMILES IDX 6 25 22 26 23 27 24 28 25 29 26 31 27 32 28 33 86 34 29 35
REMARK SMILES IDX 85 36 30 37 31 38 32 39 79 40 33 41 84 42 78 43 80 44 34 45
REMARK SMILES IDX 83 46 77 47 76 48 35 50 65 51 46 52 64 53 47 54 50 55 63 56
REMARK SMILES IDX 81 57 48 58 49 59 62 61 82 62 51 63 36 64 37 65 45 66 38 67
REMARK SMILES IDX 44 68 39 69 40 70 41 71 42 72 43 73 66 74 67 75 75 76 68 77
REMARK SMILES IDX 74 78 69 79 70 80 71 81 72 82 73 83 52 84 53 85 61 86 54 87
REMARK SMILES IDX 60 88 55 89 56 90 57 91 58 92 59 93
REMARK H PARENT 17 8 8 16 24 30 80 49 50 60
REMARK Flexibility Score: inf
ROOT
ATOM      1  C   UNL A   1      39.748  21.723  26.452  1.00  0.00     0.002 C 
ENDROOT
BRANCH   1   2
ATOM      2  C   UNL A   1      38.673  22.486  25.668  1.00  0.00     0.002 C 
BRANCH   2   3
ATOM      3  C   UNL A   1      37.235  21.949  25.695  1.00  0.00     0.021 C 
BRANCH   3   4
ATOM      4  C   UNL A   1      36.105  22.971  25.590  1.00  0.00     0.116 C 
BRANCH   4   5
ATOM      5  N   UNL A   1      35.641  23.214  24.245  1.00  0.00    -0.352 N 
ATOM      6  C   UNL A   1      34.618  24.005  23.783  1.00  0.00     0.253 C 
ATOM      7  O   UNL A   1      34.469  24.067  22.559  1.00  0.00    -0.269 OA
ATOM      8  H   UNL A   1      36.139  22.735  23.544  1.00  0.00     0.163 HD
BRANCH   6   9
ATOM      9  C   UNL A   1      33.616  24.684  24.663  1.00  0.00     0.063 A 
ATOM     10  C   UNL A   1      32.352  24.210  25.070  1.00  0.00     0.051 A 
ATOM     11  C   UNL A   1      31.554  25.062  25.874  1.00  0.00     0.027 A 
ATOM     12  C   UNL A   1      32.004  26.302  26.326  1.00  0.00     0.002 A 
ATOM     13  C   UNL A   1      34.064  25.937  25.149  1.00  0.00     0.016 A 
ATOM     14  C   UNL A   1      33.273  26.732  25.979  1.00  0.00     0.001 A 
BRANCH  10  15
ATOM     15  N   UNL A   1      31.810  22.925  24.876  1.00  0.00    -0.352 N 
ATOM     16  H   UNL A   1      30.832  22.939  24.772  1.00  0.00     0.167 HD
BRANCH  15  17
ATOM     17  C   UNL A   1      32.347  21.617  24.796  1.00  0.00     0.077 A 
ATOM     18  C   UNL A   1      32.442  18.459  22.611  1.00  0.00     0.046 C 
ATOM     19  C   UNL A   1      32.605  19.399  23.775  1.00  0.00    -0.030 A 
ATOM     20  C   UNL A   1      33.124  18.902  24.978  1.00  0.00     0.006 A 
ATOM     21  C   UNL A   1      32.265  20.767  23.675  1.00  0.00     0.069 A 
ATOM     22  C   UNL A   1      33.322  19.750  26.062  1.00  0.00     0.023 A 
ATOM     23  Cl  UNL A   1      31.918  21.409  22.094  1.00  0.00    -0.082 Cl
ATOM     24  C   UNL A   1      32.937  21.085  25.970  1.00  0.00     0.066 A 
ATOM     25  Cl  UNL A   1      33.160  22.085  27.374  1.00  0.00    -0.082 Cl
ENDBRANCH  15  17
ENDBRANCH  10  15
ENDBRANCH   6   9
ENDBRANCH   4   5
ENDBRANCH   3   4
ENDBRANCH   2   3
ENDBRANCH   1   2
BRANCH   1  26
ATOM     26  C   UNL A   1      40.408  22.445  27.627  1.00  0.00     0.021 C 
BRANCH  26  27
ATOM     27  C   UNL A   1      41.780  23.061  27.381  1.00  0.00     0.116 C 
BRANCH  27  28
ATOM     28  N   UNL A   1      41.829  23.887  26.189  1.00  0.00    -0.352 N 
ATOM     29  C   UNL A   1      41.633  25.238  26.039  1.00  0.00     0.251 C 
ATOM     30  H   UNL A   1      42.036  23.403  25.357  1.00  0.00     0.163 HD
ATOM     31  O   UNL A   1      41.596  25.711  24.901  1.00  0.00    -0.269 OA
BRANCH  29  32
ATOM     32  C   UNL A   1      41.438  26.133  27.207  1.00  0.00     0.039 A 
ATOM     33  C   UNL A   1      42.416  27.098  27.482  1.00  0.00     0.014 A 
ATOM     34  C   UNL A   1      40.341  26.010  28.065  1.00  0.00     0.014 A 
ATOM     35  C   UNL A   1      42.270  27.963  28.572  1.00  0.00     0.010 A 
ATOM     36  C   UNL A   1      40.163  26.916  29.113  1.00  0.00     0.010 A 
ATOM     37  C   UNL A   1      41.128  27.897  29.384  1.00  0.00    -0.014 A 
BRANCH  37  38
ATOM     38  C   UNL A   1      40.935  28.831  30.528  1.00  0.00     0.031 A 
ATOM     39  C   UNL A   1      41.790  28.706  31.761  1.00  0.00     0.074 A 
ATOM     40  C   UNL A   1      39.950  29.750  30.490  1.00  0.00     0.049 A 
ATOM     41  N   UNL A   1      41.719  29.371  32.887  1.00  0.00    -0.248 NA
ATOM     42  C   UNL A   1      42.850  27.685  31.735  1.00  0.00     0.031 C 
ATOM     43  C   UNL A   1      39.026  29.958  29.373  1.00  0.00     0.029 A 
ATOM     44  N   UNL A   1      39.552  30.674  31.424  1.00  0.00    -0.354 N 
ATOM     45  C   UNL A   1      42.701  28.831  33.711  1.00  0.00     0.074 A 
ATOM     46  C   UNL A   1      43.331  27.762  32.967  1.00  0.00     0.031 C 
ATOM     47  C   UNL A   1      38.180  30.953  29.682  1.00  0.00     0.029 A 
ATOM     48  C   UNL A   1      38.475  31.432  31.029  1.00  0.00     0.049 A 
ATOM     49  H   UNL A   1      39.997  30.785  32.296  1.00  0.00     0.167 HD
ATOM     50  C   UNL A   1      43.057  29.198  34.966  1.00  0.00     0.031 A 
ATOM     51  C   UNL A   1      37.791  32.396  31.678  1.00  0.00     0.031 A 
ATOM     52  C   UNL A   1      42.446  30.275  35.699  1.00  0.00     0.049 A 
ATOM     53  C   UNL A   1      38.208  32.795  33.065  1.00  0.00     0.074 A 
ATOM     54  C   UNL A   1      42.783  30.762  36.952  1.00  0.00     0.029 A 
ATOM     55  N   UNL A   1      41.375  31.032  35.251  1.00  0.00    -0.354 N 
ATOM     56  N   UNL A   1      39.178  32.311  33.803  1.00  0.00    -0.248 NA
ATOM     57  C   UNL A   1      37.445  33.877  33.705  1.00  0.00     0.031 C 
ATOM     58  C   UNL A   1      41.888  31.786  37.277  1.00  0.00     0.029 A 
ATOM     59  C   UNL A   1      41.024  31.969  36.209  1.00  0.00     0.049 A 
ATOM     60  H   UNL A   1      40.931  30.920  34.380  1.00  0.00     0.167 HD
ATOM     61  C   UNL A   1      39.156  33.044  34.985  1.00  0.00     0.074 A 
ATOM     62  C   UNL A   1      38.085  34.010  34.859  1.00  0.00     0.031 C 
ATOM     63  C   UNL A   1      39.955  32.926  36.074  1.00  0.00     0.031 A 
BRANCH  50  64
ATOM     64  C   UNL A   1      44.154  28.411  35.632  1.00  0.00    -0.014 A 
ATOM     65  C   UNL A   1      45.498  28.817  35.542  1.00  0.00     0.010 A 
ATOM     66  C   UNL A   1      43.835  27.263  36.380  1.00  0.00     0.010 A 
ATOM     67  C   UNL A   1      46.508  28.060  36.142  1.00  0.00     0.020 A 
ATOM     68  C   UNL A   1      44.839  26.518  37.005  1.00  0.00     0.020 A 
ATOM     69  C   UNL A   1      46.172  26.909  36.862  1.00  0.00     0.054 A 
BRANCH  69  70
ATOM     70  S   UNL A   1      47.501  25.943  37.632  1.00  0.00     0.124 S 
ATOM     71  O   UNL A   1      48.680  26.736  37.294  1.00  0.00    -0.237 OA
ATOM     72  O   UNL A   1      47.126  25.944  39.043  1.00  0.00    -0.237 OA
ATOM     73  O   UNL A   1      47.413  24.644  36.968  1.00  0.00    -0.744 OA
ENDBRANCH  69  70
ENDBRANCH  50  64
BRANCH  51  74
ATOM     74  C   UNL A   1      36.640  33.059  31.006  1.00  0.00    -0.014 A 
ATOM     75  C   UNL A   1      35.349  32.970  31.553  1.00  0.00     0.010 A 
ATOM     76  C   UNL A   1      36.839  33.812  29.834  1.00  0.00     0.010 A 
ATOM     77  C   UNL A   1      34.274  33.619  30.939  1.00  0.00     0.020 A 
ATOM     78  C   UNL A   1      35.771  34.480  29.230  1.00  0.00     0.020 A 
ATOM     79  C   UNL A   1      34.493  34.374  29.782  1.00  0.00     0.054 A 
BRANCH  79  80
ATOM     80  S   UNL A   1      33.099  35.274  29.046  1.00  0.00     0.124 S 
ATOM     81  O   UNL A   1      32.228  35.478  30.199  1.00  0.00    -0.237 OA
ATOM     82  O   UNL A   1      33.741  36.475  28.518  1.00  0.00    -0.237 OA
ATOM     83  O   UNL A   1      32.595  34.349  28.032  1.00  0.00    -0.744 OA
ENDBRANCH  79  80
ENDBRANCH  51  74
BRANCH  63  84
ATOM     84  C   UNL A   1      39.724  33.881  37.212  1.00  0.00    -0.014 A 
ATOM     85  C   UNL A   1      38.968  33.504  38.336  1.00  0.00     0.010 A 
ATOM     86  C   UNL A   1      40.327  35.152  37.186  1.00  0.00     0.010 A 
ATOM     87  C   UNL A   1      38.803  34.388  39.405  1.00  0.00     0.020 A 
ATOM     88  C   UNL A   1      40.183  36.031  38.262  1.00  0.00     0.020 A 
ATOM     89  C   UNL A   1      39.412  35.647  39.362  1.00  0.00     0.054 A 
BRANCH  89  90
ATOM     90  S   UNL A   1      39.229  36.757  40.785  1.00  0.00     0.124 S 
ATOM     91  O   UNL A   1      38.414  35.955  41.693  1.00  0.00    -0.237 OA
ATOM     92  O   UNL A   1      40.611  36.973  41.206  1.00  0.00    -0.237 OA
ATOM     93  O   UNL A   1      38.565  37.932  40.224  1.00  0.00    -0.744 OA
ENDBRANCH  89  90
ENDBRANCH  63  84
ENDBRANCH  37  38
ENDBRANCH  29  32
ENDBRANCH  27  28
ENDBRANCH  26  27
ENDBRANCH   1  26
TORSDOF 18
ENDMDL
MODEL 3
REMARK VINA RESULT:     -11.1      6.049     11.420
REMARK SMILES Cc1ccc(Cl)c(Nc2ccccc2C(=O)NCCCCCCNC(=O)c2ccc(-c3c4nc(c(-c5ccc(S(=O)(=O)[O-])cc5)c5ccc([nH]5)c(-c5ccc(S(=O)(=O)[O-])cc5)c5nc(c(-c6ccc(S(=O)(=O)[O-])cc6)c6ccc3[nH]6)C=C5)C=C4)cc2)c1Cl
REMARK SMILES IDX 21 1 20 2 19 3 18 4 17 5 15 6 16 7 14 9 9 10 10 11 11 12
REMARK SMILES IDX 13 13 12 14 8 15 7 17 1 18 2 19 3 20 87 21 4 22 88 23 5 24
REMARK SMILES IDX 6 25 22 26 23 27 24 28 25 29 26 31 27 32 28 33 86 34 29 35
REMARK SMILES IDX 85 36 30 37 31 38 32 39 79 40 33 41 84 42 78 43 80 44 34 45
REMARK SMILES IDX 83 46 77 47 76 48 35 50 65 51 46 52 64 53 47 54 50 55 63 56
REMARK SMILES IDX 81 57 48 58 49 59 62 61 82 62 51 63 36 64 37 65 45 66 38 67
REMARK SMILES IDX 44 68 39 69 40 70 41 71 42 72 43 73 66 74 67 75 75 76 68 77
REMARK SMILES IDX 74 78 69 79 70 80 71 81 72 82 73 83 52 84 53 85 61 86 54 87
REMARK SMILES IDX 60 88 55 89 56 90 57 91 58 92 59 93
REMARK H PARENT 17 8 8 16 24 30 80 49 50 60
REMARK Flexibility Score: inf
ROOT
ATOM      1  C   UNL A   1      37.614  23.926  26.002  1.00  0.00     0.002 C 
ENDROOT
BRANCH   1   2
ATOM      2  C   UNL A   1      36.223  23.557  25.472  1.00  0.00     0.002 C 
BRANCH   2   3
ATOM      3  C   UNL A   1      35.055  23.508  26.469  1.00  0.00     0.021 C 
BRANCH   3   4
ATOM      4  C   UNL A   1      33.900  24.481  26.242  1.00  0.00     0.116 C 
BRANCH   4   5
ATOM      5  N   UNL A   1      32.639  24.052  26.795  1.00  0.00    -0.352 N 
ATOM      6  C   UNL A   1      31.724  23.139  26.330  1.00  0.00     0.253 C 
ATOM      7  O   UNL A   1      30.736  22.926  27.040  1.00  0.00    -0.269 OA
ATOM      8  H   UNL A   1      32.394  24.482  27.647  1.00  0.00     0.163 HD
BRANCH   6   9
ATOM      9  C   UNL A   1      31.790  22.495  24.982  1.00  0.00     0.063 A 
ATOM     10  C   UNL A   1      31.307  22.993  23.753  1.00  0.00     0.051 A 
ATOM     11  C   UNL A   1      31.444  22.171  22.606  1.00  0.00     0.027 A 
ATOM     12  C   UNL A   1      32.096  20.939  22.643  1.00  0.00     0.002 A 
ATOM     13  C   UNL A   1      32.468  21.251  24.993  1.00  0.00     0.016 A 
ATOM     14  C   UNL A   1      32.629  20.487  23.838  1.00  0.00     0.001 A 
BRANCH  10  15
ATOM     15  N   UNL A   1      30.797  24.277  23.486  1.00  0.00    -0.352 N 
ATOM     16  H   UNL A   1      29.872  24.255  23.149  1.00  0.00     0.167 HD
BRANCH  15  17
ATOM     17  C   UNL A   1      31.306  25.595  23.588  1.00  0.00     0.077 A 
ATOM     18  C   UNL A   1      34.011  27.961  22.232  1.00  0.00     0.046 C 
ATOM     19  C   UNL A   1      32.906  27.385  23.076  1.00  0.00    -0.030 A 
ATOM     20  C   UNL A   1      32.479  28.095  24.206  1.00  0.00     0.006 A 
ATOM     21  C   UNL A   1      32.283  26.161  22.744  1.00  0.00     0.069 A 
ATOM     22  C   UNL A   1      31.437  27.611  24.988  1.00  0.00     0.023 A 
ATOM     23  Cl  UNL A   1      32.622  25.468  21.184  1.00  0.00    -0.082 Cl
ATOM     24  C   UNL A   1      30.863  26.379  24.682  1.00  0.00     0.066 A 
ATOM     25  Cl  UNL A   1      29.599  25.800  25.725  1.00  0.00    -0.082 Cl
ENDBRANCH  15  17
ENDBRANCH  10  15
ENDBRANCH   6   9
ENDBRANCH   4   5
ENDBRANCH   3   4
ENDBRANCH   2   3
ENDBRANCH   1   2
BRANCH   1  26
ATOM     26  C   UNL A   1      38.628  22.792  26.164  1.00  0.00     0.021 C 
BRANCH  26  27
ATOM     27  C   UNL A   1      39.883  23.095  26.973  1.00  0.00     0.116 C 
BRANCH  27  28
ATOM     28  N   UNL A   1      41.009  23.498  26.151  1.00  0.00    -0.352 N 
ATOM     29  C   UNL A   1      41.776  24.635  26.195  1.00  0.00     0.251 C 
ATOM     30  H   UNL A   1      41.263  22.852  25.452  1.00  0.00     0.163 HD
ATOM     31  O   UNL A   1      42.610  24.826  25.306  1.00  0.00    -0.269 OA
BRANCH  29  32
ATOM     32  C   UNL A   1      41.609  25.649  27.266  1.00  0.00     0.039 A 
ATOM     33  C   UNL A   1      40.534  25.515  28.154  1.00  0.00     0.014 A 
ATOM     34  C   UNL A   1      42.456  26.755  27.383  1.00  0.00     0.014 A 
ATOM     35  C   UNL A   1      40.341  26.447  29.179  1.00  0.00     0.010 A 
ATOM     36  C   UNL A   1      42.302  27.650  28.445  1.00  0.00     0.010 A 
ATOM     37  C   UNL A   1      41.240  27.511  29.351  1.00  0.00    -0.014 A 
BRANCH  37  38
ATOM     38  C   UNL A   1      41.074  28.496  30.455  1.00  0.00     0.031 A 
ATOM     39  C   UNL A   1      41.948  28.416  31.680  1.00  0.00     0.074 A 
ATOM     40  C   UNL A   1      40.098  29.422  30.392  1.00  0.00     0.049 A 
ATOM     41  N   UNL A   1      41.900  29.130  32.777  1.00  0.00    -0.248 NA
ATOM     42  C   UNL A   1      42.996  27.383  31.683  1.00  0.00     0.031 C 
ATOM     43  C   UNL A   1      39.160  29.591  29.281  1.00  0.00     0.029 A 
ATOM     44  N   UNL A   1      39.724  30.392  31.291  1.00  0.00    -0.354 N 
ATOM     45  C   UNL A   1      42.889  28.616  33.609  1.00  0.00     0.074 A 
ATOM     46  C   UNL A   1      43.497  27.508  32.903  1.00  0.00     0.031 C 
ATOM     47  C   UNL A   1      38.329  30.609  29.558  1.00  0.00     0.029 A 
ATOM     48  C   UNL A   1      38.649  31.143  30.879  1.00  0.00     0.049 A 
ATOM     49  H   UNL A   1      40.183  30.535  32.150  1.00  0.00     0.167 HD
ATOM     50  C   UNL A   1      43.268  29.034  34.841  1.00  0.00     0.031 A 
ATOM     51  C   UNL A   1      37.985  32.141  31.495  1.00  0.00     0.031 A 
ATOM     52  C   UNL A   1      42.680  30.148  35.535  1.00  0.00     0.049 A 
ATOM     53  C   UNL A   1      38.428  32.596  32.857  1.00  0.00     0.074 A 
ATOM     54  C   UNL A   1      43.041  30.686  36.760  1.00  0.00     0.029 A 
ATOM     55  N   UNL A   1      41.610  30.897  35.070  1.00  0.00    -0.354 N 
ATOM     56  N   UNL A   1      39.404  32.134  33.600  1.00  0.00    -0.248 NA
ATOM     57  C   UNL A   1      37.686  33.714  33.459  1.00  0.00     0.031 C 
ATOM     58  C   UNL A   1      42.161  31.733  37.053  1.00  0.00     0.029 A 
ATOM     59  C   UNL A   1      41.284  31.879  35.991  1.00  0.00     0.049 A 
ATOM     60  H   UNL A   1      41.151  30.752  34.212  1.00  0.00     0.167 HD
ATOM     61  C   UNL A   1      39.408  32.919  34.749  1.00  0.00     0.074 A 
ATOM     62  C   UNL A   1      38.345  33.890  34.597  1.00  0.00     0.031 C 
ATOM     63  C   UNL A   1      40.222  32.840  35.830  1.00  0.00     0.031 A 
BRANCH  50  64
ATOM     64  C   UNL A   1      44.368  28.265  35.524  1.00  0.00    -0.014 A 
ATOM     65  C   UNL A   1      45.718  28.622  35.357  1.00  0.00     0.010 A 
ATOM     66  C   UNL A   1      44.045  27.185  36.366  1.00  0.00     0.010 A 
ATOM     67  C   UNL A   1      46.729  27.881  35.976  1.00  0.00     0.020 A 
ATOM     68  C   UNL A   1      45.051  26.457  37.008  1.00  0.00     0.020 A 
ATOM     69  C   UNL A   1      46.388  26.796  36.790  1.00  0.00     0.054 A 
BRANCH  69  70
ATOM     70  S   UNL A   1      47.718  25.849  37.582  1.00  0.00     0.124 S 
ATOM     71  O   UNL A   1      47.425  24.490  37.132  1.00  0.00    -0.237 OA
ATOM     72  O   UNL A   1      48.923  26.451  37.019  1.00  0.00    -0.237 OA
ATOM     73  O   UNL A   1      47.512  26.090  39.008  1.00  0.00    -0.744 OA
ENDBRANCH  69  70
ENDBRANCH  50  64
BRANCH  51  74
ATOM     74  C   UNL A   1      36.831  32.787  30.811  1.00  0.00    -0.014 A 
ATOM     75  C   UNL A   1      35.515  32.469  31.184  1.00  0.00     0.010 A 
ATOM     76  C   UNL A   1      37.046  33.750  29.808  1.00  0.00     0.010 A 
ATOM     77  C   UNL A   1      34.431  33.098  30.564  1.00  0.00     0.020 A 
ATOM     78  C   UNL A   1      35.967  34.398  29.202  1.00  0.00     0.020 A 
ATOM     79  C   UNL A   1      34.665  34.062  29.579  1.00  0.00     0.054 A 
BRANCH  79  80
ATOM     80  S   UNL A   1      33.248  34.925  28.843  1.00  0.00     0.124 S 
ATOM     81  O   UNL A   1      33.881  36.102  28.257  1.00  0.00    -0.237 OA
ATOM     82  O   UNL A   1      32.736  33.942  27.893  1.00  0.00    -0.237 OA
ATOM     83  O   UNL A   1      32.376  35.185  29.988  1.00  0.00    -0.744 OA
ENDBRANCH  79  80
ENDBRANCH  51  74
BRANCH  63  84
ATOM     84  C   UNL A   1      40.018  33.847  36.929  1.00  0.00    -0.014 A 
ATOM     85  C   UNL A   1      40.593  35.128  36.857  1.00  0.00     0.010 A 
ATOM     86  C   UNL A   1      39.185  33.528  38.017  1.00  0.00     0.010 A 
ATOM     87  C   UNL A   1      40.355  36.066  37.865  1.00  0.00     0.020 A 
ATOM     88  C   UNL A   1      38.926  34.471  39.015  1.00  0.00     0.020 A 
ATOM     89  C   UNL A   1      39.522  35.731  38.938  1.00  0.00     0.054 A 
BRANCH  89  90
ATOM     90  S   UNL A   1      39.182  36.984  40.206  1.00  0.00     0.124 S 
ATOM     91  O   UNL A   1      38.308  36.259  41.123  1.00  0.00    -0.237 OA
ATOM     92  O   UNL A   1      40.514  37.293  40.719  1.00  0.00    -0.237 OA
ATOM     93  O   UNL A   1      38.543  38.066  39.459  1.00  0.00    -0.744 OA
ENDBRANCH  89  90
ENDBRANCH  63  84
ENDBRANCH  37  38
ENDBRANCH  29  32
ENDBRANCH  27  28
ENDBRANCH  26  27
ENDBRANCH   1  26
TORSDOF 18
ENDMDL
