MODEL 1
REMARK VINA RESULT:     -11.0      0.000      0.000
REMARK SMILES CC1(C)CCC[C@@]1(NC(=O)OCc1ccccc1)C(=O)NCCCCCCNC(=O)c1ccc(-c2c3nc(c(-c4ccc(S(=O)(=O)[O-])cc4)c4ccc([nH]4)c(-c4ccc(S(=O)(=O)[O-])cc4)c4nc(c(-c5ccc(S(=O)(=O)[O-])cc5)c5ccc2[nH]5)C=C4)C=C3)cc1
REMARK SMILES IDX 24 1 23 2 22 3 21 4 19 5 20 6 7 8 1 9 2 10 3 11 4 12 5 13
REMARK SMILES IDX 6 14 8 15 9 16 10 18 11 19 12 20 13 21 14 22 18 23 15 24
REMARK SMILES IDX 17 25 16 26 25 27 26 28 27 29 28 30 29 31 30 33 31 34 32 35
REMARK SMILES IDX 90 36 33 37 89 38 34 39 35 40 36 41 83 42 37 43 88 44 82 45
REMARK SMILES IDX 84 46 38 47 87 48 81 49 80 50 39 52 69 53 50 54 68 55 51 56
REMARK SMILES IDX 54 57 67 58 85 59 52 60 53 61 66 63 86 64 55 65 40 66 41 67
REMARK SMILES IDX 49 68 42 69 48 70 43 71 44 72 45 73 46 74 47 75 70 76 71 77
REMARK SMILES IDX 79 78 72 79 78 80 73 81 74 82 75 83 76 84 77 85 56 86 57 87
REMARK SMILES IDX 65 88 58 89 64 90 59 91 60 92 61 93 62 94 63 95
REMARK H PARENT 21 7 8 17 28 32 84 51 54 62
REMARK Flexibility Score: inf
ROOT
ATOM      1  C   UNL A   1      37.227  22.001  24.638  1.00  0.00     0.002 C 
ENDROOT
BRANCH   1   2
ATOM      2  C   UNL A   1      36.470  22.568  23.430  1.00  0.00     0.021 C 
BRANCH   2   3
ATOM      3  C   UNL A   1      35.624  23.784  23.793  1.00  0.00     0.116 C 
BRANCH   3   4
ATOM      4  N   UNL A   1      34.395  23.786  23.027  1.00  0.00    -0.354 N 
ATOM      5  C   UNL A   1      33.112  24.105  23.332  1.00  0.00     0.246 C 
ATOM      6  O   UNL A   1      32.409  24.296  22.330  1.00  0.00    -0.272 OA
ATOM      7  H   UNL A   1      34.516  23.497  22.094  1.00  0.00     0.163 HD
BRANCH   5   8
ATOM      8  C   UNL A   1      32.575  24.400  24.793  1.00  0.00     0.127 C 
ATOM      9  C   UNL A   1      33.580  26.871  24.424  1.00  0.00     0.014 C 
ATOM     10  C   UNL A   1      32.470  25.990  25.020  1.00  0.00    -0.003 C 
ATOM     11  C   UNL A   1      32.373  26.389  26.519  1.00  0.00     0.014 C 
ATOM     12  C   UNL A   1      31.131  26.307  24.331  1.00  0.00     0.009 C 
ATOM     13  C   UNL A   1      30.205  25.180  24.746  1.00  0.00     0.004 C 
ATOM     14  C   UNL A   1      31.108  23.998  25.105  1.00  0.00     0.039 C 
BRANCH   8  15
ATOM     15  N   UNL A   1      33.497  23.813  25.800  1.00  0.00    -0.306 N 
ATOM     16  C   UNL A   1      33.672  22.524  26.195  1.00  0.00     0.408 C 
ATOM     17  H   UNL A   1      34.076  24.465  26.255  1.00  0.00     0.168 HD
ATOM     18  O   UNL A   1      34.215  22.276  27.271  1.00  0.00    -0.225 OA
BRANCH  16  19
ATOM     19  O   UNL A   1      33.301  21.607  25.286  1.00  0.00    -0.445 OA
BRANCH  19  20
ATOM     20  C   UNL A   1      33.091  20.266  25.755  1.00  0.00     0.270 C 
BRANCH  20  21
ATOM     21  C   UNL A   1      33.295  19.215  24.684  1.00  0.00    -0.011 A 
ATOM     22  C   UNL A   1      32.417  19.170  23.589  1.00  0.00     0.007 A 
ATOM     23  C   UNL A   1      34.286  18.226  24.779  1.00  0.00     0.007 A 
ATOM     24  C   UNL A   1      32.526  18.167  22.622  1.00  0.00     0.000 A 
ATOM     25  C   UNL A   1      34.391  17.221  23.815  1.00  0.00     0.000 A 
ATOM     26  C   UNL A   1      33.510  17.189  22.740  1.00  0.00     0.000 A 
ENDBRANCH  20  21
ENDBRANCH  19  20
ENDBRANCH  16  19
ENDBRANCH   8  15
ENDBRANCH   5   8
ENDBRANCH   3   4
ENDBRANCH   2   3
ENDBRANCH   1   2
BRANCH   1  27
ATOM     27  C   UNL A   1      36.969  20.513  24.909  1.00  0.00     0.002 C 
BRANCH  27  28
ATOM     28  C   UNL A   1      38.227  19.639  24.955  1.00  0.00     0.021 C 
BRANCH  28  29
ATOM     29  C   UNL A   1      39.360  20.220  25.795  1.00  0.00     0.116 C 
BRANCH  29  30
ATOM     30  N   UNL A   1      40.424  19.249  25.990  1.00  0.00    -0.352 N 
ATOM     31  C   UNL A   1      41.769  19.458  26.148  1.00  0.00     0.251 C 
ATOM     32  H   UNL A   1      40.138  18.307  26.012  1.00  0.00     0.163 HD
ATOM     33  O   UNL A   1      42.548  18.515  26.043  1.00  0.00    -0.269 OA
BRANCH  31  34
ATOM     34  C   UNL A   1      42.277  20.815  26.441  1.00  0.00     0.039 A 
ATOM     35  C   UNL A   1      42.588  21.660  25.374  1.00  0.00     0.014 A 
ATOM     36  C   UNL A   1      42.485  21.236  27.758  1.00  0.00     0.014 A 
ATOM     37  C   UNL A   1      43.078  22.941  25.629  1.00  0.00     0.010 A 
ATOM     38  C   UNL A   1      42.916  22.535  28.012  1.00  0.00     0.010 A 
ATOM     39  C   UNL A   1      43.229  23.396  26.951  1.00  0.00    -0.014 A 
BRANCH  39  40
ATOM     40  C   UNL A   1      43.728  24.765  27.225  1.00  0.00     0.031 A 
ATOM     41  C   UNL A   1      45.177  25.104  27.001  1.00  0.00     0.074 A 
ATOM     42  C   UNL A   1      42.874  25.699  27.690  1.00  0.00     0.049 A 
ATOM     43  N   UNL A   1      45.790  26.247  27.175  1.00  0.00    -0.248 NA
ATOM     44  C   UNL A   1      46.056  24.017  26.540  1.00  0.00     0.031 C 
ATOM     45  C   UNL A   1      41.455  25.479  27.983  1.00  0.00     0.029 A 
ATOM     46  N   UNL A   1      43.073  27.022  27.991  1.00  0.00    -0.354 N 
ATOM     47  C   UNL A   1      47.121  26.018  26.844  1.00  0.00     0.074 A 
ATOM     48  C   UNL A   1      47.239  24.615  26.513  1.00  0.00     0.031 C 
ATOM     49  C   UNL A   1      40.905  26.637  28.386  1.00  0.00     0.029 A 
ATOM     50  C   UNL A   1      41.935  27.670  28.409  1.00  0.00     0.049 A 
ATOM     51  H   UNL A   1      43.948  27.467  27.913  1.00  0.00     0.167 HD
ATOM     52  C   UNL A   1      48.148  26.901  26.793  1.00  0.00     0.031 A 
ATOM     53  C   UNL A   1      41.741  28.954  28.764  1.00  0.00     0.031 A 
ATOM     54  C   UNL A   1      48.026  28.298  27.114  1.00  0.00     0.049 A 
ATOM     55  C   UNL A   1      42.901  29.910  28.706  1.00  0.00     0.074 A 
ATOM     56  C   UNL A   1      49.001  29.280  27.067  1.00  0.00     0.029 A 
ATOM     57  N   UNL A   1      46.857  28.914  27.532  1.00  0.00    -0.354 N 
ATOM     58  N   UNL A   1      44.142  29.682  28.344  1.00  0.00    -0.248 NA
ATOM     59  C   UNL A   1      42.630  31.302  29.090  1.00  0.00     0.031 C 
ATOM     60  C   UNL A   1      48.429  30.484  27.493  1.00  0.00     0.029 A 
ATOM     61  C   UNL A   1      47.087  30.261  27.756  1.00  0.00     0.049 A 
ATOM     62  H   UNL A   1      45.991  28.461  27.651  1.00  0.00     0.167 HD
ATOM     63  C   UNL A   1      44.791  30.908  28.430  1.00  0.00     0.074 A 
ATOM     64  C   UNL A   1      43.802  31.876  28.858  1.00  0.00     0.031 C 
ATOM     65  C   UNL A   1      46.090  31.208  28.181  1.00  0.00     0.031 A 
BRANCH  52  66
ATOM     66  C   UNL A   1      49.492  26.383  26.355  1.00  0.00    -0.014 A 
ATOM     67  C   UNL A   1      49.920  26.534  25.024  1.00  0.00     0.010 A 
ATOM     68  C   UNL A   1      50.361  25.796  27.292  1.00  0.00     0.010 A 
ATOM     69  C   UNL A   1      51.183  26.084  24.631  1.00  0.00     0.020 A 
ATOM     70  C   UNL A   1      51.636  25.366  26.907  1.00  0.00     0.020 A 
ATOM     71  C   UNL A   1      52.032  25.503  25.575  1.00  0.00     0.054 A 
BRANCH  71  72
ATOM     72  S   UNL A   1      53.684  24.968  25.045  1.00  0.00     0.124 S 
ATOM     73  O   UNL A   1      53.528  23.517  24.993  1.00  0.00    -0.237 OA
ATOM     74  O   UNL A   1      53.835  25.630  23.752  1.00  0.00    -0.237 OA
ATOM     75  O   UNL A   1      54.564  25.463  26.101  1.00  0.00    -0.744 OA
ENDBRANCH  71  72
ENDBRANCH  52  66
BRANCH  53  76
ATOM     76  C   UNL A   1      40.396  29.423  29.192  1.00  0.00    -0.014 A 
ATOM     77  C   UNL A   1      39.393  29.679  28.239  1.00  0.00     0.010 A 
ATOM     78  C   UNL A   1      40.118  29.640  30.553  1.00  0.00     0.010 A 
ATOM     79  C   UNL A   1      38.152  30.184  28.637  1.00  0.00     0.020 A 
ATOM     80  C   UNL A   1      38.869  30.118  30.957  1.00  0.00     0.020 A 
ATOM     81  C   UNL A   1      37.900  30.407  29.994  1.00  0.00     0.054 A 
BRANCH  81  82
ATOM     82  S   UNL A   1      36.280  31.053  30.492  1.00  0.00     0.124 S 
ATOM     83  O   UNL A   1      35.528  30.979  29.244  1.00  0.00    -0.237 OA
ATOM     84  O   UNL A   1      35.871  30.115  31.535  1.00  0.00    -0.237 OA
ATOM     85  O   UNL A   1      36.584  32.402  30.965  1.00  0.00    -0.744 OA
ENDBRANCH  81  82
ENDBRANCH  53  76
BRANCH  65  86
ATOM     86  C   UNL A   1      46.500  32.647  28.331  1.00  0.00    -0.014 A 
ATOM     87  C   UNL A   1      46.318  33.568  27.283  1.00  0.00     0.010 A 
ATOM     88  C   UNL A   1      47.055  33.089  29.545  1.00  0.00     0.010 A 
ATOM     89  C   UNL A   1      46.726  34.895  27.433  1.00  0.00     0.020 A 
ATOM     90  C   UNL A   1      47.439  34.422  29.708  1.00  0.00     0.020 A 
ATOM     91  C   UNL A   1      47.290  35.312  28.642  1.00  0.00     0.054 A 
BRANCH  91  92
ATOM     92  S   UNL A   1      47.796  37.045  28.820  1.00  0.00     0.124 S 
ATOM     93  O   UNL A   1      47.566  37.284  30.241  1.00  0.00    -0.237 OA
ATOM     94  O   UNL A   1      49.196  37.015  28.406  1.00  0.00    -0.237 OA
ATOM     95  O   UNL A   1      46.901  37.761  27.914  1.00  0.00    -0.744 OA
ENDBRANCH  91  92
ENDBRANCH  65  86
ENDBRANCH  39  40
ENDBRANCH  31  34
ENDBRANCH  29  30
ENDBRANCH  28  29
ENDBRANCH  27  28
ENDBRANCH   1  27
TORSDOF 20
ENDMDL
MODEL 2
REMARK VINA RESULT:     -10.8      6.159      8.281
REMARK SMILES CC1(C)CCC[C@@]1(NC(=O)OCc1ccccc1)C(=O)NCCCCCCNC(=O)c1ccc(-c2c3nc(c(-c4ccc(S(=O)(=O)[O-])cc4)c4ccc([nH]4)c(-c4ccc(S(=O)(=O)[O-])cc4)c4nc(c(-c5ccc(S(=O)(=O)[O-])cc5)c5ccc2[nH]5)C=C4)C=C3)cc1
REMARK SMILES IDX 24 1 23 2 22 3 21 4 19 5 20 6 7 8 1 9 2 10 3 11 4 12 5 13
REMARK SMILES IDX 6 14 8 15 9 16 10 18 11 19 12 20 13 21 14 22 18 23 15 24
REMARK SMILES IDX 17 25 16 26 25 27 26 28 27 29 28 30 29 31 30 33 31 34 32 35
REMARK SMILES IDX 90 36 33 37 89 38 34 39 35 40 36 41 83 42 37 43 88 44 82 45
REMARK SMILES IDX 84 46 38 47 87 48 81 49 80 50 39 52 69 53 50 54 68 55 51 56
REMARK SMILES IDX 54 57 67 58 85 59 52 60 53 61 66 63 86 64 55 65 40 66 41 67
REMARK SMILES IDX 49 68 42 69 48 70 43 71 44 72 45 73 46 74 47 75 70 76 71 77
REMARK SMILES IDX 79 78 72 79 78 80 73 81 74 82 75 83 76 84 77 85 56 86 57 87
REMARK SMILES IDX 65 88 58 89 64 90 59 91 60 92 61 93 62 94 63 95
REMARK H PARENT 21 7 8 17 28 32 84 51 54 62
REMARK Flexibility Score: inf
ROOT
ATOM      1  C   UNL A   1      36.651  22.386  24.014  1.00  0.00     0.002 C 
ENDROOT
BRANCH   1   2
ATOM      2  C   UNL A   1      36.069  23.765  23.676  1.00  0.00     0.021 C 
BRANCH   2   3
ATOM      3  C   UNL A   1      34.679  23.970  24.270  1.00  0.00     0.116 C 
BRANCH   3   4
ATOM      4  N   UNL A   1      34.601  25.256  24.929  1.00  0.00    -0.354 N 
ATOM      5  C   UNL A   1      33.631  26.202  25.007  1.00  0.00     0.246 C 
ATOM      6  O   UNL A   1      33.812  27.008  25.929  1.00  0.00    -0.272 OA
ATOM      7  H   UNL A   1      35.419  25.493  25.422  1.00  0.00     0.163 HD
BRANCH   5   8
ATOM      8  C   UNL A   1      32.294  26.200  24.155  1.00  0.00     0.127 C 
ATOM      9  C   UNL A   1      32.990  28.710  23.469  1.00  0.00     0.014 C 
ATOM     10  C   UNL A   1      32.352  27.374  23.055  1.00  0.00    -0.003 C 
ATOM     11  C   UNL A   1      30.958  27.734  22.471  1.00  0.00     0.014 C 
ATOM     12  C   UNL A   1      33.201  26.715  21.953  1.00  0.00     0.009 C 
ATOM     13  C   UNL A   1      32.683  25.292  21.863  1.00  0.00     0.004 C 
ATOM     14  C   UNL A   1      32.049  24.984  23.222  1.00  0.00     0.039 C 
BRANCH   8  15
ATOM     15  N   UNL A   1      31.125  26.412  25.047  1.00  0.00    -0.306 N 
ATOM     16  C   UNL A   1      30.602  25.624  26.023  1.00  0.00     0.408 C 
ATOM     17  H   UNL A   1      30.651  27.263  24.908  1.00  0.00     0.168 HD
ATOM     18  O   UNL A   1      29.444  25.797  26.404  1.00  0.00    -0.225 OA
BRANCH  16  19
ATOM     19  O   UNL A   1      31.472  24.755  26.564  1.00  0.00    -0.445 OA
BRANCH  19  20
ATOM     20  C   UNL A   1      31.015  23.409  26.770  1.00  0.00     0.270 C 
BRANCH  20  21
ATOM     21  C   UNL A   1      32.034  22.360  26.377  1.00  0.00    -0.011 A 
ATOM     22  C   UNL A   1      33.200  22.215  27.145  1.00  0.00     0.007 A 
ATOM     23  C   UNL A   1      31.898  21.572  25.224  1.00  0.00     0.007 A 
ATOM     24  C   UNL A   1      34.199  21.312  26.770  1.00  0.00     0.000 A 
ATOM     25  C   UNL A   1      32.898  20.674  24.847  1.00  0.00     0.000 A 
ATOM     26  C   UNL A   1      34.050  20.546  25.616  1.00  0.00     0.000 A 
ENDBRANCH  20  21
ENDBRANCH  19  20
ENDBRANCH  16  19
ENDBRANCH   8  15
ENDBRANCH   5   8
ENDBRANCH   3   4
ENDBRANCH   2   3
ENDBRANCH   1   2
BRANCH   1  27
ATOM     27  C   UNL A   1      37.630  22.381  25.196  1.00  0.00     0.002 C 
BRANCH  27  28
ATOM     28  C   UNL A   1      37.657  23.676  26.015  1.00  0.00     0.021 C 
BRANCH  28  29
ATOM     29  C   UNL A   1      38.912  23.853  26.863  1.00  0.00     0.116 C 
BRANCH  29  30
ATOM     30  N   UNL A   1      40.042  24.276  26.053  1.00  0.00    -0.352 N 
ATOM     31  C   UNL A   1      40.766  25.438  26.115  1.00  0.00     0.251 C 
ATOM     32  H   UNL A   1      40.328  23.637  25.360  1.00  0.00     0.163 HD
ATOM     33  O   UNL A   1      41.516  25.738  25.190  1.00  0.00    -0.269 OA
BRANCH  31  34
ATOM     34  C   UNL A   1      40.639  26.326  27.290  1.00  0.00     0.039 A 
ATOM     35  C   UNL A   1      41.457  27.454  27.371  1.00  0.00     0.014 A 
ATOM     36  C   UNL A   1      39.748  26.024  28.325  1.00  0.00     0.014 A 
ATOM     37  C   UNL A   1      41.359  28.299  28.476  1.00  0.00     0.010 A 
ATOM     38  C   UNL A   1      39.608  26.901  29.398  1.00  0.00     0.010 A 
ATOM     39  C   UNL A   1      40.422  28.039  29.491  1.00  0.00    -0.014 A 
BRANCH  39  40
ATOM     40  C   UNL A   1      40.299  28.948  30.656  1.00  0.00     0.031 A 
ATOM     41  C   UNL A   1      41.194  28.771  31.854  1.00  0.00     0.074 A 
ATOM     42  C   UNL A   1      39.371  29.925  30.639  1.00  0.00     0.049 A 
ATOM     43  N   UNL A   1      41.239  29.474  32.957  1.00  0.00    -0.248 NA
ATOM     44  C   UNL A   1      42.149  27.651  31.818  1.00  0.00     0.031 C 
ATOM     45  C   UNL A   1      38.420  30.171  29.550  1.00  0.00     0.029 A 
ATOM     46  N   UNL A   1      39.078  30.898  31.560  1.00  0.00    -0.354 N 
ATOM     47  C   UNL A   1      42.224  28.885  33.742  1.00  0.00     0.074 A 
ATOM     48  C   UNL A   1      42.712  27.734  33.014  1.00  0.00     0.031 C 
ATOM     49  C   UNL A   1      37.676  31.248  29.852  1.00  0.00     0.029 A 
ATOM     50  C   UNL A   1      38.074  31.748  31.163  1.00  0.00     0.049 A 
ATOM     51  H   UNL A   1      39.544  30.980  32.423  1.00  0.00     0.167 HD
ATOM     52  C   UNL A   1      42.699  29.282  34.947  1.00  0.00     0.031 A 
ATOM     53  C   UNL A   1      37.538  32.817  31.784  1.00  0.00     0.031 A 
ATOM     54  C   UNL A   1      42.218  30.432  35.664  1.00  0.00     0.049 A 
ATOM     55  C   UNL A   1      38.080  33.229  33.125  1.00  0.00     0.074 A 
ATOM     56  C   UNL A   1      42.652  30.932  36.880  1.00  0.00     0.029 A 
ATOM     57  N   UNL A   1      41.201  31.268  35.229  1.00  0.00    -0.354 N 
ATOM     58  N   UNL A   1      39.045  32.685  33.828  1.00  0.00    -0.248 NA
ATOM     59  C   UNL A   1      37.469  34.411  33.750  1.00  0.00     0.031 C 
ATOM     60  C   UNL A   1      41.873  32.050  37.196  1.00  0.00     0.029 A 
ATOM     61  C   UNL A   1      40.987  32.274  36.155  1.00  0.00     0.049 A 
ATOM     62  H   UNL A   1      40.706  31.161  34.385  1.00  0.00     0.167 HD
ATOM     63  C   UNL A   1      39.175  33.475  34.964  1.00  0.00     0.074 A 
ATOM     64  C   UNL A   1      38.205  34.544  34.844  1.00  0.00     0.031 C 
ATOM     65  C   UNL A   1      40.018  33.329  36.016  1.00  0.00     0.031 A 
BRANCH  52  66
ATOM     66  C   UNL A   1      43.812  28.472  35.559  1.00  0.00    -0.014 A 
ATOM     67  C   UNL A   1      43.527  27.372  36.387  1.00  0.00     0.010 A 
ATOM     68  C   UNL A   1      45.152  28.773  35.256  1.00  0.00     0.010 A 
ATOM     69  C   UNL A   1      44.563  26.602  36.923  1.00  0.00     0.020 A 
ATOM     70  C   UNL A   1      46.191  27.990  35.770  1.00  0.00     0.020 A 
ATOM     71  C   UNL A   1      45.888  26.916  36.611  1.00  0.00     0.054 A 
BRANCH  71  72
ATOM     72  S   UNL A   1      47.209  25.872  37.286  1.00  0.00     0.124 S 
ATOM     73  O   UNL A   1      46.914  25.898  38.715  1.00  0.00    -0.237 OA
ATOM     74  O   UNL A   1      46.979  24.592  36.620  1.00  0.00    -0.237 OA
ATOM     75  O   UNL A   1      48.434  26.564  36.891  1.00  0.00    -0.744 OA
ENDBRANCH  71  72
ENDBRANCH  52  66
BRANCH  53  76
ATOM     76  C   UNL A   1      36.439  33.588  31.142  1.00  0.00    -0.014 A 
ATOM     77  C   UNL A   1      35.265  33.886  31.857  1.00  0.00     0.010 A 
ATOM     78  C   UNL A   1      36.550  34.005  29.804  1.00  0.00     0.010 A 
ATOM     79  C   UNL A   1      34.206  34.551  31.233  1.00  0.00     0.020 A 
ATOM     80  C   UNL A   1      35.505  34.695  29.185  1.00  0.00     0.020 A 
ATOM     81  C   UNL A   1      34.330  34.945  29.897  1.00  0.00     0.054 A 
BRANCH  81  82
ATOM     82  S   UNL A   1      32.950  35.816  29.106  1.00  0.00     0.124 S 
ATOM     83  O   UNL A   1      32.379  34.772  28.262  1.00  0.00    -0.237 OA
ATOM     84  O   UNL A   1      32.135  36.225  30.247  1.00  0.00    -0.237 OA
ATOM     85  O   UNL A   1      33.604  36.912  28.394  1.00  0.00    -0.744 OA
ENDBRANCH  81  82
ENDBRANCH  53  76
BRANCH  65  86
ATOM     86  C   UNL A   1      39.950  34.373  37.097  1.00  0.00    -0.014 A 
ATOM     87  C   UNL A   1      40.762  35.521  37.051  1.00  0.00     0.010 A 
ATOM     88  C   UNL A   1      39.045  34.213  38.161  1.00  0.00     0.010 A 
ATOM     89  C   UNL A   1      40.701  36.468  38.076  1.00  0.00     0.020 A 
ATOM     90  C   UNL A   1      38.962  35.172  39.174  1.00  0.00     0.020 A 
ATOM     91  C   UNL A   1      39.806  36.285  39.134  1.00  0.00     0.054 A 
BRANCH  91  92
ATOM     92  S   UNL A   1      39.731  37.536  40.444  1.00  0.00     0.124 S 
ATOM     93  O   UNL A   1      40.864  38.394  40.109  1.00  0.00    -0.237 OA
ATOM     94  O   UNL A   1      38.412  38.131  40.246  1.00  0.00    -0.237 OA
ATOM     95  O   UNL A   1      39.878  36.759  41.673  1.00  0.00    -0.744 OA
ENDBRANCH  91  92
ENDBRANCH  65  86
ENDBRANCH  39  40
ENDBRANCH  31  34
ENDBRANCH  29  30
ENDBRANCH  28  29
ENDBRANCH  27  28
ENDBRANCH   1  27
TORSDOF 20
ENDMDL
MODEL 3
REMARK VINA RESULT:     -10.7      5.709      7.953
REMARK SMILES CC1(C)CCC[C@@]1(NC(=O)OCc1ccccc1)C(=O)NCCCCCCNC(=O)c1ccc(-c2c3nc(c(-c4ccc(S(=O)(=O)[O-])cc4)c4ccc([nH]4)c(-c4ccc(S(=O)(=O)[O-])cc4)c4nc(c(-c5ccc(S(=O)(=O)[O-])cc5)c5ccc2[nH]5)C=C4)C=C3)cc1
REMARK SMILES IDX 24 1 23 2 22 3 21 4 19 5 20 6 7 8 1 9 2 10 3 11 4 12 5 13
REMARK SMILES IDX 6 14 8 15 9 16 10 18 11 19 12 20 13 21 14 22 18 23 15 24
REMARK SMILES IDX 17 25 16 26 25 27 26 28 27 29 28 30 29 31 30 33 31 34 32 35
REMARK SMILES IDX 90 36 33 37 89 38 34 39 35 40 36 41 83 42 37 43 88 44 82 45
REMARK SMILES IDX 84 46 38 47 87 48 81 49 80 50 39 52 69 53 50 54 68 55 51 56
REMARK SMILES IDX 54 57 67 58 85 59 52 60 53 61 66 63 86 64 55 65 40 66 41 67
REMARK SMILES IDX 49 68 42 69 48 70 43 71 44 72 45 73 46 74 47 75 70 76 71 77
REMARK SMILES IDX 79 78 72 79 78 80 73 81 74 82 75 83 76 84 77 85 56 86 57 87
REMARK SMILES IDX 65 88 58 89 64 90 59 91 60 92 61 93 62 94 63 95
REMARK H PARENT 21 7 8 17 28 32 84 51 54 62
REMARK Flexibility Score: inf
ROOT
ATOM      1  C   UNL A   1      38.038  22.166  25.461  1.00  0.00     0.002 C 
ENDROOT
BRANCH   1   2
ATOM      2  C   UNL A   1      37.653  23.651  25.434  1.00  0.00     0.021 C 
BRANCH   2   3
ATOM      3  C   UNL A   1      36.149  23.864  25.572  1.00  0.00     0.116 C 
BRANCH   3   4
ATOM      4  N   UNL A   1      35.512  23.790  24.275  1.00  0.00    -0.354 N 
ATOM      5  C   UNL A   1      34.233  23.969  23.856  1.00  0.00     0.246 C 
ATOM      6  O   UNL A   1      34.143  24.145  22.634  1.00  0.00    -0.272 OA
ATOM      7  H   UNL A   1      36.134  23.563  23.546  1.00  0.00     0.163 HD
BRANCH   5   8
ATOM      8  C   UNL A   1      32.982  24.134  24.814  1.00  0.00     0.127 C 
ATOM      9  C   UNL A   1      33.769  26.701  25.034  1.00  0.00     0.014 C 
ATOM     10  C   UNL A   1      32.610  25.694  24.954  1.00  0.00    -0.003 C 
ATOM     11  C   UNL A   1      31.700  25.999  26.176  1.00  0.00     0.014 C 
ATOM     12  C   UNL A   1      31.807  25.930  23.662  1.00  0.00     0.009 C 
ATOM     13  C   UNL A   1      30.923  24.705  23.525  1.00  0.00     0.004 C 
ATOM     14  C   UNL A   1      31.621  23.589  24.305  1.00  0.00     0.039 C 
BRANCH   8  15
ATOM     15  N   UNL A   1      33.294  23.576  26.156  1.00  0.00    -0.306 N 
ATOM     16  C   UNL A   1      33.354  22.288  26.586  1.00  0.00     0.408 C 
ATOM     17  H   UNL A   1      33.489  24.250  26.846  1.00  0.00     0.168 HD
ATOM     18  O   UNL A   1      33.277  22.033  27.788  1.00  0.00    -0.225 OA
BRANCH  16  19
ATOM     19  O   UNL A   1      33.596  21.387  25.619  1.00  0.00    -0.445 OA
BRANCH  19  20
ATOM     20  C   UNL A   1      33.441  20.001  25.960  1.00  0.00     0.270 C 
BRANCH  20  21
ATOM     21  C   UNL A   1      33.264  19.101  24.754  1.00  0.00    -0.011 A 
ATOM     22  C   UNL A   1      34.041  17.937  24.647  1.00  0.00     0.007 A 
ATOM     23  C   UNL A   1      32.405  19.424  23.693  1.00  0.00     0.007 A 
ATOM     24  C   UNL A   1      33.963  17.123  23.513  1.00  0.00     0.000 A 
ATOM     25  C   UNL A   1      32.331  18.614  22.558  1.00  0.00     0.000 A 
ATOM     26  C   UNL A   1      33.111  17.466  22.466  1.00  0.00     0.000 A 
ENDBRANCH  20  21
ENDBRANCH  19  20
ENDBRANCH  16  19
ENDBRANCH   8  15
ENDBRANCH   5   8
ENDBRANCH   3   4
ENDBRANCH   2   3
ENDBRANCH   1   2
BRANCH   1  27
ATOM     27  C   UNL A   1      39.407  21.875  26.089  1.00  0.00     0.002 C 
BRANCH  27  28
ATOM     28  C   UNL A   1      39.794  22.802  27.247  1.00  0.00     0.021 C 
BRANCH  28  29
ATOM     29  C   UNL A   1      41.283  23.126  27.317  1.00  0.00     0.116 C 
BRANCH  29  30
ATOM     30  N   UNL A   1      41.710  23.901  26.164  1.00  0.00    -0.352 N 
ATOM     31  C   UNL A   1      41.683  25.257  25.973  1.00  0.00     0.251 C 
ATOM     32  H   UNL A   1      42.070  23.376  25.412  1.00  0.00     0.163 HD
ATOM     33  O   UNL A   1      41.841  25.718  24.846  1.00  0.00    -0.269 OA
BRANCH  31  34
ATOM     34  C   UNL A   1      41.461  26.161  27.122  1.00  0.00     0.039 A 
ATOM     35  C   UNL A   1      40.330  25.970  27.918  1.00  0.00     0.014 A 
ATOM     36  C   UNL A   1      42.340  27.215  27.388  1.00  0.00     0.014 A 
ATOM     37  C   UNL A   1      40.098  26.818  29.001  1.00  0.00     0.010 A 
ATOM     38  C   UNL A   1      42.140  28.022  28.504  1.00  0.00     0.010 A 
ATOM     39  C   UNL A   1      41.010  27.840  29.314  1.00  0.00    -0.014 A 
BRANCH  39  40
ATOM     40  C   UNL A   1      40.777  28.729  30.478  1.00  0.00     0.031 A 
ATOM     41  C   UNL A   1      41.629  28.602  31.713  1.00  0.00     0.074 A 
ATOM     42  C   UNL A   1      39.787  29.642  30.425  1.00  0.00     0.049 A 
ATOM     43  N   UNL A   1      41.580  29.297  32.820  1.00  0.00    -0.248 NA
ATOM     44  C   UNL A   1      42.657  27.548  31.712  1.00  0.00     0.031 C 
ATOM     45  C   UNL A   1      38.870  29.834  29.298  1.00  0.00     0.029 A 
ATOM     46  N   UNL A   1      39.390  30.586  31.338  1.00  0.00    -0.354 N 
ATOM     47  C   UNL A   1      42.567  28.768  33.644  1.00  0.00     0.074 A 
ATOM     48  C   UNL A   1      43.162  27.658  32.932  1.00  0.00     0.031 C 
ATOM     49  C   UNL A   1      38.043  30.856  29.573  1.00  0.00     0.029 A 
ATOM     50  C   UNL A   1      38.350  31.371  30.902  1.00  0.00     0.049 A 
ATOM     51  H   UNL A   1      39.812  30.691  32.221  1.00  0.00     0.167 HD
ATOM     52  C   UNL A   1      42.962  29.185  34.871  1.00  0.00     0.031 A 
ATOM     53  C   UNL A   1      37.718  32.396  31.505  1.00  0.00     0.031 A 
ATOM     54  C   UNL A   1      42.375  30.295  35.573  1.00  0.00     0.049 A 
ATOM     55  C   UNL A   1      38.173  32.833  32.871  1.00  0.00     0.074 A 
ATOM     56  C   UNL A   1      42.722  30.813  36.809  1.00  0.00     0.029 A 
ATOM     57  N   UNL A   1      41.324  31.065  35.098  1.00  0.00    -0.354 N 
ATOM     58  N   UNL A   1      39.141  32.348  33.613  1.00  0.00    -0.248 NA
ATOM     59  C   UNL A   1      37.459  33.966  33.475  1.00  0.00     0.031 C 
ATOM     60  C   UNL A   1      41.857  31.874  37.097  1.00  0.00     0.029 A 
ATOM     61  C   UNL A   1      41.004  32.047  36.019  1.00  0.00     0.049 A 
ATOM     62  H   UNL A   1      40.874  30.932  34.233  1.00  0.00     0.167 HD
ATOM     63  C   UNL A   1      39.168  33.135  34.758  1.00  0.00     0.074 A 
ATOM     64  C   UNL A   1      38.136  34.139  34.601  1.00  0.00     0.031 C 
ATOM     65  C   UNL A   1      39.974  33.037  35.844  1.00  0.00     0.031 A 
BRANCH  52  66
ATOM     66  C   UNL A   1      44.099  28.447  35.526  1.00  0.00    -0.014 A 
ATOM     67  C   UNL A   1      43.855  27.309  36.317  1.00  0.00     0.010 A 
ATOM     68  C   UNL A   1      45.427  28.852  35.301  1.00  0.00     0.010 A 
ATOM     69  C   UNL A   1      44.916  26.606  36.893  1.00  0.00     0.020 A 
ATOM     70  C   UNL A   1      46.493  28.137  35.856  1.00  0.00     0.020 A 
ATOM     71  C   UNL A   1      46.228  27.025  36.658  1.00  0.00     0.054 A 
BRANCH  71  72
ATOM     72  S   UNL A   1      47.587  26.065  37.383  1.00  0.00     0.124 S 
ATOM     73  O   UNL A   1      47.720  26.679  38.702  1.00  0.00    -0.237 OA
ATOM     74  O   UNL A   1      47.059  24.703  37.375  1.00  0.00    -0.237 OA
ATOM     75  O   UNL A   1      48.704  26.302  36.471  1.00  0.00    -0.744 OA
ENDBRANCH  71  72
ENDBRANCH  52  66
BRANCH  53  76
ATOM     76  C   UNL A   1      36.599  33.098  30.821  1.00  0.00    -0.014 A 
ATOM     77  C   UNL A   1      36.855  33.994  29.767  1.00  0.00     0.010 A 
ATOM     78  C   UNL A   1      35.271  32.893  31.238  1.00  0.00     0.010 A 
ATOM     79  C   UNL A   1      35.808  34.702  29.171  1.00  0.00     0.020 A 
ATOM     80  C   UNL A   1      34.220  33.579  30.625  1.00  0.00     0.020 A 
ATOM     81  C   UNL A   1      34.497  34.496  29.609  1.00  0.00     0.054 A 
BRANCH  81  82
ATOM     82  S   UNL A   1      33.150  35.417  28.817  1.00  0.00     0.124 S 
ATOM     83  O   UNL A   1      33.881  36.382  28.004  1.00  0.00    -0.237 OA
ATOM     84  O   UNL A   1      32.442  34.374  28.079  1.00  0.00    -0.237 OA
ATOM     85  O   UNL A   1      32.412  35.977  29.948  1.00  0.00    -0.744 OA
ENDBRANCH  81  82
ENDBRANCH  53  76
BRANCH  65  86
ATOM     86  C   UNL A   1      39.790  34.065  36.927  1.00  0.00    -0.014 A 
ATOM     87  C   UNL A   1      40.251  35.383  36.763  1.00  0.00     0.010 A 
ATOM     88  C   UNL A   1      39.126  33.711  38.116  1.00  0.00     0.010 A 
ATOM     89  C   UNL A   1      40.091  36.318  37.789  1.00  0.00     0.020 A 
ATOM     90  C   UNL A   1      38.941  34.651  39.132  1.00  0.00     0.020 A 
ATOM     91  C   UNL A   1      39.442  35.944  38.969  1.00  0.00     0.054 A 
BRANCH  91  92
ATOM     92  S   UNL A   1      39.230  37.179  40.281  1.00  0.00     0.124 S 
ATOM     93  O   UNL A   1      40.609  37.432  40.685  1.00  0.00    -0.237 OA
ATOM     94  O   UNL A   1      38.567  38.278  39.583  1.00  0.00    -0.237 OA
ATOM     95  O   UNL A   1      38.405  36.492  41.272  1.00  0.00    -0.744 OA
ENDBRANCH  91  92
ENDBRANCH  65  86
ENDBRANCH  39  40
ENDBRANCH  31  34
ENDBRANCH  29  30
ENDBRANCH  28  29
ENDBRANCH  27  28
ENDBRANCH   1  27
TORSDOF 20
ENDMDL
