MODEL 1
REMARK VINA RESULT:     -10.2      0.000      0.000
REMARK SMILES NC(=O)c1ccnc(N(CC(=O)NCCCCCCNC(=O)c2ccc(-c3c4nc(c(-c5ccc(S(=O)(=O)[O-])cc5)c5ccc([nH]5)c(-c5ccc(S(=O)(=O)[O-])cc5)c5nc(c(-c6ccc(S(=O)(=O)[O-])cc6)c6ccc3[nH]6)C=C5)C=C4)cc2)CC(F)(F)F)c1
REMARK SMILES IDX 16 1 15 2 14 3 13 4 11 5 12 6 10 8 9 9 8 10 4 11 5 12 88 13
REMARK SMILES IDX 6 14 7 15 2 16 1 17 3 20 83 21 84 22 85 23 86 24 87 25 17 26
REMARK SMILES IDX 18 27 19 28 20 29 21 30 22 32 23 33 24 34 82 35 25 36 81 37
REMARK SMILES IDX 26 38 27 39 28 40 75 41 29 42 80 43 74 44 76 45 30 46 79 47
REMARK SMILES IDX 73 48 72 49 31 51 61 52 42 53 60 54 43 55 46 56 59 57 77 58
REMARK SMILES IDX 44 59 45 60 58 62 78 63 47 64 32 65 33 66 41 67 34 68 40 69
REMARK SMILES IDX 35 70 36 71 37 72 38 73 39 74 62 75 63 76 71 77 64 78 70 79
REMARK SMILES IDX 65 80 66 81 67 82 68 83 69 84 48 85 49 86 57 87 50 88 56 89
REMARK SMILES IDX 51 90 52 91 53 92 54 93 55 94
REMARK H PARENT 13 7 1 18 1 19 20 31 76 50 46 61
REMARK Flexibility Score: inf
ROOT
ATOM      1  C   UNL A   1      31.016  27.142  25.019  1.00  0.00     0.002 C 
ENDROOT
BRANCH   1   2
ATOM      2  C   UNL A   1      30.445  26.208  26.093  1.00  0.00     0.021 C 
BRANCH   2   3
ATOM      3  C   UNL A   1      30.620  24.727  25.762  1.00  0.00     0.116 C 
BRANCH   3   4
ATOM      4  N   UNL A   1      31.204  24.005  26.876  1.00  0.00    -0.355 N 
ATOM      5  C   UNL A   1      32.382  23.316  26.913  1.00  0.00     0.239 C 
ATOM      6  O   UNL A   1      32.655  22.659  27.923  1.00  0.00    -0.273 OA
ATOM      7  H   UNL A   1      30.685  24.013  27.713  1.00  0.00     0.163 HD
BRANCH   5   8
ATOM      8  C   UNL A   1      33.348  23.381  25.727  1.00  0.00     0.218 C 
BRANCH   8   9
ATOM      9  N   UNL A   1      34.141  22.146  25.567  1.00  0.00    -0.338 N 
BRANCH   9  10
ATOM     10  C   UNL A   1      33.641  21.138  24.764  1.00  0.00     0.130 A 
ATOM     11  C   UNL A   1      33.414  18.830  24.091  1.00  0.00     0.044 A 
ATOM     12  C   UNL A   1      32.450  19.182  23.159  1.00  0.00     0.034 A 
ATOM     13  C   UNL A   1      34.004  19.807  24.903  1.00  0.00     0.060 A 
ATOM     14  C   UNL A   1      32.152  20.519  23.058  1.00  0.00     0.114 A 
ATOM     15  N   UNL A   1      32.734  21.474  23.817  1.00  0.00    -0.239 NA
BRANCH  11  16
ATOM     16  C   UNL A   1      33.827  17.425  24.287  1.00  0.00     0.248 C 
ATOM     17  N   UNL A   1      32.916  16.460  23.973  1.00  0.00    -0.366 N 
ATOM     18  H   UNL A   1      33.146  15.510  24.086  1.00  0.00     0.159 HD
ATOM     19  H   UNL A   1      32.028  16.715  23.633  1.00  0.00     0.159 HD
ATOM     20  O   UNL A   1      34.956  17.143  24.667  1.00  0.00    -0.270 OA
ENDBRANCH  11  16
ENDBRANCH   9  10
BRANCH   9  21
ATOM     21  C   UNL A   1      35.514  22.139  26.127  1.00  0.00     0.234 C 
BRANCH  21  22
ATOM     22  C   UNL A   1      36.658  22.537  25.178  1.00  0.00     0.405 C 
ATOM     23  F   UNL A   1      37.861  22.083  25.585  1.00  0.00    -0.169 F 
ATOM     24  F   UNL A   1      36.435  22.011  23.947  1.00  0.00    -0.169 F 
ATOM     25  F   UNL A   1      36.750  23.876  25.021  1.00  0.00    -0.169 F 
ENDBRANCH  21  22
ENDBRANCH   9  21
ENDBRANCH   8   9
ENDBRANCH   5   8
ENDBRANCH   3   4
ENDBRANCH   2   3
ENDBRANCH   1   2
BRANCH   1  26
ATOM     26  C   UNL A   1      32.127  28.071  25.521  1.00  0.00     0.002 C 
BRANCH  26  27
ATOM     27  C   UNL A   1      33.508  27.419  25.608  1.00  0.00     0.021 C 
BRANCH  27  28
ATOM     28  C   UNL A   1      34.416  28.034  26.664  1.00  0.00     0.116 C 
BRANCH  28  29
ATOM     29  N   UNL A   1      33.995  29.384  27.013  1.00  0.00    -0.352 N 
ATOM     30  C   UNL A   1      34.635  30.293  27.818  1.00  0.00     0.251 C 
ATOM     31  H   UNL A   1      33.142  29.682  26.621  1.00  0.00     0.163 HD
ATOM     32  O   UNL A   1      34.058  31.302  28.208  1.00  0.00    -0.269 OA
BRANCH  30  33
ATOM     33  C   UNL A   1      36.030  30.022  28.220  1.00  0.00     0.039 A 
ATOM     34  C   UNL A   1      36.301  29.591  29.519  1.00  0.00     0.014 A 
ATOM     35  C   UNL A   1      37.059  30.158  27.284  1.00  0.00     0.014 A 
ATOM     36  C   UNL A   1      37.607  29.235  29.866  1.00  0.00     0.010 A 
ATOM     37  C   UNL A   1      38.341  29.733  27.609  1.00  0.00     0.010 A 
ATOM     38  C   UNL A   1      38.629  29.274  28.904  1.00  0.00    -0.014 A 
BRANCH  38  39
ATOM     39  C   UNL A   1      40.023  28.864  29.216  1.00  0.00     0.031 A 
ATOM     40  C   UNL A   1      40.974  29.877  29.793  1.00  0.00     0.074 A 
ATOM     41  C   UNL A   1      40.455  27.630  28.891  1.00  0.00     0.049 A 
ATOM     42  N   UNL A   1      42.263  29.781  29.986  1.00  0.00    -0.248 NA
ATOM     43  C   UNL A   1      40.403  31.180  30.175  1.00  0.00     0.031 C 
ATOM     44  C   UNL A   1      39.634  26.565  28.313  1.00  0.00     0.029 A 
ATOM     45  N   UNL A   1      41.706  27.071  28.982  1.00  0.00    -0.354 N 
ATOM     46  C   UNL A   1      42.661  31.017  30.481  1.00  0.00     0.074 A 
ATOM     47  C   UNL A   1      41.487  31.859  30.517  1.00  0.00     0.031 C 
ATOM     48  C   UNL A   1      40.398  25.479  28.113  1.00  0.00     0.029 A 
ATOM     49  C   UNL A   1      41.773  25.786  28.495  1.00  0.00     0.049 A 
ATOM     50  H   UNL A   1      42.482  27.543  29.361  1.00  0.00     0.167 HD
ATOM     51  C   UNL A   1      43.892  31.411  30.884  1.00  0.00     0.031 A 
ATOM     52  C   UNL A   1      42.826  24.957  28.350  1.00  0.00     0.031 A 
ATOM     53  C   UNL A   1      45.054  30.564  30.854  1.00  0.00     0.049 A 
ATOM     54  C   UNL A   1      44.193  25.426  28.774  1.00  0.00     0.074 A 
ATOM     55  C   UNL A   1      46.337  30.851  31.281  1.00  0.00     0.029 A 
ATOM     56  N   UNL A   1      45.073  29.264  30.370  1.00  0.00    -0.354 N 
ATOM     57  N   UNL A   1      44.544  26.585  29.280  1.00  0.00    -0.248 NA
ATOM     58  C   UNL A   1      45.305  24.478  28.616  1.00  0.00     0.031 C 
ATOM     59  C   UNL A   1      47.146  29.747  31.002  1.00  0.00     0.029 A 
ATOM     60  C   UNL A   1      46.351  28.744  30.469  1.00  0.00     0.049 A 
ATOM     61  H   UNL A   1      44.293  28.783  30.009  1.00  0.00     0.167 HD
ATOM     62  C   UNL A   1      45.907  26.487  29.542  1.00  0.00     0.074 A 
ATOM     63  C   UNL A   1      46.317  25.159  29.136  1.00  0.00     0.031 C 
ATOM     64  C   UNL A   1      46.739  27.411  30.080  1.00  0.00     0.031 A 
BRANCH  51  65
ATOM     65  C   UNL A   1      44.048  32.826  31.377  1.00  0.00    -0.014 A 
ATOM     66  C   UNL A   1      43.963  33.135  32.747  1.00  0.00     0.010 A 
ATOM     67  C   UNL A   1      44.326  33.856  30.461  1.00  0.00     0.010 A 
ATOM     68  C   UNL A   1      44.109  34.453  33.186  1.00  0.00     0.020 A 
ATOM     69  C   UNL A   1      44.507  35.172  30.899  1.00  0.00     0.020 A 
ATOM     70  C   UNL A   1      44.379  35.463  32.258  1.00  0.00     0.054 A 
BRANCH  70  71
ATOM     71  S   UNL A   1      44.590  37.160  32.861  1.00  0.00     0.124 S 
ATOM     72  O   UNL A   1      46.045  37.290  32.892  1.00  0.00    -0.237 OA
ATOM     73  O   UNL A   1      43.913  37.950  31.836  1.00  0.00    -0.237 OA
ATOM     74  O   UNL A   1      43.937  37.150  34.168  1.00  0.00    -0.744 OA
ENDBRANCH  70  71
ENDBRANCH  51  65
BRANCH  52  75
ATOM     75  C   UNL A   1      42.629  23.596  27.777  1.00  0.00    -0.014 A 
ATOM     76  C   UNL A   1      42.798  23.368  26.400  1.00  0.00     0.010 A 
ATOM     77  C   UNL A   1      42.282  22.515  28.609  1.00  0.00     0.010 A 
ATOM     78  C   UNL A   1      42.603  22.092  25.863  1.00  0.00     0.020 A 
ATOM     79  C   UNL A   1      42.117  21.232  28.081  1.00  0.00     0.020 A 
ATOM     80  C   UNL A   1      42.266  21.031  26.707  1.00  0.00     0.054 A 
BRANCH  80  81
ATOM     81  S   UNL A   1      42.062  19.375  25.994  1.00  0.00     0.124 S 
ATOM     82  O   UNL A   1      42.923  19.444  24.818  1.00  0.00    -0.237 OA
ATOM     83  O   UNL A   1      42.528  18.509  27.073  1.00  0.00    -0.237 OA
ATOM     84  O   UNL A   1      40.629  19.297  25.717  1.00  0.00    -0.744 OA
ENDBRANCH  80  81
ENDBRANCH  52  75
BRANCH  64  85
ATOM     85  C   UNL A   1      48.168  27.014  30.336  1.00  0.00    -0.014 A 
ATOM     86  C   UNL A   1      49.190  27.305  29.416  1.00  0.00     0.010 A 
ATOM     87  C   UNL A   1      48.505  26.440  31.577  1.00  0.00     0.010 A 
ATOM     88  C   UNL A   1      50.522  27.023  29.731  1.00  0.00     0.020 A 
ATOM     89  C   UNL A   1      49.837  26.184  31.907  1.00  0.00     0.020 A 
ATOM     90  C   UNL A   1      50.839  26.475  30.979  1.00  0.00     0.054 A 
BRANCH  90  91
ATOM     91  S   UNL A   1      52.582  26.209  31.399  1.00  0.00     0.124 S 
ATOM     92  O   UNL A   1      52.876  27.373  32.232  1.00  0.00    -0.237 OA
ATOM     93  O   UNL A   1      52.549  24.927  32.100  1.00  0.00    -0.237 OA
ATOM     94  O   UNL A   1      53.254  26.185  30.102  1.00  0.00    -0.744 OA
ENDBRANCH  90  91
ENDBRANCH  64  85
ENDBRANCH  38  39
ENDBRANCH  30  33
ENDBRANCH  28  29
ENDBRANCH  27  28
ENDBRANCH  26  27
ENDBRANCH   1  26
TORSDOF 21
ENDMDL
MODEL 2
REMARK VINA RESULT:     -10.2      1.704      2.689
REMARK SMILES NC(=O)c1ccnc(N(CC(=O)NCCCCCCNC(=O)c2ccc(-c3c4nc(c(-c5ccc(S(=O)(=O)[O-])cc5)c5ccc([nH]5)c(-c5ccc(S(=O)(=O)[O-])cc5)c5nc(c(-c6ccc(S(=O)(=O)[O-])cc6)c6ccc3[nH]6)C=C5)C=C4)cc2)CC(F)(F)F)c1
REMARK SMILES IDX 16 1 15 2 14 3 13 4 11 5 12 6 10 8 9 9 8 10 4 11 5 12 88 13
REMARK SMILES IDX 6 14 7 15 2 16 1 17 3 20 83 21 84 22 85 23 86 24 87 25 17 26
REMARK SMILES IDX 18 27 19 28 20 29 21 30 22 32 23 33 24 34 82 35 25 36 81 37
REMARK SMILES IDX 26 38 27 39 28 40 75 41 29 42 80 43 74 44 76 45 30 46 79 47
REMARK SMILES IDX 73 48 72 49 31 51 61 52 42 53 60 54 43 55 46 56 59 57 77 58
REMARK SMILES IDX 44 59 45 60 58 62 78 63 47 64 32 65 33 66 41 67 34 68 40 69
REMARK SMILES IDX 35 70 36 71 37 72 38 73 39 74 62 75 63 76 71 77 64 78 70 79
REMARK SMILES IDX 65 80 66 81 67 82 68 83 69 84 48 85 49 86 57 87 50 88 56 89
REMARK SMILES IDX 51 90 52 91 53 92 54 93 55 94
REMARK H PARENT 13 7 1 18 1 19 20 31 76 50 46 61
REMARK Flexibility Score: inf
ROOT
ATOM      1  C   UNL A   1      31.054  27.282  24.857  1.00  0.00     0.002 C 
ENDROOT
BRANCH   1   2
ATOM      2  C   UNL A   1      30.557  26.483  26.068  1.00  0.00     0.021 C 
BRANCH   2   3
ATOM      3  C   UNL A   1      30.608  24.971  25.857  1.00  0.00     0.116 C 
BRANCH   3   4
ATOM      4  N   UNL A   1      31.342  24.316  26.923  1.00  0.00    -0.355 N 
ATOM      5  C   UNL A   1      31.782  23.025  26.978  1.00  0.00     0.239 C 
ATOM      6  O   UNL A   1      32.285  22.613  28.028  1.00  0.00    -0.273 OA
ATOM      7  H   UNL A   1      31.549  24.875  27.707  1.00  0.00     0.163 HD
BRANCH   5   8
ATOM      8  C   UNL A   1      31.666  22.121  25.748  1.00  0.00     0.218 C 
BRANCH   8   9
ATOM      9  N   UNL A   1      32.883  22.132  24.914  1.00  0.00    -0.338 N 
BRANCH   9  10
ATOM     10  C   UNL A   1      33.254  23.315  24.301  1.00  0.00     0.130 A 
ATOM     11  C   UNL A   1      33.162  24.939  22.517  1.00  0.00     0.044 A 
ATOM     12  C   UNL A   1      33.980  25.797  23.237  1.00  0.00     0.034 A 
ATOM     13  C   UNL A   1      32.790  23.701  23.052  1.00  0.00     0.060 A 
ATOM     14  C   UNL A   1      34.420  25.346  24.457  1.00  0.00     0.114 A 
ATOM     15  N   UNL A   1      34.089  24.141  24.972  1.00  0.00    -0.239 NA
BRANCH  11  16
ATOM     16  C   UNL A   1      32.632  25.308  21.188  1.00  0.00     0.248 C 
ATOM     17  N   UNL A   1      31.528  26.108  21.160  1.00  0.00    -0.366 N 
ATOM     18  H   UNL A   1      31.139  26.379  20.298  1.00  0.00     0.159 HD
ATOM     19  H   UNL A   1      31.120  26.413  22.002  1.00  0.00     0.159 HD
ATOM     20  O   UNL A   1      33.192  24.950  20.159  1.00  0.00    -0.270 OA
ENDBRANCH  11  16
ENDBRANCH   9  10
BRANCH   9  21
ATOM     21  C   UNL A   1      33.739  20.921  24.936  1.00  0.00     0.234 C 
BRANCH  21  22
ATOM     22  C   UNL A   1      33.084  19.595  24.510  1.00  0.00     0.405 C 
ATOM     23  F   UNL A   1      33.979  18.675  24.095  1.00  0.00    -0.169 F 
ATOM     24  F   UNL A   1      32.422  19.052  25.563  1.00  0.00    -0.169 F 
ATOM     25  F   UNL A   1      32.177  19.766  23.524  1.00  0.00    -0.169 F 
ENDBRANCH  21  22
ENDBRANCH   9  21
ENDBRANCH   8   9
ENDBRANCH   5   8
ENDBRANCH   3   4
ENDBRANCH   2   3
ENDBRANCH   1   2
BRANCH   1  26
ATOM     26  C   UNL A   1      31.688  28.632  25.212  1.00  0.00     0.002 C 
BRANCH  26  27
ATOM     27  C   UNL A   1      33.176  28.741  24.876  1.00  0.00     0.021 C 
BRANCH  27  28
ATOM     28  C   UNL A   1      34.075  28.899  26.096  1.00  0.00     0.116 C 
BRANCH  28  29
ATOM     29  N   UNL A   1      33.812  30.148  26.798  1.00  0.00    -0.352 N 
ATOM     30  C   UNL A   1      34.532  30.717  27.818  1.00  0.00     0.251 C 
ATOM     31  H   UNL A   1      33.016  30.647  26.502  1.00  0.00     0.163 HD
ATOM     32  O   UNL A   1      34.071  31.649  28.468  1.00  0.00    -0.269 OA
BRANCH  30  33
ATOM     33  C   UNL A   1      35.869  30.172  28.130  1.00  0.00     0.039 A 
ATOM     34  C   UNL A   1      36.870  30.203  27.159  1.00  0.00     0.014 A 
ATOM     35  C   UNL A   1      36.130  29.671  29.408  1.00  0.00     0.014 A 
ATOM     36  C   UNL A   1      38.161  29.784  27.489  1.00  0.00     0.010 A 
ATOM     37  C   UNL A   1      37.430  29.326  29.756  1.00  0.00     0.010 A 
ATOM     38  C   UNL A   1      38.457  29.373  28.799  1.00  0.00    -0.014 A 
BRANCH  38  39
ATOM     39  C   UNL A   1      39.824  28.959  29.208  1.00  0.00     0.031 A 
ATOM     40  C   UNL A   1      40.729  29.965  29.866  1.00  0.00     0.074 A 
ATOM     41  C   UNL A   1      40.280  27.729  28.900  1.00  0.00     0.049 A 
ATOM     42  N   UNL A   1      42.001  29.866  30.152  1.00  0.00    -0.248 NA
ATOM     43  C   UNL A   1      40.130  31.263  30.221  1.00  0.00     0.031 C 
ATOM     44  C   UNL A   1      39.504  26.672  28.250  1.00  0.00     0.029 A 
ATOM     45  N   UNL A   1      41.521  27.169  29.076  1.00  0.00    -0.354 N 
ATOM     46  C   UNL A   1      42.360  31.096  30.691  1.00  0.00     0.074 A 
ATOM     47  C   UNL A   1      41.186  31.937  30.651  1.00  0.00     0.031 C 
ATOM     48  C   UNL A   1      40.282  25.588  28.093  1.00  0.00     0.029 A 
ATOM     49  C   UNL A   1      41.625  25.890  28.579  1.00  0.00     0.049 A 
ATOM     50  H   UNL A   1      42.266  27.637  29.517  1.00  0.00     0.167 HD
ATOM     51  C   UNL A   1      43.558  31.484  31.187  1.00  0.00     0.031 A 
ATOM     52  C   UNL A   1      42.686  25.063  28.501  1.00  0.00     0.031 A 
ATOM     53  C   UNL A   1      44.719  30.638  31.233  1.00  0.00     0.049 A 
ATOM     54  C   UNL A   1      44.018  25.527  29.031  1.00  0.00     0.074 A 
ATOM     55  C   UNL A   1      45.967  30.919  31.757  1.00  0.00     0.029 A 
ATOM     56  N   UNL A   1      44.775  29.344  30.735  1.00  0.00    -0.354 N 
ATOM     57  N   UNL A   1      44.330  26.679  29.576  1.00  0.00    -0.248 NA
ATOM     58  C   UNL A   1      45.139  24.580  28.943  1.00  0.00     0.031 C 
ATOM     59  C   UNL A   1      46.795  29.819  31.524  1.00  0.00     0.029 A 
ATOM     60  C   UNL A   1      46.043  28.822  30.921  1.00  0.00     0.049 A 
ATOM     61  H   UNL A   1      44.024  28.868  30.312  1.00  0.00     0.167 HD
ATOM     62  C   UNL A   1      45.670  26.578  29.936  1.00  0.00     0.074 A 
ATOM     63  C   UNL A   1      46.110  25.255  29.545  1.00  0.00     0.031 C 
ATOM     64  C   UNL A   1      46.459  27.495  30.546  1.00  0.00     0.031 A 
BRANCH  51  65
ATOM     65  C   UNL A   1      43.676  32.893  31.709  1.00  0.00    -0.014 A 
ATOM     66  C   UNL A   1      43.364  33.206  33.044  1.00  0.00     0.010 A 
ATOM     67  C   UNL A   1      44.148  33.912  30.862  1.00  0.00     0.010 A 
ATOM     68  C   UNL A   1      43.478  34.518  33.510  1.00  0.00     0.020 A 
ATOM     69  C   UNL A   1      44.296  35.220  31.332  1.00  0.00     0.020 A 
ATOM     70  C   UNL A   1      43.943  35.517  32.650  1.00  0.00     0.054 A 
BRANCH  70  71
ATOM     71  S   UNL A   1      44.106  37.206  33.289  1.00  0.00     0.124 S 
ATOM     72  O   UNL A   1      44.080  37.997  32.061  1.00  0.00    -0.237 OA
ATOM     73  O   UNL A   1      42.930  37.338  34.145  1.00  0.00    -0.237 OA
ATOM     74  O   UNL A   1      45.387  37.190  33.993  1.00  0.00    -0.744 OA
ENDBRANCH  70  71
ENDBRANCH  51  65
BRANCH  52  75
ATOM     75  C   UNL A   1      42.534  23.709  27.899  1.00  0.00    -0.014 A 
ATOM     76  C   UNL A   1      42.292  22.588  28.711  1.00  0.00     0.010 A 
ATOM     77  C   UNL A   1      42.618  23.535  26.505  1.00  0.00     0.010 A 
ATOM     78  C   UNL A   1      42.159  21.316  28.145  1.00  0.00     0.020 A 
ATOM     79  C   UNL A   1      42.455  22.271  25.932  1.00  0.00     0.020 A 
ATOM     80  C   UNL A   1      42.239  21.167  26.758  1.00  0.00     0.054 A 
BRANCH  80  81
ATOM     81  S   UNL A   1      42.019  19.513  26.042  1.00  0.00     0.124 S 
ATOM     82  O   UNL A   1      42.875  19.577  24.863  1.00  0.00    -0.237 OA
ATOM     83  O   UNL A   1      42.482  18.641  27.118  1.00  0.00    -0.237 OA
ATOM     84  O   UNL A   1      40.584  19.448  25.771  1.00  0.00    -0.744 OA
ENDBRANCH  80  81
ENDBRANCH  52  75
BRANCH  64  85
ATOM     85  C   UNL A   1      47.866  27.094  30.901  1.00  0.00    -0.014 A 
ATOM     86  C   UNL A   1      48.955  27.418  30.074  1.00  0.00     0.010 A 
ATOM     87  C   UNL A   1      48.107  26.482  32.145  1.00  0.00     0.010 A 
ATOM     88  C   UNL A   1      50.261  27.131  30.485  1.00  0.00     0.020 A 
ATOM     89  C   UNL A   1      49.411  26.220  32.571  1.00  0.00     0.020 A 
ATOM     90  C   UNL A   1      50.481  26.543  31.736  1.00  0.00     0.054 A 
BRANCH  90  91
ATOM     91  S   UNL A   1      52.187  26.270  32.284  1.00  0.00     0.124 S 
ATOM     92  O   UNL A   1      51.993  25.505  33.513  1.00  0.00    -0.237 OA
ATOM     93  O   UNL A   1      52.765  25.527  31.166  1.00  0.00    -0.237 OA
ATOM     94  O   UNL A   1      52.715  27.620  32.467  1.00  0.00    -0.744 OA
ENDBRANCH  90  91
ENDBRANCH  64  85
ENDBRANCH  38  39
ENDBRANCH  30  33
ENDBRANCH  28  29
ENDBRANCH  27  28
ENDBRANCH  26  27
ENDBRANCH   1  26
TORSDOF 21
ENDMDL
MODEL 3
REMARK VINA RESULT:     -10.0      3.247      4.224
REMARK SMILES NC(=O)c1ccnc(N(CC(=O)NCCCCCCNC(=O)c2ccc(-c3c4nc(c(-c5ccc(S(=O)(=O)[O-])cc5)c5ccc([nH]5)c(-c5ccc(S(=O)(=O)[O-])cc5)c5nc(c(-c6ccc(S(=O)(=O)[O-])cc6)c6ccc3[nH]6)C=C5)C=C4)cc2)CC(F)(F)F)c1
REMARK SMILES IDX 16 1 15 2 14 3 13 4 11 5 12 6 10 8 9 9 8 10 4 11 5 12 88 13
REMARK SMILES IDX 6 14 7 15 2 16 1 17 3 20 83 21 84 22 85 23 86 24 87 25 17 26
REMARK SMILES IDX 18 27 19 28 20 29 21 30 22 32 23 33 24 34 82 35 25 36 81 37
REMARK SMILES IDX 26 38 27 39 28 40 75 41 29 42 80 43 74 44 76 45 30 46 79 47
REMARK SMILES IDX 73 48 72 49 31 51 61 52 42 53 60 54 43 55 46 56 59 57 77 58
REMARK SMILES IDX 44 59 45 60 58 62 78 63 47 64 32 65 33 66 41 67 34 68 40 69
REMARK SMILES IDX 35 70 36 71 37 72 38 73 39 74 62 75 63 76 71 77 64 78 70 79
REMARK SMILES IDX 65 80 66 81 67 82 68 83 69 84 48 85 49 86 57 87 50 88 56 89
REMARK SMILES IDX 51 90 52 91 53 92 54 93 55 94
REMARK H PARENT 13 7 1 18 1 19 20 31 76 50 46 61
REMARK Flexibility Score: inf
ROOT
ATOM      1  C   UNL A   1      31.020  27.290  24.900  1.00  0.00     0.002 C 
ENDROOT
BRANCH   1   2
ATOM      2  C   UNL A   1      30.525  26.489  26.110  1.00  0.00     0.021 C 
BRANCH   2   3
ATOM      3  C   UNL A   1      30.537  24.979  25.882  1.00  0.00     0.116 C 
BRANCH   3   4
ATOM      4  N   UNL A   1      31.291  24.296  26.916  1.00  0.00    -0.355 N 
ATOM      5  C   UNL A   1      31.716  22.999  26.937  1.00  0.00     0.239 C 
ATOM      6  O   UNL A   1      32.242  22.563  27.966  1.00  0.00    -0.273 OA
ATOM      7  H   UNL A   1      31.527  24.839  27.703  1.00  0.00     0.163 HD
BRANCH   5   8
ATOM      8  C   UNL A   1      31.555  22.118  25.696  1.00  0.00     0.218 C 
BRANCH   8   9
ATOM      9  N   UNL A   1      32.759  22.104  24.844  1.00  0.00    -0.338 N 
BRANCH   9  10
ATOM     10  C   UNL A   1      33.193  23.295  24.293  1.00  0.00     0.130 A 
ATOM     11  C   UNL A   1      33.165  25.029  22.613  1.00  0.00     0.044 A 
ATOM     12  C   UNL A   1      34.058  25.785  23.358  1.00  0.00     0.034 A 
ATOM     13  C   UNL A   1      32.723  23.787  23.084  1.00  0.00     0.060 A 
ATOM     14  C   UNL A   1      34.499  25.231  24.534  1.00  0.00     0.114 A 
ATOM     15  N   UNL A   1      34.101  24.020  24.986  1.00  0.00    -0.239 NA
BRANCH  11  16
ATOM     16  C   UNL A   1      32.625  25.514  21.325  1.00  0.00     0.248 C 
ATOM     17  N   UNL A   1      31.631  26.445  21.380  1.00  0.00    -0.366 N 
ATOM     18  H   UNL A   1      31.240  26.798  20.548  1.00  0.00     0.159 HD
ATOM     19  H   UNL A   1      31.303  26.765  22.252  1.00  0.00     0.159 HD
ATOM     20  O   UNL A   1      33.089  25.130  20.258  1.00  0.00    -0.270 OA
ENDBRANCH  11  16
ENDBRANCH   9  10
BRANCH   9  21
ATOM     21  C   UNL A   1      33.541  20.844  24.785  1.00  0.00     0.234 C 
BRANCH  21  22
ATOM     22  C   UNL A   1      32.860  19.630  24.129  1.00  0.00     0.405 C 
ATOM     23  F   UNL A   1      33.735  18.674  23.757  1.00  0.00    -0.169 F 
ATOM     24  F   UNL A   1      32.001  19.056  25.009  1.00  0.00    -0.169 F 
ATOM     25  F   UNL A   1      32.135  19.975  23.043  1.00  0.00    -0.169 F 
ENDBRANCH  21  22
ENDBRANCH   9  21
ENDBRANCH   8   9
ENDBRANCH   5   8
ENDBRANCH   3   4
ENDBRANCH   2   3
ENDBRANCH   1   2
BRANCH   1  26
ATOM     26  C   UNL A   1      31.648  28.642  25.256  1.00  0.00     0.002 C 
BRANCH  26  27
ATOM     27  C   UNL A   1      33.135  28.759  24.919  1.00  0.00     0.021 C 
BRANCH  27  28
ATOM     28  C   UNL A   1      34.011  29.128  26.109  1.00  0.00     0.116 C 
BRANCH  28  29
ATOM     29  N   UNL A   1      33.735  30.479  26.580  1.00  0.00    -0.352 N 
ATOM     30  C   UNL A   1      34.343  31.162  27.603  1.00  0.00     0.251 C 
ATOM     31  H   UNL A   1      33.021  30.961  26.103  1.00  0.00     0.163 HD
ATOM     32  O   UNL A   1      33.857  32.201  28.039  1.00  0.00    -0.269 OA
BRANCH  30  33
ATOM     33  C   UNL A   1      35.585  30.613  28.181  1.00  0.00     0.039 A 
ATOM     34  C   UNL A   1      36.820  31.078  27.730  1.00  0.00     0.014 A 
ATOM     35  C   UNL A   1      35.511  29.664  29.205  1.00  0.00     0.014 A 
ATOM     36  C   UNL A   1      37.990  30.634  28.351  1.00  0.00     0.010 A 
ATOM     37  C   UNL A   1      36.669  29.282  29.870  1.00  0.00     0.010 A 
ATOM     38  C   UNL A   1      37.920  29.757  29.446  1.00  0.00    -0.014 A 
BRANCH  38  39
ATOM     39  C   UNL A   1      39.134  29.292  30.164  1.00  0.00     0.031 A 
ATOM     40  C   UNL A   1      39.568  30.009  31.414  1.00  0.00     0.074 A 
ATOM     41  C   UNL A   1      39.892  28.306  29.647  1.00  0.00     0.049 A 
ATOM     42  N   UNL A   1      40.673  29.876  32.100  1.00  0.00    -0.248 NA
ATOM     43  C   UNL A   1      38.649  31.031  31.945  1.00  0.00     0.031 C 
ATOM     44  C   UNL A   1      39.586  27.545  28.433  1.00  0.00     0.029 A 
ATOM     45  N   UNL A   1      41.093  27.789  30.067  1.00  0.00    -0.354 N 
ATOM     46  C   UNL A   1      40.596  30.815  33.122  1.00  0.00     0.074 A 
ATOM     47  C   UNL A   1      39.359  31.541  32.939  1.00  0.00     0.031 C 
ATOM     48  C   UNL A   1      40.565  26.652  28.215  1.00  0.00     0.029 A 
ATOM     49  C   UNL A   1      41.595  26.813  29.238  1.00  0.00     0.049 A 
ATOM     50  H   UNL A   1      41.551  28.088  30.885  1.00  0.00     0.167 HD
ATOM     51  C   UNL A   1      41.470  31.044  34.128  1.00  0.00     0.031 A 
ATOM     52  C   UNL A   1      42.762  26.141  29.281  1.00  0.00     0.031 A 
ATOM     53  C   UNL A   1      42.694  30.311  34.308  1.00  0.00     0.049 A 
ATOM     54  C   UNL A   1      43.736  26.433  30.391  1.00  0.00     0.074 A 
ATOM     55  C   UNL A   1      43.628  30.433  35.321  1.00  0.00     0.029 A 
ATOM     56  N   UNL A   1      43.155  29.318  33.455  1.00  0.00    -0.354 N 
ATOM     57  N   UNL A   1      43.629  27.296  31.374  1.00  0.00    -0.248 NA
ATOM     58  C   UNL A   1      44.985  25.658  30.407  1.00  0.00     0.031 C 
ATOM     59  C   UNL A   1      44.681  29.557  35.050  1.00  0.00     0.029 A 
ATOM     60  C   UNL A   1      44.370  28.835  33.908  1.00  0.00     0.049 A 
ATOM     61  H   UNL A   1      42.687  29.005  32.648  1.00  0.00     0.167 HD
ATOM     62  C   UNL A   1      44.773  27.135  32.147  1.00  0.00     0.074 A 
ATOM     63  C   UNL A   1      45.561  26.096  31.519  1.00  0.00     0.031 C 
ATOM     64  C   UNL A   1      45.132  27.783  33.283  1.00  0.00     0.031 A 
BRANCH  51  65
ATOM     65  C   UNL A   1      41.142  32.142  35.107  1.00  0.00    -0.014 A 
ATOM     66  C   UNL A   1      40.493  31.865  36.323  1.00  0.00     0.010 A 
ATOM     67  C   UNL A   1      41.525  33.465  34.823  1.00  0.00     0.010 A 
ATOM     68  C   UNL A   1      40.194  32.897  37.218  1.00  0.00     0.020 A 
ATOM     69  C   UNL A   1      41.259  34.495  35.730  1.00  0.00     0.020 A 
ATOM     70  C   UNL A   1      40.579  34.205  36.914  1.00  0.00     0.054 A 
BRANCH  70  71
ATOM     71  S   UNL A   1      40.202  35.519  38.105  1.00  0.00     0.124 S 
ATOM     72  O   UNL A   1      40.112  36.694  37.241  1.00  0.00    -0.237 OA
ATOM     73  O   UNL A   1      38.939  35.071  38.686  1.00  0.00    -0.237 OA
ATOM     74  O   UNL A   1      41.345  35.502  39.016  1.00  0.00    -0.744 OA
ENDBRANCH  70  71
ENDBRANCH  51  65
BRANCH  52  75
ATOM     75  C   UNL A   1      43.075  25.123  28.239  1.00  0.00    -0.014 A 
ATOM     76  C   UNL A   1      43.846  25.464  27.114  1.00  0.00     0.010 A 
ATOM     77  C   UNL A   1      42.611  23.801  28.371  1.00  0.00     0.010 A 
ATOM     78  C   UNL A   1      44.130  24.511  26.132  1.00  0.00     0.020 A 
ATOM     79  C   UNL A   1      42.919  22.837  27.407  1.00  0.00     0.020 A 
ATOM     80  C   UNL A   1      43.666  23.202  26.286  1.00  0.00     0.054 A 
BRANCH  80  81
ATOM     81  S   UNL A   1      44.085  21.970  25.021  1.00  0.00     0.124 S 
ATOM     82  O   UNL A   1      43.256  20.836  25.415  1.00  0.00    -0.237 OA
ATOM     83  O   UNL A   1      43.696  22.643  23.785  1.00  0.00    -0.237 OA
ATOM     84  O   UNL A   1      45.525  21.781  25.193  1.00  0.00    -0.744 OA
ENDBRANCH  80  81
ENDBRANCH  52  75
BRANCH  64  85
ATOM     85  C   UNL A   1      46.398  27.353  33.974  1.00  0.00    -0.014 A 
ATOM     86  C   UNL A   1      47.627  27.985  33.722  1.00  0.00     0.010 A 
ATOM     87  C   UNL A   1      46.324  26.371  34.980  1.00  0.00     0.010 A 
ATOM     88  C   UNL A   1      48.762  27.639  34.461  1.00  0.00     0.020 A 
ATOM     89  C   UNL A   1      47.449  26.042  35.740  1.00  0.00     0.020 A 
ATOM     90  C   UNL A   1      48.663  26.677  35.472  1.00  0.00     0.054 A 
BRANCH  90  91
ATOM     91  S   UNL A   1      50.127  26.315  36.479  1.00  0.00     0.124 S 
ATOM     92  O   UNL A   1      49.532  25.946  37.761  1.00  0.00    -0.237 OA
ATOM     93  O   UNL A   1      50.758  25.222  35.742  1.00  0.00    -0.237 OA
ATOM     94  O   UNL A   1      50.872  27.572  36.476  1.00  0.00    -0.744 OA
ENDBRANCH  90  91
ENDBRANCH  64  85
ENDBRANCH  38  39
ENDBRANCH  30  33
ENDBRANCH  28  29
ENDBRANCH  27  28
ENDBRANCH  26  27
ENDBRANCH   1  26
TORSDOF 21
ENDMDL
