MODEL 1
REMARK VINA RESULT:      -9.3      0.000      0.000
REMARK SMILES Cc1c(CC(=O)NCCCCCCNC(=O)c2ccc(-c3c4nc(c(-c5ccc(S(=O)(=O)[O-])cc5)c5ccc([nH]5)c(-c5ccc(S(=O)(=O)[O-])cc5)c5nc(c(-c6ccc(S(=O)(=O)[O-])cc6)c6ccc3[nH]6)C=C5)C=C4)cc2)cc(-c2ccc(S(C)(=O)=O)cc2)n1-c1ccccc1
REMARK SMILES IDX 10 1 9 2 8 3 7 4 5 5 6 6 4 8 3 9 1 10 2 11 89 12 77 13 78 14
REMARK SMILES IDX 90 15 91 16 95 17 92 18 94 19 93 20 79 21 80 22 88 23 81 24
REMARK SMILES IDX 87 25 82 26 83 27 84 28 85 29 86 30 11 31 12 32 13 33 14 34
REMARK SMILES IDX 15 35 16 37 17 38 18 39 76 40 19 41 75 42 20 43 21 44 22 45
REMARK SMILES IDX 69 46 23 47 74 48 68 49 70 50 24 51 73 52 67 53 66 54 25 56
REMARK SMILES IDX 55 57 36 58 54 59 37 60 40 61 53 62 71 63 38 64 39 65 52 67
REMARK SMILES IDX 72 68 41 69 26 70 27 71 35 72 28 73 34 74 29 75 30 76 31 77
REMARK SMILES IDX 32 78 33 79 56 80 57 81 65 82 58 83 64 84 59 85 60 86 61 87
REMARK SMILES IDX 62 88 63 89 42 90 43 91 51 92 44 93 50 94 45 95 46 96 47 97
REMARK SMILES IDX 48 98 49 99
REMARK H PARENT 7 7 14 36 70 55 40 66
REMARK Flexibility Score: inf
ROOT
ATOM      1  C   UNL A   1      47.715  32.694  26.866  1.00  0.00     0.002 C 
ENDROOT
BRANCH   1   2
ATOM      2  C   UNL A   1      47.731  31.374  27.647  1.00  0.00     0.021 C 
BRANCH   2   3
ATOM      3  C   UNL A   1      46.936  30.244  26.992  1.00  0.00     0.116 C 
BRANCH   3   4
ATOM      4  N   UNL A   1      47.797  29.146  26.588  1.00  0.00    -0.356 N 
ATOM      5  C   UNL A   1      47.544  28.127  25.712  1.00  0.00     0.224 C 
ATOM      6  O   UNL A   1      48.414  27.267  25.551  1.00  0.00    -0.275 OA
ATOM      7  H   UNL A   1      48.690  29.135  27.003  1.00  0.00     0.163 HD
BRANCH   5   8
ATOM      8  C   UNL A   1      46.253  28.097  24.912  1.00  0.00     0.137 C 
BRANCH   8   9
ATOM      9  C   UNL A   1      45.201  27.220  25.509  1.00  0.00    -0.017 A 
ATOM     10  C   UNL A   1      43.568  28.950  26.537  1.00  0.00     0.065 C 
ATOM     11  C   UNL A   1      44.027  27.582  26.160  1.00  0.00     0.024 A 
ATOM     12  N   UNL A   1      43.324  26.422  26.481  1.00  0.00    -0.314 N 
ATOM     13  C   UNL A   1      45.252  25.810  25.508  1.00  0.00     0.033 A 
ATOM     14  C   UNL A   1      44.079  25.335  26.052  1.00  0.00     0.053 A 
BRANCH  12  15
ATOM     15  C   UNL A   1      42.044  26.340  27.107  1.00  0.00     0.046 A 
ATOM     16  C   UNL A   1      41.936  26.460  28.500  1.00  0.00     0.026 A 
ATOM     17  C   UNL A   1      40.913  26.036  26.343  1.00  0.00     0.026 A 
ATOM     18  C   UNL A   1      40.704  26.264  29.126  1.00  0.00     0.002 A 
ATOM     19  C   UNL A   1      39.685  25.830  26.979  1.00  0.00     0.002 A 
ATOM     20  C   UNL A   1      39.582  25.942  28.366  1.00  0.00     0.000 A 
ENDBRANCH  12  15
BRANCH  14  21
ATOM     21  C   UNL A   1      43.661  23.945  26.092  1.00  0.00    -0.001 A 
ATOM     22  C   UNL A   1      43.432  23.231  24.907  1.00  0.00     0.011 A 
ATOM     23  C   UNL A   1      43.494  23.334  27.339  1.00  0.00     0.011 A 
ATOM     24  C   UNL A   1      42.966  21.928  24.976  1.00  0.00     0.021 A 
ATOM     25  C   UNL A   1      43.033  22.035  27.415  1.00  0.00     0.021 A 
ATOM     26  C   UNL A   1      42.747  21.360  26.236  1.00  0.00     0.067 A 
BRANCH  26  27
ATOM     27  S   UNL A   1      42.050  19.751  26.357  1.00  0.00     0.175 S 
ATOM     28  C   UNL A   1      40.307  20.106  26.180  1.00  0.00     0.163 C 
ATOM     29  O   UNL A   1      42.607  19.050  25.216  1.00  0.00    -0.224 OA
ATOM     30  O   UNL A   1      42.271  19.272  27.702  1.00  0.00    -0.224 OA
ENDBRANCH  26  27
ENDBRANCH  14  21
ENDBRANCH   8   9
ENDBRANCH   5   8
ENDBRANCH   3   4
ENDBRANCH   2   3
ENDBRANCH   1   2
BRANCH   1  31
ATOM     31  C   UNL A   1      47.870  33.970  27.705  1.00  0.00     0.002 C 
BRANCH  31  32
ATOM     32  C   UNL A   1      47.919  35.312  26.945  1.00  0.00     0.021 C 
BRANCH  32  33
ATOM     33  C   UNL A   1      46.579  35.974  26.541  1.00  0.00     0.116 C 
BRANCH  33  34
ATOM     34  N   UNL A   1      45.957  35.397  25.370  1.00  0.00    -0.352 N 
ATOM     35  C   UNL A   1      44.833  34.588  25.271  1.00  0.00     0.251 C 
ATOM     36  H   UNL A   1      46.395  35.610  24.515  1.00  0.00     0.163 HD
ATOM     37  O   UNL A   1      44.516  34.229  24.137  1.00  0.00    -0.269 OA
BRANCH  35  38
ATOM     38  C   UNL A   1      44.089  34.034  26.469  1.00  0.00     0.039 A 
ATOM     39  C   UNL A   1      43.531  34.944  27.349  1.00  0.00     0.014 A 
ATOM     40  C   UNL A   1      44.140  32.701  26.930  1.00  0.00     0.014 A 
ATOM     41  C   UNL A   1      42.985  34.517  28.599  1.00  0.00     0.010 A 
ATOM     42  C   UNL A   1      43.654  32.285  28.260  1.00  0.00     0.010 A 
ATOM     43  C   UNL A   1      43.060  33.184  29.167  1.00  0.00    -0.014 A 
BRANCH  43  44
ATOM     44  C   UNL A   1      42.856  33.100  30.815  1.00  0.00     0.031 A 
ATOM     45  C   UNL A   1      42.563  31.659  30.978  1.00  0.00     0.074 A 
ATOM     46  C   UNL A   1      42.640  33.800  32.015  1.00  0.00     0.049 A 
ATOM     47  N   UNL A   1      41.552  31.204  30.297  1.00  0.00    -0.248 NA
ATOM     48  C   UNL A   1      43.489  30.640  31.456  1.00  0.00     0.031 C 
ATOM     49  C   UNL A   1      42.304  35.214  32.198  1.00  0.00     0.029 A 
ATOM     50  N   UNL A   1      42.689  33.432  33.405  1.00  0.00    -0.354 N 
ATOM     51  C   UNL A   1      41.517  29.853  30.486  1.00  0.00     0.074 A 
ATOM     52  C   UNL A   1      42.848  29.549  31.013  1.00  0.00     0.031 C 
ATOM     53  C   UNL A   1      42.462  35.648  33.485  1.00  0.00     0.029 A 
ATOM     54  C   UNL A   1      42.764  34.526  34.367  1.00  0.00     0.049 A 
ATOM     55  H   UNL A   1      42.672  32.490  33.691  1.00  0.00     0.167 HD
ATOM     56  C   UNL A   1      40.298  29.401  30.904  1.00  0.00     0.031 A 
ATOM     57  C   UNL A   1      42.874  34.537  35.764  1.00  0.00     0.031 A 
ATOM     58  C   UNL A   1      40.268  29.287  32.341  1.00  0.00     0.049 A 
ATOM     59  C   UNL A   1      42.047  33.387  36.143  1.00  0.00     0.074 A 
ATOM     60  C   UNL A   1      41.163  28.751  33.247  1.00  0.00     0.029 A 
ATOM     61  N   UNL A   1      39.492  30.196  33.033  1.00  0.00    -0.354 N 
ATOM     62  N   UNL A   1      40.751  33.423  36.067  1.00  0.00    -0.248 NA
ATOM     63  C   UNL A   1      42.621  32.168  36.689  1.00  0.00     0.031 C 
ATOM     64  C   UNL A   1      41.231  29.703  34.286  1.00  0.00     0.029 A 
ATOM     65  C   UNL A   1      40.120  30.533  34.217  1.00  0.00     0.049 A 
ATOM     66  H   UNL A   1      38.625  30.550  32.729  1.00  0.00     0.167 HD
ATOM     67  C   UNL A   1      40.430  32.102  35.995  1.00  0.00     0.074 A 
ATOM     68  C   UNL A   1      41.526  31.409  36.652  1.00  0.00     0.031 C 
ATOM     69  C   UNL A   1      39.670  31.701  34.942  1.00  0.00     0.031 A 
BRANCH  56  70
ATOM     70  C   UNL A   1      39.139  29.924  30.072  1.00  0.00    -0.014 A 
ATOM     71  C   UNL A   1      38.578  31.168  30.389  1.00  0.00     0.010 A 
ATOM     72  C   UNL A   1      38.510  29.150  29.065  1.00  0.00     0.010 A 
ATOM     73  C   UNL A   1      37.408  31.604  29.748  1.00  0.00     0.020 A 
ATOM     74  C   UNL A   1      37.325  29.560  28.449  1.00  0.00     0.020 A 
ATOM     75  C   UNL A   1      36.779  30.791  28.796  1.00  0.00     0.054 A 
BRANCH  75  76
ATOM     76  S   UNL A   1      35.214  31.344  28.063  1.00  0.00     0.124 S 
ATOM     77  O   UNL A   1      34.386  31.614  29.239  1.00  0.00    -0.237 OA
ATOM     78  O   UNL A   1      35.628  32.529  27.316  1.00  0.00    -0.237 OA
ATOM     79  O   UNL A   1      34.774  30.206  27.260  1.00  0.00    -0.744 OA
ENDBRANCH  75  76
ENDBRANCH  56  70
BRANCH  57  80
ATOM     80  C   UNL A   1      43.185  35.361  37.070  1.00  0.00    -0.014 A 
ATOM     81  C   UNL A   1      43.934  36.590  36.989  1.00  0.00     0.010 A 
ATOM     82  C   UNL A   1      42.418  35.250  38.246  1.00  0.00     0.010 A 
ATOM     83  C   UNL A   1      43.808  37.672  37.900  1.00  0.00     0.020 A 
ATOM     84  C   UNL A   1      42.308  36.325  39.194  1.00  0.00     0.020 A 
ATOM     85  C   UNL A   1      42.958  37.549  38.989  1.00  0.00     0.054 A 
BRANCH  85  86
ATOM     86  S   UNL A   1      42.599  39.034  40.016  1.00  0.00     0.124 S 
ATOM     87  O   UNL A   1      43.136  38.671  41.324  1.00  0.00    -0.237 OA
ATOM     88  O   UNL A   1      43.324  40.093  39.315  1.00  0.00    -0.237 OA
ATOM     89  O   UNL A   1      41.143  39.152  39.955  1.00  0.00    -0.744 OA
ENDBRANCH  85  86
ENDBRANCH  57  80
BRANCH  69  90
ATOM     90  C   UNL A   1      38.508  32.590  34.520  1.00  0.00    -0.014 A 
ATOM     91  C   UNL A   1      37.226  32.615  35.118  1.00  0.00     0.010 A 
ATOM     92  C   UNL A   1      38.700  33.408  33.392  1.00  0.00     0.010 A 
ATOM     93  C   UNL A   1      36.166  33.352  34.563  1.00  0.00     0.020 A 
ATOM     94  C   UNL A   1      37.662  34.183  32.859  1.00  0.00     0.020 A 
ATOM     95  C   UNL A   1      36.390  34.120  33.422  1.00  0.00     0.054 A 
BRANCH  95  96
ATOM     96  S   UNL A   1      34.994  34.984  32.649  1.00  0.00     0.124 S 
ATOM     97  O   UNL A   1      35.279  36.382  32.971  1.00  0.00    -0.237 OA
ATOM     98  O   UNL A   1      35.133  34.632  31.240  1.00  0.00    -0.237 OA
ATOM     99  O   UNL A   1      33.824  34.430  33.328  1.00  0.00    -0.744 OA
ENDBRANCH  95  96
ENDBRANCH  69  90
ENDBRANCH  43  44
ENDBRANCH  35  38
ENDBRANCH  33  34
ENDBRANCH  32  33
ENDBRANCH  31  32
ENDBRANCH   1  31
TORSDOF 20
ENDMDL
MODEL 2
REMARK VINA RESULT:      -9.2      3.214      8.350
REMARK SMILES Cc1c(CC(=O)NCCCCCCNC(=O)c2ccc(-c3c4nc(c(-c5ccc(S(=O)(=O)[O-])cc5)c5ccc([nH]5)c(-c5ccc(S(=O)(=O)[O-])cc5)c5nc(c(-c6ccc(S(=O)(=O)[O-])cc6)c6ccc3[nH]6)C=C5)C=C4)cc2)cc(-c2ccc(S(C)(=O)=O)cc2)n1-c1ccccc1
REMARK SMILES IDX 10 1 9 2 8 3 7 4 5 5 6 6 4 8 3 9 1 10 2 11 89 12 77 13 78 14
REMARK SMILES IDX 90 15 91 16 95 17 92 18 94 19 93 20 79 21 80 22 88 23 81 24
REMARK SMILES IDX 87 25 82 26 83 27 84 28 85 29 86 30 11 31 12 32 13 33 14 34
REMARK SMILES IDX 15 35 16 37 17 38 18 39 76 40 19 41 75 42 20 43 21 44 22 45
REMARK SMILES IDX 69 46 23 47 74 48 68 49 70 50 24 51 73 52 67 53 66 54 25 56
REMARK SMILES IDX 55 57 36 58 54 59 37 60 40 61 53 62 71 63 38 64 39 65 52 67
REMARK SMILES IDX 72 68 41 69 26 70 27 71 35 72 28 73 34 74 29 75 30 76 31 77
REMARK SMILES IDX 32 78 33 79 56 80 57 81 65 82 58 83 64 84 59 85 60 86 61 87
REMARK SMILES IDX 62 88 63 89 42 90 43 91 51 92 44 93 50 94 45 95 46 96 47 97
REMARK SMILES IDX 48 98 49 99
REMARK H PARENT 7 7 14 36 70 55 40 66
REMARK Flexibility Score: inf
ROOT
ATOM      1  C   UNL A   1      49.239  26.988  29.422  1.00  0.00     0.002 C 
ENDROOT
BRANCH   1   2
ATOM      2  C   UNL A   1      48.245  26.791  28.272  1.00  0.00     0.021 C 
BRANCH   2   3
ATOM      3  C   UNL A   1      48.393  27.797  27.130  1.00  0.00     0.116 C 
BRANCH   3   4
ATOM      4  N   UNL A   1      48.751  27.145  25.883  1.00  0.00    -0.356 N 
ATOM      5  C   UNL A   1      48.014  27.002  24.740  1.00  0.00     0.224 C 
ATOM      6  O   UNL A   1      48.506  26.364  23.805  1.00  0.00    -0.275 OA
ATOM      7  H   UNL A   1      49.653  26.752  25.856  1.00  0.00     0.163 HD
BRANCH   5   8
ATOM      8  C   UNL A   1      46.656  27.669  24.606  1.00  0.00     0.137 C 
BRANCH   8   9
ATOM      9  C   UNL A   1      45.546  26.895  25.239  1.00  0.00    -0.017 A 
ATOM     10  C   UNL A   1      44.175  28.762  26.403  1.00  0.00     0.065 C 
ATOM     11  C   UNL A   1      44.456  27.364  25.966  1.00  0.00     0.024 A 
ATOM     12  N   UNL A   1      43.646  26.280  26.297  1.00  0.00    -0.314 N 
ATOM     13  C   UNL A   1      45.437  25.489  25.200  1.00  0.00     0.033 A 
ATOM     14  C   UNL A   1      44.250  25.130  25.798  1.00  0.00     0.053 A 
BRANCH  12  15
ATOM     15  C   UNL A   1      42.400  26.319  26.992  1.00  0.00     0.046 A 
ATOM     16  C   UNL A   1      41.226  26.662  26.306  1.00  0.00     0.026 A 
ATOM     17  C   UNL A   1      42.366  26.118  28.375  1.00  0.00     0.026 A 
ATOM     18  C   UNL A   1      40.027  26.816  27.004  1.00  0.00     0.002 A 
ATOM     19  C   UNL A   1      41.165  26.285  29.069  1.00  0.00     0.002 A 
ATOM     20  C   UNL A   1      40.000  26.634  28.385  1.00  0.00     0.000 A 
ENDBRANCH  12  15
BRANCH  14  21
ATOM     21  C   UNL A   1      43.681  23.794  25.825  1.00  0.00    -0.001 A 
ATOM     22  C   UNL A   1      42.376  23.580  26.290  1.00  0.00     0.011 A 
ATOM     23  C   UNL A   1      44.464  22.726  25.375  1.00  0.00     0.011 A 
ATOM     24  C   UNL A   1      41.885  22.287  26.371  1.00  0.00     0.021 A 
ATOM     25  C   UNL A   1      43.980  21.435  25.449  1.00  0.00     0.021 A 
ATOM     26  C   UNL A   1      42.711  21.230  25.973  1.00  0.00     0.067 A 
BRANCH  26  27
ATOM     27  S   UNL A   1      42.160  19.572  26.168  1.00  0.00     0.175 S 
ATOM     28  C   UNL A   1      40.400  19.753  25.914  1.00  0.00     0.163 C 
ATOM     29  O   UNL A   1      42.821  18.863  25.090  1.00  0.00    -0.224 OA
ATOM     30  O   UNL A   1      42.372  19.193  27.546  1.00  0.00    -0.224 OA
ENDBRANCH  26  27
ENDBRANCH  14  21
ENDBRANCH   8   9
ENDBRANCH   5   8
ENDBRANCH   3   4
ENDBRANCH   2   3
ENDBRANCH   1   2
BRANCH   1  31
ATOM     31  C   UNL A   1      49.626  25.721  30.197  1.00  0.00     0.002 C 
BRANCH  31  32
ATOM     32  C   UNL A   1      49.459  25.753  31.731  1.00  0.00     0.021 C 
BRANCH  32  33
ATOM     33  C   UNL A   1      48.126  26.286  32.311  1.00  0.00     0.116 C 
BRANCH  33  34
ATOM     34  N   UNL A   1      47.098  25.281  32.466  1.00  0.00    -0.352 N 
ATOM     35  C   UNL A   1      45.730  25.370  32.250  1.00  0.00     0.251 C 
ATOM     36  H   UNL A   1      47.416  24.400  32.769  1.00  0.00     0.163 HD
ATOM     37  O   UNL A   1      45.075  24.351  32.463  1.00  0.00    -0.269 OA
BRANCH  35  38
ATOM     38  C   UNL A   1      45.017  26.664  31.909  1.00  0.00     0.039 A 
ATOM     39  C   UNL A   1      43.909  26.999  32.666  1.00  0.00     0.014 A 
ATOM     40  C   UNL A   1      45.196  27.421  30.732  1.00  0.00     0.014 A 
ATOM     41  C   UNL A   1      43.067  28.092  32.291  1.00  0.00     0.010 A 
ATOM     42  C   UNL A   1      44.271  28.489  30.307  1.00  0.00     0.010 A 
ATOM     43  C   UNL A   1      43.149  28.867  31.069  1.00  0.00    -0.014 A 
BRANCH  43  44
ATOM     44  C   UNL A   1      41.755  29.667  30.640  1.00  0.00     0.031 A 
ATOM     45  C   UNL A   1      42.278  31.040  30.454  1.00  0.00     0.074 A 
ATOM     46  C   UNL A   1      40.350  29.649  30.593  1.00  0.00     0.049 A 
ATOM     47  N   UNL A   1      42.889  31.559  31.478  1.00  0.00    -0.248 NA
ATOM     48  C   UNL A   1      42.552  31.691  29.179  1.00  0.00     0.031 C 
ATOM     49  C   UNL A   1      39.430  28.691  31.210  1.00  0.00     0.029 A 
ATOM     50  N   UNL A   1      39.365  30.479  29.953  1.00  0.00    -0.354 N 
ATOM     51  C   UNL A   1      43.393  32.761  31.077  1.00  0.00     0.074 A 
ATOM     52  C   UNL A   1      43.349  32.678  29.616  1.00  0.00     0.031 C 
ATOM     53  C   UNL A   1      38.154  28.775  30.727  1.00  0.00     0.029 A 
ATOM     54  C   UNL A   1      38.021  29.924  29.838  1.00  0.00     0.049 A 
ATOM     55  H   UNL A   1      39.586  31.375  29.611  1.00  0.00     0.167 HD
ATOM     56  C   UNL A   1      43.034  33.793  31.895  1.00  0.00     0.031 A 
ATOM     57  C   UNL A   1      36.852  30.419  29.244  1.00  0.00     0.031 A 
ATOM     58  C   UNL A   1      41.867  34.465  31.378  1.00  0.00     0.049 A 
ATOM     59  C   UNL A   1      36.945  31.852  29.536  1.00  0.00     0.074 A 
ATOM     60  C   UNL A   1      41.534  34.898  30.109  1.00  0.00     0.029 A 
ATOM     61  N   UNL A   1      40.683  34.301  32.069  1.00  0.00    -0.354 N 
ATOM     62  N   UNL A   1      36.748  32.320  30.732  1.00  0.00    -0.248 NA
ATOM     63  C   UNL A   1      37.196  32.839  28.498  1.00  0.00     0.031 C 
ATOM     64  C   UNL A   1      40.194  34.494  29.934  1.00  0.00     0.029 A 
ATOM     65  C   UNL A   1      39.631  34.234  31.176  1.00  0.00     0.049 A 
ATOM     66  H   UNL A   1      40.601  34.242  33.049  1.00  0.00     0.167 HD
ATOM     67  C   UNL A   1      37.404  33.512  30.688  1.00  0.00     0.074 A 
ATOM     68  C   UNL A   1      37.397  33.896  29.285  1.00  0.00     0.031 C 
ATOM     69  C   UNL A   1      38.351  33.738  31.635  1.00  0.00     0.031 A 
BRANCH  56  70
ATOM     70  C   UNL A   1      43.260  33.506  33.370  1.00  0.00    -0.014 A 
ATOM     71  C   UNL A   1      44.200  32.537  33.741  1.00  0.00     0.010 A 
ATOM     72  C   UNL A   1      42.466  34.087  34.392  1.00  0.00     0.010 A 
ATOM     73  C   UNL A   1      44.314  32.134  35.080  1.00  0.00     0.020 A 
ATOM     74  C   UNL A   1      42.549  33.665  35.721  1.00  0.00     0.020 A 
ATOM     75  C   UNL A   1      43.477  32.687  36.059  1.00  0.00     0.054 A 
BRANCH  75  76
ATOM     76  S   UNL A   1      43.587  32.069  37.761  1.00  0.00     0.124 S 
ATOM     77  O   UNL A   1      44.900  31.424  37.786  1.00  0.00    -0.237 OA
ATOM     78  O   UNL A   1      43.490  33.299  38.541  1.00  0.00    -0.237 OA
ATOM     79  O   UNL A   1      42.458  31.149  37.879  1.00  0.00    -0.744 OA
ENDBRANCH  75  76
ENDBRANCH  56  70
BRANCH  57  80
ATOM     80  C   UNL A   1      35.394  30.126  28.721  1.00  0.00    -0.014 A 
ATOM     81  C   UNL A   1      34.551  31.212  28.288  1.00  0.00     0.010 A 
ATOM     82  C   UNL A   1      35.001  28.873  28.210  1.00  0.00     0.010 A 
ATOM     83  C   UNL A   1      33.521  31.093  27.317  1.00  0.00     0.020 A 
ATOM     84  C   UNL A   1      33.938  28.736  27.252  1.00  0.00     0.020 A 
ATOM     85  C   UNL A   1      33.242  29.851  26.768  1.00  0.00     0.054 A 
BRANCH  85  86
ATOM     86  S   UNL A   1      32.096  29.743  25.332  1.00  0.00     0.124 S 
ATOM     87  O   UNL A   1      31.305  28.552  25.627  1.00  0.00    -0.237 OA
ATOM     88  O   UNL A   1      31.368  31.010  25.404  1.00  0.00    -0.237 OA
ATOM     89  O   UNL A   1      32.992  29.622  24.183  1.00  0.00    -0.744 OA
ENDBRANCH  85  86
ENDBRANCH  57  80
BRANCH  69  90
ATOM     90  C   UNL A   1      38.048  33.311  33.065  1.00  0.00    -0.014 A 
ATOM     91  C   UNL A   1      37.385  34.094  34.039  1.00  0.00     0.010 A 
ATOM     92  C   UNL A   1      38.532  32.056  33.478  1.00  0.00     0.010 A 
ATOM     93  C   UNL A   1      37.289  33.681  35.378  1.00  0.00     0.020 A 
ATOM     94  C   UNL A   1      38.400  31.615  34.801  1.00  0.00     0.020 A 
ATOM     95  C   UNL A   1      37.816  32.446  35.754  1.00  0.00     0.054 A 
BRANCH  95  96
ATOM     96  S   UNL A   1      37.784  31.966  37.503  1.00  0.00     0.124 S 
ATOM     97  O   UNL A   1      36.644  32.727  38.012  1.00  0.00    -0.237 OA
ATOM     98  O   UNL A   1      37.587  30.521  37.440  1.00  0.00    -0.237 OA
ATOM     99  O   UNL A   1      39.083  32.405  38.007  1.00  0.00    -0.744 OA
ENDBRANCH  95  96
ENDBRANCH  69  90
ENDBRANCH  43  44
ENDBRANCH  35  38
ENDBRANCH  33  34
ENDBRANCH  32  33
ENDBRANCH  31  32
ENDBRANCH   1  31
TORSDOF 20
ENDMDL
MODEL 3
REMARK VINA RESULT:      -9.0      4.304      9.431
REMARK SMILES Cc1c(CC(=O)NCCCCCCNC(=O)c2ccc(-c3c4nc(c(-c5ccc(S(=O)(=O)[O-])cc5)c5ccc([nH]5)c(-c5ccc(S(=O)(=O)[O-])cc5)c5nc(c(-c6ccc(S(=O)(=O)[O-])cc6)c6ccc3[nH]6)C=C5)C=C4)cc2)cc(-c2ccc(S(C)(=O)=O)cc2)n1-c1ccccc1
REMARK SMILES IDX 10 1 9 2 8 3 7 4 5 5 6 6 4 8 3 9 1 10 2 11 89 12 77 13 78 14
REMARK SMILES IDX 90 15 91 16 95 17 92 18 94 19 93 20 79 21 80 22 88 23 81 24
REMARK SMILES IDX 87 25 82 26 83 27 84 28 85 29 86 30 11 31 12 32 13 33 14 34
REMARK SMILES IDX 15 35 16 37 17 38 18 39 76 40 19 41 75 42 20 43 21 44 22 45
REMARK SMILES IDX 69 46 23 47 74 48 68 49 70 50 24 51 73 52 67 53 66 54 25 56
REMARK SMILES IDX 55 57 36 58 54 59 37 60 40 61 53 62 71 63 38 64 39 65 52 67
REMARK SMILES IDX 72 68 41 69 26 70 27 71 35 72 28 73 34 74 29 75 30 76 31 77
REMARK SMILES IDX 32 78 33 79 56 80 57 81 65 82 58 83 64 84 59 85 60 86 61 87
REMARK SMILES IDX 62 88 63 89 42 90 43 91 51 92 44 93 50 94 45 95 46 96 47 97
REMARK SMILES IDX 48 98 49 99
REMARK H PARENT 7 7 14 36 70 55 40 66
REMARK Flexibility Score: inf
ROOT
ATOM      1  C   UNL A   1      36.897  32.873  28.571  1.00  0.00     0.002 C 
ENDROOT
BRANCH   1   2
ATOM      2  C   UNL A   1      36.912  31.412  29.037  1.00  0.00     0.021 C 
BRANCH   2   3
ATOM      3  C   UNL A   1      38.295  30.760  29.023  1.00  0.00     0.116 C 
BRANCH   3   4
ATOM      4  N   UNL A   1      38.368  29.638  29.943  1.00  0.00    -0.356 N 
ATOM      5  C   UNL A   1      38.609  28.318  29.679  1.00  0.00     0.224 C 
ATOM      6  O   UNL A   1      38.582  27.520  30.619  1.00  0.00    -0.275 OA
ATOM      7  H   UNL A   1      38.225  29.859  30.892  1.00  0.00     0.163 HD
BRANCH   5   8
ATOM      8  C   UNL A   1      38.969  27.863  28.275  1.00  0.00     0.137 C 
BRANCH   8   9
ATOM      9  C   UNL A   1      40.111  26.900  28.233  1.00  0.00    -0.017 A 
ATOM     10  C   UNL A   1      39.008  24.789  27.211  1.00  0.00     0.065 C 
ATOM     11  C   UNL A   1      40.144  25.603  27.734  1.00  0.00     0.024 A 
ATOM     12  N   UNL A   1      41.445  25.118  27.846  1.00  0.00    -0.314 N 
ATOM     13  C   UNL A   1      41.400  27.179  28.735  1.00  0.00     0.033 A 
ATOM     14  C   UNL A   1      42.217  26.109  28.444  1.00  0.00     0.053 A 
BRANCH  12  15
ATOM     15  C   UNL A   1      41.931  23.851  27.404  1.00  0.00     0.046 A 
ATOM     16  C   UNL A   1      42.279  23.665  26.059  1.00  0.00     0.026 A 
ATOM     17  C   UNL A   1      41.961  22.769  28.289  1.00  0.00     0.026 A 
ATOM     18  C   UNL A   1      42.642  22.398  25.599  1.00  0.00     0.002 A 
ATOM     19  C   UNL A   1      42.315  21.501  27.819  1.00  0.00     0.002 A 
ATOM     20  C   UNL A   1      42.654  21.317  26.478  1.00  0.00     0.000 A 
ENDBRANCH  12  15
BRANCH  14  21
ATOM     21  C   UNL A   1      43.655  26.058  28.644  1.00  0.00    -0.001 A 
ATOM     22  C   UNL A   1      44.194  25.758  29.903  1.00  0.00     0.011 A 
ATOM     23  C   UNL A   1      44.490  26.312  27.551  1.00  0.00     0.011 A 
ATOM     24  C   UNL A   1      45.568  25.785  30.080  1.00  0.00     0.021 A 
ATOM     25  C   UNL A   1      45.860  26.337  27.719  1.00  0.00     0.021 A 
ATOM     26  C   UNL A   1      46.379  26.104  28.986  1.00  0.00     0.067 A 
BRANCH  26  27
ATOM     27  S   UNL A   1      48.116  26.256  29.204  1.00  0.00     0.175 S 
ATOM     28  C   UNL A   1      48.730  25.205  27.896  1.00  0.00     0.163 C 
ATOM     29  O   UNL A   1      48.369  27.664  28.969  1.00  0.00    -0.224 OA
ATOM     30  O   UNL A   1      48.461  25.642  30.465  1.00  0.00    -0.224 OA
ENDBRANCH  26  27
ENDBRANCH  14  21
ENDBRANCH   8   9
ENDBRANCH   5   8
ENDBRANCH   3   4
ENDBRANCH   2   3
ENDBRANCH   1   2
BRANCH   1  31
ATOM     31  C   UNL A   1      35.531  33.423  28.138  1.00  0.00     0.002 C 
BRANCH  31  32
ATOM     32  C   UNL A   1      34.947  34.589  28.962  1.00  0.00     0.021 C 
BRANCH  32  33
ATOM     33  C   UNL A   1      34.065  34.249  30.188  1.00  0.00     0.116 C 
BRANCH  33  34
ATOM     34  N   UNL A   1      34.346  35.040  31.365  1.00  0.00    -0.352 N 
ATOM     35  C   UNL A   1      35.439  35.001  32.220  1.00  0.00     0.251 C 
ATOM     36  H   UNL A   1      33.659  35.708  31.594  1.00  0.00     0.163 HD
ATOM     37  O   UNL A   1      35.426  35.795  33.161  1.00  0.00    -0.269 OA
BRANCH  35  38
ATOM     38  C   UNL A   1      36.541  33.965  32.127  1.00  0.00     0.039 A 
ATOM     39  C   UNL A   1      36.363  32.782  32.821  1.00  0.00     0.014 A 
ATOM     40  C   UNL A   1      37.844  34.188  31.636  1.00  0.00     0.014 A 
ATOM     41  C   UNL A   1      37.429  31.838  32.947  1.00  0.00     0.010 A 
ATOM     42  C   UNL A   1      38.962  33.247  31.849  1.00  0.00     0.010 A 
ATOM     43  C   UNL A   1      38.805  32.025  32.530  1.00  0.00    -0.014 A 
BRANCH  43  44
ATOM     44  C   UNL A   1      39.916  31.041  33.281  1.00  0.00     0.031 A 
ATOM     45  C   UNL A   1      40.111  31.774  34.552  1.00  0.00     0.074 A 
ATOM     46  C   UNL A   1      40.852  30.001  33.147  1.00  0.00     0.049 A 
ATOM     47  N   UNL A   1      40.493  33.012  34.442  1.00  0.00    -0.248 NA
ATOM     48  C   UNL A   1      39.540  31.419  35.846  1.00  0.00     0.031 C 
ATOM     49  C   UNL A   1      41.365  29.388  31.919  1.00  0.00     0.029 A 
ATOM     50  N   UNL A   1      41.581  29.191  34.086  1.00  0.00    -0.354 N 
ATOM     51  C   UNL A   1      40.501  33.542  35.699  1.00  0.00     0.074 A 
ATOM     52  C   UNL A   1      39.698  32.594  36.474  1.00  0.00     0.031 C 
ATOM     53  C   UNL A   1      42.023  28.209  32.134  1.00  0.00     0.029 A 
ATOM     54  C   UNL A   1      42.182  27.969  33.564  1.00  0.00     0.049 A 
ATOM     55  H   UNL A   1      41.671  29.450  35.032  1.00  0.00     0.167 HD
ATOM     56  C   UNL A   1      41.687  34.136  36.023  1.00  0.00     0.031 A 
ATOM     57  C   UNL A   1      42.902  26.940  34.187  1.00  0.00     0.031 A 
ATOM     58  C   UNL A   1      42.532  33.217  36.744  1.00  0.00     0.049 A 
ATOM     59  C   UNL A   1      43.682  27.677  35.186  1.00  0.00     0.074 A 
ATOM     60  C   UNL A   1      42.280  32.356  37.795  1.00  0.00     0.029 A 
ATOM     61  N   UNL A   1      43.647  32.734  36.088  1.00  0.00    -0.354 N 
ATOM     62  N   UNL A   1      44.691  28.423  34.851  1.00  0.00    -0.248 NA
ATOM     63  C   UNL A   1      43.416  27.565  36.611  1.00  0.00     0.031 C 
ATOM     64  C   UNL A   1      42.917  31.152  37.430  1.00  0.00     0.029 A 
ATOM     65  C   UNL A   1      43.857  31.414  36.442  1.00  0.00     0.049 A 
ATOM     66  H   UNL A   1      44.208  33.251  35.464  1.00  0.00     0.167 HD
ATOM     67  C   UNL A   1      44.784  29.275  35.909  1.00  0.00     0.074 A 
ATOM     68  C   UNL A   1      44.210  28.550  37.031  1.00  0.00     0.031 C 
ATOM     69  C   UNL A   1      44.752  30.607  35.642  1.00  0.00     0.031 A 
BRANCH  56  70
ATOM     70  C   UNL A   1      42.195  35.096  34.960  1.00  0.00    -0.014 A 
ATOM     71  C   UNL A   1      42.831  34.582  33.823  1.00  0.00     0.010 A 
ATOM     72  C   UNL A   1      42.170  36.504  35.127  1.00  0.00     0.010 A 
ATOM     73  C   UNL A   1      43.453  35.443  32.906  1.00  0.00     0.020 A 
ATOM     74  C   UNL A   1      42.819  37.365  34.238  1.00  0.00     0.020 A 
ATOM     75  C   UNL A   1      43.459  36.827  33.128  1.00  0.00     0.054 A 
BRANCH  75  76
ATOM     76  S   UNL A   1      44.360  37.898  31.973  1.00  0.00     0.124 S 
ATOM     77  O   UNL A   1      45.738  37.799  32.452  1.00  0.00    -0.237 OA
ATOM     78  O   UNL A   1      44.105  37.249  30.691  1.00  0.00    -0.237 OA
ATOM     79  O   UNL A   1      43.748  39.212  32.155  1.00  0.00    -0.744 OA
ENDBRANCH  75  76
ENDBRANCH  56  70
BRANCH  57  80
ATOM     80  C   UNL A   1      43.485  25.478  34.102  1.00  0.00    -0.014 A 
ATOM     81  C   UNL A   1      44.804  25.257  33.565  1.00  0.00     0.010 A 
ATOM     82  C   UNL A   1      43.025  24.423  34.913  1.00  0.00     0.010 A 
ATOM     83  C   UNL A   1      45.649  24.174  33.928  1.00  0.00     0.020 A 
ATOM     84  C   UNL A   1      43.860  23.305  35.261  1.00  0.00     0.020 A 
ATOM     85  C   UNL A   1      45.184  23.214  34.813  1.00  0.00     0.054 A 
BRANCH  85  86
ATOM     86  S   UNL A   1      46.361  21.966  35.481  1.00  0.00     0.124 S 
ATOM     87  O   UNL A   1      45.584  21.303  36.524  1.00  0.00    -0.237 OA
ATOM     88  O   UNL A   1      46.660  21.146  34.308  1.00  0.00    -0.237 OA
ATOM     89  O   UNL A   1      47.483  22.771  35.962  1.00  0.00    -0.744 OA
ENDBRANCH  85  86
ENDBRANCH  57  80
BRANCH  69  90
ATOM     90  C   UNL A   1      45.533  31.113  34.437  1.00  0.00    -0.014 A 
ATOM     91  C   UNL A   1      44.994  31.388  33.158  1.00  0.00     0.010 A 
ATOM     92  C   UNL A   1      46.925  31.251  34.583  1.00  0.00     0.010 A 
ATOM     93  C   UNL A   1      45.816  31.699  32.061  1.00  0.00     0.020 A 
ATOM     94  C   UNL A   1      47.748  31.606  33.507  1.00  0.00     0.020 A 
ATOM     95  C   UNL A   1      47.194  31.789  32.242  1.00  0.00     0.054 A 
BRANCH  95  96
ATOM     96  S   UNL A   1      48.258  32.085  30.802  1.00  0.00     0.124 S 
ATOM     97  O   UNL A   1      47.324  32.673  29.843  1.00  0.00    -0.237 OA
ATOM     98  O   UNL A   1      49.267  33.000  31.326  1.00  0.00    -0.237 OA
ATOM     99  O   UNL A   1      48.739  30.752  30.445  1.00  0.00    -0.744 OA
ENDBRANCH  95  96
ENDBRANCH  69  90
ENDBRANCH  43  44
ENDBRANCH  35  38
ENDBRANCH  33  34
ENDBRANCH  32  33
ENDBRANCH  31  32
ENDBRANCH   1  31
TORSDOF 20
ENDMDL
