MODEL 1
REMARK VINA RESULT:     -10.4      0.000      0.000
REMARK SMILES Cc1cc([N+](=O)[O-])ccc1N1CCC(CC(=O)NCCCCCCNC(=O)c2ccc(-c3c4nc(c(-c5ccc(S(=O)(=O)[O-])cc5)c5ccc([nH]5)c(-c5ccc(S(=O)(=O)[O-])cc5)c5nc(c(-c6ccc(S(=O)(=O)[O-])cc6)c6ccc3[nH]6)C=C5)C=C4)cc2)CC1
REMARK SMILES IDX 21 1 20 2 19 3 18 4 16 5 17 6 15 8 14 9 11 10 12 11 89 12
REMARK SMILES IDX 13 13 88 14 10 15 1 16 2 17 3 18 4 19 9 20 8 21 5 22 6 23
REMARK SMILES IDX 7 24 22 25 23 26 24 27 25 28 26 29 27 31 28 32 29 33 87 34
REMARK SMILES IDX 30 35 86 36 31 37 32 38 33 39 80 40 34 41 85 42 79 43 81 44
REMARK SMILES IDX 35 45 84 46 78 47 77 48 36 50 66 51 47 52 65 53 48 54 51 55
REMARK SMILES IDX 64 56 82 57 49 58 50 59 63 61 83 62 52 63 37 64 38 65 46 66
REMARK SMILES IDX 39 67 45 68 40 69 41 70 42 71 43 72 44 73 67 74 68 75 76 76
REMARK SMILES IDX 69 77 75 78 70 79 71 80 72 81 73 82 74 83 53 84 54 85 62 86
REMARK SMILES IDX 55 87 61 88 56 89 57 90 58 91 59 92 60 93
REMARK H PARENT 18 7 25 30 81 49 51 60
REMARK Flexibility Score: inf
ROOT
ATOM      1  C   UNL A   1      33.615  29.435  26.793  1.00  0.00     0.002 C 
ENDROOT
BRANCH   1   2
ATOM      2  C   UNL A   1      33.039  29.289  25.397  1.00  0.00     0.021 C 
BRANCH   2   3
ATOM      3  C   UNL A   1      31.514  29.271  25.323  1.00  0.00     0.116 C 
BRANCH   3   4
ATOM      4  N   UNL A   1      31.084  29.770  24.029  1.00  0.00    -0.356 N 
ATOM      5  C   UNL A   1      30.559  29.113  22.955  1.00  0.00     0.220 C 
ATOM      6  O   UNL A   1      30.474  29.723  21.886  1.00  0.00    -0.275 OA
ATOM      7  H   UNL A   1      31.189  30.741  23.906  1.00  0.00     0.163 HD
BRANCH   5   8
ATOM      8  C   UNL A   1      30.035  27.688  23.079  1.00  0.00     0.103 C 
BRANCH   8   9
ATOM      9  C   UNL A   1      30.920  26.572  22.472  1.00  0.00     0.002 C 
ATOM     10  N   UNL A   1      33.205  24.971  23.142  1.00  0.00    -0.371 N 
ATOM     11  C   UNL A   1      33.417  25.979  22.123  1.00  0.00     0.117 C 
ATOM     12  C   UNL A   1      31.935  24.271  23.084  1.00  0.00     0.117 C 
ATOM     13  C   UNL A   1      32.368  27.049  22.344  1.00  0.00     0.025 C 
ATOM     14  C   UNL A   1      30.815  25.292  23.338  1.00  0.00     0.025 C 
BRANCH  10  15
ATOM     15  C   UNL A   1      34.319  24.482  23.788  1.00  0.00     0.040 A 
ATOM     16  C   UNL A   1      33.702  25.531  26.037  1.00  0.00     0.047 C 
ATOM     17  C   UNL A   1      34.585  24.692  25.152  1.00  0.00    -0.021 A 
ATOM     18  C   UNL A   1      35.706  24.077  25.747  1.00  0.00     0.091 A 
ATOM     19  C   UNL A   1      36.538  23.238  24.996  1.00  0.00     0.269 A 
ATOM     20  C   UNL A   1      35.172  23.632  23.056  1.00  0.00     0.033 A 
ATOM     21  C   UNL A   1      36.272  23.007  23.646  1.00  0.00     0.088 A 
BRANCH  19  22
ATOM     22  N   UNL A   1      37.696  22.594  25.627  1.00  0.00     0.062 N 
ATOM     23  O   UNL A   1      38.601  23.321  26.056  1.00  0.00    -0.258 OA
ATOM     24  O   UNL A   1      37.711  21.354  25.671  1.00  0.00    -0.258 OA
ENDBRANCH  19  22
ENDBRANCH  10  15
ENDBRANCH   8   9
ENDBRANCH   5   8
ENDBRANCH   3   4
ENDBRANCH   2   3
ENDBRANCH   1   2
BRANCH   1  25
ATOM     25  C   UNL A   1      35.068  28.993  26.959  1.00  0.00     0.002 C 
BRANCH  25  26
ATOM     26  C   UNL A   1      36.075  30.014  27.513  1.00  0.00     0.021 C 
BRANCH  26  27
ATOM     27  C   UNL A   1      37.458  29.487  27.863  1.00  0.00     0.116 C 
BRANCH  27  28
ATOM     28  N   UNL A   1      37.425  28.876  29.152  1.00  0.00    -0.352 N 
ATOM     29  C   UNL A   1      38.046  29.215  30.316  1.00  0.00     0.251 C 
ATOM     30  H   UNL A   1      36.856  28.075  29.210  1.00  0.00     0.163 HD
ATOM     31  O   UNL A   1      38.152  28.294  31.112  1.00  0.00    -0.269 OA
BRANCH  29  32
ATOM     32  C   UNL A   1      38.203  30.692  30.717  1.00  0.00     0.039 A 
ATOM     33  C   UNL A   1      39.056  31.276  29.769  1.00  0.00     0.014 A 
ATOM     34  C   UNL A   1      38.661  30.754  32.032  1.00  0.00     0.014 A 
ATOM     35  C   UNL A   1      40.410  31.009  29.910  1.00  0.00     0.010 A 
ATOM     36  C   UNL A   1      39.960  30.357  32.206  1.00  0.00     0.010 A 
ATOM     37  C   UNL A   1      40.790  30.370  31.083  1.00  0.00    -0.014 A 
BRANCH  37  38
ATOM     38  C   UNL A   1      42.026  29.648  31.246  1.00  0.00     0.031 A 
ATOM     39  C   UNL A   1      42.042  28.344  30.572  1.00  0.00     0.074 A 
ATOM     40  C   UNL A   1      43.035  30.306  31.865  1.00  0.00     0.049 A 
ATOM     41  N   UNL A   1      42.801  27.356  30.864  1.00  0.00    -0.248 NA
ATOM     42  C   UNL A   1      41.059  28.012  29.527  1.00  0.00     0.031 C 
ATOM     43  C   UNL A   1      44.456  29.969  31.940  1.00  0.00     0.029 A 
ATOM     44  N   UNL A   1      42.916  31.380  32.767  1.00  0.00    -0.354 N 
ATOM     45  C   UNL A   1      42.667  26.445  29.833  1.00  0.00     0.074 A 
ATOM     46  C   UNL A   1      41.460  26.801  29.146  1.00  0.00     0.031 C 
ATOM     47  C   UNL A   1      44.974  30.559  33.039  1.00  0.00     0.029 A 
ATOM     48  C   UNL A   1      43.851  31.141  33.777  1.00  0.00     0.049 A 
ATOM     49  H   UNL A   1      42.297  32.143  32.700  1.00  0.00     0.167 HD
ATOM     50  C   UNL A   1      43.726  25.640  29.545  1.00  0.00     0.031 A 
ATOM     51  C   UNL A   1      43.467  30.738  35.029  1.00  0.00     0.031 A 
ATOM     52  C   UNL A   1      44.759  25.827  30.565  1.00  0.00     0.049 A 
ATOM     53  C   UNL A   1      43.965  29.318  35.278  1.00  0.00     0.074 A 
ATOM     54  C   UNL A   1      45.878  26.641  30.595  1.00  0.00     0.029 A 
ATOM     55  N   UNL A   1      44.451  25.524  31.888  1.00  0.00    -0.354 N 
ATOM     56  N   UNL A   1      44.068  28.389  34.358  1.00  0.00    -0.248 NA
ATOM     57  C   UNL A   1      44.471  28.884  36.576  1.00  0.00     0.031 C 
ATOM     58  C   UNL A   1      46.152  26.941  31.960  1.00  0.00     0.029 A 
ATOM     59  C   UNL A   1      45.218  26.287  32.751  1.00  0.00     0.049 A 
ATOM     60  H   UNL A   1      43.782  24.859  32.170  1.00  0.00     0.167 HD
ATOM     61  C   UNL A   1      44.691  27.290  34.895  1.00  0.00     0.074 A 
ATOM     62  C   UNL A   1      44.905  27.645  36.289  1.00  0.00     0.031 C 
ATOM     63  C   UNL A   1      45.032  26.167  34.191  1.00  0.00     0.031 A 
BRANCH  50  64
ATOM     64  C   UNL A   1      43.961  24.984  28.201  1.00  0.00    -0.014 A 
ATOM     65  C   UNL A   1      44.030  23.577  28.144  1.00  0.00     0.010 A 
ATOM     66  C   UNL A   1      44.197  25.659  26.985  1.00  0.00     0.010 A 
ATOM     67  C   UNL A   1      44.359  22.891  26.965  1.00  0.00     0.020 A 
ATOM     68  C   UNL A   1      44.539  24.988  25.799  1.00  0.00     0.020 A 
ATOM     69  C   UNL A   1      44.621  23.603  25.798  1.00  0.00     0.054 A 
BRANCH  69  70
ATOM     70  S   UNL A   1      45.047  22.695  24.290  1.00  0.00     0.124 S 
ATOM     71  O   UNL A   1      43.772  22.654  23.578  1.00  0.00    -0.237 OA
ATOM     72  O   UNL A   1      46.076  23.544  23.694  1.00  0.00    -0.237 OA
ATOM     73  O   UNL A   1      45.521  21.403  24.783  1.00  0.00    -0.744 OA
ENDBRANCH  69  70
ENDBRANCH  50  64
BRANCH  51  74
ATOM     74  C   UNL A   1      42.152  31.278  35.531  1.00  0.00    -0.014 A 
ATOM     75  C   UNL A   1      41.958  32.680  35.607  1.00  0.00     0.010 A 
ATOM     76  C   UNL A   1      41.014  30.461  35.631  1.00  0.00     0.010 A 
ATOM     77  C   UNL A   1      40.667  33.244  35.646  1.00  0.00     0.020 A 
ATOM     78  C   UNL A   1      39.719  31.022  35.667  1.00  0.00     0.020 A 
ATOM     79  C   UNL A   1      39.549  32.410  35.617  1.00  0.00     0.054 A 
BRANCH  79  80
ATOM     80  S   UNL A   1      37.897  33.141  35.306  1.00  0.00     0.124 S 
ATOM     81  O   UNL A   1      38.184  34.146  34.287  1.00  0.00    -0.237 OA
ATOM     82  O   UNL A   1      37.081  32.018  34.848  1.00  0.00    -0.237 OA
ATOM     83  O   UNL A   1      37.504  33.677  36.610  1.00  0.00    -0.744 OA
ENDBRANCH  79  80
ENDBRANCH  51  74
BRANCH  63  84
ATOM     84  C   UNL A   1      45.299  24.821  34.828  1.00  0.00    -0.014 A 
ATOM     85  C   UNL A   1      44.292  23.879  35.085  1.00  0.00     0.010 A 
ATOM     86  C   UNL A   1      46.636  24.400  35.026  1.00  0.00     0.010 A 
ATOM     87  C   UNL A   1      44.594  22.616  35.604  1.00  0.00     0.020 A 
ATOM     88  C   UNL A   1      46.954  23.116  35.474  1.00  0.00     0.020 A 
ATOM     89  C   UNL A   1      45.923  22.245  35.800  1.00  0.00     0.054 A 
BRANCH  89  90
ATOM     90  S   UNL A   1      46.290  20.601  36.451  1.00  0.00     0.124 S 
ATOM     91  O   UNL A   1      47.737  20.523  36.258  1.00  0.00    -0.237 OA
ATOM     92  O   UNL A   1      45.847  20.697  37.840  1.00  0.00    -0.237 OA
ATOM     93  O   UNL A   1      45.497  19.710  35.610  1.00  0.00    -0.744 OA
ENDBRANCH  89  90
ENDBRANCH  63  84
ENDBRANCH  37  38
ENDBRANCH  29  32
ENDBRANCH  27  28
ENDBRANCH  26  27
ENDBRANCH  25  26
ENDBRANCH   1  25
TORSDOF 19
ENDMDL
MODEL 2
REMARK VINA RESULT:     -10.3      3.910      9.565
REMARK SMILES Cc1cc([N+](=O)[O-])ccc1N1CCC(CC(=O)NCCCCCCNC(=O)c2ccc(-c3c4nc(c(-c5ccc(S(=O)(=O)[O-])cc5)c5ccc([nH]5)c(-c5ccc(S(=O)(=O)[O-])cc5)c5nc(c(-c6ccc(S(=O)(=O)[O-])cc6)c6ccc3[nH]6)C=C5)C=C4)cc2)CC1
REMARK SMILES IDX 21 1 20 2 19 3 18 4 16 5 17 6 15 8 14 9 11 10 12 11 89 12
REMARK SMILES IDX 13 13 88 14 10 15 1 16 2 17 3 18 4 19 9 20 8 21 5 22 6 23
REMARK SMILES IDX 7 24 22 25 23 26 24 27 25 28 26 29 27 31 28 32 29 33 87 34
REMARK SMILES IDX 30 35 86 36 31 37 32 38 33 39 80 40 34 41 85 42 79 43 81 44
REMARK SMILES IDX 35 45 84 46 78 47 77 48 36 50 66 51 47 52 65 53 48 54 51 55
REMARK SMILES IDX 64 56 82 57 49 58 50 59 63 61 83 62 52 63 37 64 38 65 46 66
REMARK SMILES IDX 39 67 45 68 40 69 41 70 42 71 43 72 44 73 67 74 68 75 76 76
REMARK SMILES IDX 69 77 75 78 70 79 71 80 72 81 73 82 74 83 53 84 54 85 62 86
REMARK SMILES IDX 55 87 61 88 56 89 57 90 58 91 59 92 60 93
REMARK H PARENT 18 7 25 30 81 49 51 60
REMARK Flexibility Score: inf
ROOT
ATOM      1  C   UNL A   1      34.288  29.954  27.116  1.00  0.00     0.002 C 
ENDROOT
BRANCH   1   2
ATOM      2  C   UNL A   1      33.095  29.022  27.205  1.00  0.00     0.021 C 
BRANCH   2   3
ATOM      3  C   UNL A   1      31.957  29.329  26.233  1.00  0.00     0.116 C 
BRANCH   3   4
ATOM      4  N   UNL A   1      32.507  29.655  24.929  1.00  0.00    -0.356 N 
ATOM      5  C   UNL A   1      32.893  28.846  23.902  1.00  0.00     0.220 C 
ATOM      6  O   UNL A   1      33.533  29.350  22.976  1.00  0.00    -0.275 OA
ATOM      7  H   UNL A   1      32.618  30.618  24.759  1.00  0.00     0.163 HD
BRANCH   5   8
ATOM      8  C   UNL A   1      32.499  27.376  23.863  1.00  0.00     0.103 C 
BRANCH   8   9
ATOM      9  C   UNL A   1      33.588  26.358  24.281  1.00  0.00     0.002 C 
ATOM     10  N   UNL A   1      33.987  23.522  24.473  1.00  0.00    -0.371 N 
ATOM     11  C   UNL A   1      33.873  24.230  25.732  1.00  0.00     0.117 C 
ATOM     12  C   UNL A   1      34.739  24.199  23.432  1.00  0.00     0.117 C 
ATOM     13  C   UNL A   1      33.096  25.499  25.449  1.00  0.00     0.025 C 
ATOM     14  C   UNL A   1      33.987  25.488  23.063  1.00  0.00     0.025 C 
BRANCH  10  15
ATOM     15  C   UNL A   1      33.757  22.164  24.489  1.00  0.00     0.040 A 
ATOM     16  C   UNL A   1      31.535  22.339  23.236  1.00  0.00     0.047 C 
ATOM     17  C   UNL A   1      32.637  21.555  23.898  1.00  0.00    -0.021 A 
ATOM     18  C   UNL A   1      32.531  20.149  23.888  1.00  0.00     0.091 A 
ATOM     19  C   UNL A   1      33.547  19.357  24.436  1.00  0.00     0.269 A 
ATOM     20  C   UNL A   1      34.765  21.343  25.033  1.00  0.00     0.033 A 
ATOM     21  C   UNL A   1      34.672  19.950  25.008  1.00  0.00     0.088 A 
BRANCH  19  22
ATOM     22  N   UNL A   1      33.433  17.893  24.411  1.00  0.00     0.062 N 
ATOM     23  O   UNL A   1      34.363  17.248  23.908  1.00  0.00    -0.258 OA
ATOM     24  O   UNL A   1      32.399  17.388  24.873  1.00  0.00    -0.258 OA
ENDBRANCH  19  22
ENDBRANCH  10  15
ENDBRANCH   8   9
ENDBRANCH   5   8
ENDBRANCH   3   4
ENDBRANCH   2   3
ENDBRANCH   1   2
BRANCH   1  25
ATOM     25  C   UNL A   1      35.392  29.716  28.145  1.00  0.00     0.002 C 
BRANCH  25  26
ATOM     26  C   UNL A   1      36.851  29.887  27.692  1.00  0.00     0.021 C 
BRANCH  26  27
ATOM     27  C   UNL A   1      37.752  28.669  27.819  1.00  0.00     0.116 C 
BRANCH  27  28
ATOM     28  N   UNL A   1      39.115  29.064  27.674  1.00  0.00    -0.352 N 
ATOM     29  C   UNL A   1      40.202  28.826  28.460  1.00  0.00     0.251 C 
ATOM     30  H   UNL A   1      39.302  29.600  26.869  1.00  0.00     0.163 HD
ATOM     31  O   UNL A   1      41.117  29.618  28.300  1.00  0.00    -0.269 OA
BRANCH  29  32
ATOM     32  C   UNL A   1      40.384  27.461  29.147  1.00  0.00     0.039 A 
ATOM     33  C   UNL A   1      39.192  27.197  29.836  1.00  0.00     0.014 A 
ATOM     34  C   UNL A   1      41.523  27.511  29.949  1.00  0.00     0.014 A 
ATOM     35  C   UNL A   1      39.009  27.870  31.036  1.00  0.00     0.010 A 
ATOM     36  C   UNL A   1      41.402  28.289  31.070  1.00  0.00     0.010 A 
ATOM     37  C   UNL A   1      40.110  28.564  31.522  1.00  0.00    -0.014 A 
BRANCH  37  38
ATOM     38  C   UNL A   1      40.029  29.632  32.485  1.00  0.00     0.031 A 
ATOM     39  C   UNL A   1      39.353  30.834  31.982  1.00  0.00     0.074 A 
ATOM     40  C   UNL A   1      40.452  29.348  33.741  1.00  0.00     0.049 A 
ATOM     41  N   UNL A   1      39.488  32.020  32.442  1.00  0.00    -0.248 NA
ATOM     42  C   UNL A   1      38.510  30.787  30.776  1.00  0.00     0.031 C 
ATOM     43  C   UNL A   1      40.253  30.097  34.980  1.00  0.00     0.029 A 
ATOM     44  N   UNL A   1      41.369  28.349  34.117  1.00  0.00    -0.354 N 
ATOM     45  C   UNL A   1      38.493  32.780  31.856  1.00  0.00     0.074 A 
ATOM     46  C   UNL A   1      38.049  32.035  30.714  1.00  0.00     0.031 C 
ATOM     47  C   UNL A   1      41.240  29.762  35.840  1.00  0.00     0.029 A 
ATOM     48  C   UNL A   1      42.182  28.922  35.099  1.00  0.00     0.049 A 
ATOM     49  H   UNL A   1      41.428  27.433  33.761  1.00  0.00     0.167 HD
ATOM     50  C   UNL A   1      38.002  33.843  32.549  1.00  0.00     0.031 A 
ATOM     51  C   UNL A   1      43.481  29.273  34.839  1.00  0.00     0.031 A 
ATOM     52  C   UNL A   1      38.810  34.041  33.754  1.00  0.00     0.049 A 
ATOM     53  C   UNL A   1      43.618  30.791  34.915  1.00  0.00     0.074 A 
ATOM     54  C   UNL A   1      38.635  33.602  35.055  1.00  0.00     0.029 A 
ATOM     55  N   UNL A   1      40.165  34.325  33.608  1.00  0.00    -0.354 N 
ATOM     56  N   UNL A   1      42.688  31.646  34.564  1.00  0.00    -0.248 NA
ATOM     57  C   UNL A   1      44.794  31.441  35.486  1.00  0.00     0.031 C 
ATOM     58  C   UNL A   1      39.926  33.488  35.645  1.00  0.00     0.029 A 
ATOM     59  C   UNL A   1      40.873  33.884  34.712  1.00  0.00     0.049 A 
ATOM     60  H   UNL A   1      40.563  34.776  32.829  1.00  0.00     0.167 HD
ATOM     61  C   UNL A   1      43.087  32.913  34.906  1.00  0.00     0.074 A 
ATOM     62  C   UNL A   1      44.419  32.731  35.462  1.00  0.00     0.031 C 
ATOM     63  C   UNL A   1      42.321  34.038  34.757  1.00  0.00     0.031 A 
BRANCH  50  64
ATOM     64  C   UNL A   1      36.632  34.449  32.330  1.00  0.00    -0.014 A 
ATOM     65  C   UNL A   1      36.070  35.229  33.362  1.00  0.00     0.010 A 
ATOM     66  C   UNL A   1      35.813  34.246  31.200  1.00  0.00     0.010 A 
ATOM     67  C   UNL A   1      34.763  35.731  33.292  1.00  0.00     0.020 A 
ATOM     68  C   UNL A   1      34.497  34.732  31.119  1.00  0.00     0.020 A 
ATOM     69  C   UNL A   1      33.978  35.472  32.172  1.00  0.00     0.054 A 
BRANCH  69  70
ATOM     70  S   UNL A   1      32.291  36.129  32.108  1.00  0.00     0.124 S 
ATOM     71  O   UNL A   1      31.493  34.990  32.553  1.00  0.00    -0.237 OA
ATOM     72  O   UNL A   1      32.359  37.254  33.037  1.00  0.00    -0.237 OA
ATOM     73  O   UNL A   1      32.113  36.497  30.704  1.00  0.00    -0.744 OA
ENDBRANCH  69  70
ENDBRANCH  50  64
BRANCH  51  74
ATOM     74  C   UNL A   1      44.227  28.400  33.863  1.00  0.00    -0.014 A 
ATOM     75  C   UNL A   1      44.189  26.992  34.018  1.00  0.00     0.010 A 
ATOM     76  C   UNL A   1      44.698  28.904  32.639  1.00  0.00     0.010 A 
ATOM     77  C   UNL A   1      44.480  26.124  32.946  1.00  0.00     0.020 A 
ATOM     78  C   UNL A   1      44.988  28.039  31.562  1.00  0.00     0.020 A 
ATOM     79  C   UNL A   1      44.823  26.656  31.703  1.00  0.00     0.054 A 
BRANCH  79  80
ATOM     80  S   UNL A   1      44.849  25.555  30.236  1.00  0.00     0.124 S 
ATOM     81  O   UNL A   1      44.160  26.356  29.230  1.00  0.00    -0.237 OA
ATOM     82  O   UNL A   1      46.270  25.329  29.975  1.00  0.00    -0.237 OA
ATOM     83  O   UNL A   1      44.124  24.366  30.684  1.00  0.00    -0.744 OA
ENDBRANCH  79  80
ENDBRANCH  51  74
BRANCH  63  84
ATOM     84  C   UNL A   1      42.884  35.441  34.708  1.00  0.00    -0.014 A 
ATOM     85  C   UNL A   1      43.041  36.166  33.518  1.00  0.00     0.010 A 
ATOM     86  C   UNL A   1      43.112  36.140  35.919  1.00  0.00     0.010 A 
ATOM     87  C   UNL A   1      43.494  37.489  33.527  1.00  0.00     0.020 A 
ATOM     88  C   UNL A   1      43.492  37.484  35.942  1.00  0.00     0.020 A 
ATOM     89  C   UNL A   1      43.721  38.138  34.740  1.00  0.00     0.054 A 
BRANCH  89  90
ATOM     90  S   UNL A   1      44.284  39.853  34.727  1.00  0.00     0.124 S 
ATOM     91  O   UNL A   1      45.602  39.726  34.107  1.00  0.00    -0.237 OA
ATOM     92  O   UNL A   1      43.271  40.521  33.913  1.00  0.00    -0.237 OA
ATOM     93  O   UNL A   1      44.289  40.227  36.138  1.00  0.00    -0.744 OA
ENDBRANCH  89  90
ENDBRANCH  63  84
ENDBRANCH  37  38
ENDBRANCH  29  32
ENDBRANCH  27  28
ENDBRANCH  26  27
ENDBRANCH  25  26
ENDBRANCH   1  25
TORSDOF 19
ENDMDL
MODEL 3
REMARK VINA RESULT:     -10.0      4.318     10.415
REMARK SMILES Cc1cc([N+](=O)[O-])ccc1N1CCC(CC(=O)NCCCCCCNC(=O)c2ccc(-c3c4nc(c(-c5ccc(S(=O)(=O)[O-])cc5)c5ccc([nH]5)c(-c5ccc(S(=O)(=O)[O-])cc5)c5nc(c(-c6ccc(S(=O)(=O)[O-])cc6)c6ccc3[nH]6)C=C5)C=C4)cc2)CC1
REMARK SMILES IDX 21 1 20 2 19 3 18 4 16 5 17 6 15 8 14 9 11 10 12 11 89 12
REMARK SMILES IDX 13 13 88 14 10 15 1 16 2 17 3 18 4 19 9 20 8 21 5 22 6 23
REMARK SMILES IDX 7 24 22 25 23 26 24 27 25 28 26 29 27 31 28 32 29 33 87 34
REMARK SMILES IDX 30 35 86 36 31 37 32 38 33 39 80 40 34 41 85 42 79 43 81 44
REMARK SMILES IDX 35 45 84 46 78 47 77 48 36 50 66 51 47 52 65 53 48 54 51 55
REMARK SMILES IDX 64 56 82 57 49 58 50 59 63 61 83 62 52 63 37 64 38 65 46 66
REMARK SMILES IDX 39 67 45 68 40 69 41 70 42 71 43 72 44 73 67 74 68 75 76 76
REMARK SMILES IDX 69 77 75 78 70 79 71 80 72 81 73 82 74 83 53 84 54 85 62 86
REMARK SMILES IDX 55 87 61 88 56 89 57 90 58 91 59 92 60 93
REMARK H PARENT 18 7 25 30 81 49 51 60
REMARK Flexibility Score: inf
ROOT
ATOM      1  C   UNL A   1      34.274  30.895  27.635  1.00  0.00     0.002 C 
ENDROOT
BRANCH   1   2
ATOM      2  C   UNL A   1      33.792  29.680  26.865  1.00  0.00     0.021 C 
BRANCH   2   3
ATOM      3  C   UNL A   1      32.585  29.921  25.962  1.00  0.00     0.116 C 
BRANCH   3   4
ATOM      4  N   UNL A   1      32.999  29.866  24.571  1.00  0.00    -0.356 N 
ATOM      5  C   UNL A   1      33.226  28.797  23.755  1.00  0.00     0.220 C 
ATOM      6  O   UNL A   1      33.782  29.000  22.673  1.00  0.00    -0.275 OA
ATOM      7  H   UNL A   1      33.140  30.743  24.149  1.00  0.00     0.163 HD
BRANCH   5   8
ATOM      8  C   UNL A   1      32.754  27.399  24.135  1.00  0.00     0.103 C 
BRANCH   8   9
ATOM      9  C   UNL A   1      33.856  26.327  24.321  1.00  0.00     0.002 C 
ATOM     10  N   UNL A   1      34.127  23.486  24.629  1.00  0.00    -0.371 N 
ATOM     11  C   UNL A   1      34.410  24.279  25.807  1.00  0.00     0.117 C 
ATOM     12  C   UNL A   1      34.595  24.035  23.369  1.00  0.00     0.117 C 
ATOM     13  C   UNL A   1      33.661  25.585  25.645  1.00  0.00     0.025 C 
ATOM     14  C   UNL A   1      33.847  25.353  23.116  1.00  0.00     0.025 C 
BRANCH  10  15
ATOM     15  C   UNL A   1      33.831  22.154  24.819  1.00  0.00     0.040 A 
ATOM     16  C   UNL A   1      31.307  22.542  24.944  1.00  0.00     0.047 C 
ATOM     17  C   UNL A   1      32.523  21.655  24.944  1.00  0.00    -0.021 A 
ATOM     18  C   UNL A   1      32.314  20.264  25.048  1.00  0.00     0.091 A 
ATOM     19  C   UNL A   1      33.397  19.378  24.999  1.00  0.00     0.269 A 
ATOM     20  C   UNL A   1      34.903  21.240  24.771  1.00  0.00     0.033 A 
ATOM     21  C   UNL A   1      34.698  19.862  24.855  1.00  0.00     0.088 A 
BRANCH  19  22
ATOM     22  N   UNL A   1      33.169  17.931  25.096  1.00  0.00     0.062 N 
ATOM     23  O   UNL A   1      32.094  17.545  25.575  1.00  0.00    -0.258 OA
ATOM     24  O   UNL A   1      34.078  17.178  24.714  1.00  0.00    -0.258 OA
ENDBRANCH  19  22
ENDBRANCH  10  15
ENDBRANCH   8   9
ENDBRANCH   5   8
ENDBRANCH   3   4
ENDBRANCH   2   3
ENDBRANCH   1   2
BRANCH   1  25
ATOM     25  C   UNL A   1      35.577  30.712  28.412  1.00  0.00     0.002 C 
BRANCH  25  26
ATOM     26  C   UNL A   1      36.366  29.408  28.205  1.00  0.00     0.021 C 
BRANCH  26  27
ATOM     27  C   UNL A   1      37.768  29.359  28.790  1.00  0.00     0.116 C 
BRANCH  27  28
ATOM     28  N   UNL A   1      37.720  29.699  30.175  1.00  0.00    -0.352 N 
ATOM     29  C   UNL A   1      37.687  28.912  31.287  1.00  0.00     0.251 C 
ATOM     30  H   UNL A   1      37.712  30.666  30.358  1.00  0.00     0.163 HD
ATOM     31  O   UNL A   1      37.243  29.468  32.279  1.00  0.00    -0.269 OA
BRANCH  29  32
ATOM     32  C   UNL A   1      38.513  27.616  31.350  1.00  0.00     0.039 A 
ATOM     33  C   UNL A   1      39.097  27.575  32.624  1.00  0.00     0.014 A 
ATOM     34  C   UNL A   1      39.420  27.609  30.291  1.00  0.00     0.014 A 
ATOM     35  C   UNL A   1      40.204  28.388  32.823  1.00  0.00     0.010 A 
ATOM     36  C   UNL A   1      40.445  28.509  30.408  1.00  0.00     0.010 A 
ATOM     37  C   UNL A   1      40.734  28.988  31.688  1.00  0.00    -0.014 A 
BRANCH  37  38
ATOM     38  C   UNL A   1      41.582  30.152  31.711  1.00  0.00     0.031 A 
ATOM     39  C   UNL A   1      40.941  31.339  32.293  1.00  0.00     0.074 A 
ATOM     40  C   UNL A   1      42.870  29.972  31.333  1.00  0.00     0.049 A 
ATOM     41  N   UNL A   1      41.281  32.555  32.085  1.00  0.00    -0.248 NA
ATOM     42  C   UNL A   1      39.725  31.224  33.115  1.00  0.00     0.031 C 
ATOM     43  C   UNL A   1      44.020  30.858  31.502  1.00  0.00     0.029 A 
ATOM     44  N   UNL A   1      43.370  28.959  30.494  1.00  0.00    -0.354 N 
ATOM     45  C   UNL A   1      40.595  33.315  33.013  1.00  0.00     0.074 A 
ATOM     46  C   UNL A   1      39.524  32.487  33.486  1.00  0.00     0.031 C 
ATOM     47  C   UNL A   1      44.935  30.549  30.557  1.00  0.00     0.029 A 
ATOM     48  C   UNL A   1      44.308  29.575  29.662  1.00  0.00     0.049 A 
ATOM     49  H   UNL A   1      43.110  28.009  30.493  1.00  0.00     0.167 HD
ATOM     50  C   UNL A   1      41.163  34.474  33.442  1.00  0.00     0.031 A 
ATOM     51  C   UNL A   1      44.047  29.809  28.338  1.00  0.00     0.031 A 
ATOM     52  C   UNL A   1      42.361  34.741  32.645  1.00  0.00     0.049 A 
ATOM     53  C   UNL A   1      43.971  31.313  28.096  1.00  0.00     0.074 A 
ATOM     54  C   UNL A   1      43.695  34.452  32.874  1.00  0.00     0.029 A 
ATOM     55  N   UNL A   1      42.222  34.917  31.271  1.00  0.00    -0.354 N 
ATOM     56  N   UNL A   1      43.511  32.188  28.959  1.00  0.00    -0.248 NA
ATOM     57  C   UNL A   1      44.503  31.938  26.889  1.00  0.00     0.031 C 
ATOM     58  C   UNL A   1      44.327  34.314  31.605  1.00  0.00     0.029 A 
ATOM     59  C   UNL A   1      43.383  34.546  30.615  1.00  0.00     0.049 A 
ATOM     60  H   UNL A   1      41.411  35.257  30.828  1.00  0.00     0.167 HD
ATOM     61  C   UNL A   1      43.732  33.454  28.479  1.00  0.00     0.074 A 
ATOM     62  C   UNL A   1      44.337  33.242  27.173  1.00  0.00     0.031 C 
ATOM     63  C   UNL A   1      43.449  34.606  29.161  1.00  0.00     0.031 A 
BRANCH  50  64
ATOM     64  C   UNL A   1      40.848  35.146  34.762  1.00  0.00    -0.014 A 
ATOM     65  C   UNL A   1      41.888  35.813  35.441  1.00  0.00     0.010 A 
ATOM     66  C   UNL A   1      39.606  35.105  35.430  1.00  0.00     0.010 A 
ATOM     67  C   UNL A   1      41.715  36.360  36.720  1.00  0.00     0.020 A 
ATOM     68  C   UNL A   1      39.420  35.639  36.717  1.00  0.00     0.020 A 
ATOM     69  C   UNL A   1      40.481  36.263  37.357  1.00  0.00     0.054 A 
BRANCH  69  70
ATOM     70  S   UNL A   1      40.285  36.975  39.010  1.00  0.00     0.124 S 
ATOM     71  O   UNL A   1      41.453  37.845  39.118  1.00  0.00    -0.237 OA
ATOM     72  O   UNL A   1      38.997  37.658  38.905  1.00  0.00    -0.237 OA
ATOM     73  O   UNL A   1      40.297  35.812  39.896  1.00  0.00    -0.744 OA
ENDBRANCH  69  70
ENDBRANCH  50  64
BRANCH  51  74
ATOM     74  C   UNL A   1      43.184  28.791  27.636  1.00  0.00    -0.014 A 
ATOM     75  C   UNL A   1      43.551  27.423  27.675  1.00  0.00     0.010 A 
ATOM     76  C   UNL A   1      41.881  29.101  27.212  1.00  0.00     0.010 A 
ATOM     77  C   UNL A   1      42.611  26.401  27.431  1.00  0.00     0.020 A 
ATOM     78  C   UNL A   1      40.936  28.080  26.970  1.00  0.00     0.020 A 
ATOM     79  C   UNL A   1      41.289  26.736  27.136  1.00  0.00     0.054 A 
BRANCH  79  80
ATOM     80  S   UNL A   1      40.005  25.428  27.175  1.00  0.00     0.124 S 
ATOM     81  O   UNL A   1      40.553  24.478  28.139  1.00  0.00    -0.237 OA
ATOM     82  O   UNL A   1      38.794  26.118  27.613  1.00  0.00    -0.237 OA
ATOM     83  O   UNL A   1      39.958  24.949  25.793  1.00  0.00    -0.744 OA
ENDBRANCH  79  80
ENDBRANCH  51  74
BRANCH  63  84
ATOM     84  C   UNL A   1      43.271  35.955  28.501  1.00  0.00    -0.014 A 
ATOM     85  C   UNL A   1      42.093  36.342  27.846  1.00  0.00     0.010 A 
ATOM     86  C   UNL A   1      44.259  36.954  28.685  1.00  0.00     0.010 A 
ATOM     87  C   UNL A   1      41.944  37.628  27.317  1.00  0.00     0.020 A 
ATOM     88  C   UNL A   1      44.090  38.262  28.226  1.00  0.00     0.020 A 
ATOM     89  C   UNL A   1      42.947  38.578  27.507  1.00  0.00     0.054 A 
BRANCH  89  90
ATOM     90  S   UNL A   1      42.723  40.239  26.833  1.00  0.00     0.124 S 
ATOM     91  O   UNL A   1      41.302  40.229  26.492  1.00  0.00    -0.237 OA
ATOM     92  O   UNL A   1      43.092  41.097  27.956  1.00  0.00    -0.237 OA
ATOM     93  O   UNL A   1      43.640  40.278  25.697  1.00  0.00    -0.744 OA
ENDBRANCH  89  90
ENDBRANCH  63  84
ENDBRANCH  37  38
ENDBRANCH  29  32
ENDBRANCH  27  28
ENDBRANCH  26  27
ENDBRANCH  25  26
ENDBRANCH   1  25
TORSDOF 19
ENDMDL
