MODEL 1
REMARK VINA RESULT:     -10.6      0.000      0.000
REMARK SMILES CC[C@@H](C)N(C)C(=O)N1[C@@H](C(=O)NCCCCCCNC(=O)c2ccc(-c3c4nc(c(-c5ccc(S(=O)(=O)[O-])cc5)c5ccc([nH]5)c(-c5ccc(S(=O)(=O)[O-])cc5)c5nc(c(-c6ccc(S(=O)(=O)[O-])cc6)c6ccc3[nH]6)C=C5)C=C4)cc2)CC[C@H]2CCCC[C@H]21
REMARK SMILES IDX 16 1 15 2 14 3 13 4 11 5 12 6 10 8 9 9 90 10 83 11 85 12
REMARK SMILES IDX 89 13 84 14 86 15 88 16 87 17 7 18 8 19 5 20 6 21 3 22 4 23
REMARK SMILES IDX 2 24 1 25 17 26 18 27 19 28 20 29 21 30 22 32 23 33 24 34
REMARK SMILES IDX 82 35 25 36 81 37 26 38 27 39 28 40 75 41 29 42 80 43 74 44
REMARK SMILES IDX 76 45 30 46 79 47 73 48 72 49 31 51 61 52 42 53 60 54 43 55
REMARK SMILES IDX 46 56 59 57 77 58 44 59 45 60 58 62 78 63 47 64 32 65 33 66
REMARK SMILES IDX 41 67 34 68 40 69 35 70 36 71 37 72 38 73 39 74 62 75 63 76
REMARK SMILES IDX 71 77 64 78 70 79 65 80 66 81 67 82 68 83 69 84 48 85 49 86
REMARK SMILES IDX 57 87 50 88 56 89 51 90 52 91 53 92 54 93 55 94
REMARK H PARENT 13 7 20 31 76 50 46 61
REMARK Flexibility Score: inf
ROOT
ATOM      1  C   UNL A   1      38.292  23.032  25.974  1.00  0.00     0.002 C 
ENDROOT
BRANCH   1   2
ATOM      2  C   UNL A   1      37.129  22.277  25.320  1.00  0.00     0.021 C 
BRANCH   2   3
ATOM      3  C   UNL A   1      35.817  23.045  25.374  1.00  0.00     0.116 C 
BRANCH   3   4
ATOM      4  N   UNL A   1      35.493  23.576  24.063  1.00  0.00    -0.354 N 
ATOM      5  C   UNL A   1      34.554  24.494  23.716  1.00  0.00     0.242 C 
ATOM      6  O   UNL A   1      34.308  24.641  22.512  1.00  0.00    -0.273 OA
ATOM      7  H   UNL A   1      36.030  23.219  23.319  1.00  0.00     0.163 HD
BRANCH   5   8
ATOM      8  C   UNL A   1      33.711  25.229  24.779  1.00  0.00     0.176 C 
ATOM      9  N   UNL A   1      32.248  24.982  24.763  1.00  0.00    -0.309 N 
ATOM     10  C   UNL A   1      31.449  25.865  25.636  1.00  0.00     0.091 C 
ATOM     11  C   UNL A   1      34.061  26.733  24.634  1.00  0.00     0.036 C 
ATOM     12  C   UNL A   1      31.712  27.355  25.385  1.00  0.00     0.012 C 
ATOM     13  C   UNL A   1      29.932  25.639  25.732  1.00  0.00     0.025 C 
ATOM     14  C   UNL A   1      33.208  27.661  25.489  1.00  0.00     0.008 C 
ATOM     15  C   UNL A   1      31.075  27.879  24.089  1.00  0.00     0.006 C 
ATOM     16  C   UNL A   1      29.095  26.300  24.634  1.00  0.00     0.002 C 
ATOM     17  C   UNL A   1      29.867  27.094  23.585  1.00  0.00     0.000 C 
BRANCH   9  18
ATOM     18  C   UNL A   1      31.632  23.916  24.135  1.00  0.00     0.320 C 
ATOM     19  O   UNL A   1      31.035  24.114  23.076  1.00  0.00    -0.248 OA
BRANCH  18  20
ATOM     20  N   UNL A   1      31.685  22.644  24.673  1.00  0.00    -0.325 N 
ATOM     21  C   UNL A   1      30.884  22.162  25.788  1.00  0.00     0.149 C 
BRANCH  20  22
ATOM     22  C   UNL A   1      32.428  21.590  23.927  1.00  0.00     0.083 C 
ATOM     23  C   UNL A   1      31.995  21.477  22.460  1.00  0.00     0.031 C 
BRANCH  22  24
ATOM     24  C   UNL A   1      32.401  20.242  24.684  1.00  0.00     0.021 C 
ATOM     25  C   UNL A   1      33.724  19.858  25.329  1.00  0.00     0.006 C 
ENDBRANCH  22  24
ENDBRANCH  20  22
ENDBRANCH  18  20
ENDBRANCH   9  18
ENDBRANCH   5   8
ENDBRANCH   3   4
ENDBRANCH   2   3
ENDBRANCH   1   2
BRANCH   1  26
ATOM     26  C   UNL A   1      39.540  22.179  26.227  1.00  0.00     0.002 C 
BRANCH  26  27
ATOM     27  C   UNL A   1      40.265  22.485  27.538  1.00  0.00     0.021 C 
BRANCH  27  28
ATOM     28  C   UNL A   1      41.673  23.036  27.349  1.00  0.00     0.116 C 
BRANCH  28  29
ATOM     29  N   UNL A   1      41.770  23.860  26.155  1.00  0.00    -0.352 N 
ATOM     30  C   UNL A   1      41.567  25.211  26.022  1.00  0.00     0.251 C 
ATOM     31  H   UNL A   1      42.016  23.384  25.330  1.00  0.00     0.163 HD
ATOM     32  O   UNL A   1      41.471  25.714  24.911  1.00  0.00    -0.269 OA
BRANCH  30  33
ATOM     33  C   UNL A   1      41.452  26.042  27.237  1.00  0.00     0.039 A 
ATOM     34  C   UNL A   1      42.436  26.995  27.500  1.00  0.00     0.014 A 
ATOM     35  C   UNL A   1      40.366  25.884  28.104  1.00  0.00     0.014 A 
ATOM     36  C   UNL A   1      42.304  27.828  28.611  1.00  0.00     0.010 A 
ATOM     37  C   UNL A   1      40.196  26.766  29.165  1.00  0.00     0.010 A 
ATOM     38  C   UNL A   1      41.168  27.741  29.435  1.00  0.00    -0.014 A 
BRANCH  38  39
ATOM     39  C   UNL A   1      40.981  28.661  30.585  1.00  0.00     0.031 A 
ATOM     40  C   UNL A   1      41.841  28.517  31.812  1.00  0.00     0.074 A 
ATOM     41  C   UNL A   1      40.003  29.587  30.543  1.00  0.00     0.049 A 
ATOM     42  N   UNL A   1      41.795  29.192  32.930  1.00  0.00    -0.248 NA
ATOM     43  C   UNL A   1      42.872  27.465  31.789  1.00  0.00     0.031 C 
ATOM     44  C   UNL A   1      39.078  29.796  29.425  1.00  0.00     0.029 A 
ATOM     45  N   UNL A   1      39.618  30.526  31.467  1.00  0.00    -0.354 N 
ATOM     46  C   UNL A   1      42.774  28.638  33.747  1.00  0.00     0.074 A 
ATOM     47  C   UNL A   1      43.365  27.540  33.016  1.00  0.00     0.031 C 
ATOM     48  C   UNL A   1      38.255  30.816  29.718  1.00  0.00     0.029 A 
ATOM     49  C   UNL A   1      38.559  31.303  31.059  1.00  0.00     0.049 A 
ATOM     50  H   UNL A   1      40.058  30.632  32.342  1.00  0.00     0.167 HD
ATOM     51  C   UNL A   1      43.159  29.022  34.987  1.00  0.00     0.031 A 
ATOM     52  C   UNL A   1      37.899  32.290  31.697  1.00  0.00     0.031 A 
ATOM     53  C   UNL A   1      42.577  30.126  35.704  1.00  0.00     0.049 A 
ATOM     54  C   UNL A   1      38.339  32.685  33.081  1.00  0.00     0.074 A 
ATOM     55  C   UNL A   1      42.939  30.632  36.940  1.00  0.00     0.029 A 
ATOM     56  N   UNL A   1      41.513  30.892  35.253  1.00  0.00    -0.354 N 
ATOM     57  N   UNL A   1      39.316  32.196  33.807  1.00  0.00    -0.248 NA
ATOM     58  C   UNL A   1      37.594  33.774  33.729  1.00  0.00     0.031 C 
ATOM     59  C   UNL A   1      42.053  31.662  37.265  1.00  0.00     0.029 A 
ATOM     60  C   UNL A   1      41.186  31.847  36.200  1.00  0.00     0.049 A 
ATOM     61  H   UNL A   1      41.058  30.774  34.388  1.00  0.00     0.167 HD
ATOM     62  C   UNL A   1      39.323  32.940  34.982  1.00  0.00     0.074 A 
ATOM     63  C   UNL A   1      38.267  33.922  34.862  1.00  0.00     0.031 C 
ATOM     64  C   UNL A   1      40.134  32.822  36.063  1.00  0.00     0.031 A 
BRANCH  51  65
ATOM     65  C   UNL A   1      44.263  28.245  35.656  1.00  0.00    -0.014 A 
ATOM     66  C   UNL A   1      45.608  28.638  35.533  1.00  0.00     0.010 A 
ATOM     67  C   UNL A   1      43.943  27.150  36.480  1.00  0.00     0.010 A 
ATOM     68  C   UNL A   1      46.615  27.936  36.202  1.00  0.00     0.020 A 
ATOM     69  C   UNL A   1      44.943  26.464  37.175  1.00  0.00     0.020 A 
ATOM     70  C   UNL A   1      46.275  26.856  37.023  1.00  0.00     0.054 A 
BRANCH  70  71
ATOM     71  S   UNL A   1      47.598  26.000  37.921  1.00  0.00     0.124 S 
ATOM     72  O   UNL A   1      46.842  25.175  38.859  1.00  0.00    -0.237 OA
ATOM     73  O   UNL A   1      48.285  25.273  36.857  1.00  0.00    -0.237 OA
ATOM     74  O   UNL A   1      48.366  27.085  38.527  1.00  0.00    -0.744 OA
ENDBRANCH  70  71
ENDBRANCH  51  65
BRANCH  52  75
ATOM     75  C   UNL A   1      36.753  32.976  31.037  1.00  0.00    -0.014 A 
ATOM     76  C   UNL A   1      35.428  32.633  31.361  1.00  0.00     0.010 A 
ATOM     77  C   UNL A   1      36.982  33.967  30.065  1.00  0.00     0.010 A 
ATOM     78  C   UNL A   1      34.356  33.241  30.699  1.00  0.00     0.020 A 
ATOM     79  C   UNL A   1      35.913  34.602  29.427  1.00  0.00     0.020 A 
ATOM     80  C   UNL A   1      34.606  34.220  29.734  1.00  0.00     0.054 A 
BRANCH  80  81
ATOM     81  S   UNL A   1      33.199  35.007  28.902  1.00  0.00     0.124 S 
ATOM     82  O   UNL A   1      32.741  33.945  28.011  1.00  0.00    -0.237 OA
ATOM     83  O   UNL A   1      32.312  35.326  30.018  1.00  0.00    -0.237 OA
ATOM     84  O   UNL A   1      33.797  36.165  28.241  1.00  0.00    -0.744 OA
ENDBRANCH  80  81
ENDBRANCH  52  75
BRANCH  64  85
ATOM     85  C   UNL A   1      39.942  33.807  37.187  1.00  0.00    -0.014 A 
ATOM     86  C   UNL A   1      40.385  35.137  37.081  1.00  0.00     0.010 A 
ATOM     87  C   UNL A   1      39.254  33.404  38.347  1.00  0.00     0.010 A 
ATOM     88  C   UNL A   1      40.174  36.037  38.129  1.00  0.00     0.020 A 
ATOM     89  C   UNL A   1      39.011  34.310  39.383  1.00  0.00     0.020 A 
ATOM     90  C   UNL A   1      39.486  35.617  39.273  1.00  0.00     0.054 A 
BRANCH  90  91
ATOM     91  S   UNL A   1      39.186  36.817  40.599  1.00  0.00     0.124 S 
ATOM     92  O   UNL A   1      40.533  37.041  41.118  1.00  0.00    -0.237 OA
ATOM     93  O   UNL A   1      38.593  37.943  39.882  1.00  0.00    -0.237 OA
ATOM     94  O   UNL A   1      38.279  36.114  41.504  1.00  0.00    -0.744 OA
ENDBRANCH  90  91
ENDBRANCH  64  85
ENDBRANCH  38  39
ENDBRANCH  30  33
ENDBRANCH  28  29
ENDBRANCH  27  28
ENDBRANCH  26  27
ENDBRANCH   1  26
TORSDOF 20
ENDMDL
MODEL 2
REMARK VINA RESULT:     -10.4      2.802      8.872
REMARK SMILES CC[C@@H](C)N(C)C(=O)N1[C@@H](C(=O)NCCCCCCNC(=O)c2ccc(-c3c4nc(c(-c5ccc(S(=O)(=O)[O-])cc5)c5ccc([nH]5)c(-c5ccc(S(=O)(=O)[O-])cc5)c5nc(c(-c6ccc(S(=O)(=O)[O-])cc6)c6ccc3[nH]6)C=C5)C=C4)cc2)CC[C@H]2CCCC[C@H]21
REMARK SMILES IDX 16 1 15 2 14 3 13 4 11 5 12 6 10 8 9 9 90 10 83 11 85 12
REMARK SMILES IDX 89 13 84 14 86 15 88 16 87 17 7 18 8 19 5 20 6 21 3 22 4 23
REMARK SMILES IDX 2 24 1 25 17 26 18 27 19 28 20 29 21 30 22 32 23 33 24 34
REMARK SMILES IDX 82 35 25 36 81 37 26 38 27 39 28 40 75 41 29 42 80 43 74 44
REMARK SMILES IDX 76 45 30 46 79 47 73 48 72 49 31 51 61 52 42 53 60 54 43 55
REMARK SMILES IDX 46 56 59 57 77 58 44 59 45 60 58 62 78 63 47 64 32 65 33 66
REMARK SMILES IDX 41 67 34 68 40 69 35 70 36 71 37 72 38 73 39 74 62 75 63 76
REMARK SMILES IDX 71 77 64 78 70 79 65 80 66 81 67 82 68 83 69 84 48 85 49 86
REMARK SMILES IDX 57 87 50 88 56 89 51 90 52 91 53 92 54 93 55 94
REMARK H PARENT 13 7 20 31 76 50 46 61
REMARK Flexibility Score: inf
ROOT
ATOM      1  C   UNL A   1      35.645  31.618  28.201  1.00  0.00     0.002 C 
ENDROOT
BRANCH   1   2
ATOM      2  C   UNL A   1      34.374  31.086  27.530  1.00  0.00     0.021 C 
BRANCH   2   3
ATOM      3  C   UNL A   1      34.470  29.614  27.158  1.00  0.00     0.116 C 
BRANCH   3   4
ATOM      4  N   UNL A   1      33.307  28.896  27.647  1.00  0.00    -0.354 N 
ATOM      5  C   UNL A   1      32.638  27.859  27.082  1.00  0.00     0.242 C 
ATOM      6  O   UNL A   1      31.547  27.541  27.572  1.00  0.00    -0.273 OA
ATOM      7  H   UNL A   1      32.953  29.207  28.511  1.00  0.00     0.163 HD
BRANCH   5   8
ATOM      8  C   UNL A   1      33.136  27.185  25.786  1.00  0.00     0.176 C 
ATOM      9  N   UNL A   1      32.103  26.767  24.807  1.00  0.00    -0.309 N 
ATOM     10  C   UNL A   1      32.591  25.930  23.692  1.00  0.00     0.091 C 
ATOM     11  C   UNL A   1      34.038  26.008  26.238  1.00  0.00     0.036 C 
ATOM     12  C   UNL A   1      33.368  24.695  24.165  1.00  0.00     0.012 C 
ATOM     13  C   UNL A   1      31.601  25.503  22.597  1.00  0.00     0.025 C 
ATOM     14  C   UNL A   1      34.504  25.103  25.105  1.00  0.00     0.008 C 
ATOM     15  C   UNL A   1      32.469  23.591  24.745  1.00  0.00     0.006 C 
ATOM     16  C   UNL A   1      30.770  24.256  22.906  1.00  0.00     0.002 C 
ATOM     17  C   UNL A   1      31.023  23.597  24.258  1.00  0.00     0.000 C 
BRANCH   9  18
ATOM     18  C   UNL A   1      30.800  27.228  24.785  1.00  0.00     0.320 C 
ATOM     19  O   UNL A   1      29.917  26.541  25.300  1.00  0.00    -0.248 OA
BRANCH  18  20
ATOM     20  N   UNL A   1      30.484  28.443  24.206  1.00  0.00    -0.325 N 
ATOM     21  C   UNL A   1      30.990  29.740  24.631  1.00  0.00     0.149 C 
BRANCH  20  22
ATOM     22  C   UNL A   1      29.769  28.441  22.899  1.00  0.00     0.083 C 
ATOM     23  C   UNL A   1      30.233  29.563  21.962  1.00  0.00     0.031 C 
BRANCH  22  24
ATOM     24  C   UNL A   1      28.236  28.397  23.098  1.00  0.00     0.021 C 
ATOM     25  C   UNL A   1      27.545  29.744  22.952  1.00  0.00     0.006 C 
ENDBRANCH  22  24
ENDBRANCH  20  22
ENDBRANCH  18  20
ENDBRANCH   9  18
ENDBRANCH   5   8
ENDBRANCH   3   4
ENDBRANCH   2   3
ENDBRANCH   1   2
BRANCH   1  26
ATOM     26  C   UNL A   1      35.418  32.815  29.130  1.00  0.00     0.002 C 
BRANCH  26  27
ATOM     27  C   UNL A   1      33.991  33.366  29.121  1.00  0.00     0.021 C 
BRANCH  27  28
ATOM     28  C   UNL A   1      33.914  34.879  29.288  1.00  0.00     0.116 C 
BRANCH  28  29
ATOM     29  N   UNL A   1      33.038  35.253  30.387  1.00  0.00    -0.352 N 
ATOM     30  C   UNL A   1      33.157  34.959  31.722  1.00  0.00     0.251 C 
ATOM     31  H   UNL A   1      32.253  35.792  30.139  1.00  0.00     0.163 HD
ATOM     32  O   UNL A   1      32.221  35.159  32.484  1.00  0.00    -0.269 OA
BRANCH  30  33
ATOM     33  C   UNL A   1      34.424  34.384  32.220  1.00  0.00     0.039 A 
ATOM     34  C   UNL A   1      34.427  33.077  32.708  1.00  0.00     0.014 A 
ATOM     35  C   UNL A   1      35.602  35.135  32.190  1.00  0.00     0.014 A 
ATOM     36  C   UNL A   1      35.630  32.504  33.122  1.00  0.00     0.010 A 
ATOM     37  C   UNL A   1      36.810  34.536  32.528  1.00  0.00     0.010 A 
ATOM     38  C   UNL A   1      36.835  33.218  33.006  1.00  0.00    -0.014 A 
BRANCH  38  39
ATOM     39  C   UNL A   1      38.132  32.601  33.384  1.00  0.00     0.031 A 
ATOM     40  C   UNL A   1      38.724  32.863  34.743  1.00  0.00     0.074 A 
ATOM     41  C   UNL A   1      38.798  31.851  32.483  1.00  0.00     0.049 A 
ATOM     42  N   UNL A   1      39.864  32.453  35.234  1.00  0.00    -0.248 NA
ATOM     43  C   UNL A   1      37.945  33.713  35.660  1.00  0.00     0.031 C 
ATOM     44  C   UNL A   1      38.345  31.559  31.120  1.00  0.00     0.029 A 
ATOM     45  N   UNL A   1      40.002  31.200  32.577  1.00  0.00    -0.354 N 
ATOM     46  C   UNL A   1      39.947  33.007  36.508  1.00  0.00     0.074 A 
ATOM     47  C   UNL A   1      38.767  33.820  36.694  1.00  0.00     0.031 C 
ATOM     48  C   UNL A   1      39.245  30.766  30.517  1.00  0.00     0.029 A 
ATOM     49  C   UNL A   1      40.359  30.529  31.430  1.00  0.00     0.049 A 
ATOM     50  H   UNL A   1      40.560  31.212  33.388  1.00  0.00     0.167 HD
ATOM     51  C   UNL A   1      40.911  32.836  37.443  1.00  0.00     0.031 A 
ATOM     52  C   UNL A   1      41.464  29.814  31.140  1.00  0.00     0.031 A 
ATOM     53  C   UNL A   1      42.076  32.012  37.256  1.00  0.00     0.049 A 
ATOM     54  C   UNL A   1      42.526  29.655  32.194  1.00  0.00     0.074 A 
ATOM     55  C   UNL A   1      43.079  31.728  38.166  1.00  0.00     0.029 A 
ATOM     56  N   UNL A   1      42.396  31.345  36.084  1.00  0.00    -0.354 N 
ATOM     57  N   UNL A   1      42.551  30.126  33.418  1.00  0.00    -0.248 NA
ATOM     58  C   UNL A   1      43.706  28.857  31.832  1.00  0.00     0.031 C 
ATOM     59  C   UNL A   1      44.038  30.940  37.524  1.00  0.00     0.029 A 
ATOM     60  C   UNL A   1      43.597  30.674  36.238  1.00  0.00     0.049 A 
ATOM     61  H   UNL A   1      41.850  31.349  35.265  1.00  0.00     0.167 HD
ATOM     62  C   UNL A   1      43.731  29.654  33.982  1.00  0.00     0.074 A 
ATOM     63  C   UNL A   1      44.383  28.846  32.973  1.00  0.00     0.031 C 
ATOM     64  C   UNL A   1      44.230  29.868  35.225  1.00  0.00     0.031 A 
BRANCH  51  65
ATOM     65  C   UNL A   1      40.753  33.555  38.758  1.00  0.00    -0.014 A 
ATOM     66  C   UNL A   1      41.270  34.850  38.946  1.00  0.00     0.010 A 
ATOM     67  C   UNL A   1      40.014  32.956  39.794  1.00  0.00     0.010 A 
ATOM     68  C   UNL A   1      41.070  35.522  40.155  1.00  0.00     0.020 A 
ATOM     69  C   UNL A   1      39.787  33.636  40.994  1.00  0.00     0.020 A 
ATOM     70  C   UNL A   1      40.325  34.913  41.170  1.00  0.00     0.054 A 
BRANCH  70  71
ATOM     71  S   UNL A   1      40.037  35.833  42.707  1.00  0.00     0.124 S 
ATOM     72  O   UNL A   1      40.767  37.073  42.457  1.00  0.00    -0.237 OA
ATOM     73  O   UNL A   1      38.582  35.954  42.736  1.00  0.00    -0.237 OA
ATOM     74  O   UNL A   1      40.609  34.972  43.740  1.00  0.00    -0.744 OA
ENDBRANCH  70  71
ENDBRANCH  51  65
BRANCH  52  75
ATOM     75  C   UNL A   1      41.626  29.193  29.795  1.00  0.00    -0.014 A 
ATOM     76  C   UNL A   1      41.168  27.886  29.548  1.00  0.00     0.010 A 
ATOM     77  C   UNL A   1      42.257  29.902  28.757  1.00  0.00     0.010 A 
ATOM     78  C   UNL A   1      41.372  27.288  28.300  1.00  0.00     0.020 A 
ATOM     79  C   UNL A   1      42.431  29.320  27.498  1.00  0.00     0.020 A 
ATOM     80  C   UNL A   1      42.004  28.008  27.284  1.00  0.00     0.054 A 
BRANCH  80  81
ATOM     81  S   UNL A   1      42.242  27.218  25.668  1.00  0.00     0.124 S 
ATOM     82  O   UNL A   1      43.498  26.501  25.864  1.00  0.00    -0.237 OA
ATOM     83  O   UNL A   1      41.048  26.384  25.548  1.00  0.00    -0.237 OA
ATOM     84  O   UNL A   1      42.301  28.345  24.741  1.00  0.00    -0.744 OA
ENDBRANCH  80  81
ENDBRANCH  52  75
BRANCH  64  85
ATOM     85  C   UNL A   1      45.524  29.184  35.582  1.00  0.00    -0.014 A 
ATOM     86  C   UNL A   1      46.765  29.811  35.380  1.00  0.00     0.010 A 
ATOM     87  C   UNL A   1      45.488  27.913  36.186  1.00  0.00     0.010 A 
ATOM     88  C   UNL A   1      47.950  29.164  35.742  1.00  0.00     0.020 A 
ATOM     89  C   UNL A   1      46.668  27.277  36.580  1.00  0.00     0.020 A 
ATOM     90  C   UNL A   1      47.893  27.902  36.342  1.00  0.00     0.054 A 
BRANCH  90  91
ATOM     91  S   UNL A   1      49.443  27.103  36.843  1.00  0.00     0.124 S 
ATOM     92  O   UNL A   1      49.363  27.172  38.300  1.00  0.00    -0.237 OA
ATOM     93  O   UNL A   1      49.312  25.767  36.269  1.00  0.00    -0.237 OA
ATOM     94  O   UNL A   1      50.476  27.939  36.236  1.00  0.00    -0.744 OA
ENDBRANCH  90  91
ENDBRANCH  64  85
ENDBRANCH  38  39
ENDBRANCH  30  33
ENDBRANCH  28  29
ENDBRANCH  27  28
ENDBRANCH  26  27
ENDBRANCH   1  26
TORSDOF 20
ENDMDL
MODEL 3
REMARK VINA RESULT:     -10.2      5.856      7.902
REMARK SMILES CC[C@@H](C)N(C)C(=O)N1[C@@H](C(=O)NCCCCCCNC(=O)c2ccc(-c3c4nc(c(-c5ccc(S(=O)(=O)[O-])cc5)c5ccc([nH]5)c(-c5ccc(S(=O)(=O)[O-])cc5)c5nc(c(-c6ccc(S(=O)(=O)[O-])cc6)c6ccc3[nH]6)C=C5)C=C4)cc2)CC[C@H]2CCCC[C@H]21
REMARK SMILES IDX 16 1 15 2 14 3 13 4 11 5 12 6 10 8 9 9 90 10 83 11 85 12
REMARK SMILES IDX 89 13 84 14 86 15 88 16 87 17 7 18 8 19 5 20 6 21 3 22 4 23
REMARK SMILES IDX 2 24 1 25 17 26 18 27 19 28 20 29 21 30 22 32 23 33 24 34
REMARK SMILES IDX 82 35 25 36 81 37 26 38 27 39 28 40 75 41 29 42 80 43 74 44
REMARK SMILES IDX 76 45 30 46 79 47 73 48 72 49 31 51 61 52 42 53 60 54 43 55
REMARK SMILES IDX 46 56 59 57 77 58 44 59 45 60 58 62 78 63 47 64 32 65 33 66
REMARK SMILES IDX 41 67 34 68 40 69 35 70 36 71 37 72 38 73 39 74 62 75 63 76
REMARK SMILES IDX 71 77 64 78 70 79 65 80 66 81 67 82 68 83 69 84 48 85 49 86
REMARK SMILES IDX 57 87 50 88 56 89 51 90 52 91 53 92 54 93 55 94
REMARK H PARENT 13 7 20 31 76 50 46 61
REMARK Flexibility Score: inf
ROOT
ATOM      1  C   UNL A   1      37.871  22.871  25.625  1.00  0.00     0.002 C 
ENDROOT
BRANCH   1   2
ATOM      2  C   UNL A   1      36.716  23.870  25.760  1.00  0.00     0.021 C 
BRANCH   2   3
ATOM      3  C   UNL A   1      35.403  23.338  25.206  1.00  0.00     0.116 C 
BRANCH   3   4
ATOM      4  N   UNL A   1      35.149  23.901  23.892  1.00  0.00    -0.354 N 
ATOM      5  C   UNL A   1      34.256  24.857  23.525  1.00  0.00     0.242 C 
ATOM      6  O   UNL A   1      34.064  25.031  22.315  1.00  0.00    -0.273 OA
ATOM      7  H   UNL A   1      35.702  23.537  23.164  1.00  0.00     0.163 HD
BRANCH   5   8
ATOM      8  C   UNL A   1      33.399  25.605  24.567  1.00  0.00     0.176 C 
ATOM      9  N   UNL A   1      31.956  25.262  24.619  1.00  0.00    -0.309 N 
ATOM     10  C   UNL A   1      31.126  26.147  25.461  1.00  0.00     0.091 C 
ATOM     11  C   UNL A   1      33.642  27.115  24.314  1.00  0.00     0.036 C 
ATOM     12  C   UNL A   1      31.281  27.631  25.105  1.00  0.00     0.012 C 
ATOM     13  C   UNL A   1      29.632  25.830  25.623  1.00  0.00     0.025 C 
ATOM     14  C   UNL A   1      32.755  28.040  25.136  1.00  0.00     0.008 C 
ATOM     15  C   UNL A   1      30.570  28.025  23.800  1.00  0.00     0.006 C 
ATOM     16  C   UNL A   1      28.719  26.360  24.515  1.00  0.00     0.002 C 
ATOM     17  C   UNL A   1      29.403  27.131  23.391  1.00  0.00     0.000 C 
BRANCH   9  18
ATOM     18  C   UNL A   1      31.394  24.119  24.083  1.00  0.00     0.320 C 
ATOM     19  O   UNL A   1      30.772  24.202  23.023  1.00  0.00    -0.248 OA
BRANCH  18  20
ATOM     20  N   UNL A   1      31.530  22.895  24.712  1.00  0.00    -0.325 N 
ATOM     21  C   UNL A   1      30.730  22.429  25.835  1.00  0.00     0.149 C 
BRANCH  20  22
ATOM     22  C   UNL A   1      32.379  21.856  24.065  1.00  0.00     0.083 C 
ATOM     23  C   UNL A   1      32.035  21.636  22.587  1.00  0.00     0.031 C 
BRANCH  22  24
ATOM     24  C   UNL A   1      32.398  20.551  24.896  1.00  0.00     0.021 C 
ATOM     25  C   UNL A   1      33.727  19.813  24.873  1.00  0.00     0.006 C 
ENDBRANCH  22  24
ENDBRANCH  20  22
ENDBRANCH  18  20
ENDBRANCH   9  18
ENDBRANCH   5   8
ENDBRANCH   3   4
ENDBRANCH   2   3
ENDBRANCH   1   2
BRANCH   1  26
ATOM     26  C   UNL A   1      39.049  23.132  26.569  1.00  0.00     0.002 C 
BRANCH  26  27
ATOM     27  C   UNL A   1      39.796  21.875  27.017  1.00  0.00     0.021 C 
BRANCH  27  28
ATOM     28  C   UNL A   1      39.719  20.725  26.020  1.00  0.00     0.116 C 
BRANCH  28  29
ATOM     29  N   UNL A   1      40.680  19.679  26.333  1.00  0.00    -0.352 N 
ATOM     30  C   UNL A   1      42.026  19.789  26.573  1.00  0.00     0.251 C 
ATOM     31  H   UNL A   1      40.313  18.767  26.380  1.00  0.00     0.163 HD
ATOM     32  O   UNL A   1      42.732  18.790  26.602  1.00  0.00    -0.269 OA
BRANCH  30  33
ATOM     33  C   UNL A   1      42.611  21.130  26.779  1.00  0.00     0.039 A 
ATOM     34  C   UNL A   1      42.841  21.944  25.670  1.00  0.00     0.014 A 
ATOM     35  C   UNL A   1      42.918  21.578  28.067  1.00  0.00     0.014 A 
ATOM     36  C   UNL A   1      43.334  23.235  25.859  1.00  0.00     0.010 A 
ATOM     37  C   UNL A   1      43.333  22.891  28.259  1.00  0.00     0.010 A 
ATOM     38  C   UNL A   1      43.555  23.730  27.157  1.00  0.00    -0.014 A 
BRANCH  38  39
ATOM     39  C   UNL A   1      44.020  25.122  27.378  1.00  0.00     0.031 A 
ATOM     40  C   UNL A   1      45.462  25.483  27.136  1.00  0.00     0.074 A 
ATOM     41  C   UNL A   1      43.157  26.044  27.849  1.00  0.00     0.049 A 
ATOM     42  N   UNL A   1      46.063  26.628  27.319  1.00  0.00    -0.248 NA
ATOM     43  C   UNL A   1      46.347  24.412  26.646  1.00  0.00     0.031 C 
ATOM     44  C   UNL A   1      41.745  25.804  28.161  1.00  0.00     0.029 A 
ATOM     45  N   UNL A   1      43.341  27.370  28.153  1.00  0.00    -0.354 N 
ATOM     46  C   UNL A   1      47.396  26.414  26.984  1.00  0.00     0.074 A 
ATOM     47  C   UNL A   1      47.525  25.018  26.633  1.00  0.00     0.031 C 
ATOM     48  C   UNL A   1      41.187  26.950  28.583  1.00  0.00     0.029 A 
ATOM     49  C   UNL A   1      42.206  27.993  28.618  1.00  0.00     0.049 A 
ATOM     50  H   UNL A   1      44.204  27.832  28.048  1.00  0.00     0.167 HD
ATOM     51  C   UNL A   1      48.414  27.305  26.952  1.00  0.00     0.031 A 
ATOM     52  C   UNL A   1      42.010  29.259  29.036  1.00  0.00     0.031 A 
ATOM     53  C   UNL A   1      48.275  28.698  27.288  1.00  0.00     0.049 A 
ATOM     54  C   UNL A   1      43.165  30.224  29.005  1.00  0.00     0.074 A 
ATOM     55  C   UNL A   1      49.234  29.694  27.229  1.00  0.00     0.029 A 
ATOM     56  N   UNL A   1      47.109  29.290  27.746  1.00  0.00    -0.354 N 
ATOM     57  N   UNL A   1      44.401  30.019  28.614  1.00  0.00    -0.248 NA
ATOM     58  C   UNL A   1      42.897  31.595  29.461  1.00  0.00     0.031 C 
ATOM     59  C   UNL A   1      48.666  30.875  27.712  1.00  0.00     0.029 A 
ATOM     60  C   UNL A   1      47.332  30.633  28.003  1.00  0.00     0.049 A 
ATOM     61  H   UNL A   1      46.250  28.826  27.871  1.00  0.00     0.167 HD
ATOM     62  C   UNL A   1      45.047  31.243  28.745  1.00  0.00     0.074 A 
ATOM     63  C   UNL A   1      44.063  32.186  29.234  1.00  0.00     0.031 C 
ATOM     64  C   UNL A   1      46.340  31.560  28.484  1.00  0.00     0.031 A 
BRANCH  51  65
ATOM     65  C   UNL A   1      49.776  26.807  26.542  1.00  0.00    -0.014 A 
ATOM     66  C   UNL A   1      50.579  26.069  27.431  1.00  0.00     0.010 A 
ATOM     67  C   UNL A   1      50.227  27.016  25.226  1.00  0.00     0.010 A 
ATOM     68  C   UNL A   1      51.817  25.570  27.018  1.00  0.00     0.020 A 
ATOM     69  C   UNL A   1      51.451  26.493  24.800  1.00  0.00     0.020 A 
ATOM     70  C   UNL A   1      52.244  25.781  25.703  1.00  0.00     0.054 A 
BRANCH  70  71
ATOM     71  S   UNL A   1      53.831  25.075  25.182  1.00  0.00     0.124 S 
ATOM     72  O   UNL A   1      53.598  23.644  25.361  1.00  0.00    -0.237 OA
ATOM     73  O   UNL A   1      53.939  25.526  23.797  1.00  0.00    -0.237 OA
ATOM     74  O   UNL A   1      54.796  25.668  26.105  1.00  0.00    -0.744 OA
ENDBRANCH  70  71
ENDBRANCH  51  65
BRANCH  52  75
ATOM     75  C   UNL A   1      40.670  29.692  29.520  1.00  0.00    -0.014 A 
ATOM     76  C   UNL A   1      39.635  29.978  28.612  1.00  0.00     0.010 A 
ATOM     77  C   UNL A   1      40.425  29.838  30.899  1.00  0.00     0.010 A 
ATOM     78  C   UNL A   1      38.395  30.436  29.069  1.00  0.00     0.020 A 
ATOM     79  C   UNL A   1      39.176  30.262  31.361  1.00  0.00     0.020 A 
ATOM     80  C   UNL A   1      38.175  30.577  30.441  1.00  0.00     0.054 A 
BRANCH  80  81
ATOM     81  S   UNL A   1      36.553  31.157  31.012  1.00  0.00     0.124 S 
ATOM     82  O   UNL A   1      36.906  32.365  31.751  1.00  0.00    -0.237 OA
ATOM     83  O   UNL A   1      35.835  31.368  29.758  1.00  0.00    -0.237 OA
ATOM     84  O   UNL A   1      36.060  30.047  31.825  1.00  0.00    -0.744 OA
ENDBRANCH  80  81
ENDBRANCH  52  75
BRANCH  64  85
ATOM     85  C   UNL A   1      46.758  32.995  28.676  1.00  0.00    -0.014 A 
ATOM     86  C   UNL A   1      47.311  33.440  29.889  1.00  0.00     0.010 A 
ATOM     87  C   UNL A   1      46.646  33.895  27.601  1.00  0.00     0.010 A 
ATOM     88  C   UNL A   1      47.713  34.771  30.034  1.00  0.00     0.020 A 
ATOM     89  C   UNL A   1      47.077  35.218  27.732  1.00  0.00     0.020 A 
ATOM     90  C   UNL A   1      47.594  35.651  28.953  1.00  0.00     0.054 A 
BRANCH  90  91
ATOM     91  S   UNL A   1      48.164  37.361  29.154  1.00  0.00     0.124 S 
ATOM     92  O   UNL A   1      49.376  37.376  28.339  1.00  0.00    -0.237 OA
ATOM     93  O   UNL A   1      47.043  38.135  28.626  1.00  0.00    -0.237 OA
ATOM     94  O   UNL A   1      48.379  37.489  30.593  1.00  0.00    -0.744 OA
ENDBRANCH  90  91
ENDBRANCH  64  85
ENDBRANCH  38  39
ENDBRANCH  30  33
ENDBRANCH  28  29
ENDBRANCH  27  28
ENDBRANCH  26  27
ENDBRANCH   1  26
TORSDOF 20
ENDMDL
