MODEL 1
REMARK VINA RESULT:     -11.9      0.000      0.000
REMARK SMILES O=C(NCCCCCCNC(=O)c1ccc(-c2c3nc(c(-c4ccc(S(=O)(=O)[O-])cc4)c4ccc([nH]4)c(-c4ccc(S(=O)(=O)[O-])cc4)c4nc(c(-c5ccc(S(=O)(=O)[O-])cc5)c5ccc2[nH]5)C=C4)C=C3)cc1)C1=Cc2c(ccc(Cl)c2Cl)O[C@H]1C(F)(F)F
REMARK SMILES IDX 7 1 6 2 5 3 4 4 3 5 1 6 2 7 73 9 74 10 84 11 75 12 83 13
REMARK SMILES IDX 76 14 81 15 77 16 79 17 82 18 78 19 80 20 85 21 86 22 87 23
REMARK SMILES IDX 88 24 8 25 9 26 10 27 11 28 12 30 13 31 14 32 72 33 15 34
REMARK SMILES IDX 71 35 16 36 17 37 18 38 65 39 19 40 70 41 64 42 66 43 20 44
REMARK SMILES IDX 69 45 63 46 62 47 21 49 51 50 32 51 50 52 33 53 36 54 49 55
REMARK SMILES IDX 67 56 34 57 35 58 48 60 68 61 37 62 22 63 23 64 31 65 24 66
REMARK SMILES IDX 30 67 25 68 26 69 27 70 28 71 29 72 52 73 53 74 61 75 54 76
REMARK SMILES IDX 60 77 55 78 56 79 57 80 58 81 59 82 38 83 39 84 47 85 40 86
REMARK SMILES IDX 46 87 41 88 42 89 43 90 44 91 45 92
REMARK H PARENT 3 8 10 29 66 48 36 59
REMARK Flexibility Score: inf
ROOT
ATOM      1  C   UNL A   1      37.345  22.667  24.943  1.00  0.00     0.002 C 
ENDROOT
BRANCH   1   2
ATOM      2  C   UNL A   1      36.463  23.044  23.743  1.00  0.00     0.002 C 
BRANCH   2   3
ATOM      3  C   UNL A   1      34.947  22.999  23.941  1.00  0.00     0.021 C 
BRANCH   3   4
ATOM      4  C   UNL A   1      34.333  24.231  24.588  1.00  0.00     0.116 C 
BRANCH   4   5
ATOM      5  N   UNL A   1      33.280  23.977  25.564  1.00  0.00    -0.352 N 
ATOM      6  O   UNL A   1      31.593  24.689  26.939  1.00  0.00    -0.270 OA
ATOM      7  C   UNL A   1      32.398  24.921  26.058  1.00  0.00     0.251 C 
ATOM      8  H   UNL A   1      33.189  23.056  25.900  1.00  0.00     0.163 HD
BRANCH   7   9
ATOM      9  C   UNL A   1      32.532  26.267  25.456  1.00  0.00     0.067 C 
ATOM     10  C   UNL A   1      33.455  27.066  26.009  1.00  0.00     0.027 C 
ATOM     11  C   UNL A   1      31.412  26.730  24.581  1.00  0.00     0.314 C 
ATOM     12  C   UNL A   1      33.140  28.499  26.056  1.00  0.00     0.037 A 
ATOM     13  O   UNL A   1      31.133  28.147  24.688  1.00  0.00    -0.475 OA
ATOM     14  C   UNL A   1      31.936  28.927  25.475  1.00  0.00     0.129 A 
ATOM     15  C   UNL A   1      33.866  29.400  26.867  1.00  0.00     0.070 A 
ATOM     16  C   UNL A   1      31.436  30.204  25.731  1.00  0.00     0.049 A 
ATOM     17  C   UNL A   1      33.342  30.675  27.136  1.00  0.00     0.060 A 
ATOM     18  Cl  UNL A   1      35.372  28.913  27.591  1.00  0.00    -0.082 Cl
ATOM     19  C   UNL A   1      32.124  31.068  26.579  1.00  0.00     0.026 A 
ATOM     20  Cl  UNL A   1      34.115  31.791  28.209  1.00  0.00    -0.083 Cl
BRANCH  11  21
ATOM     21  C   UNL A   1      31.609  26.320  23.109  1.00  0.00     0.429 C 
ATOM     22  F   UNL A   1      31.290  25.029  22.869  1.00  0.00    -0.167 F 
ATOM     23  F   UNL A   1      30.854  27.089  22.288  1.00  0.00    -0.167 F 
ATOM     24  F   UNL A   1      32.896  26.488  22.712  1.00  0.00    -0.167 F 
ENDBRANCH  11  21
ENDBRANCH   7   9
ENDBRANCH   4   5
ENDBRANCH   3   4
ENDBRANCH   2   3
ENDBRANCH   1   2
BRANCH   1  25
ATOM     25  C   UNL A   1      37.518  23.703  26.062  1.00  0.00     0.021 C 
BRANCH  25  26
ATOM     26  C   UNL A   1      38.874  23.750  26.767  1.00  0.00     0.116 C 
BRANCH  26  27
ATOM     27  N   UNL A   1      39.933  24.297  25.942  1.00  0.00    -0.352 N 
ATOM     28  C   UNL A   1      40.692  25.433  26.080  1.00  0.00     0.251 C 
ATOM     29  H   UNL A   1      40.143  23.762  25.144  1.00  0.00     0.163 HD
ATOM     30  O   UNL A   1      41.478  25.720  25.177  1.00  0.00    -0.269 OA
BRANCH  28  31
ATOM     31  C   UNL A   1      40.581  26.332  27.258  1.00  0.00     0.039 A 
ATOM     32  C   UNL A   1      41.424  27.451  27.309  1.00  0.00     0.014 A 
ATOM     33  C   UNL A   1      39.737  26.068  28.340  1.00  0.00     0.014 A 
ATOM     34  C   UNL A   1      41.384  28.324  28.401  1.00  0.00     0.010 A 
ATOM     35  C   UNL A   1      39.665  26.966  29.414  1.00  0.00     0.010 A 
ATOM     36  C   UNL A   1      40.487  28.102  29.456  1.00  0.00    -0.014 A 
BRANCH  36  37
ATOM     37  C   UNL A   1      40.397  29.054  30.595  1.00  0.00     0.031 A 
ATOM     38  C   UNL A   1      41.304  28.916  31.789  1.00  0.00     0.074 A 
ATOM     39  C   UNL A   1      39.466  30.030  30.584  1.00  0.00     0.049 A 
ATOM     40  N   UNL A   1      41.315  29.609  32.900  1.00  0.00    -0.248 NA
ATOM     41  C   UNL A   1      42.320  27.853  31.731  1.00  0.00     0.031 C 
ATOM     42  C   UNL A   1      38.507  30.274  29.505  1.00  0.00     0.029 A 
ATOM     43  N   UNL A   1      39.172  30.995  31.516  1.00  0.00    -0.354 N 
ATOM     44  C   UNL A   1      42.313  29.049  33.688  1.00  0.00     0.074 A 
ATOM     45  C   UNL A   1      42.881  27.953  32.929  1.00  0.00     0.031 C 
ATOM     46  C   UNL A   1      37.742  31.330  29.829  1.00  0.00     0.029 A 
ATOM     47  C   UNL A   1      38.137  31.820  31.147  1.00  0.00     0.049 A 
ATOM     48  H   UNL A   1      39.658  31.087  32.367  1.00  0.00     0.167 HD
ATOM     49  C   UNL A   1      42.723  29.409  34.928  1.00  0.00     0.031 A 
ATOM     50  C   UNL A   1      37.562  32.851  31.796  1.00  0.00     0.031 A 
ATOM     51  C   UNL A   1      42.195  30.514  35.681  1.00  0.00     0.049 A 
ATOM     52  C   UNL A   1      38.054  33.251  33.155  1.00  0.00     0.074 A 
ATOM     53  C   UNL A   1      42.589  30.976  36.927  1.00  0.00     0.029 A 
ATOM     54  N   UNL A   1      41.165  31.339  35.258  1.00  0.00    -0.354 N 
ATOM     55  N   UNL A   1      39.013  32.718  33.872  1.00  0.00    -0.248 NA
ATOM     56  C   UNL A   1      37.384  34.396  33.793  1.00  0.00     0.031 C 
ATOM     57  C   UNL A   1      41.784  32.072  37.264  1.00  0.00     0.029 A 
ATOM     58  C   UNL A   1      40.903  32.300  36.220  1.00  0.00     0.049 A 
ATOM     59  H   UNL A   1      40.689  31.253  34.401  1.00  0.00     0.167 HD
ATOM     60  C   UNL A   1      39.071  33.470  35.040  1.00  0.00     0.074 A 
ATOM     61  C   UNL A   1      38.055  34.497  34.933  1.00  0.00     0.031 C 
ATOM     62  C   UNL A   1      39.894  33.319  36.104  1.00  0.00     0.031 A 
BRANCH  49  63
ATOM     63  C   UNL A   1      43.799  28.574  35.560  1.00  0.00    -0.014 A 
ATOM     64  C   UNL A   1      43.477  27.462  36.356  1.00  0.00     0.010 A 
ATOM     65  C   UNL A   1      45.150  28.897  35.337  1.00  0.00     0.010 A 
ATOM     66  C   UNL A   1      44.490  26.708  36.955  1.00  0.00     0.020 A 
ATOM     67  C   UNL A   1      46.164  28.137  35.924  1.00  0.00     0.020 A 
ATOM     68  C   UNL A   1      45.827  27.059  36.746  1.00  0.00     0.054 A 
BRANCH  68  69
ATOM     69  S   UNL A   1      47.135  26.077  37.530  1.00  0.00     0.124 S 
ATOM     70  O   UNL A   1      46.359  25.157  38.359  1.00  0.00    -0.237 OA
ATOM     71  O   UNL A   1      47.820  25.468  36.391  1.00  0.00    -0.237 OA
ATOM     72  O   UNL A   1      47.916  27.071  38.262  1.00  0.00    -0.744 OA
ENDBRANCH  68  69
ENDBRANCH  49  63
BRANCH  50  73
ATOM     73  C   UNL A   1      36.447  33.590  31.153  1.00  0.00    -0.014 A 
ATOM     74  C   UNL A   1      36.582  34.069  29.840  1.00  0.00     0.010 A 
ATOM     75  C   UNL A   1      35.244  33.802  31.847  1.00  0.00     0.010 A 
ATOM     76  C   UNL A   1      35.532  34.759  29.229  1.00  0.00     0.020 A 
ATOM     77  C   UNL A   1      34.187  34.480  31.235  1.00  0.00     0.020 A 
ATOM     78  C   UNL A   1      34.341  34.962  29.932  1.00  0.00     0.054 A 
BRANCH  78  79
ATOM     79  S   UNL A   1      32.955  35.801  29.114  1.00  0.00     0.124 S 
ATOM     80  O   UNL A   1      32.434  34.747  28.250  1.00  0.00    -0.237 OA
ATOM     81  O   UNL A   1      32.098  36.183  30.233  1.00  0.00    -0.237 OA
ATOM     82  O   UNL A   1      33.602  36.917  28.428  1.00  0.00    -0.744 OA
ENDBRANCH  78  79
ENDBRANCH  50  73
BRANCH  62  83
ATOM     83  C   UNL A   1      39.744  34.299  37.232  1.00  0.00    -0.014 A 
ATOM     84  C   UNL A   1      38.945  33.993  38.347  1.00  0.00     0.010 A 
ATOM     85  C   UNL A   1      40.436  35.521  37.191  1.00  0.00     0.010 A 
ATOM     86  C   UNL A   1      38.825  34.906  39.399  1.00  0.00     0.020 A 
ATOM     87  C   UNL A   1      40.326  36.432  38.245  1.00  0.00     0.020 A 
ATOM     88  C   UNL A   1      39.510  36.124  39.337  1.00  0.00     0.054 A 
BRANCH  88  89
ATOM     89  S   UNL A   1      39.383  37.285  40.726  1.00  0.00     0.124 S 
ATOM     90  O   UNL A   1      40.758  37.763  40.847  1.00  0.00    -0.237 OA
ATOM     91  O   UNL A   1      38.417  38.271  40.246  1.00  0.00    -0.237 OA
ATOM     92  O   UNL A   1      38.911  36.449  41.826  1.00  0.00    -0.744 OA
ENDBRANCH  88  89
ENDBRANCH  62  83
ENDBRANCH  36  37
ENDBRANCH  28  31
ENDBRANCH  26  27
ENDBRANCH  25  26
ENDBRANCH   1  25
TORSDOF 17
ENDMDL
MODEL 2
REMARK VINA RESULT:     -11.8      6.487     11.866
REMARK SMILES O=C(NCCCCCCNC(=O)c1ccc(-c2c3nc(c(-c4ccc(S(=O)(=O)[O-])cc4)c4ccc([nH]4)c(-c4ccc(S(=O)(=O)[O-])cc4)c4nc(c(-c5ccc(S(=O)(=O)[O-])cc5)c5ccc2[nH]5)C=C4)C=C3)cc1)C1=Cc2c(ccc(Cl)c2Cl)O[C@H]1C(F)(F)F
REMARK SMILES IDX 7 1 6 2 5 3 4 4 3 5 1 6 2 7 73 9 74 10 84 11 75 12 83 13
REMARK SMILES IDX 76 14 81 15 77 16 79 17 82 18 78 19 80 20 85 21 86 22 87 23
REMARK SMILES IDX 88 24 8 25 9 26 10 27 11 28 12 30 13 31 14 32 72 33 15 34
REMARK SMILES IDX 71 35 16 36 17 37 18 38 65 39 19 40 70 41 64 42 66 43 20 44
REMARK SMILES IDX 69 45 63 46 62 47 21 49 51 50 32 51 50 52 33 53 36 54 49 55
REMARK SMILES IDX 67 56 34 57 35 58 48 60 68 61 37 62 22 63 23 64 31 65 24 66
REMARK SMILES IDX 30 67 25 68 26 69 27 70 28 71 29 72 52 73 53 74 61 75 54 76
REMARK SMILES IDX 60 77 55 78 56 79 57 80 58 81 59 82 38 83 39 84 47 85 40 86
REMARK SMILES IDX 46 87 41 88 42 89 43 90 44 91 45 92
REMARK H PARENT 3 8 10 29 66 48 36 59
REMARK Flexibility Score: inf
ROOT
ATOM      1  C   UNL A   1      34.195  32.915  28.761  1.00  0.00     0.002 C 
ENDROOT
BRANCH   1   2
ATOM      2  C   UNL A   1      33.891  31.781  27.770  1.00  0.00     0.002 C 
BRANCH   2   3
ATOM      3  C   UNL A   1      34.908  30.644  27.665  1.00  0.00     0.021 C 
BRANCH   3   4
ATOM      4  C   UNL A   1      34.383  29.348  27.068  1.00  0.00     0.116 C 
BRANCH   4   5
ATOM      5  N   UNL A   1      33.350  28.667  27.840  1.00  0.00    -0.352 N 
ATOM      6  O   UNL A   1      31.274  27.720  28.033  1.00  0.00    -0.270 OA
ATOM      7  C   UNL A   1      32.148  28.200  27.338  1.00  0.00     0.251 C 
ATOM      8  H   UNL A   1      33.520  28.530  28.799  1.00  0.00     0.163 HD
BRANCH   7   9
ATOM      9  C   UNL A   1      31.985  28.364  25.875  1.00  0.00     0.067 C 
ATOM     10  C   UNL A   1      31.490  29.541  25.470  1.00  0.00     0.027 C 
ATOM     11  C   UNL A   1      32.017  27.119  25.048  1.00  0.00     0.314 C 
ATOM     12  C   UNL A   1      30.610  29.516  24.296  1.00  0.00     0.037 A 
ATOM     13  O   UNL A   1      31.112  27.144  23.918  1.00  0.00    -0.475 OA
ATOM     14  C   UNL A   1      30.401  28.282  23.658  1.00  0.00     0.129 A 
ATOM     15  C   UNL A   1      29.790  30.613  23.948  1.00  0.00     0.070 A 
ATOM     16  C   UNL A   1      29.369  28.126  22.732  1.00  0.00     0.049 A 
ATOM     17  C   UNL A   1      28.740  30.437  23.032  1.00  0.00     0.060 A 
ATOM     18  Cl  UNL A   1      30.029  32.162  24.704  1.00  0.00    -0.082 Cl
ATOM     19  C   UNL A   1      28.525  29.193  22.437  1.00  0.00     0.026 A 
ATOM     20  Cl  UNL A   1      27.625  31.701  22.643  1.00  0.00    -0.083 Cl
BRANCH  11  21
ATOM     21  C   UNL A   1      33.444  26.750  24.600  1.00  0.00     0.429 C 
ATOM     22  F   UNL A   1      34.158  27.814  24.168  1.00  0.00    -0.167 F 
ATOM     23  F   UNL A   1      34.136  26.176  25.615  1.00  0.00    -0.167 F 
ATOM     24  F   UNL A   1      33.432  25.847  23.587  1.00  0.00    -0.167 F 
ENDBRANCH  11  21
ENDBRANCH   7   9
ENDBRANCH   4   5
ENDBRANCH   3   4
ENDBRANCH   2   3
ENDBRANCH   1   2
BRANCH   1  25
ATOM     25  C   UNL A   1      35.610  33.509  28.761  1.00  0.00     0.021 C 
BRANCH  25  26
ATOM     26  C   UNL A   1      36.470  33.266  30.002  1.00  0.00     0.116 C 
BRANCH  26  27
ATOM     27  N   UNL A   1      36.013  32.152  30.809  1.00  0.00    -0.352 N 
ATOM     28  C   UNL A   1      36.565  30.916  31.041  1.00  0.00     0.251 C 
ATOM     29  H   UNL A   1      35.159  32.308  31.271  1.00  0.00     0.163 HD
ATOM     30  O   UNL A   1      35.921  30.107  31.707  1.00  0.00    -0.269 OA
BRANCH  28  31
ATOM     31  C   UNL A   1      37.891  30.517  30.498  1.00  0.00     0.039 A 
ATOM     32  C   UNL A   1      38.919  30.251  31.413  1.00  0.00     0.014 A 
ATOM     33  C   UNL A   1      38.170  30.472  29.129  1.00  0.00     0.014 A 
ATOM     34  C   UNL A   1      40.195  29.892  30.965  1.00  0.00     0.010 A 
ATOM     35  C   UNL A   1      39.436  30.070  28.680  1.00  0.00     0.010 A 
ATOM     36  C   UNL A   1      40.460  29.776  29.593  1.00  0.00    -0.014 A 
BRANCH  36  37
ATOM     37  C   UNL A   1      41.798  29.341  29.108  1.00  0.00     0.031 A 
ATOM     38  C   UNL A   1      42.944  30.315  29.032  1.00  0.00     0.074 A 
ATOM     39  C   UNL A   1      41.981  28.072  28.691  1.00  0.00     0.049 A 
ATOM     40  N   UNL A   1      44.154  30.128  28.567  1.00  0.00    -0.248 NA
ATOM     41  C   UNL A   1      42.693  31.676  29.529  1.00  0.00     0.031 C 
ATOM     42  C   UNL A   1      40.959  27.024  28.690  1.00  0.00     0.029 A 
ATOM     43  N   UNL A   1      43.095  27.452  28.182  1.00  0.00    -0.354 N 
ATOM     44  C   UNL A   1      44.800  31.352  28.684  1.00  0.00     0.074 A 
ATOM     45  C   UNL A   1      43.844  32.277  29.259  1.00  0.00     0.031 C 
ATOM     46  C   UNL A   1      41.498  25.888  28.218  1.00  0.00     0.029 A 
ATOM     47  C   UNL A   1      42.892  26.132  27.859  1.00  0.00     0.049 A 
ATOM     48  H   UNL A   1      43.958  27.910  28.060  1.00  0.00     0.167 HD
ATOM     49  C   UNL A   1      46.070  31.681  28.347  1.00  0.00     0.031 A 
ATOM     50  C   UNL A   1      43.728  25.219  27.328  1.00  0.00     0.031 A 
ATOM     51  C   UNL A   1      47.042  30.768  27.809  1.00  0.00     0.049 A 
ATOM     52  C   UNL A   1      45.140  25.599  26.992  1.00  0.00     0.074 A 
ATOM     53  C   UNL A   1      48.367  31.012  27.485  1.00  0.00     0.029 A 
ATOM     54  N   UNL A   1      46.801  29.435  27.523  1.00  0.00    -0.354 N 
ATOM     55  N   UNL A   1      45.734  26.758  27.130  1.00  0.00    -0.248 NA
ATOM     56  C   UNL A   1      45.995  24.542  26.428  1.00  0.00     0.031 C 
ATOM     57  C   UNL A   1      48.923  29.826  26.986  1.00  0.00     0.029 A 
ATOM     58  C   UNL A   1      47.947  28.844  27.018  1.00  0.00     0.049 A 
ATOM     59  H   UNL A   1      45.941  28.975  27.657  1.00  0.00     0.167 HD
ATOM     60  C   UNL A   1      47.036  26.568  26.682  1.00  0.00     0.074 A 
ATOM     61  C   UNL A   1      47.146  25.183  26.274  1.00  0.00     0.031 C 
ATOM     62  C   UNL A   1      48.048  27.466  26.618  1.00  0.00     0.031 A 
BRANCH  49  63
ATOM     63  C   UNL A   1      46.477  33.114  28.539  1.00  0.00    -0.014 A 
ATOM     64  C   UNL A   1      46.356  34.046  27.495  1.00  0.00     0.010 A 
ATOM     65  C   UNL A   1      46.969  33.535  29.788  1.00  0.00     0.010 A 
ATOM     66  C   UNL A   1      46.760  35.370  27.683  1.00  0.00     0.020 A 
ATOM     67  C   UNL A   1      47.362  34.861  29.982  1.00  0.00     0.020 A 
ATOM     68  C   UNL A   1      47.273  35.766  28.922  1.00  0.00     0.054 A 
BRANCH  68  69
ATOM     69  S   UNL A   1      47.798  37.487  29.157  1.00  0.00     0.124 S 
ATOM     70  O   UNL A   1      47.948  37.556  30.608  1.00  0.00    -0.237 OA
ATOM     71  O   UNL A   1      49.042  37.561  28.393  1.00  0.00    -0.237 OA
ATOM     72  O   UNL A   1      46.687  38.259  28.605  1.00  0.00    -0.744 OA
ENDBRANCH  68  69
ENDBRANCH  49  63
BRANCH  50  73
ATOM     73  C   UNL A   1      43.244  23.837  27.085  1.00  0.00    -0.014 A 
ATOM     74  C   UNL A   1      42.977  23.403  25.777  1.00  0.00     0.010 A 
ATOM     75  C   UNL A   1      43.065  22.949  28.159  1.00  0.00     0.010 A 
ATOM     76  C   UNL A   1      42.528  22.100  25.544  1.00  0.00     0.020 A 
ATOM     77  C   UNL A   1      42.629  21.642  27.929  1.00  0.00     0.020 A 
ATOM     78  C   UNL A   1      42.355  21.228  26.622  1.00  0.00     0.054 A 
BRANCH  78  79
ATOM     79  S   UNL A   1      41.836  19.517  26.311  1.00  0.00     0.124 S 
ATOM     80  O   UNL A   1      42.580  19.193  25.098  1.00  0.00    -0.237 OA
ATOM     81  O   UNL A   1      42.264  18.821  27.521  1.00  0.00    -0.237 OA
ATOM     82  O   UNL A   1      40.388  19.635  26.151  1.00  0.00    -0.744 OA
ENDBRANCH  78  79
ENDBRANCH  50  73
BRANCH  62  83
ATOM     83  C   UNL A   1      49.370  26.973  26.102  1.00  0.00    -0.014 A 
ATOM     84  C   UNL A   1      49.784  27.266  24.792  1.00  0.00     0.010 A 
ATOM     85  C   UNL A   1      50.219  26.240  26.949  1.00  0.00     0.010 A 
ATOM     86  C   UNL A   1      51.023  26.816  24.328  1.00  0.00     0.020 A 
ATOM     87  C   UNL A   1      51.463  25.797  26.491  1.00  0.00     0.020 A 
ATOM     88  C   UNL A   1      51.852  26.077  25.178  1.00  0.00     0.054 A 
BRANCH  88  89
ATOM     89  S   UNL A   1      53.477  25.532  24.582  1.00  0.00     0.124 S 
ATOM     90  O   UNL A   1      53.504  24.136  25.009  1.00  0.00    -0.237 OA
ATOM     91  O   UNL A   1      53.389  25.744  23.139  1.00  0.00    -0.237 OA
ATOM     92  O   UNL A   1      54.408  26.418  25.277  1.00  0.00    -0.744 OA
ENDBRANCH  88  89
ENDBRANCH  62  83
ENDBRANCH  36  37
ENDBRANCH  28  31
ENDBRANCH  26  27
ENDBRANCH  25  26
ENDBRANCH   1  25
TORSDOF 17
ENDMDL
MODEL 3
REMARK VINA RESULT:     -11.4      6.654     11.557
REMARK SMILES O=C(NCCCCCCNC(=O)c1ccc(-c2c3nc(c(-c4ccc(S(=O)(=O)[O-])cc4)c4ccc([nH]4)c(-c4ccc(S(=O)(=O)[O-])cc4)c4nc(c(-c5ccc(S(=O)(=O)[O-])cc5)c5ccc2[nH]5)C=C4)C=C3)cc1)C1=Cc2c(ccc(Cl)c2Cl)O[C@H]1C(F)(F)F
REMARK SMILES IDX 7 1 6 2 5 3 4 4 3 5 1 6 2 7 73 9 74 10 84 11 75 12 83 13
REMARK SMILES IDX 76 14 81 15 77 16 79 17 82 18 78 19 80 20 85 21 86 22 87 23
REMARK SMILES IDX 88 24 8 25 9 26 10 27 11 28 12 30 13 31 14 32 72 33 15 34
REMARK SMILES IDX 71 35 16 36 17 37 18 38 65 39 19 40 70 41 64 42 66 43 20 44
REMARK SMILES IDX 69 45 63 46 62 47 21 49 51 50 32 51 50 52 33 53 36 54 49 55
REMARK SMILES IDX 67 56 34 57 35 58 48 60 68 61 37 62 22 63 23 64 31 65 24 66
REMARK SMILES IDX 30 67 25 68 26 69 27 70 28 71 29 72 52 73 53 74 61 75 54 76
REMARK SMILES IDX 60 77 55 78 56 79 57 80 58 81 59 82 38 83 39 84 47 85 40 86
REMARK SMILES IDX 46 87 41 88 42 89 43 90 44 91 45 92
REMARK H PARENT 3 8 10 29 66 48 36 59
REMARK Flexibility Score: inf
ROOT
ATOM      1  C   UNL A   1      35.038  32.465  28.869  1.00  0.00     0.002 C 
ENDROOT
BRANCH   1   2
ATOM      2  C   UNL A   1      35.365  31.558  27.673  1.00  0.00     0.002 C 
BRANCH   2   3
ATOM      3  C   UNL A   1      35.332  30.046  27.904  1.00  0.00     0.021 C 
BRANCH   3   4
ATOM      4  C   UNL A   1      34.307  29.280  27.083  1.00  0.00     0.116 C 
BRANCH   4   5
ATOM      5  N   UNL A   1      33.225  28.660  27.838  1.00  0.00    -0.352 N 
ATOM      6  O   UNL A   1      31.097  27.828  27.996  1.00  0.00    -0.270 OA
ATOM      7  C   UNL A   1      32.009  28.256  27.316  1.00  0.00     0.251 C 
ATOM      8  H   UNL A   1      33.370  28.518  28.801  1.00  0.00     0.163 HD
BRANCH   7   9
ATOM      9  C   UNL A   1      31.881  28.422  25.850  1.00  0.00     0.067 C 
ATOM     10  C   UNL A   1      31.405  29.603  25.434  1.00  0.00     0.027 C 
ATOM     11  C   UNL A   1      31.923  27.178  25.023  1.00  0.00     0.314 C 
ATOM     12  C   UNL A   1      30.552  29.585  24.240  1.00  0.00     0.037 A 
ATOM     13  O   UNL A   1      31.045  27.209  23.872  1.00  0.00    -0.475 OA
ATOM     14  C   UNL A   1      30.349  28.354  23.597  1.00  0.00     0.129 A 
ATOM     15  C   UNL A   1      29.749  30.689  23.874  1.00  0.00     0.070 A 
ATOM     16  C   UNL A   1      29.338  28.206  22.646  1.00  0.00     0.049 A 
ATOM     17  C   UNL A   1      28.720  30.522  22.933  1.00  0.00     0.060 A 
ATOM     18  Cl  UNL A   1      29.983  32.236  24.636  1.00  0.00    -0.082 Cl
ATOM     19  C   UNL A   1      28.509  29.280  22.332  1.00  0.00     0.026 A 
ATOM     20  Cl  UNL A   1      27.624  31.794  22.519  1.00  0.00    -0.083 Cl
BRANCH  11  21
ATOM     21  C   UNL A   1      33.357  26.798  24.608  1.00  0.00     0.429 C 
ATOM     22  F   UNL A   1      34.111  26.359  25.641  1.00  0.00    -0.167 F 
ATOM     23  F   UNL A   1      33.345  25.823  23.666  1.00  0.00    -0.167 F 
ATOM     24  F   UNL A   1      34.014  27.851  24.060  1.00  0.00    -0.167 F 
ENDBRANCH  11  21
ENDBRANCH   7   9
ENDBRANCH   4   5
ENDBRANCH   3   4
ENDBRANCH   2   3
ENDBRANCH   1   2
BRANCH   1  25
ATOM     25  C   UNL A   1      36.122  33.439  29.350  1.00  0.00     0.021 C 
BRANCH  25  26
ATOM     26  C   UNL A   1      36.854  33.086  30.645  1.00  0.00     0.116 C 
BRANCH  26  27
ATOM     27  N   UNL A   1      36.401  31.845  31.241  1.00  0.00    -0.352 N 
ATOM     28  C   UNL A   1      36.940  30.582  31.220  1.00  0.00     0.251 C 
ATOM     29  H   UNL A   1      35.561  31.920  31.748  1.00  0.00     0.163 HD
ATOM     30  O   UNL A   1      36.301  29.668  31.741  1.00  0.00    -0.269 OA
BRANCH  28  31
ATOM     31  C   UNL A   1      38.245  30.278  30.575  1.00  0.00     0.039 A 
ATOM     32  C   UNL A   1      39.338  30.002  31.407  1.00  0.00     0.014 A 
ATOM     33  C   UNL A   1      38.440  30.333  29.191  1.00  0.00     0.014 A 
ATOM     34  C   UNL A   1      40.598  29.731  30.862  1.00  0.00     0.010 A 
ATOM     35  C   UNL A   1      39.691  30.019  28.643  1.00  0.00     0.010 A 
ATOM     36  C   UNL A   1      40.782  29.714  29.472  1.00  0.00    -0.014 A 
BRANCH  36  37
ATOM     37  C   UNL A   1      42.104  29.372  28.881  1.00  0.00     0.031 A 
ATOM     38  C   UNL A   1      42.378  27.986  28.359  1.00  0.00     0.074 A 
ATOM     39  C   UNL A   1      43.084  30.296  28.847  1.00  0.00     0.049 A 
ATOM     40  N   UNL A   1      43.492  27.493  27.878  1.00  0.00    -0.248 NA
ATOM     41  C   UNL A   1      41.261  27.030  28.393  1.00  0.00     0.031 C 
ATOM     42  C   UNL A   1      42.970  31.673  29.333  1.00  0.00     0.029 A 
ATOM     43  N   UNL A   1      44.375  30.212  28.387  1.00  0.00    -0.354 N 
ATOM     44  C   UNL A   1      43.223  26.162  27.584  1.00  0.00     0.074 A 
ATOM     45  C   UNL A   1      41.841  25.924  27.946  1.00  0.00     0.031 C 
ATOM     46  C   UNL A   1      44.136  32.307  29.131  1.00  0.00     0.029 A 
ATOM     47  C   UNL A   1      45.088  31.378  28.528  1.00  0.00     0.049 A 
ATOM     48  H   UNL A   1      44.755  29.393  27.993  1.00  0.00     0.167 HD
ATOM     49  C   UNL A   1      44.046  25.222  27.060  1.00  0.00     0.031 A 
ATOM     50  C   UNL A   1      46.365  31.671  28.214  1.00  0.00     0.031 A 
ATOM     51  C   UNL A   1      45.409  25.450  26.663  1.00  0.00     0.049 A 
ATOM     52  C   UNL A   1      47.248  30.621  27.606  1.00  0.00     0.074 A 
ATOM     53  C   UNL A   1      46.297  24.561  26.079  1.00  0.00     0.029 A 
ATOM     54  N   UNL A   1      46.082  26.653  26.799  1.00  0.00    -0.354 N 
ATOM     55  N   UNL A   1      46.965  29.375  27.319  1.00  0.00    -0.248 NA
ATOM     56  C   UNL A   1      48.626  31.022  27.279  1.00  0.00     0.031 C 
ATOM     57  C   UNL A   1      47.515  25.225  25.877  1.00  0.00     0.029 A 
ATOM     58  C   UNL A   1      47.376  26.530  26.319  1.00  0.00     0.049 A 
ATOM     59  H   UNL A   1      45.698  27.475  27.182  1.00  0.00     0.167 HD
ATOM     60  C   UNL A   1      48.125  28.845  26.765  1.00  0.00     0.074 A 
ATOM     61  C   UNL A   1      49.111  29.905  26.753  1.00  0.00     0.031 C 
ATOM     62  C   UNL A   1      48.348  27.589  26.309  1.00  0.00     0.031 A 
BRANCH  49  63
ATOM     63  C   UNL A   1      43.487  23.838  26.903  1.00  0.00    -0.014 A 
ATOM     64  C   UNL A   1      43.161  23.330  25.635  1.00  0.00     0.010 A 
ATOM     65  C   UNL A   1      43.304  23.029  28.039  1.00  0.00     0.010 A 
ATOM     66  C   UNL A   1      42.621  22.047  25.507  1.00  0.00     0.020 A 
ATOM     67  C   UNL A   1      42.777  21.742  27.914  1.00  0.00     0.020 A 
ATOM     68  C   UNL A   1      42.419  21.267  26.650  1.00  0.00     0.054 A 
BRANCH  68  69
ATOM     69  S   UNL A   1      41.715  19.604  26.475  1.00  0.00     0.124 S 
ATOM     70  O   UNL A   1      42.220  19.203  25.165  1.00  0.00    -0.237 OA
ATOM     71  O   UNL A   1      42.282  18.883  27.614  1.00  0.00    -0.237 OA
ATOM     72  O   UNL A   1      40.274  19.835  26.546  1.00  0.00    -0.744 OA
ENDBRANCH  68  69
ENDBRANCH  49  63
BRANCH  50  73
ATOM     73  C   UNL A   1      46.887  33.037  28.468  1.00  0.00    -0.014 A 
ATOM     74  C   UNL A   1      46.752  34.036  27.490  1.00  0.00     0.010 A 
ATOM     75  C   UNL A   1      47.506  33.344  29.691  1.00  0.00     0.010 A 
ATOM     76  C   UNL A   1      47.235  35.325  27.727  1.00  0.00     0.020 A 
ATOM     77  C   UNL A   1      47.979  34.635  29.936  1.00  0.00     0.020 A 
ATOM     78  C   UNL A   1      47.849  35.616  28.949  1.00  0.00     0.054 A 
BRANCH  78  79
ATOM     79  S   UNL A   1      48.417  37.307  29.281  1.00  0.00     0.124 S 
ATOM     80  O   UNL A   1      49.463  37.475  28.277  1.00  0.00    -0.237 OA
ATOM     81  O   UNL A   1      47.210  38.103  29.075  1.00  0.00    -0.237 OA
ATOM     82  O   UNL A   1      48.878  37.236  30.666  1.00  0.00    -0.744 OA
ENDBRANCH  78  79
ENDBRANCH  50  73
BRANCH  62  83
ATOM     83  C   UNL A   1      49.707  27.298  25.740  1.00  0.00    -0.014 A 
ATOM     84  C   UNL A   1      50.722  26.759  26.547  1.00  0.00     0.010 A 
ATOM     85  C   UNL A   1      49.958  27.534  24.377  1.00  0.00     0.010 A 
ATOM     86  C   UNL A   1      51.979  26.476  26.004  1.00  0.00     0.020 A 
ATOM     87  C   UNL A   1      51.210  27.244  23.829  1.00  0.00     0.020 A 
ATOM     88  C   UNL A   1      52.217  26.728  24.649  1.00  0.00     0.054 A 
BRANCH  88  89
ATOM     89  S   UNL A   1      53.837  26.320  23.941  1.00  0.00     0.124 S 
ATOM     90  O   UNL A   1      54.163  25.073  24.629  1.00  0.00    -0.237 OA
ATOM     91  O   UNL A   1      53.552  26.191  22.513  1.00  0.00    -0.237 OA
ATOM     92  O   UNL A   1      54.665  27.469  24.300  1.00  0.00    -0.744 OA
ENDBRANCH  88  89
ENDBRANCH  62  83
ENDBRANCH  36  37
ENDBRANCH  28  31
ENDBRANCH  26  27
ENDBRANCH  25  26
ENDBRANCH   1  25
TORSDOF 17
ENDMDL
