MODEL 1
REMARK VINA RESULT:      -9.6      0.000      0.000
REMARK SMILES CC[C@H]1CCC[C@H](O[C@@H]2CC[C@]([NH2+]C(C)C)(C(=O)NCCCCCCNC(=O)c3ccc(-c4c5nc(c(-c6ccc(S(=O)(=O)[O-])cc6)c6ccc([nH]6)c(-c6ccc(S(=O)(=O)[O-])cc6)c6nc(c(-c7ccc(S(=O)(=O)[O-])cc7)c7ccc4[nH]7)C=C6)C=C5)cc3)C2)C1
REMARK SMILES IDX 22 1 21 2 20 3 19 4 17 5 18 6 12 8 9 9 10 10 89 11 11 12
REMARK SMILES IDX 8 13 7 14 3 15 4 16 90 17 5 18 6 19 2 20 1 21 13 22 14 25
REMARK SMILES IDX 15 26 16 27 23 28 24 29 25 30 26 31 27 32 28 34 29 35 30 36
REMARK SMILES IDX 88 37 31 38 87 39 32 40 33 41 34 42 81 43 35 44 86 45 80 46
REMARK SMILES IDX 82 47 36 48 85 49 79 50 78 51 37 53 67 54 48 55 66 56 49 57
REMARK SMILES IDX 52 58 65 59 83 60 50 61 51 62 64 64 84 65 53 66 38 67 39 68
REMARK SMILES IDX 47 69 40 70 46 71 41 72 42 73 43 74 44 75 45 76 68 77 69 78
REMARK SMILES IDX 77 79 70 80 76 81 71 82 72 83 73 84 74 85 75 86 54 87 55 88
REMARK SMILES IDX 63 89 56 90 62 91 57 92 58 93 59 94 60 95 61 96
REMARK H PARENT 19 7 13 23 13 24 26 33 82 52 52 63
REMARK Flexibility Score: inf
ROOT
ATOM      1  C   UNL A   1      37.770  21.644  25.241  1.00  0.00     0.002 C 
ENDROOT
BRANCH   1   2
ATOM      2  C   UNL A   1      37.254  23.048  24.928  1.00  0.00     0.021 C 
BRANCH   2   3
ATOM      3  C   UNL A   1      36.257  23.687  25.893  1.00  0.00     0.116 C 
BRANCH   3   4
ATOM      4  N   UNL A   1      35.656  22.782  26.859  1.00  0.00    -0.351 N 
ATOM      5  C   UNL A   1      34.375  22.295  26.969  1.00  0.00     0.281 C 
ATOM      6  O   UNL A   1      34.216  21.374  27.781  1.00  0.00    -0.268 OA
ATOM      7  H   UNL A   1      36.273  22.463  27.557  1.00  0.00     0.163 HD
BRANCH   5   8
ATOM      8  C   UNL A   1      33.168  22.860  26.144  1.00  0.00     0.178 C 
ATOM      9  C   UNL A   1      31.557  24.739  26.301  1.00  0.00     0.125 C 
ATOM     10  C   UNL A   1      30.768  23.447  26.513  1.00  0.00     0.039 C 
ATOM     11  C   UNL A   1      33.011  24.349  26.444  1.00  0.00     0.111 C 
ATOM     12  C   UNL A   1      31.822  22.343  26.731  1.00  0.00     0.082 C 
BRANCH   9  13
ATOM     13  O   UNL A   1      31.162  25.910  27.020  1.00  0.00    -0.375 OA
BRANCH  13  14
ATOM     14  C   UNL A   1      31.103  27.229  26.447  1.00  0.00     0.118 C 
ATOM     15  C   UNL A   1      31.707  28.647  24.301  1.00  0.00    -0.009 C 
ATOM     16  C   UNL A   1      32.594  29.459  25.254  1.00  0.00     0.004 C 
ATOM     17  C   UNL A   1      31.285  27.284  24.904  1.00  0.00     0.035 C 
ATOM     18  C   UNL A   1      31.936  29.622  26.613  1.00  0.00     0.003 C 
ATOM     19  C   UNL A   1      31.871  28.259  27.273  1.00  0.00     0.032 C 
BRANCH  15  20
ATOM     20  C   UNL A   1      30.463  29.411  23.801  1.00  0.00     0.000 C 
ATOM     21  C   UNL A   1      30.157  29.226  22.321  1.00  0.00     0.004 C 
ENDBRANCH  15  20
ENDBRANCH  13  14
ENDBRANCH   9  13
BRANCH   8  22
ATOM     22  N   UNL A   1      33.201  22.597  24.688  1.00  0.00    -0.332 N 
ATOM     23  H   UNL A   1      32.418  21.976  24.478  1.00  0.00     0.347 HD
ATOM     24  H   UNL A   1      34.134  22.220  24.526  1.00  0.00     0.347 HD
BRANCH  22  25
ATOM     25  C   UNL A   1      33.109  23.732  23.760  1.00  0.00     0.176 C 
ATOM     26  C   UNL A   1      34.301  23.669  22.797  1.00  0.00     0.075 C 
ATOM     27  C   UNL A   1      31.838  23.674  22.910  1.00  0.00     0.075 C 
ENDBRANCH  22  25
ENDBRANCH   8  22
ENDBRANCH   5   8
ENDBRANCH   3   4
ENDBRANCH   2   3
ENDBRANCH   1   2
BRANCH   1  28
ATOM     28  C   UNL A   1      39.129  21.516  25.926  1.00  0.00     0.002 C 
BRANCH  28  29
ATOM     29  C   UNL A   1      39.825  20.156  25.864  1.00  0.00     0.021 C 
BRANCH  29  30
ATOM     30  C   UNL A   1      41.223  20.081  26.466  1.00  0.00     0.116 C 
BRANCH  30  31
ATOM     31  N   UNL A   1      42.212  19.515  25.568  1.00  0.00    -0.352 N 
ATOM     32  C   UNL A   1      43.373  20.067  25.073  1.00  0.00     0.251 C 
ATOM     33  H   UNL A   1      42.026  18.597  25.267  1.00  0.00     0.163 HD
ATOM     34  O   UNL A   1      44.026  19.451  24.242  1.00  0.00    -0.269 OA
BRANCH  32  35
ATOM     35  C   UNL A   1      43.818  21.412  25.517  1.00  0.00     0.039 A 
ATOM     36  C   UNL A   1      43.428  22.526  24.766  1.00  0.00     0.014 A 
ATOM     37  C   UNL A   1      44.627  21.584  26.643  1.00  0.00     0.014 A 
ATOM     38  C   UNL A   1      43.803  23.809  25.174  1.00  0.00     0.010 A 
ATOM     39  C   UNL A   1      44.935  22.868  27.092  1.00  0.00     0.010 A 
ATOM     40  C   UNL A   1      44.535  23.995  26.358  1.00  0.00    -0.014 A 
BRANCH  40  41
ATOM     41  C   UNL A   1      44.914  25.355  26.829  1.00  0.00     0.031 A 
ATOM     42  C   UNL A   1      46.292  25.894  26.547  1.00  0.00     0.074 A 
ATOM     43  C   UNL A   1      44.039  26.084  27.550  1.00  0.00     0.049 A 
ATOM     44  N   UNL A   1      46.828  27.026  26.926  1.00  0.00    -0.248 NA
ATOM     45  C   UNL A   1      47.194  25.040  25.757  1.00  0.00     0.031 C 
ATOM     46  C   UNL A   1      42.683  25.666  27.917  1.00  0.00     0.029 A 
ATOM     47  N   UNL A   1      44.159  27.334  28.108  1.00  0.00    -0.354 N 
ATOM     48  C   UNL A   1      48.128  27.015  26.431  1.00  0.00     0.074 A 
ATOM     49  C   UNL A   1      48.319  25.739  25.777  1.00  0.00     0.031 C 
ATOM     50  C   UNL A   1      42.090  26.651  28.611  1.00  0.00     0.029 A 
ATOM     51  C   UNL A   1      43.033  27.752  28.780  1.00  0.00     0.049 A 
ATOM     52  H   UNL A   1      44.976  27.879  28.036  1.00  0.00     0.167 HD
ATOM     53  C   UNL A   1      49.071  27.984  26.496  1.00  0.00     0.031 A 
ATOM     54  C   UNL A   1      42.790  28.888  29.461  1.00  0.00     0.031 A 
ATOM     55  C   UNL A   1      48.877  29.257  27.138  1.00  0.00     0.049 A 
ATOM     56  C   UNL A   1      43.865  29.940  29.540  1.00  0.00     0.074 A 
ATOM     57  C   UNL A   1      49.758  30.322  27.222  1.00  0.00     0.029 A 
ATOM     58  N   UNL A   1      47.722  29.641  27.803  1.00  0.00    -0.354 N 
ATOM     59  N   UNL A   1      45.070  29.929  29.022  1.00  0.00    -0.248 NA
ATOM     60  C   UNL A   1      43.540  31.166  30.284  1.00  0.00     0.031 C 
ATOM     61  C   UNL A   1      49.155  31.328  27.983  1.00  0.00     0.029 A 
ATOM     62  C   UNL A   1      47.874  30.917  28.316  1.00  0.00     0.049 A 
ATOM     63  H   UNL A   1      46.914  29.087  27.896  1.00  0.00     0.167 HD
ATOM     64  C   UNL A   1      45.632  31.159  29.344  1.00  0.00     0.074 A 
ATOM     65  C   UNL A   1      44.631  31.894  30.091  1.00  0.00     0.031 C 
ATOM     66  C   UNL A   1      46.864  31.640  29.048  1.00  0.00     0.031 A 
BRANCH  53  67
ATOM     67  C   UNL A   1      50.405  27.708  25.849  1.00  0.00    -0.014 A 
ATOM     68  C   UNL A   1      50.605  27.929  24.474  1.00  0.00     0.010 A 
ATOM     69  C   UNL A   1      51.488  27.271  26.634  1.00  0.00     0.010 A 
ATOM     70  C   UNL A   1      51.850  27.685  23.890  1.00  0.00     0.020 A 
ATOM     71  C   UNL A   1      52.745  27.056  26.059  1.00  0.00     0.020 A 
ATOM     72  C   UNL A   1      52.913  27.250  24.687  1.00  0.00     0.054 A 
BRANCH  72  73
ATOM     73  S   UNL A   1      54.526  26.974  23.905  1.00  0.00     0.124 S 
ATOM     74  O   UNL A   1      55.252  28.186  24.277  1.00  0.00    -0.237 OA
ATOM     75  O   UNL A   1      54.987  25.744  24.546  1.00  0.00    -0.237 OA
ATOM     76  O   UNL A   1      54.208  26.851  22.484  1.00  0.00    -0.744 OA
ENDBRANCH  72  73
ENDBRANCH  53  67
BRANCH  54  77
ATOM     77  C   UNL A   1      41.469  29.104  30.118  1.00  0.00    -0.014 A 
ATOM     78  C   UNL A   1      41.209  28.575  31.395  1.00  0.00     0.010 A 
ATOM     79  C   UNL A   1      40.455  29.826  29.461  1.00  0.00     0.010 A 
ATOM     80  C   UNL A   1      39.952  28.734  31.988  1.00  0.00     0.020 A 
ATOM     81  C   UNL A   1      39.209  30.015  30.065  1.00  0.00     0.020 A 
ATOM     82  C   UNL A   1      38.960  29.452  31.318  1.00  0.00     0.054 A 
BRANCH  82  83
ATOM     83  S   UNL A   1      37.345  29.667  32.116  1.00  0.00     0.124 S 
ATOM     84  O   UNL A   1      37.457  28.783  33.270  1.00  0.00    -0.237 OA
ATOM     85  O   UNL A   1      37.328  31.098  32.412  1.00  0.00    -0.237 OA
ATOM     86  O   UNL A   1      36.396  29.241  31.089  1.00  0.00    -0.744 OA
ENDBRANCH  82  83
ENDBRANCH  54  77
BRANCH  66  87
ATOM     87  C   UNL A   1      47.186  33.047  29.480  1.00  0.00    -0.014 A 
ATOM     88  C   UNL A   1      46.853  34.156  28.681  1.00  0.00     0.010 A 
ATOM     89  C   UNL A   1      47.784  33.263  30.735  1.00  0.00     0.010 A 
ATOM     90  C   UNL A   1      47.149  35.452  29.114  1.00  0.00     0.020 A 
ATOM     91  C   UNL A   1      48.051  34.558  31.186  1.00  0.00     0.020 A 
ATOM     92  C   UNL A   1      47.747  35.644  30.364  1.00  0.00     0.054 A 
BRANCH  92  93
ATOM     93  S   UNL A   1      48.084  37.337  30.919  1.00  0.00     0.124 S 
ATOM     94  O   UNL A   1      47.498  38.131  29.844  1.00  0.00    -0.237 OA
ATOM     95  O   UNL A   1      47.385  37.399  32.200  1.00  0.00    -0.237 OA
ATOM     96  O   UNL A   1      49.542  37.390  31.008  1.00  0.00    -0.744 OA
ENDBRANCH  92  93
ENDBRANCH  66  87
ENDBRANCH  40  41
ENDBRANCH  32  35
ENDBRANCH  30  31
ENDBRANCH  29  30
ENDBRANCH  28  29
ENDBRANCH   1  28
TORSDOF 21
ENDMDL
MODEL 2
REMARK VINA RESULT:      -9.4      2.853      9.216
REMARK SMILES CC[C@H]1CCC[C@H](O[C@@H]2CC[C@]([NH2+]C(C)C)(C(=O)NCCCCCCNC(=O)c3ccc(-c4c5nc(c(-c6ccc(S(=O)(=O)[O-])cc6)c6ccc([nH]6)c(-c6ccc(S(=O)(=O)[O-])cc6)c6nc(c(-c7ccc(S(=O)(=O)[O-])cc7)c7ccc4[nH]7)C=C6)C=C5)cc3)C2)C1
REMARK SMILES IDX 22 1 21 2 20 3 19 4 17 5 18 6 12 8 9 9 10 10 89 11 11 12
REMARK SMILES IDX 8 13 7 14 3 15 4 16 90 17 5 18 6 19 2 20 1 21 13 22 14 25
REMARK SMILES IDX 15 26 16 27 23 28 24 29 25 30 26 31 27 32 28 34 29 35 30 36
REMARK SMILES IDX 88 37 31 38 87 39 32 40 33 41 34 42 81 43 35 44 86 45 80 46
REMARK SMILES IDX 82 47 36 48 85 49 79 50 78 51 37 53 67 54 48 55 66 56 49 57
REMARK SMILES IDX 52 58 65 59 83 60 50 61 51 62 64 64 84 65 53 66 38 67 39 68
REMARK SMILES IDX 47 69 40 70 46 71 41 72 42 73 43 74 44 75 45 76 68 77 69 78
REMARK SMILES IDX 77 79 70 80 76 81 71 82 72 83 73 84 74 85 75 86 54 87 55 88
REMARK SMILES IDX 63 89 56 90 62 91 57 92 58 93 59 94 60 95 61 96
REMARK H PARENT 19 7 13 23 13 24 26 33 82 52 52 63
REMARK Flexibility Score: inf
ROOT
ATOM      1  C   UNL A   1      32.646  29.727  26.623  1.00  0.00     0.002 C 
ENDROOT
BRANCH   1   2
ATOM      2  C   UNL A   1      31.803  28.569  27.155  1.00  0.00     0.021 C 
BRANCH   2   3
ATOM      3  C   UNL A   1      31.521  27.389  26.225  1.00  0.00     0.116 C 
BRANCH   3   4
ATOM      4  N   UNL A   1      32.658  26.920  25.449  1.00  0.00    -0.351 N 
ATOM      5  C   UNL A   1      32.833  25.785  24.696  1.00  0.00     0.281 C 
ATOM      6  O   UNL A   1      33.843  25.762  23.981  1.00  0.00    -0.268 OA
ATOM      7  H   UNL A   1      33.438  27.519  25.468  1.00  0.00     0.163 HD
BRANCH   5   8
ATOM      8  C   UNL A   1      31.842  24.570  24.731  1.00  0.00     0.178 C 
ATOM      9  C   UNL A   1      31.707  22.284  23.780  1.00  0.00     0.125 C 
ATOM     10  C   UNL A   1      30.613  23.118  23.111  1.00  0.00     0.039 C 
ATOM     11  C   UNL A   1      32.618  23.284  24.454  1.00  0.00     0.111 C 
ATOM     12  C   UNL A   1      30.925  24.584  23.473  1.00  0.00     0.082 C 
BRANCH   9  13
ATOM     13  O   UNL A   1      32.366  21.274  23.011  1.00  0.00    -0.375 OA
BRANCH  13  14
ATOM     14  C   UNL A   1      32.861  20.037  23.556  1.00  0.00     0.118 C 
ATOM     15  C   UNL A   1      32.644  17.408  23.409  1.00  0.00    -0.009 C 
ATOM     16  C   UNL A   1      32.209  17.498  24.878  1.00  0.00     0.004 C 
ATOM     17  C   UNL A   1      32.580  18.778  22.688  1.00  0.00     0.035 C 
ATOM     18  C   UNL A   1      32.995  18.565  25.620  1.00  0.00     0.003 C 
ATOM     19  C   UNL A   1      32.606  19.917  25.057  1.00  0.00     0.032 C 
BRANCH  15  20
ATOM     20  C   UNL A   1      34.035  16.771  23.208  1.00  0.00     0.000 C 
ATOM     21  C   UNL A   1      34.557  15.994  24.409  1.00  0.00     0.004 C 
ENDBRANCH  15  20
ENDBRANCH  13  14
ENDBRANCH   9  13
BRANCH   8  22
ATOM     22  N   UNL A   1      31.005  24.453  25.946  1.00  0.00    -0.332 N 
ATOM     23  H   UNL A   1      30.063  24.750  25.690  1.00  0.00     0.347 HD
ATOM     24  H   UNL A   1      31.490  25.028  26.635  1.00  0.00     0.347 HD
BRANCH  22  25
ATOM     25  C   UNL A   1      30.882  23.143  26.598  1.00  0.00     0.176 C 
ATOM     26  C   UNL A   1      31.994  23.016  27.645  1.00  0.00     0.075 C 
ATOM     27  C   UNL A   1      29.549  22.996  27.336  1.00  0.00     0.075 C 
ENDBRANCH  22  25
ENDBRANCH   8  22
ENDBRANCH   5   8
ENDBRANCH   3   4
ENDBRANCH   2   3
ENDBRANCH   1   2
BRANCH   1  28
ATOM     28  C   UNL A   1      34.015  29.967  27.255  1.00  0.00     0.002 C 
BRANCH  28  29
ATOM     29  C   UNL A   1      34.272  31.338  27.883  1.00  0.00     0.021 C 
BRANCH  29  30
ATOM     30  C   UNL A   1      35.587  31.505  28.633  1.00  0.00     0.116 C 
BRANCH  30  31
ATOM     31  N   UNL A   1      35.471  31.287  30.064  1.00  0.00    -0.352 N 
ATOM     32  C   UNL A   1      36.345  30.681  30.937  1.00  0.00     0.251 C 
ATOM     33  H   UNL A   1      34.641  31.625  30.471  1.00  0.00     0.163 HD
ATOM     34  O   UNL A   1      36.012  30.511  32.102  1.00  0.00    -0.269 OA
BRANCH  32  35
ATOM     35  C   UNL A   1      37.672  30.206  30.470  1.00  0.00     0.039 A 
ATOM     36  C   UNL A   1      37.992  30.345  29.116  1.00  0.00     0.014 A 
ATOM     37  C   UNL A   1      38.588  29.610  31.341  1.00  0.00     0.014 A 
ATOM     38  C   UNL A   1      39.246  29.938  28.649  1.00  0.00     0.010 A 
ATOM     39  C   UNL A   1      39.864  29.276  30.890  1.00  0.00     0.010 A 
ATOM     40  C   UNL A   1      40.205  29.427  29.538  1.00  0.00    -0.014 A 
BRANCH  40  41
ATOM     41  C   UNL A   1      41.558  29.022  29.068  1.00  0.00     0.031 A 
ATOM     42  C   UNL A   1      42.668  30.037  28.998  1.00  0.00     0.074 A 
ATOM     43  C   UNL A   1      41.776  27.756  28.660  1.00  0.00     0.049 A 
ATOM     44  N   UNL A   1      43.893  29.893  28.560  1.00  0.00    -0.248 NA
ATOM     45  C   UNL A   1      42.355  31.401  29.459  1.00  0.00     0.031 C 
ATOM     46  C   UNL A   1      40.778  26.682  28.650  1.00  0.00     0.029 A 
ATOM     47  N   UNL A   1      42.910  27.155  28.170  1.00  0.00    -0.354 N 
ATOM     48  C   UNL A   1      44.490  31.143  28.681  1.00  0.00     0.074 A 
ATOM     49  C   UNL A   1      43.477  32.048  29.177  1.00  0.00     0.031 C 
ATOM     50  C   UNL A   1      41.351  25.551  28.207  1.00  0.00     0.029 A 
ATOM     51  C   UNL A   1      42.742  25.825  27.857  1.00  0.00     0.049 A 
ATOM     52  H   UNL A   1      43.763  27.631  28.052  1.00  0.00     0.167 HD
ATOM     53  C   UNL A   1      45.770  31.503  28.424  1.00  0.00     0.031 A 
ATOM     54  C   UNL A   1      43.606  24.929  27.341  1.00  0.00     0.031 A 
ATOM     55  C   UNL A   1      46.780  30.599  27.941  1.00  0.00     0.049 A 
ATOM     56  C   UNL A   1      45.016  25.361  27.040  1.00  0.00     0.074 A 
ATOM     57  C   UNL A   1      48.116  30.858  27.688  1.00  0.00     0.029 A 
ATOM     58  N   UNL A   1      46.569  29.262  27.640  1.00  0.00    -0.354 N 
ATOM     59  N   UNL A   1      45.573  26.537  27.209  1.00  0.00    -0.248 NA
ATOM     60  C   UNL A   1      45.921  24.340  26.491  1.00  0.00     0.031 C 
ATOM     61  C   UNL A   1      48.700  29.691  27.184  1.00  0.00     0.029 A 
ATOM     62  C   UNL A   1      47.744  28.688  27.187  1.00  0.00     0.049 A 
ATOM     63  H   UNL A   1      45.710  28.791  27.736  1.00  0.00     0.167 HD
ATOM     64  C   UNL A   1      46.901  26.385  26.824  1.00  0.00     0.074 A 
ATOM     65  C   UNL A   1      47.067  25.002  26.426  1.00  0.00     0.031 C 
ATOM     66  C   UNL A   1      47.896  27.307  26.804  1.00  0.00     0.031 A 
BRANCH  53  67
ATOM     67  C   UNL A   1      46.155  32.941  28.665  1.00  0.00    -0.014 A 
ATOM     68  C   UNL A   1      46.581  33.375  29.933  1.00  0.00     0.010 A 
ATOM     69  C   UNL A   1      46.142  33.859  27.598  1.00  0.00     0.010 A 
ATOM     70  C   UNL A   1      46.951  34.706  30.140  1.00  0.00     0.020 A 
ATOM     71  C   UNL A   1      46.541  35.185  27.793  1.00  0.00     0.020 A 
ATOM     72  C   UNL A   1      46.929  35.603  29.067  1.00  0.00     0.054 A 
BRANCH  72  73
ATOM     73  S   UNL A   1      47.448  37.316  29.360  1.00  0.00     0.124 S 
ATOM     74  O   UNL A   1      47.824  37.750  28.017  1.00  0.00    -0.237 OA
ATOM     75  O   UNL A   1      46.237  37.929  29.902  1.00  0.00    -0.237 OA
ATOM     76  O   UNL A   1      48.555  37.188  30.305  1.00  0.00    -0.744 OA
ENDBRANCH  72  73
ENDBRANCH  53  67
BRANCH  54  77
ATOM     77  C   UNL A   1      43.171  23.527  27.083  1.00  0.00    -0.014 A 
ATOM     78  C   UNL A   1      43.200  22.567  28.112  1.00  0.00     0.010 A 
ATOM     79  C   UNL A   1      42.741  23.137  25.801  1.00  0.00     0.010 A 
ATOM     80  C   UNL A   1      42.841  21.240  27.855  1.00  0.00     0.020 A 
ATOM     81  C   UNL A   1      42.349  21.820  25.549  1.00  0.00     0.020 A 
ATOM     82  C   UNL A   1      42.419  20.875  26.575  1.00  0.00     0.054 A 
BRANCH  82  83
ATOM     83  S   UNL A   1      41.934  19.153  26.270  1.00  0.00     0.124 S 
ATOM     84  O   UNL A   1      40.553  19.301  25.825  1.00  0.00    -0.237 OA
ATOM     85  O   UNL A   1      42.889  18.735  25.246  1.00  0.00    -0.237 OA
ATOM     86  O   UNL A   1      42.109  18.513  27.572  1.00  0.00    -0.744 OA
ENDBRANCH  82  83
ENDBRANCH  54  77
BRANCH  66  87
ATOM     87  C   UNL A   1      49.268  26.842  26.391  1.00  0.00    -0.014 A 
ATOM     88  C   UNL A   1      50.165  26.282  27.317  1.00  0.00     0.010 A 
ATOM     89  C   UNL A   1      49.642  26.919  25.036  1.00  0.00     0.010 A 
ATOM     90  C   UNL A   1      51.427  25.845  26.903  1.00  0.00     0.020 A 
ATOM     91  C   UNL A   1      50.889  26.453  24.613  1.00  0.00     0.020 A 
ATOM     92  C   UNL A   1      51.780  25.933  25.553  1.00  0.00     0.054 A 
BRANCH  92  93
ATOM     93  S   UNL A   1      53.407  25.321  25.035  1.00  0.00     0.124 S 
ATOM     94  O   UNL A   1      53.437  25.693  23.625  1.00  0.00    -0.237 OA
ATOM     95  O   UNL A   1      54.318  26.064  25.902  1.00  0.00    -0.237 OA
ATOM     96  O   UNL A   1      53.338  23.885  25.299  1.00  0.00    -0.744 OA
ENDBRANCH  92  93
ENDBRANCH  66  87
ENDBRANCH  40  41
ENDBRANCH  32  35
ENDBRANCH  30  31
ENDBRANCH  29  30
ENDBRANCH  28  29
ENDBRANCH   1  28
TORSDOF 21
ENDMDL
MODEL 3
REMARK VINA RESULT:      -9.0      2.741      9.306
REMARK SMILES CC[C@H]1CCC[C@H](O[C@@H]2CC[C@]([NH2+]C(C)C)(C(=O)NCCCCCCNC(=O)c3ccc(-c4c5nc(c(-c6ccc(S(=O)(=O)[O-])cc6)c6ccc([nH]6)c(-c6ccc(S(=O)(=O)[O-])cc6)c6nc(c(-c7ccc(S(=O)(=O)[O-])cc7)c7ccc4[nH]7)C=C6)C=C5)cc3)C2)C1
REMARK SMILES IDX 22 1 21 2 20 3 19 4 17 5 18 6 12 8 9 9 10 10 89 11 11 12
REMARK SMILES IDX 8 13 7 14 3 15 4 16 90 17 5 18 6 19 2 20 1 21 13 22 14 25
REMARK SMILES IDX 15 26 16 27 23 28 24 29 25 30 26 31 27 32 28 34 29 35 30 36
REMARK SMILES IDX 88 37 31 38 87 39 32 40 33 41 34 42 81 43 35 44 86 45 80 46
REMARK SMILES IDX 82 47 36 48 85 49 79 50 78 51 37 53 67 54 48 55 66 56 49 57
REMARK SMILES IDX 52 58 65 59 83 60 50 61 51 62 64 64 84 65 53 66 38 67 39 68
REMARK SMILES IDX 47 69 40 70 46 71 41 72 42 73 43 74 44 75 45 76 68 77 69 78
REMARK SMILES IDX 77 79 70 80 76 81 71 82 72 83 73 84 74 85 75 86 54 87 55 88
REMARK SMILES IDX 63 89 56 90 62 91 57 92 58 93 59 94 60 95 61 96
REMARK H PARENT 19 7 13 23 13 24 26 33 82 52 52 63
REMARK Flexibility Score: inf
ROOT
ATOM      1  C   UNL A   1      33.081  29.463  26.614  1.00  0.00     0.002 C 
ENDROOT
BRANCH   1   2
ATOM      2  C   UNL A   1      32.027  28.555  27.246  1.00  0.00     0.021 C 
BRANCH   2   3
ATOM      3  C   UNL A   1      31.902  27.121  26.733  1.00  0.00     0.116 C 
BRANCH   3   4
ATOM      4  N   UNL A   1      33.061  26.610  26.019  1.00  0.00    -0.351 N 
ATOM      5  C   UNL A   1      33.193  25.565  25.136  1.00  0.00     0.281 C 
ATOM      6  O   UNL A   1      34.271  25.503  24.531  1.00  0.00    -0.268 OA
ATOM      7  H   UNL A   1      33.897  27.097  26.199  1.00  0.00     0.163 HD
BRANCH   5   8
ATOM      8  C   UNL A   1      32.073  24.493  24.902  1.00  0.00     0.178 C 
ATOM      9  C   UNL A   1      31.830  22.317  23.738  1.00  0.00     0.125 C 
ATOM     10  C   UNL A   1      30.973  23.333  22.982  1.00  0.00     0.039 C 
ATOM     11  C   UNL A   1      32.725  23.138  24.638  1.00  0.00     0.111 C 
ATOM     12  C   UNL A   1      31.392  24.716  23.520  1.00  0.00     0.082 C 
BRANCH   9  13
ATOM     13  O   UNL A   1      32.484  21.284  22.997  1.00  0.00    -0.375 OA
BRANCH  13  14
ATOM     14  C   UNL A   1      32.918  20.034  23.561  1.00  0.00     0.118 C 
ATOM     15  C   UNL A   1      32.654  17.411  23.380  1.00  0.00    -0.009 C 
ATOM     16  C   UNL A   1      32.130  17.501  24.819  1.00  0.00     0.004 C 
ATOM     17  C   UNL A   1      32.665  18.787  22.668  1.00  0.00     0.035 C 
ATOM     18  C   UNL A   1      32.891  18.545  25.618  1.00  0.00     0.003 C 
ATOM     19  C   UNL A   1      32.567  19.909  25.043  1.00  0.00     0.032 C 
BRANCH  15  20
ATOM     20  C   UNL A   1      34.042  16.745  23.261  1.00  0.00     0.000 C 
ATOM     21  C   UNL A   1      34.993  17.052  24.409  1.00  0.00     0.004 C 
ENDBRANCH  15  20
ENDBRANCH  13  14
ENDBRANCH   9  13
BRANCH   8  22
ATOM     22  N   UNL A   1      31.034  24.404  25.952  1.00  0.00    -0.332 N 
ATOM     23  H   UNL A   1      30.145  24.652  25.515  1.00  0.00     0.347 HD
ATOM     24  H   UNL A   1      31.368  25.030  26.683  1.00  0.00     0.347 HD
BRANCH  22  25
ATOM     25  C   UNL A   1      30.832  23.124  26.644  1.00  0.00     0.176 C 
ATOM     26  C   UNL A   1      31.943  22.956  27.686  1.00  0.00     0.075 C 
ATOM     27  C   UNL A   1      29.499  23.084  27.394  1.00  0.00     0.075 C 
ENDBRANCH  22  25
ENDBRANCH   8  22
ENDBRANCH   5   8
ENDBRANCH   3   4
ENDBRANCH   2   3
ENDBRANCH   1   2
BRANCH   1  28
ATOM     28  C   UNL A   1      34.321  29.804  27.438  1.00  0.00     0.002 C 
BRANCH  28  29
ATOM     29  C   UNL A   1      34.662  31.283  27.621  1.00  0.00     0.021 C 
BRANCH  29  30
ATOM     30  C   UNL A   1      35.799  31.604  28.584  1.00  0.00     0.116 C 
BRANCH  30  31
ATOM     31  N   UNL A   1      35.650  30.981  29.886  1.00  0.00    -0.352 N 
ATOM     32  C   UNL A   1      36.536  30.206  30.600  1.00  0.00     0.251 C 
ATOM     33  H   UNL A   1      34.784  31.138  30.327  1.00  0.00     0.163 HD
ATOM     34  O   UNL A   1      36.176  29.692  31.650  1.00  0.00    -0.269 OA
BRANCH  32  35
ATOM     35  C   UNL A   1      37.909  29.967  30.091  1.00  0.00     0.039 A 
ATOM     36  C   UNL A   1      38.947  29.815  31.015  1.00  0.00     0.014 A 
ATOM     37  C   UNL A   1      38.186  29.912  28.722  1.00  0.00     0.014 A 
ATOM     38  C   UNL A   1      40.247  29.555  30.570  1.00  0.00     0.010 A 
ATOM     39  C   UNL A   1      39.466  29.577  28.281  1.00  0.00     0.010 A 
ATOM     40  C   UNL A   1      40.514  29.404  29.199  1.00  0.00    -0.014 A 
BRANCH  40  41
ATOM     41  C   UNL A   1      41.883  29.093  28.706  1.00  0.00     0.031 A 
ATOM     42  C   UNL A   1      42.220  27.699  28.245  1.00  0.00     0.074 A 
ATOM     43  C   UNL A   1      42.834  30.048  28.717  1.00  0.00     0.049 A 
ATOM     44  N   UNL A   1      43.368  27.218  27.842  1.00  0.00    -0.248 NA
ATOM     45  C   UNL A   1      41.130  26.708  28.265  1.00  0.00     0.031 C 
ATOM     46  C   UNL A   1      42.646  31.431  29.164  1.00  0.00     0.029 A 
ATOM     47  N   UNL A   1      44.155  30.001  28.341  1.00  0.00    -0.354 N 
ATOM     48  C   UNL A   1      43.142  25.873  27.570  1.00  0.00     0.074 A 
ATOM     49  C   UNL A   1      41.764  25.599  27.912  1.00  0.00     0.031 C 
ATOM     50  C   UNL A   1      43.797  32.105  29.010  1.00  0.00     0.029 A 
ATOM     51  C   UNL A   1      44.818  31.197  28.497  1.00  0.00     0.049 A 
ATOM     52  H   UNL A   1      44.588  29.188  27.994  1.00  0.00     0.167 HD
ATOM     53  C   UNL A   1      43.996  24.952  27.062  1.00  0.00     0.031 A 
ATOM     54  C   UNL A   1      46.104  31.524  28.261  1.00  0.00     0.031 A 
ATOM     55  C   UNL A   1      45.364  25.228  26.712  1.00  0.00     0.049 A 
ATOM     56  C   UNL A   1      47.039  30.475  27.721  1.00  0.00     0.074 A 
ATOM     57  C   UNL A   1      46.298  24.373  26.153  1.00  0.00     0.029 A 
ATOM     58  N   UNL A   1      45.994  26.452  26.883  1.00  0.00    -0.354 N 
ATOM     59  N   UNL A   1      46.791  29.222  27.424  1.00  0.00    -0.248 NA
ATOM     60  C   UNL A   1      48.427  30.891  27.468  1.00  0.00     0.031 C 
ATOM     61  C   UNL A   1      47.508  25.065  26.035  1.00  0.00     0.029 A 
ATOM     62  C   UNL A   1      47.309  26.369  26.458  1.00  0.00     0.049 A 
ATOM     63  H   UNL A   1      45.569  27.259  27.252  1.00  0.00     0.167 HD
ATOM     64  C   UNL A   1      47.980  28.711  26.915  1.00  0.00     0.074 A 
ATOM     65  C   UNL A   1      48.943  29.794  26.932  1.00  0.00     0.031 C 
ATOM     66  C   UNL A   1      48.252  27.459  26.471  1.00  0.00     0.031 A 
BRANCH  53  67
ATOM     67  C   UNL A   1      43.473  23.554  26.849  1.00  0.00    -0.014 A 
ATOM     68  C   UNL A   1      43.398  22.995  25.560  1.00  0.00     0.010 A 
ATOM     69  C   UNL A   1      43.100  22.768  27.956  1.00  0.00     0.010 A 
ATOM     70  C   UNL A   1      42.926  21.693  25.378  1.00  0.00     0.020 A 
ATOM     71  C   UNL A   1      42.658  21.453  27.781  1.00  0.00     0.020 A 
ATOM     72  C   UNL A   1      42.560  20.930  26.490  1.00  0.00     0.054 A 
BRANCH  72  73
ATOM     73  S   UNL A   1      41.985  19.231  26.223  1.00  0.00     0.124 S 
ATOM     74  O   UNL A   1      42.627  18.891  24.956  1.00  0.00    -0.237 OA
ATOM     75  O   UNL A   1      42.501  18.530  27.397  1.00  0.00    -0.237 OA
ATOM     76  O   UNL A   1      40.530  19.360  26.168  1.00  0.00    -0.744 OA
ENDBRANCH  72  73
ENDBRANCH  53  67
BRANCH  54  77
ATOM     77  C   UNL A   1      46.587  32.910  28.522  1.00  0.00    -0.014 A 
ATOM     78  C   UNL A   1      46.530  33.890  27.515  1.00  0.00     0.010 A 
ATOM     79  C   UNL A   1      47.126  33.253  29.776  1.00  0.00     0.010 A 
ATOM     80  C   UNL A   1      47.031  35.175  27.745  1.00  0.00     0.020 A 
ATOM     81  C   UNL A   1      47.597  34.546  30.020  1.00  0.00     0.020 A 
ATOM     82  C   UNL A   1      47.563  35.495  28.996  1.00  0.00     0.054 A 
BRANCH  82  83
ATOM     83  S   UNL A   1      48.186  37.175  29.281  1.00  0.00     0.124 S 
ATOM     84  O   UNL A   1      46.998  37.985  29.031  1.00  0.00    -0.237 OA
ATOM     85  O   UNL A   1      48.631  37.113  30.671  1.00  0.00    -0.237 OA
ATOM     86  O   UNL A   1      49.257  37.314  28.297  1.00  0.00    -0.744 OA
ENDBRANCH  82  83
ENDBRANCH  54  77
BRANCH  66  87
ATOM     87  C   UNL A   1      49.628  27.201  25.913  1.00  0.00    -0.014 A 
ATOM     88  C   UNL A   1      49.952  27.514  24.581  1.00  0.00     0.010 A 
ATOM     89  C   UNL A   1      50.628  26.684  26.758  1.00  0.00     0.010 A 
ATOM     90  C   UNL A   1      51.241  27.278  24.094  1.00  0.00     0.020 A 
ATOM     91  C   UNL A   1      51.926  26.478  26.284  1.00  0.00     0.020 A 
ATOM     92  C   UNL A   1      52.219  26.761  24.950  1.00  0.00     0.054 A 
BRANCH  92  93
ATOM     93  S   UNL A   1      53.894  26.503  24.304  1.00  0.00     0.124 S 
ATOM     94  O   UNL A   1      53.627  25.966  22.973  1.00  0.00    -0.237 OA
ATOM     95  O   UNL A   1      54.461  27.848  24.338  1.00  0.00    -0.237 OA
ATOM     96  O   UNL A   1      54.489  25.559  25.248  1.00  0.00    -0.744 OA
ENDBRANCH  92  93
ENDBRANCH  66  87
ENDBRANCH  40  41
ENDBRANCH  32  35
ENDBRANCH  30  31
ENDBRANCH  29  30
ENDBRANCH  28  29
ENDBRANCH   1  28
TORSDOF 21
ENDMDL
