MODEL 1
REMARK VINA RESULT:      -7.9      0.000      0.000
REMARK SMILES COc1cc(C(=O)CCC(=O)NCCCCCCNC(=O)c2ccc(-c3c4nc(c(-c5ccc(S(=O)(=O)[O-])cc5)c5ccc([nH]5)c(-c5ccc(S(=O)(=O)[O-])cc5)c5nc(c(-c6ccc(S(=O)(=O)[O-])cc6)c6ccc3[nH]6)C=C5)C=C4)cc2)cc(OC)c1OC
REMARK SMILES IDX 15 1 14 2 13 3 12 4 10 5 11 6 9 8 8 9 6 10 7 11 5 12 3 13
REMARK SMILES IDX 4 14 86 15 83 16 82 17 2 18 1 19 87 20 88 21 84 22 85 23
REMARK SMILES IDX 16 24 17 25 18 26 19 27 20 28 21 30 22 31 23 32 81 33 24 34
REMARK SMILES IDX 80 35 25 36 26 37 27 38 74 39 28 40 79 41 73 42 75 43 29 44
REMARK SMILES IDX 78 45 72 46 71 47 30 49 60 50 41 51 59 52 42 53 45 54 58 55
REMARK SMILES IDX 76 56 43 57 44 58 57 60 77 61 46 62 31 63 32 64 40 65 33 66
REMARK SMILES IDX 39 67 34 68 35 69 36 70 37 71 38 72 61 73 62 74 70 75 63 76
REMARK SMILES IDX 69 77 64 78 65 79 66 80 67 81 68 82 47 83 48 84 56 85 49 86
REMARK SMILES IDX 55 87 50 88 51 89 52 90 53 91 54 92
REMARK H PARENT 12 7 19 29 75 48 45 59
REMARK Flexibility Score: inf
ROOT
ATOM      1  C   UNL A   1      39.132  28.015  30.597  1.00  0.00     0.002 C 
ENDROOT
BRANCH   1   2
ATOM      2  C   UNL A   1      40.009  29.158  30.084  1.00  0.00     0.021 C 
BRANCH   2   3
ATOM      3  C   UNL A   1      39.740  29.575  28.641  1.00  0.00     0.116 C 
BRANCH   3   4
ATOM      4  N   UNL A   1      38.414  29.154  28.208  1.00  0.00    -0.356 N 
ATOM      5  C   UNL A   1      37.206  29.769  28.355  1.00  0.00     0.220 C 
ATOM      6  O   UNL A   1      36.197  29.181  27.962  1.00  0.00    -0.275 OA
ATOM      7  H   UNL A   1      38.385  28.291  27.735  1.00  0.00     0.163 HD
BRANCH   5   8
ATOM      8  C   UNL A   1      37.103  31.136  29.000  1.00  0.00     0.108 C 
BRANCH   8   9
ATOM      9  C   UNL A   1      35.933  31.221  29.977  1.00  0.00     0.091 C 
BRANCH   9  10
ATOM     10  C   UNL A   1      34.851  32.152  29.460  1.00  0.00     0.163 C 
ATOM     11  O   UNL A   1      34.334  31.945  28.362  1.00  0.00    -0.294 OA
BRANCH  10  12
ATOM     12  C   UNL A   1      34.474  33.387  30.218  1.00  0.00     0.025 A 
ATOM     13  C   UNL A   1      34.204  34.482  32.374  1.00  0.00     0.165 A 
ATOM     14  C   UNL A   1      34.703  33.425  31.603  1.00  0.00     0.062 A 
ATOM     15  C   UNL A   1      33.460  35.511  31.777  1.00  0.00     0.203 A 
ATOM     16  C   UNL A   1      33.290  35.504  30.387  1.00  0.00     0.165 A 
ATOM     17  C   UNL A   1      33.802  34.453  29.616  1.00  0.00     0.062 A 
BRANCH  13  18
ATOM     18  O   UNL A   1      34.602  34.553  33.682  1.00  0.00    -0.493 OA
ATOM     19  C   UNL A   1      35.475  33.494  34.059  1.00  0.00     0.278 C 
ENDBRANCH  13  18
BRANCH  15  20
ATOM     20  O   UNL A   1      33.016  36.577  32.516  1.00  0.00    -0.490 OA
ATOM     21  C   UNL A   1      33.965  37.647  32.535  1.00  0.00     0.278 C 
ENDBRANCH  15  20
BRANCH  16  22
ATOM     22  O   UNL A   1      32.720  36.506  29.647  1.00  0.00    -0.493 OA
ATOM     23  C   UNL A   1      33.574  37.080  28.668  1.00  0.00     0.278 C 
ENDBRANCH  16  22
ENDBRANCH  10  12
ENDBRANCH   9  10
ENDBRANCH   8   9
ENDBRANCH   5   8
ENDBRANCH   3   4
ENDBRANCH   2   3
ENDBRANCH   1   2
BRANCH   1  24
ATOM     24  C   UNL A   1      38.952  27.981  32.116  1.00  0.00     0.002 C 
BRANCH  24  25
ATOM     25  C   UNL A   1      37.686  28.653  32.663  1.00  0.00     0.021 C 
BRANCH  25  26
ATOM     26  C   UNL A   1      37.805  30.123  33.065  1.00  0.00     0.116 C 
BRANCH  26  27
ATOM     27  N   UNL A   1      38.014  30.319  34.492  1.00  0.00    -0.352 N 
ATOM     28  C   UNL A   1      39.187  30.394  35.204  1.00  0.00     0.251 C 
ATOM     29  H   UNL A   1      37.193  30.412  35.026  1.00  0.00     0.163 HD
ATOM     30  O   UNL A   1      39.150  30.538  36.423  1.00  0.00    -0.269 OA
BRANCH  28  31
ATOM     31  C   UNL A   1      40.488  30.258  34.514  1.00  0.00     0.039 A 
ATOM     32  C   UNL A   1      41.388  29.292  34.975  1.00  0.00     0.014 A 
ATOM     33  C   UNL A   1      40.811  31.047  33.407  1.00  0.00     0.014 A 
ATOM     34  C   UNL A   1      42.569  29.053  34.270  1.00  0.00     0.010 A 
ATOM     35  C   UNL A   1      41.974  30.783  32.682  1.00  0.00     0.010 A 
ATOM     36  C   UNL A   1      42.847  29.766  33.092  1.00  0.00    -0.014 A 
BRANCH  36  37
ATOM     37  C   UNL A   1      43.984  29.376  32.224  1.00  0.00     0.031 A 
ATOM     38  C   UNL A   1      45.252  30.178  32.195  1.00  0.00     0.074 A 
ATOM     39  C   UNL A   1      43.830  28.326  31.395  1.00  0.00     0.049 A 
ATOM     40  N   UNL A   1      46.343  29.964  31.505  1.00  0.00    -0.248 NA
ATOM     41  C   UNL A   1      45.292  31.384  33.035  1.00  0.00     0.031 C 
ATOM     42  C   UNL A   1      42.616  27.514  31.282  1.00  0.00     0.029 A 
ATOM     43  N   UNL A   1      44.689  27.768  30.483  1.00  0.00    -0.354 N 
ATOM     44  C   UNL A   1      47.200  31.009  31.820  1.00  0.00     0.074 A 
ATOM     45  C   UNL A   1      46.485  31.878  32.733  1.00  0.00     0.031 C 
ATOM     46  C   UNL A   1      42.813  26.553  30.365  1.00  0.00     0.029 A 
ATOM     47  C   UNL A   1      44.156  26.693  29.811  1.00  0.00     0.049 A 
ATOM     48  H   UNL A   1      45.601  28.104  30.323  1.00  0.00     0.167 HD
ATOM     49  C   UNL A   1      48.471  31.220  31.396  1.00  0.00     0.031 A 
ATOM     50  C   UNL A   1      44.684  25.905  28.856  1.00  0.00     0.031 A 
ATOM     51  C   UNL A   1      49.166  30.363  30.470  1.00  0.00     0.049 A 
ATOM     52  C   UNL A   1      46.099  26.143  28.412  1.00  0.00     0.074 A 
ATOM     53  C   UNL A   1      50.474  30.454  30.026  1.00  0.00     0.029 A 
ATOM     54  N   UNL A   1      48.603  29.268  29.831  1.00  0.00    -0.354 N 
ATOM     55  N   UNL A   1      46.934  27.077  28.801  1.00  0.00    -0.248 NA
ATOM     56  C   UNL A   1      46.648  25.214  27.416  1.00  0.00     0.031 C 
ATOM     57  C   UNL A   1      50.685  29.442  29.082  1.00  0.00     0.029 A 
ATOM     58  C   UNL A   1      49.527  28.689  28.975  1.00  0.00     0.049 A 
ATOM     59  H   UNL A   1      47.682  28.948  29.966  1.00  0.00     0.167 HD
ATOM     60  C   UNL A   1      48.116  26.839  28.109  1.00  0.00     0.074 A 
ATOM     61  C   UNL A   1      47.890  25.664  27.290  1.00  0.00     0.031 C 
ATOM     62  C   UNL A   1      49.282  27.531  28.152  1.00  0.00     0.031 A 
BRANCH  49  63
ATOM     63  C   UNL A   1      49.174  32.444  31.921  1.00  0.00    -0.014 A 
ATOM     64  C   UNL A   1      49.916  32.399  33.116  1.00  0.00     0.010 A 
ATOM     65  C   UNL A   1      49.090  33.659  31.216  1.00  0.00     0.010 A 
ATOM     66  C   UNL A   1      50.502  33.558  33.631  1.00  0.00     0.020 A 
ATOM     67  C   UNL A   1      49.698  34.815  31.715  1.00  0.00     0.020 A 
ATOM     68  C   UNL A   1      50.378  34.763  32.934  1.00  0.00     0.054 A 
BRANCH  68  69
ATOM     69  S   UNL A   1      51.122  36.261  33.637  1.00  0.00     0.124 S 
ATOM     70  O   UNL A   1      51.290  37.095  32.451  1.00  0.00    -0.237 OA
ATOM     71  O   UNL A   1      50.103  36.714  34.582  1.00  0.00    -0.237 OA
ATOM     72  O   UNL A   1      52.360  35.780  34.245  1.00  0.00    -0.744 OA
ENDBRANCH  68  69
ENDBRANCH  49  63
BRANCH  50  73
ATOM     73  C   UNL A   1      43.868  24.798  28.294  1.00  0.00    -0.014 A 
ATOM     74  C   UNL A   1      43.749  23.579  28.984  1.00  0.00     0.010 A 
ATOM     75  C   UNL A   1      43.139  24.987  27.106  1.00  0.00     0.010 A 
ATOM     76  C   UNL A   1      42.908  22.572  28.502  1.00  0.00     0.020 A 
ATOM     77  C   UNL A   1      42.281  23.989  26.631  1.00  0.00     0.020 A 
ATOM     78  C   UNL A   1      42.173  22.787  27.333  1.00  0.00     0.054 A 
BRANCH  78  79
ATOM     79  S   UNL A   1      41.007  21.509  26.784  1.00  0.00     0.124 S 
ATOM     80  O   UNL A   1      41.759  20.848  25.722  1.00  0.00    -0.237 OA
ATOM     81  O   UNL A   1      40.804  20.724  27.999  1.00  0.00    -0.237 OA
ATOM     82  O   UNL A   1      39.842  22.275  26.347  1.00  0.00    -0.744 OA
ENDBRANCH  78  79
ENDBRANCH  50  73
BRANCH  62  83
ATOM     83  C   UNL A   1      50.410  27.028  27.292  1.00  0.00    -0.014 A 
ATOM     84  C   UNL A   1      51.306  26.055  27.766  1.00  0.00     0.010 A 
ATOM     85  C   UNL A   1      50.545  27.503  25.974  1.00  0.00     0.010 A 
ATOM     86  C   UNL A   1      52.335  25.583  26.947  1.00  0.00     0.020 A 
ATOM     87  C   UNL A   1      51.558  27.017  25.144  1.00  0.00     0.020 A 
ATOM     88  C   UNL A   1      52.456  26.069  25.640  1.00  0.00     0.054 A 
BRANCH  88  89
ATOM     89  S   UNL A   1      53.772  25.410  24.580  1.00  0.00     0.124 S 
ATOM     90  O   UNL A   1      53.412  25.958  23.275  1.00  0.00    -0.237 OA
ATOM     91  O   UNL A   1      54.981  25.965  25.183  1.00  0.00    -0.237 OA
ATOM     92  O   UNL A   1      53.626  23.961  24.710  1.00  0.00    -0.744 OA
ENDBRANCH  88  89
ENDBRANCH  62  83
ENDBRANCH  36  37
ENDBRANCH  28  31
ENDBRANCH  26  27
ENDBRANCH  25  26
ENDBRANCH  24  25
ENDBRANCH   1  24
TORSDOF 22
ENDMDL
MODEL 2
REMARK VINA RESULT:      -7.9      3.442     10.595
REMARK SMILES COc1cc(C(=O)CCC(=O)NCCCCCCNC(=O)c2ccc(-c3c4nc(c(-c5ccc(S(=O)(=O)[O-])cc5)c5ccc([nH]5)c(-c5ccc(S(=O)(=O)[O-])cc5)c5nc(c(-c6ccc(S(=O)(=O)[O-])cc6)c6ccc3[nH]6)C=C5)C=C4)cc2)cc(OC)c1OC
REMARK SMILES IDX 15 1 14 2 13 3 12 4 10 5 11 6 9 8 8 9 6 10 7 11 5 12 3 13
REMARK SMILES IDX 4 14 86 15 83 16 82 17 2 18 1 19 87 20 88 21 84 22 85 23
REMARK SMILES IDX 16 24 17 25 18 26 19 27 20 28 21 30 22 31 23 32 81 33 24 34
REMARK SMILES IDX 80 35 25 36 26 37 27 38 74 39 28 40 79 41 73 42 75 43 29 44
REMARK SMILES IDX 78 45 72 46 71 47 30 49 60 50 41 51 59 52 42 53 45 54 58 55
REMARK SMILES IDX 76 56 43 57 44 58 57 60 77 61 46 62 31 63 32 64 40 65 33 66
REMARK SMILES IDX 39 67 34 68 35 69 36 70 37 71 38 72 61 73 62 74 70 75 63 76
REMARK SMILES IDX 69 77 64 78 65 79 66 80 67 81 68 82 47 83 48 84 56 85 49 86
REMARK SMILES IDX 55 87 50 88 51 89 52 90 53 91 54 92
REMARK H PARENT 12 7 19 29 75 48 45 59
REMARK Flexibility Score: inf
ROOT
ATOM      1  C   UNL A   1      36.738  32.224  31.536  1.00  0.00     0.002 C 
ENDROOT
BRANCH   1   2
ATOM      2  C   UNL A   1      37.800  33.065  32.245  1.00  0.00     0.021 C 
BRANCH   2   3
ATOM      3  C   UNL A   1      37.540  33.308  33.729  1.00  0.00     0.116 C 
BRANCH   3   4
ATOM      4  N   UNL A   1      37.521  32.057  34.475  1.00  0.00    -0.356 N 
ATOM      5  C   UNL A   1      38.532  31.184  34.749  1.00  0.00     0.220 C 
ATOM      6  O   UNL A   1      38.259  30.141  35.347  1.00  0.00    -0.275 OA
ATOM      7  H   UNL A   1      36.642  31.801  34.837  1.00  0.00     0.163 HD
BRANCH   5   8
ATOM      8  C   UNL A   1      39.954  31.479  34.318  1.00  0.00     0.108 C 
BRANCH   8   9
ATOM      9  C   UNL A   1      40.722  30.206  33.969  1.00  0.00     0.091 C 
BRANCH   9  10
ATOM     10  C   UNL A   1      41.872  29.978  34.932  1.00  0.00     0.163 C 
ATOM     11  O   UNL A   1      42.148  30.830  35.777  1.00  0.00    -0.294 OA
BRANCH  10  12
ATOM     12  C   UNL A   1      42.754  28.773  34.804  1.00  0.00     0.025 A 
ATOM     13  C   UNL A   1      42.974  26.355  34.951  1.00  0.00     0.165 A 
ATOM     14  C   UNL A   1      42.169  27.499  34.886  1.00  0.00     0.062 A 
ATOM     15  C   UNL A   1      44.373  26.465  34.946  1.00  0.00     0.203 A 
ATOM     16  C   UNL A   1      44.951  27.733  34.798  1.00  0.00     0.165 A 
ATOM     17  C   UNL A   1      44.143  28.874  34.719  1.00  0.00     0.062 A 
BRANCH  13  18
ATOM     18  O   UNL A   1      42.353  25.138  34.857  1.00  0.00    -0.493 OA
ATOM     19  C   UNL A   1      41.603  24.803  36.020  1.00  0.00     0.278 C 
ENDBRANCH  13  18
BRANCH  15  20
ATOM     20  O   UNL A   1      45.166  25.348  34.953  1.00  0.00    -0.490 OA
ATOM     21  C   UNL A   1      45.425  24.883  36.281  1.00  0.00     0.278 C 
ENDBRANCH  15  20
BRANCH  16  22
ATOM     22  O   UNL A   1      46.287  27.986  34.630  1.00  0.00    -0.493 OA
ATOM     23  C   UNL A   1      46.748  29.176  35.253  1.00  0.00     0.278 C 
ENDBRANCH  16  22
ENDBRANCH  10  12
ENDBRANCH   9  10
ENDBRANCH   8   9
ENDBRANCH   5   8
ENDBRANCH   3   4
ENDBRANCH   2   3
ENDBRANCH   1   2
BRANCH   1  24
ATOM     24  C   UNL A   1      35.980  32.957  30.427  1.00  0.00     0.002 C 
BRANCH  24  25
ATOM     25  C   UNL A   1      34.673  32.306  29.956  1.00  0.00     0.021 C 
BRANCH  25  26
ATOM     26  C   UNL A   1      34.438  32.247  28.447  1.00  0.00     0.116 C 
BRANCH  26  27
ATOM     27  N   UNL A   1      34.038  30.930  27.972  1.00  0.00    -0.352 N 
ATOM     28  C   UNL A   1      34.777  29.778  27.858  1.00  0.00     0.251 C 
ATOM     29  H   UNL A   1      33.098  30.855  27.691  1.00  0.00     0.163 HD
ATOM     30  O   UNL A   1      34.254  28.763  27.404  1.00  0.00    -0.269 OA
BRANCH  28  31
ATOM     31  C   UNL A   1      36.205  29.767  28.239  1.00  0.00     0.039 A 
ATOM     32  C   UNL A   1      36.547  29.351  29.530  1.00  0.00     0.014 A 
ATOM     33  C   UNL A   1      37.204  30.134  27.332  1.00  0.00     0.014 A 
ATOM     34  C   UNL A   1      37.892  29.210  29.879  1.00  0.00     0.010 A 
ATOM     35  C   UNL A   1      38.546  29.958  27.669  1.00  0.00     0.010 A 
ATOM     36  C   UNL A   1      38.899  29.469  28.935  1.00  0.00    -0.014 A 
BRANCH  36  37
ATOM     37  C   UNL A   1      40.311  29.122  29.224  1.00  0.00     0.031 A 
ATOM     38  C   UNL A   1      40.873  27.778  28.865  1.00  0.00     0.074 A 
ATOM     39  C   UNL A   1      41.069  30.013  29.893  1.00  0.00     0.049 A 
ATOM     40  N   UNL A   1      42.087  27.323  29.035  1.00  0.00    -0.248 NA
ATOM     41  C   UNL A   1      39.945  26.815  28.253  1.00  0.00     0.031 C 
ATOM     42  C   UNL A   1      40.611  31.325  30.358  1.00  0.00     0.029 A 
ATOM     43  N   UNL A   1      42.374  29.950  30.308  1.00  0.00    -0.354 N 
ATOM     44  C   UNL A   1      42.074  26.019  28.558  1.00  0.00     0.074 A 
ATOM     45  C   UNL A   1      40.718  25.744  28.129  1.00  0.00     0.031 C 
ATOM     46  C   UNL A   1      41.624  31.948  30.981  1.00  0.00     0.029 A 
ATOM     47  C   UNL A   1      42.793  31.075  30.978  1.00  0.00     0.049 A 
ATOM     48  H   UNL A   1      42.957  29.174  30.142  1.00  0.00     0.167 HD
ATOM     49  C   UNL A   1      43.100  25.137  28.475  1.00  0.00     0.031 A 
ATOM     50  C   UNL A   1      43.984  31.375  31.530  1.00  0.00     0.031 A 
ATOM     51  C   UNL A   1      44.440  25.411  28.925  1.00  0.00     0.049 A 
ATOM     52  C   UNL A   1      45.113  30.392  31.412  1.00  0.00     0.074 A 
ATOM     53  C   UNL A   1      45.564  24.609  28.829  1.00  0.00     0.029 A 
ATOM     54  N   UNL A   1      44.834  26.572  29.574  1.00  0.00    -0.354 N 
ATOM     55  N   UNL A   1      45.109  29.202  30.861  1.00  0.00    -0.248 NA
ATOM     56  C   UNL A   1      46.407  30.798  31.974  1.00  0.00     0.031 C 
ATOM     57  C   UNL A   1      46.625  25.266  29.464  1.00  0.00     0.029 A 
ATOM     58  C   UNL A   1      46.176  26.498  29.910  1.00  0.00     0.049 A 
ATOM     59  H   UNL A   1      44.246  27.337  29.768  1.00  0.00     0.167 HD
ATOM     60  C   UNL A   1      46.406  28.721  30.994  1.00  0.00     0.074 A 
ATOM     61  C   UNL A   1      47.169  29.755  31.664  1.00  0.00     0.031 C 
ATOM     62  C   UNL A   1      46.917  27.529  30.594  1.00  0.00     0.031 A 
BRANCH  49  63
ATOM     63  C   UNL A   1      42.792  23.782  27.892  1.00  0.00    -0.014 A 
ATOM     64  C   UNL A   1      42.319  22.733  28.703  1.00  0.00     0.010 A 
ATOM     65  C   UNL A   1      42.983  23.549  26.518  1.00  0.00     0.010 A 
ATOM     66  C   UNL A   1      42.107  21.461  28.165  1.00  0.00     0.020 A 
ATOM     67  C   UNL A   1      42.746  22.284  25.971  1.00  0.00     0.020 A 
ATOM     68  C   UNL A   1      42.336  21.241  26.804  1.00  0.00     0.054 A 
BRANCH  68  69
ATOM     69  S   UNL A   1      42.084  19.574  26.134  1.00  0.00     0.124 S 
ATOM     70  O   UNL A   1      40.654  19.585  25.836  1.00  0.00    -0.237 OA
ATOM     71  O   UNL A   1      42.967  19.557  24.969  1.00  0.00    -0.237 OA
ATOM     72  O   UNL A   1      42.487  18.696  27.229  1.00  0.00    -0.744 OA
ENDBRANCH  68  69
ENDBRANCH  49  63
BRANCH  50  73
ATOM     73  C   UNL A   1      44.160  32.687  32.207  1.00  0.00    -0.014 A 
ATOM     74  C   UNL A   1      43.503  32.957  33.419  1.00  0.00     0.010 A 
ATOM     75  C   UNL A   1      45.053  33.641  31.683  1.00  0.00     0.010 A 
ATOM     76  C   UNL A   1      43.740  34.154  34.101  1.00  0.00     0.020 A 
ATOM     77  C   UNL A   1      45.308  34.830  32.373  1.00  0.00     0.020 A 
ATOM     78  C   UNL A   1      44.649  35.078  33.579  1.00  0.00     0.054 A 
BRANCH  78  79
ATOM     79  S   UNL A   1      45.023  36.575  34.534  1.00  0.00     0.124 S 
ATOM     80  O   UNL A   1      45.402  37.518  33.486  1.00  0.00    -0.237 OA
ATOM     81  O   UNL A   1      43.752  36.849  35.201  1.00  0.00    -0.237 OA
ATOM     82  O   UNL A   1      46.103  36.153  35.422  1.00  0.00    -0.744 OA
ENDBRANCH  78  79
ENDBRANCH  50  73
BRANCH  62  83
ATOM     83  C   UNL A   1      48.378  27.283  30.864  1.00  0.00    -0.014 A 
ATOM     84  C   UNL A   1      49.307  27.209  29.813  1.00  0.00     0.010 A 
ATOM     85  C   UNL A   1      48.831  27.174  32.192  1.00  0.00     0.010 A 
ATOM     86  C   UNL A   1      50.662  27.001  30.083  1.00  0.00     0.020 A 
ATOM     87  C   UNL A   1      50.188  26.990  32.466  1.00  0.00     0.020 A 
ATOM     88  C   UNL A   1      51.095  26.891  31.409  1.00  0.00     0.054 A 
BRANCH  88  89
ATOM     89  S   UNL A   1      52.865  26.667  31.737  1.00  0.00     0.124 S 
ATOM     90  O   UNL A   1      52.930  26.849  33.184  1.00  0.00    -0.237 OA
ATOM     91  O   UNL A   1      53.112  25.308  31.263  1.00  0.00    -0.237 OA
ATOM     92  O   UNL A   1      53.498  27.722  30.947  1.00  0.00    -0.744 OA
ENDBRANCH  88  89
ENDBRANCH  62  83
ENDBRANCH  36  37
ENDBRANCH  28  31
ENDBRANCH  26  27
ENDBRANCH  25  26
ENDBRANCH  24  25
ENDBRANCH   1  24
TORSDOF 22
ENDMDL
MODEL 3
REMARK VINA RESULT:      -7.5      4.462      5.704
REMARK SMILES COc1cc(C(=O)CCC(=O)NCCCCCCNC(=O)c2ccc(-c3c4nc(c(-c5ccc(S(=O)(=O)[O-])cc5)c5ccc([nH]5)c(-c5ccc(S(=O)(=O)[O-])cc5)c5nc(c(-c6ccc(S(=O)(=O)[O-])cc6)c6ccc3[nH]6)C=C5)C=C4)cc2)cc(OC)c1OC
REMARK SMILES IDX 15 1 14 2 13 3 12 4 10 5 11 6 9 8 8 9 6 10 7 11 5 12 3 13
REMARK SMILES IDX 4 14 86 15 83 16 82 17 2 18 1 19 87 20 88 21 84 22 85 23
REMARK SMILES IDX 16 24 17 25 18 26 19 27 20 28 21 30 22 31 23 32 81 33 24 34
REMARK SMILES IDX 80 35 25 36 26 37 27 38 74 39 28 40 79 41 73 42 75 43 29 44
REMARK SMILES IDX 78 45 72 46 71 47 30 49 60 50 41 51 59 52 42 53 45 54 58 55
REMARK SMILES IDX 76 56 43 57 44 58 57 60 77 61 46 62 31 63 32 64 40 65 33 66
REMARK SMILES IDX 39 67 34 68 35 69 36 70 37 71 38 72 61 73 62 74 70 75 63 76
REMARK SMILES IDX 69 77 64 78 65 79 66 80 67 81 68 82 47 83 48 84 56 85 49 86
REMARK SMILES IDX 55 87 50 88 51 89 52 90 53 91 54 92
REMARK H PARENT 12 7 19 29 75 48 45 59
REMARK Flexibility Score: inf
ROOT
ATOM      1  C   UNL A   1      38.791  27.889  30.477  1.00  0.00     0.002 C 
ENDROOT
BRANCH   1   2
ATOM      2  C   UNL A   1      39.969  28.386  29.638  1.00  0.00     0.021 C 
BRANCH   2   3
ATOM      3  C   UNL A   1      39.592  28.917  28.257  1.00  0.00     0.116 C 
BRANCH   3   4
ATOM      4  N   UNL A   1      38.167  28.755  27.999  1.00  0.00    -0.356 N 
ATOM      5  C   UNL A   1      37.152  29.662  28.077  1.00  0.00     0.220 C 
ATOM      6  O   UNL A   1      36.001  29.271  27.876  1.00  0.00    -0.275 OA
ATOM      7  H   UNL A   1      37.895  27.849  27.726  1.00  0.00     0.163 HD
BRANCH   5   8
ATOM      8  C   UNL A   1      37.429  31.112  28.417  1.00  0.00     0.108 C 
BRANCH   8   9
ATOM      9  C   UNL A   1      36.491  31.635  29.502  1.00  0.00     0.091 C 
BRANCH   9  10
ATOM     10  C   UNL A   1      35.473  32.604  28.929  1.00  0.00     0.163 C 
ATOM     11  O   UNL A   1      35.233  32.602  27.721  1.00  0.00    -0.294 OA
BRANCH  10  12
ATOM     12  C   UNL A   1      34.829  33.643  29.795  1.00  0.00     0.025 A 
ATOM     13  C   UNL A   1      34.235  34.379  32.036  1.00  0.00     0.165 A 
ATOM     14  C   UNL A   1      34.966  33.537  31.189  1.00  0.00     0.062 A 
ATOM     15  C   UNL A   1      33.349  35.330  31.508  1.00  0.00     0.203 A 
ATOM     16  C   UNL A   1      33.265  35.476  30.117  1.00  0.00     0.165 A 
ATOM     17  C   UNL A   1      34.008  34.643  29.271  1.00  0.00     0.062 A 
BRANCH  13  18
ATOM     18  O   UNL A   1      34.535  34.347  33.372  1.00  0.00    -0.493 OA
ATOM     19  C   UNL A   1      35.800  34.926  33.675  1.00  0.00     0.278 C 
ENDBRANCH  13  18
BRANCH  15  20
ATOM     20  O   UNL A   1      32.673  36.194  32.329  1.00  0.00    -0.490 OA
ATOM     21  C   UNL A   1      31.351  35.732  32.619  1.00  0.00     0.278 C 
ENDBRANCH  15  20
BRANCH  16  22
ATOM     22  O   UNL A   1      32.563  36.450  29.457  1.00  0.00    -0.493 OA
ATOM     23  C   UNL A   1      33.366  37.375  28.737  1.00  0.00     0.278 C 
ENDBRANCH  16  22
ENDBRANCH  10  12
ENDBRANCH   9  10
ENDBRANCH   8   9
ENDBRANCH   5   8
ENDBRANCH   3   4
ENDBRANCH   2   3
ENDBRANCH   1   2
BRANCH   1  24
ATOM     24  C   UNL A   1      38.962  28.074  31.987  1.00  0.00     0.002 C 
BRANCH  24  25
ATOM     25  C   UNL A   1      37.719  28.538  32.757  1.00  0.00     0.021 C 
BRANCH  25  26
ATOM     26  C   UNL A   1      37.389  30.029  32.696  1.00  0.00     0.116 C 
BRANCH  26  27
ATOM     27  N   UNL A   1      37.227  30.642  34.007  1.00  0.00    -0.352 N 
ATOM     28  C   UNL A   1      37.973  31.624  34.613  1.00  0.00     0.251 C 
ATOM     29  H   UNL A   1      36.471  30.302  34.537  1.00  0.00     0.163 HD
ATOM     30  O   UNL A   1      37.686  31.990  35.750  1.00  0.00    -0.269 OA
BRANCH  28  31
ATOM     31  C   UNL A   1      39.141  32.207  33.921  1.00  0.00     0.039 A 
ATOM     32  C   UNL A   1      40.420  31.898  34.396  1.00  0.00     0.014 A 
ATOM     33  C   UNL A   1      38.989  33.026  32.798  1.00  0.00     0.014 A 
ATOM     34  C   UNL A   1      41.544  32.330  33.690  1.00  0.00     0.010 A 
ATOM     35  C   UNL A   1      40.112  33.426  32.073  1.00  0.00     0.010 A 
ATOM     36  C   UNL A   1      41.396  33.058  32.498  1.00  0.00    -0.014 A 
BRANCH  36  37
ATOM     37  C   UNL A   1      42.567  33.337  31.633  1.00  0.00     0.031 A 
ATOM     38  C   UNL A   1      43.220  34.687  31.618  1.00  0.00     0.074 A 
ATOM     39  C   UNL A   1      42.991  32.373  30.793  1.00  0.00     0.049 A 
ATOM     40  N   UNL A   1      44.259  35.089  30.932  1.00  0.00    -0.248 NA
ATOM     41  C   UNL A   1      42.617  35.724  32.469  1.00  0.00     0.031 C 
ATOM     42  C   UNL A   1      42.389  31.043  30.667  1.00  0.00     0.029 A 
ATOM     43  N   UNL A   1      44.015  32.362  29.881  1.00  0.00    -0.354 N 
ATOM     44  C   UNL A   1      44.435  36.427  31.261  1.00  0.00     0.074 A 
ATOM     45  C   UNL A   1      43.369  36.777  32.177  1.00  0.00     0.031 C 
ATOM     46  C   UNL A   1      43.064  30.341  29.742  1.00  0.00     0.029 A 
ATOM     47  C   UNL A   1      44.130  31.175  29.197  1.00  0.00     0.049 A 
ATOM     48  H   UNL A   1      44.611  33.131  29.729  1.00  0.00     0.167 HD
ATOM     49  C   UNL A   1      45.402  37.281  30.845  1.00  0.00     0.031 A 
ATOM     50  C   UNL A   1      44.995  30.795  28.238  1.00  0.00     0.031 A 
ATOM     51  C   UNL A   1      46.445  36.931  29.916  1.00  0.00     0.049 A 
ATOM     52  C   UNL A   1      46.070  31.750  27.803  1.00  0.00     0.074 A 
ATOM     53  C   UNL A   1      47.507  37.703  29.479  1.00  0.00     0.029 A 
ATOM     54  N   UNL A   1      46.546  35.710  29.264  1.00  0.00    -0.354 N 
ATOM     55  N   UNL A   1      46.286  32.979  28.205  1.00  0.00    -0.248 NA
ATOM     56  C   UNL A   1      47.026  31.261  26.802  1.00  0.00     0.031 C 
ATOM     57  C   UNL A   1      48.221  36.966  28.527  1.00  0.00     0.029 A 
ATOM     58  C   UNL A   1      47.635  35.716  28.408  1.00  0.00     0.049 A 
ATOM     59  H   UNL A   1      45.933  34.951  29.391  1.00  0.00     0.167 HD
ATOM     60  C   UNL A   1      47.414  33.408  27.518  1.00  0.00     0.074 A 
ATOM     61  C   UNL A   1      47.844  32.301  26.687  1.00  0.00     0.031 C 
ATOM     62  C   UNL A   1      48.039  34.611  27.573  1.00  0.00     0.031 A 
BRANCH  49  63
ATOM     63  C   UNL A   1      45.352  38.687  31.385  1.00  0.00    -0.014 A 
ATOM     64  C   UNL A   1      44.658  39.703  30.700  1.00  0.00     0.010 A 
ATOM     65  C   UNL A   1      46.011  39.001  32.587  1.00  0.00     0.010 A 
ATOM     66  C   UNL A   1      44.681  41.018  31.172  1.00  0.00     0.020 A 
ATOM     67  C   UNL A   1      46.013  40.311  33.077  1.00  0.00     0.020 A 
ATOM     68  C   UNL A   1      45.371  41.317  32.351  1.00  0.00     0.054 A 
BRANCH  68  69
ATOM     69  S   UNL A   1      45.411  43.037  32.928  1.00  0.00     0.124 S 
ATOM     70  O   UNL A   1      45.016  42.891  34.326  1.00  0.00    -0.237 OA
ATOM     71  O   UNL A   1      46.805  43.418  32.707  1.00  0.00    -0.237 OA
ATOM     72  O   UNL A   1      44.441  43.713  32.071  1.00  0.00    -0.744 OA
ENDBRANCH  68  69
ENDBRANCH  49  63
BRANCH  50  73
ATOM     73  C   UNL A   1      44.886  29.429  27.662  1.00  0.00    -0.014 A 
ATOM     74  C   UNL A   1      44.067  29.190  26.546  1.00  0.00     0.010 A 
ATOM     75  C   UNL A   1      45.667  28.378  28.178  1.00  0.00     0.010 A 
ATOM     76  C   UNL A   1      44.036  27.926  25.949  1.00  0.00     0.020 A 
ATOM     77  C   UNL A   1      45.654  27.118  27.570  1.00  0.00     0.020 A 
ATOM     78  C   UNL A   1      44.837  26.901  26.459  1.00  0.00     0.054 A 
BRANCH  78  79
ATOM     79  S   UNL A   1      44.863  25.301  25.605  1.00  0.00     0.124 S 
ATOM     80  O   UNL A   1      45.129  24.374  26.701  1.00  0.00    -0.237 OA
ATOM     81  O   UNL A   1      43.522  25.230  25.027  1.00  0.00    -0.237 OA
ATOM     82  O   UNL A   1      45.942  25.450  24.631  1.00  0.00    -0.744 OA
ENDBRANCH  78  79
ENDBRANCH  50  73
BRANCH  62  83
ATOM     83  C   UNL A   1      49.262  34.790  26.714  1.00  0.00    -0.014 A 
ATOM     84  C   UNL A   1      49.168  35.337  25.422  1.00  0.00     0.010 A 
ATOM     85  C   UNL A   1      50.528  34.450  27.226  1.00  0.00     0.010 A 
ATOM     86  C   UNL A   1      50.316  35.515  24.646  1.00  0.00     0.020 A 
ATOM     87  C   UNL A   1      51.680  34.650  26.462  1.00  0.00     0.020 A 
ATOM     88  C   UNL A   1      51.566  35.169  25.171  1.00  0.00     0.054 A 
BRANCH  88  89
ATOM     89  S   UNL A   1      53.047  35.452  24.162  1.00  0.00     0.124 S 
ATOM     90  O   UNL A   1      52.903  34.438  23.121  1.00  0.00    -0.237 OA
ATOM     91  O   UNL A   1      52.878  36.834  23.722  1.00  0.00    -0.237 OA
ATOM     92  O   UNL A   1      54.149  35.233  25.099  1.00  0.00    -0.744 OA
ENDBRANCH  88  89
ENDBRANCH  62  83
ENDBRANCH  36  37
ENDBRANCH  28  31
ENDBRANCH  26  27
ENDBRANCH  25  26
ENDBRANCH  24  25
ENDBRANCH   1  24
TORSDOF 22
ENDMDL
