MODEL 1
REMARK VINA RESULT:     -10.9      0.000      0.000
REMARK SMILES COC(=O)c1cc(F)cc(-c2ccccc2C(=O)NCCCCCCNC(=O)c2ccc(-c3c4nc(c(-c5ccc(S(=O)(=O)[O-])cc5)c5ccc([nH]5)c(-c5ccc(S(=O)(=O)[O-])cc5)c5nc(c(-c6ccc(S(=O)(=O)[O-])cc6)c6ccc3[nH]6)C=C5)C=C4)cc2)c1
REMARK SMILES IDX 22 1 21 2 20 3 19 4 17 5 18 6 16 8 11 9 12 10 13 11 15 12
REMARK SMILES IDX 14 13 10 14 5 15 6 16 89 17 7 18 8 19 9 20 3 21 4 22 2 23
REMARK SMILES IDX 1 24 23 25 24 26 25 27 26 28 27 29 28 31 29 32 30 33 88 34
REMARK SMILES IDX 31 35 87 36 32 37 33 38 34 39 81 40 35 41 86 42 80 43 82 44
REMARK SMILES IDX 36 45 85 46 79 47 78 48 37 50 67 51 48 52 66 53 49 54 52 55
REMARK SMILES IDX 65 56 83 57 50 58 51 59 64 61 84 62 53 63 38 64 39 65 47 66
REMARK SMILES IDX 40 67 46 68 41 69 42 70 43 71 44 72 45 73 68 74 69 75 77 76
REMARK SMILES IDX 70 77 76 78 71 79 72 80 73 81 74 82 75 83 54 84 55 85 63 86
REMARK SMILES IDX 56 87 62 88 57 89 58 90 59 91 60 92 61 93
REMARK H PARENT 19 7 26 30 82 49 52 60
REMARK Flexibility Score: inf
ROOT
ATOM      1  C   UNL A   1      30.515  26.583  24.633  1.00  0.00     0.002 C 
ENDROOT
BRANCH   1   2
ATOM      2  C   UNL A   1      31.194  26.005  23.383  1.00  0.00     0.021 C 
BRANCH   2   3
ATOM      3  C   UNL A   1      31.160  24.492  23.183  1.00  0.00     0.116 C 
BRANCH   3   4
ATOM      4  N   UNL A   1      30.549  23.727  24.242  1.00  0.00    -0.352 N 
ATOM      5  C   UNL A   1      31.102  23.087  25.327  1.00  0.00     0.251 C 
ATOM      6  O   UNL A   1      30.314  22.580  26.131  1.00  0.00    -0.269 OA
ATOM      7  H   UNL A   1      29.570  23.650  24.176  1.00  0.00     0.163 HD
BRANCH   5   8
ATOM      8  C   UNL A   1      32.569  22.878  25.566  1.00  0.00     0.047 A 
ATOM      9  C   UNL A   1      33.403  21.862  25.041  1.00  0.00    -0.005 A 
ATOM     10  C   UNL A   1      34.791  21.918  25.335  1.00  0.00     0.009 A 
ATOM     11  C   UNL A   1      35.349  22.944  26.096  1.00  0.00     0.001 A 
ATOM     12  C   UNL A   1      33.163  23.914  26.326  1.00  0.00     0.014 A 
ATOM     13  C   UNL A   1      34.534  23.948  26.589  1.00  0.00     0.001 A 
BRANCH   9  14
ATOM     14  C   UNL A   1      32.964  20.760  24.176  1.00  0.00    -0.014 A 
ATOM     15  C   UNL A   1      32.797  18.386  23.670  1.00  0.00     0.063 A 
ATOM     16  C   UNL A   1      32.261  18.671  22.410  1.00  0.00     0.055 A 
ATOM     17  C   UNL A   1      33.112  19.421  24.563  1.00  0.00     0.024 A 
ATOM     18  C   UNL A   1      32.068  19.995  22.048  1.00  0.00     0.124 A 
ATOM     19  F   UNL A   1      31.614  20.288  20.822  1.00  0.00    -0.207 F 
ATOM     20  C   UNL A   1      32.407  21.031  22.911  1.00  0.00     0.048 A 
BRANCH  15  21
ATOM     21  C   UNL A   1      33.172  17.012  24.061  1.00  0.00     0.337 C 
ATOM     22  O   UNL A   1      33.671  16.199  23.301  1.00  0.00    -0.246 OA
BRANCH  21  23
ATOM     23  O   UNL A   1      32.703  16.784  25.310  1.00  0.00    -0.465 OA
ATOM     24  C   UNL A   1      32.476  15.409  25.623  1.00  0.00     0.282 C 
ENDBRANCH  21  23
ENDBRANCH  15  21
ENDBRANCH   9  14
ENDBRANCH   5   8
ENDBRANCH   3   4
ENDBRANCH   2   3
ENDBRANCH   1   2
BRANCH   1  25
ATOM     25  C   UNL A   1      31.373  26.904  25.864  1.00  0.00     0.002 C 
BRANCH  25  26
ATOM     26  C   UNL A   1      32.761  27.508  25.638  1.00  0.00     0.021 C 
BRANCH  26  27
ATOM     27  C   UNL A   1      33.500  28.048  26.857  1.00  0.00     0.116 C 
BRANCH  27  28
ATOM     28  N   UNL A   1      33.362  29.485  27.005  1.00  0.00    -0.352 N 
ATOM     29  C   UNL A   1      34.173  30.426  27.593  1.00  0.00     0.251 C 
ATOM     30  H   UNL A   1      32.537  29.853  26.612  1.00  0.00     0.163 HD
ATOM     31  O   UNL A   1      33.726  31.566  27.732  1.00  0.00    -0.269 OA
BRANCH  29  32
ATOM     32  C   UNL A   1      35.551  30.128  28.074  1.00  0.00     0.039 A 
ATOM     33  C   UNL A   1      36.609  30.250  27.162  1.00  0.00     0.014 A 
ATOM     34  C   UNL A   1      35.821  29.636  29.353  1.00  0.00     0.014 A 
ATOM     35  C   UNL A   1      37.919  29.917  27.535  1.00  0.00     0.010 A 
ATOM     36  C   UNL A   1      37.138  29.372  29.749  1.00  0.00     0.010 A 
ATOM     37  C   UNL A   1      38.202  29.489  28.840  1.00  0.00    -0.014 A 
BRANCH  37  38
ATOM     38  C   UNL A   1      39.585  29.119  29.256  1.00  0.00     0.031 A 
ATOM     39  C   UNL A   1      40.454  30.114  29.983  1.00  0.00     0.074 A 
ATOM     40  C   UNL A   1      40.090  27.907  28.941  1.00  0.00     0.049 A 
ATOM     41  N   UNL A   1      41.707  30.006  30.352  1.00  0.00    -0.248 NA
ATOM     42  C   UNL A   1      39.842  31.409  30.324  1.00  0.00     0.031 C 
ATOM     43  C   UNL A   1      39.377  26.854  28.217  1.00  0.00     0.029 A 
ATOM     44  N   UNL A   1      41.330  27.365  29.181  1.00  0.00    -0.354 N 
ATOM     45  C   UNL A   1      42.041  31.225  30.934  1.00  0.00     0.074 A 
ATOM     46  C   UNL A   1      40.867  32.067  30.844  1.00  0.00     0.031 C 
ATOM     47  C   UNL A   1      40.187  25.789  28.082  1.00  0.00     0.029 A 
ATOM     48  C   UNL A   1      41.485  26.095  28.677  1.00  0.00     0.049 A 
ATOM     49  H   UNL A   1      42.040  27.841  29.668  1.00  0.00     0.167 HD
ATOM     50  C   UNL A   1      43.210  31.608  31.502  1.00  0.00     0.031 A 
ATOM     51  C   UNL A   1      42.549  25.269  28.681  1.00  0.00     0.031 A 
ATOM     52  C   UNL A   1      44.369  30.766  31.628  1.00  0.00     0.049 A 
ATOM     53  C   UNL A   1      43.831  25.707  29.337  1.00  0.00     0.074 A 
ATOM     54  C   UNL A   1      45.575  31.051  32.247  1.00  0.00     0.029 A 
ATOM     55  N   UNL A   1      44.469  29.476  31.132  1.00  0.00    -0.354 N 
ATOM     56  N   UNL A   1      44.106  26.847  29.924  1.00  0.00    -0.248 NA
ATOM     57  C   UNL A   1      44.941  24.743  29.340  1.00  0.00     0.031 C 
ATOM     58  C   UNL A   1      46.418  29.943  32.094  1.00  0.00     0.029 A 
ATOM     59  C   UNL A   1      45.721  28.956  31.417  1.00  0.00     0.049 A 
ATOM     60  H   UNL A   1      43.757  29.000  30.648  1.00  0.00     0.167 HD
ATOM     61  C   UNL A   1      45.413  26.727  30.386  1.00  0.00     0.074 A 
ATOM     62  C   UNL A   1      45.869  25.402  30.021  1.00  0.00     0.031 C 
ATOM     63  C   UNL A   1      46.165  27.635  31.052  1.00  0.00     0.031 A 
BRANCH  50  64
ATOM     64  C   UNL A   1      43.297  33.016  32.031  1.00  0.00    -0.014 A 
ATOM     65  C   UNL A   1      43.731  34.074  31.215  1.00  0.00     0.010 A 
ATOM     66  C   UNL A   1      42.898  33.289  33.353  1.00  0.00     0.010 A 
ATOM     67  C   UNL A   1      43.808  35.375  31.723  1.00  0.00     0.020 A 
ATOM     68  C   UNL A   1      42.951  34.592  33.857  1.00  0.00     0.020 A 
ATOM     69  C   UNL A   1      43.424  35.624  33.043  1.00  0.00     0.054 A 
BRANCH  69  70
ATOM     70  S   UNL A   1      43.520  37.321  33.676  1.00  0.00     0.124 S 
ATOM     71  O   UNL A   1      42.268  37.435  34.420  1.00  0.00    -0.237 OA
ATOM     72  O   UNL A   1      44.733  37.294  34.490  1.00  0.00    -0.237 OA
ATOM     73  O   UNL A   1      43.604  38.137  32.467  1.00  0.00    -0.744 OA
ENDBRANCH  69  70
ENDBRANCH  50  64
BRANCH  51  74
ATOM     74  C   UNL A   1      42.448  23.928  28.043  1.00  0.00    -0.014 A 
ATOM     75  C   UNL A   1      42.684  23.775  26.667  1.00  0.00     0.010 A 
ATOM     76  C   UNL A   1      42.126  22.797  28.815  1.00  0.00     0.010 A 
ATOM     77  C   UNL A   1      42.589  22.515  26.068  1.00  0.00     0.020 A 
ATOM     78  C   UNL A   1      42.051  21.532  28.224  1.00  0.00     0.020 A 
ATOM     79  C   UNL A   1      42.273  21.401  26.852  1.00  0.00     0.054 A 
BRANCH  79  80
ATOM     80  S   UNL A   1      42.213  19.764  26.070  1.00  0.00     0.124 S 
ATOM     81  O   UNL A   1      42.611  18.890  27.168  1.00  0.00    -0.237 OA
ATOM     82  O   UNL A   1      40.817  19.662  25.653  1.00  0.00    -0.237 OA
ATOM     83  O   UNL A   1      43.174  19.876  24.975  1.00  0.00    -0.744 OA
ENDBRANCH  79  80
ENDBRANCH  51  74
BRANCH  63  84
ATOM     84  C   UNL A   1      47.553  27.222  31.462  1.00  0.00    -0.014 A 
ATOM     85  C   UNL A   1      47.764  26.398  32.582  1.00  0.00     0.010 A 
ATOM     86  C   UNL A   1      48.655  27.620  30.684  1.00  0.00     0.010 A 
ATOM     87  C   UNL A   1      49.056  25.999  32.931  1.00  0.00     0.020 A 
ATOM     88  C   UNL A   1      49.947  27.206  31.018  1.00  0.00     0.020 A 
ATOM     89  C   UNL A   1      50.141  26.408  32.148  1.00  0.00     0.054 A 
BRANCH  89  90
ATOM     90  S   UNL A   1      51.807  25.842  32.592  1.00  0.00     0.124 S 
ATOM     91  O   UNL A   1      52.538  27.101  32.699  1.00  0.00    -0.237 OA
ATOM     92  O   UNL A   1      51.583  25.136  33.852  1.00  0.00    -0.237 OA
ATOM     93  O   UNL A   1      52.192  24.989  31.470  1.00  0.00    -0.744 OA
ENDBRANCH  89  90
ENDBRANCH  63  84
ENDBRANCH  37  38
ENDBRANCH  29  32
ENDBRANCH  27  28
ENDBRANCH  26  27
ENDBRANCH  25  26
ENDBRANCH   1  25
TORSDOF 19
ENDMDL
MODEL 2
REMARK VINA RESULT:     -10.8      4.602     10.437
REMARK SMILES COC(=O)c1cc(F)cc(-c2ccccc2C(=O)NCCCCCCNC(=O)c2ccc(-c3c4nc(c(-c5ccc(S(=O)(=O)[O-])cc5)c5ccc([nH]5)c(-c5ccc(S(=O)(=O)[O-])cc5)c5nc(c(-c6ccc(S(=O)(=O)[O-])cc6)c6ccc3[nH]6)C=C5)C=C4)cc2)c1
REMARK SMILES IDX 22 1 21 2 20 3 19 4 17 5 18 6 16 8 11 9 12 10 13 11 15 12
REMARK SMILES IDX 14 13 10 14 5 15 6 16 89 17 7 18 8 19 9 20 3 21 4 22 2 23
REMARK SMILES IDX 1 24 23 25 24 26 25 27 26 28 27 29 28 31 29 32 30 33 88 34
REMARK SMILES IDX 31 35 87 36 32 37 33 38 34 39 81 40 35 41 86 42 80 43 82 44
REMARK SMILES IDX 36 45 85 46 79 47 78 48 37 50 67 51 48 52 66 53 49 54 52 55
REMARK SMILES IDX 65 56 83 57 50 58 51 59 64 61 84 62 53 63 38 64 39 65 47 66
REMARK SMILES IDX 40 67 46 68 41 69 42 70 43 71 44 72 45 73 68 74 69 75 77 76
REMARK SMILES IDX 70 77 76 78 71 79 72 80 73 81 74 82 75 83 54 84 55 85 63 86
REMARK SMILES IDX 56 87 62 88 57 89 58 90 59 91 60 92 61 93
REMARK H PARENT 19 7 26 30 82 49 52 60
REMARK Flexibility Score: inf
ROOT
ATOM      1  C   UNL A   1      36.415  23.500  25.999  1.00  0.00     0.002 C 
ENDROOT
BRANCH   1   2
ATOM      2  C   UNL A   1      35.611  24.098  24.836  1.00  0.00     0.021 C 
BRANCH   2   3
ATOM      3  C   UNL A   1      35.063  23.143  23.777  1.00  0.00     0.116 C 
BRANCH   3   4
ATOM      4  N   UNL A   1      34.091  23.698  22.867  1.00  0.00    -0.352 N 
ATOM      5  C   UNL A   1      32.800  24.123  23.074  1.00  0.00     0.251 C 
ATOM      6  O   UNL A   1      32.229  24.646  22.113  1.00  0.00    -0.269 OA
ATOM      7  H   UNL A   1      34.408  23.787  21.938  1.00  0.00     0.163 HD
BRANCH   5   8
ATOM      8  C   UNL A   1      32.006  23.926  24.333  1.00  0.00     0.047 A 
ATOM      9  C   UNL A   1      31.288  24.895  25.073  1.00  0.00    -0.005 A 
ATOM     10  C   UNL A   1      30.529  24.457  26.189  1.00  0.00     0.009 A 
ATOM     11  C   UNL A   1      30.455  23.115  26.558  1.00  0.00     0.001 A 
ATOM     12  C   UNL A   1      31.904  22.568  24.720  1.00  0.00     0.014 A 
ATOM     13  C   UNL A   1      31.140  22.166  25.818  1.00  0.00     0.001 A 
BRANCH   9  14
ATOM     14  C   UNL A   1      31.225  26.329  24.765  1.00  0.00    -0.014 A 
ATOM     15  C   UNL A   1      30.136  28.239  23.724  1.00  0.00     0.063 A 
ATOM     16  C   UNL A   1      31.223  29.060  24.042  1.00  0.00     0.055 A 
ATOM     17  C   UNL A   1      30.119  26.892  24.114  1.00  0.00     0.024 A 
ATOM     18  C   UNL A   1      32.295  28.514  24.730  1.00  0.00     0.124 A 
ATOM     19  F   UNL A   1      33.370  29.269  24.989  1.00  0.00    -0.207 F 
ATOM     20  C   UNL A   1      32.305  27.172  25.094  1.00  0.00     0.048 A 
BRANCH  15  21
ATOM     21  C   UNL A   1      29.033  28.712  22.862  1.00  0.00     0.337 C 
ATOM     22  O   UNL A   1      27.859  28.438  23.046  1.00  0.00    -0.246 OA
BRANCH  21  23
ATOM     23  O   UNL A   1      29.572  29.320  21.779  1.00  0.00    -0.465 OA
ATOM     24  C   UNL A   1      29.010  30.595  21.466  1.00  0.00     0.282 C 
ENDBRANCH  21  23
ENDBRANCH  15  21
ENDBRANCH   9  14
ENDBRANCH   5   8
ENDBRANCH   3   4
ENDBRANCH   2   3
ENDBRANCH   1   2
BRANCH   1  25
ATOM     25  C   UNL A   1      37.865  23.955  26.211  1.00  0.00     0.002 C 
BRANCH  25  26
ATOM     26  C   UNL A   1      38.936  22.881  26.413  1.00  0.00     0.021 C 
BRANCH  26  27
ATOM     27  C   UNL A   1      40.274  23.321  26.996  1.00  0.00     0.116 C 
BRANCH  27  28
ATOM     28  N   UNL A   1      41.074  24.079  26.051  1.00  0.00    -0.352 N 
ATOM     29  C   UNL A   1      41.429  25.407  26.013  1.00  0.00     0.251 C 
ATOM     30  H   UNL A   1      41.427  23.546  25.303  1.00  0.00     0.163 HD
ATOM     31  O   UNL A   1      41.977  25.827  24.991  1.00  0.00    -0.269 OA
BRANCH  29  32
ATOM     32  C   UNL A   1      41.173  26.352  27.135  1.00  0.00     0.039 A 
ATOM     33  C   UNL A   1      41.960  27.509  27.215  1.00  0.00     0.014 A 
ATOM     34  C   UNL A   1      40.263  26.087  28.160  1.00  0.00     0.014 A 
ATOM     35  C   UNL A   1      41.814  28.403  28.286  1.00  0.00     0.010 A 
ATOM     36  C   UNL A   1      40.066  27.014  29.192  1.00  0.00     0.010 A 
ATOM     37  C   UNL A   1      40.852  28.174  29.280  1.00  0.00    -0.014 A 
BRANCH  37  38
ATOM     38  C   UNL A   1      40.687  29.104  30.433  1.00  0.00     0.031 A 
ATOM     39  C   UNL A   1      41.553  28.958  31.660  1.00  0.00     0.074 A 
ATOM     40  C   UNL A   1      39.728  30.054  30.411  1.00  0.00     0.049 A 
ATOM     41  N   UNL A   1      41.504  29.615  32.792  1.00  0.00    -0.248 NA
ATOM     42  C   UNL A   1      42.599  27.923  31.616  1.00  0.00     0.031 C 
ATOM     43  C   UNL A   1      38.799  30.295  29.306  1.00  0.00     0.029 A 
ATOM     44  N   UNL A   1      39.370  30.985  31.356  1.00  0.00    -0.354 N 
ATOM     45  C   UNL A   1      42.484  29.053  33.604  1.00  0.00     0.074 A 
ATOM     46  C   UNL A   1      43.093  27.982  32.844  1.00  0.00     0.031 C 
ATOM     47  C   UNL A   1      37.986  31.315  29.632  1.00  0.00     0.029 A 
ATOM     48  C   UNL A   1      38.311  31.777  30.979  1.00  0.00     0.049 A 
ATOM     49  H   UNL A   1      39.829  31.078  32.222  1.00  0.00     0.167 HD
ATOM     50  C   UNL A   1      42.854  29.400  34.860  1.00  0.00     0.031 A 
ATOM     51  C   UNL A   1      37.664  32.757  31.639  1.00  0.00     0.031 A 
ATOM     52  C   UNL A   1      42.279  30.486  35.609  1.00  0.00     0.049 A 
ATOM     53  C   UNL A   1      38.106  33.140  33.025  1.00  0.00     0.074 A 
ATOM     54  C   UNL A   1      42.637  30.949  36.864  1.00  0.00     0.029 A 
ATOM     55  N   UNL A   1      41.230  31.280  35.173  1.00  0.00    -0.354 N 
ATOM     56  N   UNL A   1      39.068  32.626  33.753  1.00  0.00    -0.248 NA
ATOM     57  C   UNL A   1      37.382  34.243  33.674  1.00  0.00     0.031 C 
ATOM     58  C   UNL A   1      41.780  32.003  37.203  1.00  0.00     0.029 A 
ATOM     59  C   UNL A   1      40.918  32.221  36.141  1.00  0.00     0.049 A 
ATOM     60  H   UNL A   1      40.775  31.189  34.306  1.00  0.00     0.167 HD
ATOM     61  C   UNL A   1      39.079  33.358  34.936  1.00  0.00     0.074 A 
ATOM     62  C   UNL A   1      38.036  34.357  34.822  1.00  0.00     0.031 C 
ATOM     63  C   UNL A   1      39.881  33.214  36.018  1.00  0.00     0.031 A 
BRANCH  50  64
ATOM     64  C   UNL A   1      43.939  28.585  35.515  1.00  0.00    -0.014 A 
ATOM     65  C   UNL A   1      43.632  27.449  36.283  1.00  0.00     0.010 A 
ATOM     66  C   UNL A   1      45.287  28.939  35.323  1.00  0.00     0.010 A 
ATOM     67  C   UNL A   1      44.651  26.706  36.886  1.00  0.00     0.020 A 
ATOM     68  C   UNL A   1      46.311  28.184  35.905  1.00  0.00     0.020 A 
ATOM     69  C   UNL A   1      45.984  27.083  36.698  1.00  0.00     0.054 A 
BRANCH  69  70
ATOM     70  S   UNL A   1      47.290  26.095  37.479  1.00  0.00     0.124 S 
ATOM     71  O   UNL A   1      47.412  24.974  36.552  1.00  0.00    -0.237 OA
ATOM     72  O   UNL A   1      48.423  27.017  37.502  1.00  0.00    -0.237 OA
ATOM     73  O   UNL A   1      46.735  25.763  38.791  1.00  0.00    -0.744 OA
ENDBRANCH  69  70
ENDBRANCH  50  64
BRANCH  51  74
ATOM     74  C   UNL A   1      36.521  33.456  30.991  1.00  0.00    -0.014 A 
ATOM     75  C   UNL A   1      35.318  33.654  31.689  1.00  0.00     0.010 A 
ATOM     76  C   UNL A   1      36.638  33.938  29.675  1.00  0.00     0.010 A 
ATOM     77  C   UNL A   1      34.245  34.311  31.079  1.00  0.00     0.020 A 
ATOM     78  C   UNL A   1      35.576  34.615  29.069  1.00  0.00     0.020 A 
ATOM     79  C   UNL A   1      34.382  34.788  29.772  1.00  0.00     0.054 A 
BRANCH  79  80
ATOM     80  S   UNL A   1      33.001  35.692  29.018  1.00  0.00     0.124 S 
ATOM     81  O   UNL A   1      33.693  36.759  28.302  1.00  0.00    -0.237 OA
ATOM     82  O   UNL A   1      32.372  34.673  28.182  1.00  0.00    -0.237 OA
ATOM     83  O   UNL A   1      32.206  36.119  30.167  1.00  0.00    -0.744 OA
ENDBRANCH  79  80
ENDBRANCH  51  74
BRANCH  63  84
ATOM     84  C   UNL A   1      39.691  34.176  37.158  1.00  0.00    -0.014 A 
ATOM     85  C   UNL A   1      38.925  33.826  38.284  1.00  0.00     0.010 A 
ATOM     86  C   UNL A   1      40.333  35.427  37.126  1.00  0.00     0.010 A 
ATOM     87  C   UNL A   1      38.784  34.721  39.348  1.00  0.00     0.020 A 
ATOM     88  C   UNL A   1      40.211  36.317  38.197  1.00  0.00     0.020 A 
ATOM     89  C   UNL A   1      39.426  35.963  39.297  1.00  0.00     0.054 A 
BRANCH  89  90
ATOM     90  S   UNL A   1      39.266  37.091  40.708  1.00  0.00     0.124 S 
ATOM     91  O   UNL A   1      38.688  36.222  41.729  1.00  0.00    -0.237 OA
ATOM     92  O   UNL A   1      40.645  37.509  40.946  1.00  0.00    -0.237 OA
ATOM     93  O   UNL A   1      38.382  38.143  40.210  1.00  0.00    -0.744 OA
ENDBRANCH  89  90
ENDBRANCH  63  84
ENDBRANCH  37  38
ENDBRANCH  29  32
ENDBRANCH  27  28
ENDBRANCH  26  27
ENDBRANCH  25  26
ENDBRANCH   1  25
TORSDOF 19
ENDMDL
MODEL 3
REMARK VINA RESULT:     -10.5      3.378      4.535
REMARK SMILES COC(=O)c1cc(F)cc(-c2ccccc2C(=O)NCCCCCCNC(=O)c2ccc(-c3c4nc(c(-c5ccc(S(=O)(=O)[O-])cc5)c5ccc([nH]5)c(-c5ccc(S(=O)(=O)[O-])cc5)c5nc(c(-c6ccc(S(=O)(=O)[O-])cc6)c6ccc3[nH]6)C=C5)C=C4)cc2)c1
REMARK SMILES IDX 22 1 21 2 20 3 19 4 17 5 18 6 16 8 11 9 12 10 13 11 15 12
REMARK SMILES IDX 14 13 10 14 5 15 6 16 89 17 7 18 8 19 9 20 3 21 4 22 2 23
REMARK SMILES IDX 1 24 23 25 24 26 25 27 26 28 27 29 28 31 29 32 30 33 88 34
REMARK SMILES IDX 31 35 87 36 32 37 33 38 34 39 81 40 35 41 86 42 80 43 82 44
REMARK SMILES IDX 36 45 85 46 79 47 78 48 37 50 67 51 48 52 66 53 49 54 52 55
REMARK SMILES IDX 65 56 83 57 50 58 51 59 64 61 84 62 53 63 38 64 39 65 47 66
REMARK SMILES IDX 40 67 46 68 41 69 42 70 43 71 44 72 45 73 68 74 69 75 77 76
REMARK SMILES IDX 70 77 76 78 71 79 72 80 73 81 74 82 75 83 54 84 55 85 63 86
REMARK SMILES IDX 56 87 62 88 57 89 58 90 59 91 60 92 61 93
REMARK H PARENT 19 7 26 30 82 49 52 60
REMARK Flexibility Score: inf
ROOT
ATOM      1  C   UNL A   1      33.278  28.120  25.152  1.00  0.00     0.002 C 
ENDROOT
BRANCH   1   2
ATOM      2  C   UNL A   1      34.107  27.912  23.876  1.00  0.00     0.021 C 
BRANCH   2   3
ATOM      3  C   UNL A   1      33.361  27.751  22.555  1.00  0.00     0.116 C 
BRANCH   3   4
ATOM      4  N   UNL A   1      33.343  26.421  21.995  1.00  0.00    -0.352 N 
ATOM      5  C   UNL A   1      32.585  25.319  22.313  1.00  0.00     0.251 C 
ATOM      6  O   UNL A   1      32.723  24.326  21.592  1.00  0.00    -0.269 OA
ATOM      7  H   UNL A   1      33.984  26.280  21.260  1.00  0.00     0.163 HD
BRANCH   5   8
ATOM      8  C   UNL A   1      31.680  25.193  23.504  1.00  0.00     0.047 A 
ATOM      9  C   UNL A   1      31.769  24.273  24.575  1.00  0.00    -0.005 A 
ATOM     10  C   UNL A   1      30.847  24.402  25.646  1.00  0.00     0.009 A 
ATOM     11  C   UNL A   1      29.884  25.410  25.681  1.00  0.00     0.001 A 
ATOM     12  C   UNL A   1      30.702  26.215  23.570  1.00  0.00     0.014 A 
ATOM     13  C   UNL A   1      29.815  26.323  24.643  1.00  0.00     0.001 A 
BRANCH   9  14
ATOM     14  C   UNL A   1      32.767  23.203  24.699  1.00  0.00    -0.014 A 
ATOM     15  C   UNL A   1      35.047  22.451  25.089  1.00  0.00     0.063 A 
ATOM     16  C   UNL A   1      34.694  21.139  24.761  1.00  0.00     0.055 A 
ATOM     17  C   UNL A   1      34.084  23.471  25.095  1.00  0.00     0.024 A 
ATOM     18  C   UNL A   1      33.379  20.866  24.418  1.00  0.00     0.124 A 
ATOM     19  F   UNL A   1      33.036  19.627  24.041  1.00  0.00    -0.207 F 
ATOM     20  C   UNL A   1      32.421  21.873  24.389  1.00  0.00     0.048 A 
BRANCH  15  21
ATOM     21  C   UNL A   1      36.453  22.843  25.314  1.00  0.00     0.337 C 
ATOM     22  O   UNL A   1      36.948  23.878  24.899  1.00  0.00    -0.246 OA
BRANCH  21  23
ATOM     23  O   UNL A   1      37.101  21.795  25.877  1.00  0.00    -0.465 OA
ATOM     24  C   UNL A   1      38.521  21.815  25.723  1.00  0.00     0.282 C 
ENDBRANCH  21  23
ENDBRANCH  15  21
ENDBRANCH   9  14
ENDBRANCH   5   8
ENDBRANCH   3   4
ENDBRANCH   2   3
ENDBRANCH   1   2
BRANCH   1  25
ATOM     25  C   UNL A   1      33.553  29.351  26.025  1.00  0.00     0.002 C 
BRANCH  25  26
ATOM     26  C   UNL A   1      34.472  29.185  27.237  1.00  0.00     0.021 C 
BRANCH  26  27
ATOM     27  C   UNL A   1      35.230  30.416  27.720  1.00  0.00     0.116 C 
BRANCH  27  28
ATOM     28  N   UNL A   1      35.284  30.509  29.167  1.00  0.00    -0.352 N 
ATOM     29  C   UNL A   1      36.248  30.135  30.073  1.00  0.00     0.251 C 
ATOM     30  H   UNL A   1      34.484  30.915  29.575  1.00  0.00     0.163 HD
ATOM     31  O   UNL A   1      35.959  30.169  31.270  1.00  0.00    -0.269 OA
BRANCH  29  32
ATOM     32  C   UNL A   1      37.610  29.685  29.672  1.00  0.00     0.039 A 
ATOM     33  C   UNL A   1      38.480  29.239  30.678  1.00  0.00     0.014 A 
ATOM     34  C   UNL A   1      38.091  29.783  28.365  1.00  0.00     0.014 A 
ATOM     35  C   UNL A   1      39.797  28.867  30.374  1.00  0.00     0.010 A 
ATOM     36  C   UNL A   1      39.383  29.344  28.048  1.00  0.00     0.010 A 
ATOM     37  C   UNL A   1      40.260  28.899  29.050  1.00  0.00    -0.014 A 
BRANCH  37  38
ATOM     38  C   UNL A   1      41.659  28.519  28.705  1.00  0.00     0.031 A 
ATOM     39  C   UNL A   1      42.751  29.560  28.697  1.00  0.00     0.074 A 
ATOM     40  C   UNL A   1      41.953  27.251  28.349  1.00  0.00     0.049 A 
ATOM     41  N   UNL A   1      44.008  29.440  28.345  1.00  0.00    -0.248 NA
ATOM     42  C   UNL A   1      42.378  30.920  29.120  1.00  0.00     0.031 C 
ATOM     43  C   UNL A   1      40.997  26.145  28.285  1.00  0.00     0.029 A 
ATOM     44  N   UNL A   1      43.143  26.684  27.961  1.00  0.00    -0.354 N 
ATOM     45  C   UNL A   1      44.563  30.710  28.471  1.00  0.00     0.074 A 
ATOM     46  C   UNL A   1      43.500  31.590  28.905  1.00  0.00     0.031 C 
ATOM     47  C   UNL A   1      41.639  25.031  27.893  1.00  0.00     0.029 A 
ATOM     48  C   UNL A   1      43.043  25.349  27.645  1.00  0.00     0.049 A 
ATOM     49  H   UNL A   1      43.989  27.186  27.914  1.00  0.00     0.167 HD
ATOM     50  C   UNL A   1      45.841  31.107  28.258  1.00  0.00     0.031 A 
ATOM     51  C   UNL A   1      43.968  24.478  27.196  1.00  0.00     0.031 A 
ATOM     52  C   UNL A   1      46.912  30.232  27.862  1.00  0.00     0.049 A 
ATOM     53  C   UNL A   1      45.385  24.936  26.987  1.00  0.00     0.074 A 
ATOM     54  C   UNL A   1      48.252  30.537  27.686  1.00  0.00     0.029 A 
ATOM     55  N   UNL A   1      46.770  28.881  27.584  1.00  0.00    -0.354 N 
ATOM     56  N   UNL A   1      45.897  26.131  27.161  1.00  0.00    -0.248 NA
ATOM     57  C   UNL A   1      46.352  23.926  26.534  1.00  0.00     0.031 C 
ATOM     58  C   UNL A   1      48.913  29.377  27.267  1.00  0.00     0.029 A 
ATOM     59  C   UNL A   1      47.994  28.342  27.224  1.00  0.00     0.049 A 
ATOM     60  H   UNL A   1      45.925  28.380  27.635  1.00  0.00     0.167 HD
ATOM     61  C   UNL A   1      47.249  26.010  26.859  1.00  0.00     0.074 A 
ATOM     62  C   UNL A   1      47.479  24.624  26.504  1.00  0.00     0.031 C 
ATOM     63  C   UNL A   1      48.213  26.962  26.875  1.00  0.00     0.031 A 
BRANCH  50  64
ATOM     64  C   UNL A   1      46.154  32.568  28.445  1.00  0.00    -0.014 A 
ATOM     65  C   UNL A   1      46.569  33.070  29.691  1.00  0.00     0.010 A 
ATOM     66  C   UNL A   1      46.071  33.444  27.347  1.00  0.00     0.010 A 
ATOM     67  C   UNL A   1      46.853  34.430  29.847  1.00  0.00     0.020 A 
ATOM     68  C   UNL A   1      46.377  34.801  27.493  1.00  0.00     0.020 A 
ATOM     69  C   UNL A   1      46.748  35.288  28.748  1.00  0.00     0.054 A 
BRANCH  69  70
ATOM     70  S   UNL A   1      47.135  37.046  28.972  1.00  0.00     0.124 S 
ATOM     71  O   UNL A   1      48.231  37.234  28.026  1.00  0.00    -0.237 OA
ATOM     72  O   UNL A   1      45.879  37.701  28.615  1.00  0.00    -0.237 OA
ATOM     73  O   UNL A   1      47.504  37.143  30.383  1.00  0.00    -0.744 OA
ENDBRANCH  69  70
ENDBRANCH  50  64
BRANCH  51  74
ATOM     74  C   UNL A   1      43.581  23.068  26.916  1.00  0.00    -0.014 A 
ATOM     75  C   UNL A   1      43.778  22.515  25.639  1.00  0.00     0.010 A 
ATOM     76  C   UNL A   1      43.025  22.270  27.931  1.00  0.00     0.010 A 
ATOM     77  C   UNL A   1      43.415  21.191  25.378  1.00  0.00     0.020 A 
ATOM     78  C   UNL A   1      42.680  20.938  27.680  1.00  0.00     0.020 A 
ATOM     79  C   UNL A   1      42.868  20.411  26.400  1.00  0.00     0.054 A 
BRANCH  79  80
ATOM     80  S   UNL A   1      42.459  18.676  26.060  1.00  0.00     0.124 S 
ATOM     81  O   UNL A   1      41.052  18.766  25.681  1.00  0.00    -0.237 OA
ATOM     82  O   UNL A   1      43.384  18.336  24.982  1.00  0.00    -0.237 OA
ATOM     83  O   UNL A   1      42.726  18.008  27.332  1.00  0.00    -0.744 OA
ENDBRANCH  79  80
ENDBRANCH  51  74
BRANCH  63  84
ATOM     84  C   UNL A   1      49.615  26.539  26.529  1.00  0.00    -0.014 A 
ATOM     85  C   UNL A   1      50.086  26.600  25.206  1.00  0.00     0.010 A 
ATOM     86  C   UNL A   1      50.488  26.126  27.552  1.00  0.00     0.010 A 
ATOM     87  C   UNL A   1      51.401  26.231  24.908  1.00  0.00     0.020 A 
ATOM     88  C   UNL A   1      51.810  25.778  27.260  1.00  0.00     0.020 A 
ATOM     89  C   UNL A   1      52.254  25.820  25.937  1.00  0.00     0.054 A 
BRANCH  89  90
ATOM     90  S   UNL A   1      53.970  25.389  25.534  1.00  0.00     0.124 S 
ATOM     91  O   UNL A   1      54.442  26.603  24.876  1.00  0.00    -0.237 OA
ATOM     92  O   UNL A   1      54.553  25.118  26.846  1.00  0.00    -0.237 OA
ATOM     93  O   UNL A   1      53.838  24.219  24.667  1.00  0.00    -0.744 OA
ENDBRANCH  89  90
ENDBRANCH  63  84
ENDBRANCH  37  38
ENDBRANCH  29  32
ENDBRANCH  27  28
ENDBRANCH  26  27
ENDBRANCH  25  26
ENDBRANCH   1  25
TORSDOF 19
ENDMDL
