MODEL 1
REMARK VINA RESULT:     -11.4      0.000      0.000
REMARK SMILES O=C(NCCCCCCNC(=O)[C@H]1C[C@](O)(c2ccccc2Cl)[C@@H](c2ccccc2Cl)O1)c1ccc(-c2c3nc(c(-c4ccc(S(=O)(=O)[O-])cc4)c4ccc([nH]4)c(-c4ccc(S(=O)(=O)[O-])cc4)c4nc(c(-c5ccc(S(=O)(=O)[O-])cc5)c5ccc2[nH]5)C=C4)C=C3)cc1
REMARK SMILES IDX 5 1 4 2 3 3 1 4 2 5 33 7 34 8 92 9 35 10 91 11 36 12 37 13
REMARK SMILES IDX 38 14 85 15 39 16 90 17 84 18 86 19 40 20 89 21 83 22 82 23
REMARK SMILES IDX 41 25 71 26 52 27 70 28 53 29 56 30 69 31 87 32 54 33 55 34
REMARK SMILES IDX 68 36 88 37 57 38 42 39 43 40 51 41 44 42 50 43 45 44 46 45
REMARK SMILES IDX 47 46 48 47 49 48 72 49 73 50 81 51 74 52 80 53 75 54 76 55
REMARK SMILES IDX 77 56 78 57 79 58 58 59 59 60 67 61 60 62 66 63 61 64 62 65
REMARK SMILES IDX 63 66 64 67 65 68 6 69 7 70 8 71 9 72 10 73 11 74 12 76
REMARK SMILES IDX 13 77 14 78 32 79 15 80 24 81 17 82 18 83 22 84 19 85 21 86
REMARK SMILES IDX 23 87 20 88 16 89 25 91 26 92 30 93 27 94 29 95 31 96 28 97
REMARK H PARENT 3 6 86 24 56 35 10 75 16 90
REMARK Flexibility Score: inf
ROOT
ATOM      1  C   UNL A   1      42.423  22.082  27.351  1.00  0.00     0.021 C 
ENDROOT
BRANCH   1   2
ATOM      2  C   UNL A   1      42.986  23.496  27.406  1.00  0.00     0.116 C 
BRANCH   2   3
ATOM      3  N   UNL A   1      42.767  24.224  26.166  1.00  0.00    -0.352 N 
ATOM      4  O   UNL A   1      41.941  25.876  24.870  1.00  0.00    -0.269 OA
ATOM      5  C   UNL A   1      42.240  25.482  25.990  1.00  0.00     0.251 C 
ATOM      6  H   UNL A   1      43.032  23.753  25.344  1.00  0.00     0.163 HD
BRANCH   5   7
ATOM      7  C   UNL A   1      42.017  26.345  27.171  1.00  0.00     0.039 A 
ATOM      8  C   UNL A   1      42.857  27.435  27.419  1.00  0.00     0.014 A 
ATOM      9  C   UNL A   1      40.961  26.058  28.039  1.00  0.00     0.014 A 
ATOM     10  C   UNL A   1      42.723  28.155  28.601  1.00  0.00     0.010 A 
ATOM     11  C   UNL A   1      40.773  26.840  29.181  1.00  0.00     0.010 A 
ATOM     12  C   UNL A   1      41.666  27.881  29.483  1.00  0.00    -0.014 A 
BRANCH  12  13
ATOM     13  C   UNL A   1      41.461  28.750  30.669  1.00  0.00     0.031 A 
ATOM     14  C   UNL A   1      42.303  28.600  31.904  1.00  0.00     0.074 A 
ATOM     15  C   UNL A   1      40.485  29.678  30.622  1.00  0.00     0.049 A 
ATOM     16  N   UNL A   1      42.235  29.265  33.030  1.00  0.00    -0.248 NA
ATOM     17  C   UNL A   1      43.350  27.568  31.879  1.00  0.00     0.031 C 
ATOM     18  C   UNL A   1      39.593  29.905  29.481  1.00  0.00     0.029 A 
ATOM     19  N   UNL A   1      40.077  30.601  31.550  1.00  0.00    -0.354 N 
ATOM     20  C   UNL A   1      43.210  28.719  33.856  1.00  0.00     0.074 A 
ATOM     21  C   UNL A   1      43.842  27.651  33.108  1.00  0.00     0.031 C 
ATOM     22  C   UNL A   1      38.762  30.915  29.766  1.00  0.00     0.029 A 
ATOM     23  C   UNL A   1      39.012  31.363  31.132  1.00  0.00     0.049 A 
ATOM     24  H   UNL A   1      40.505  30.708  32.431  1.00  0.00     0.167 HD
ATOM     25  C   UNL A   1      43.545  29.076  35.120  1.00  0.00     0.031 A 
ATOM     26  C   UNL A   1      38.287  32.293  31.779  1.00  0.00     0.031 A 
ATOM     27  C   UNL A   1      42.896  30.129  35.858  1.00  0.00     0.049 A 
ATOM     28  C   UNL A   1      38.653  32.648  33.189  1.00  0.00     0.074 A 
ATOM     29  C   UNL A   1      43.189  30.596  37.129  1.00  0.00     0.029 A 
ATOM     30  N   UNL A   1      41.813  30.868  35.404  1.00  0.00    -0.354 N 
ATOM     31  N   UNL A   1      39.617  32.160  33.934  1.00  0.00    -0.248 NA
ATOM     32  C   UNL A   1      37.843  33.680  33.846  1.00  0.00     0.031 C 
ATOM     33  C   UNL A   1      42.242  31.569  37.467  1.00  0.00     0.029 A 
ATOM     34  C   UNL A   1      41.404  31.762  36.381  1.00  0.00     0.049 A 
ATOM     35  H   UNL A   1      41.397  30.772  34.517  1.00  0.00     0.167 HD
ATOM     36  C   UNL A   1      39.539  32.837  35.144  1.00  0.00     0.074 A 
ATOM     37  C   UNL A   1      38.445  33.781  35.023  1.00  0.00     0.031 C 
ATOM     38  C   UNL A   1      40.306  32.690  36.252  1.00  0.00     0.031 A 
BRANCH  25  39
ATOM     39  C   UNL A   1      44.635  28.286  35.802  1.00  0.00    -0.014 A 
ATOM     40  C   UNL A   1      44.345  27.142  36.568  1.00  0.00     0.010 A 
ATOM     41  C   UNL A   1      45.978  28.682  35.653  1.00  0.00     0.010 A 
ATOM     42  C   UNL A   1      45.369  26.446  37.219  1.00  0.00     0.020 A 
ATOM     43  C   UNL A   1      47.008  27.971  36.276  1.00  0.00     0.020 A 
ATOM     44  C   UNL A   1      46.693  26.872  37.076  1.00  0.00     0.054 A 
BRANCH  44  45
ATOM     45  S   UNL A   1      47.999  25.960  37.946  1.00  0.00     0.124 S 
ATOM     46  O   UNL A   1      48.982  27.011  38.197  1.00  0.00    -0.237 OA
ATOM     47  O   UNL A   1      47.305  25.456  39.128  1.00  0.00    -0.237 OA
ATOM     48  O   UNL A   1      48.409  24.939  36.985  1.00  0.00    -0.744 OA
ENDBRANCH  44  45
ENDBRANCH  25  39
BRANCH  26  49
ATOM     49  C   UNL A   1      37.128  32.919  31.089  1.00  0.00    -0.014 A 
ATOM     50  C   UNL A   1      37.317  33.916  30.119  1.00  0.00     0.010 A 
ATOM     51  C   UNL A   1      35.823  32.459  31.353  1.00  0.00     0.010 A 
ATOM     52  C   UNL A   1      36.223  34.443  29.426  1.00  0.00     0.020 A 
ATOM     53  C   UNL A   1      34.732  32.960  30.641  1.00  0.00     0.020 A 
ATOM     54  C   UNL A   1      34.939  33.955  29.686  1.00  0.00     0.054 A 
BRANCH  54  55
ATOM     55  S   UNL A   1      33.547  34.595  28.714  1.00  0.00     0.124 S 
ATOM     56  O   UNL A   1      33.205  33.446  27.881  1.00  0.00    -0.237 OA
ATOM     57  O   UNL A   1      32.574  34.940  29.749  1.00  0.00    -0.237 OA
ATOM     58  O   UNL A   1      34.121  35.736  28.005  1.00  0.00    -0.744 OA
ENDBRANCH  54  55
ENDBRANCH  26  49
BRANCH  38  59
ATOM     59  C   UNL A   1      40.010  33.590  37.423  1.00  0.00    -0.014 A 
ATOM     60  C   UNL A   1      40.625  34.848  37.551  1.00  0.00     0.010 A 
ATOM     61  C   UNL A   1      39.050  33.195  38.373  1.00  0.00     0.010 A 
ATOM     62  C   UNL A   1      40.300  35.687  38.621  1.00  0.00     0.020 A 
ATOM     63  C   UNL A   1      38.702  34.043  39.427  1.00  0.00     0.020 A 
ATOM     64  C   UNL A   1      39.336  35.281  39.550  1.00  0.00     0.054 A 
BRANCH  64  65
ATOM     65  S   UNL A   1      38.886  36.413  40.893  1.00  0.00     0.124 S 
ATOM     66  O   UNL A   1      38.405  37.580  40.159  1.00  0.00    -0.237 OA
ATOM     67  O   UNL A   1      37.863  35.660  41.616  1.00  0.00    -0.237 OA
ATOM     68  O   UNL A   1      40.139  36.606  41.619  1.00  0.00    -0.744 OA
ENDBRANCH  64  65
ENDBRANCH  38  59
ENDBRANCH  12  13
ENDBRANCH   5   7
ENDBRANCH   2   3
ENDBRANCH   1   2
BRANCH   1  69
ATOM     69  C   UNL A   1      40.967  21.967  27.795  1.00  0.00     0.002 C 
BRANCH  69  70
ATOM     70  C   UNL A   1      39.953  22.615  26.847  1.00  0.00     0.002 C 
BRANCH  70  71
ATOM     71  C   UNL A   1      39.239  21.654  25.878  1.00  0.00     0.021 C 
BRANCH  71  72
ATOM     72  C   UNL A   1      37.737  21.917  25.704  1.00  0.00     0.116 C 
BRANCH  72  73
ATOM     73  N   UNL A   1      37.508  22.688  24.502  1.00  0.00    -0.354 N 
ATOM     74  C   UNL A   1      36.311  23.264  24.171  1.00  0.00     0.249 C 
ATOM     75  H   UNL A   1      38.262  22.807  23.880  1.00  0.00     0.163 HD
ATOM     76  O   UNL A   1      35.888  23.049  23.036  1.00  0.00    -0.272 OA
BRANCH  74  77
ATOM     77  C   UNL A   1      35.605  24.174  25.205  1.00  0.00     0.211 C 
ATOM     78  C   UNL A   1      34.774  25.253  24.509  1.00  0.00     0.085 C 
ATOM     79  O   UNL A   1      34.721  23.428  26.054  1.00  0.00    -0.357 OA
ATOM     80  C   UNL A   1      33.334  25.051  24.982  1.00  0.00     0.124 C 
ATOM     81  C   UNL A   1      33.359  23.642  25.636  1.00  0.00     0.187 C 
BRANCH  80  82
ATOM     82  C   UNL A   1      32.863  26.257  25.830  1.00  0.00     0.005 A 
ATOM     83  C   UNL A   1      33.868  27.188  26.211  1.00  0.00     0.008 A 
ATOM     84  C   UNL A   1      31.556  26.552  26.266  1.00  0.00     0.047 A 
ATOM     85  C   UNL A   1      33.578  28.383  26.877  1.00  0.00     0.001 A 
ATOM     86  C   UNL A   1      31.264  27.775  26.902  1.00  0.00     0.021 A 
ATOM     87  Cl  UNL A   1      30.209  25.473  26.174  1.00  0.00    -0.084 Cl
ATOM     88  C   UNL A   1      32.266  28.693  27.193  1.00  0.00     0.002 A 
ENDBRANCH  80  82
BRANCH  80  89
ATOM     89  O   UNL A   1      32.471  25.035  23.825  1.00  0.00    -0.382 OA
ATOM     90  H   UNL A   1      32.975  24.742  23.050  1.00  0.00     0.212 HD
ENDBRANCH  80  89
BRANCH  81  91
ATOM     91  C   UNL A   1      32.901  22.398  24.875  1.00  0.00     0.003 A 
ATOM     92  C   UNL A   1      32.493  22.469  23.531  1.00  0.00     0.008 A 
ATOM     93  C   UNL A   1      32.986  21.113  25.451  1.00  0.00     0.046 A 
ATOM     94  C   UNL A   1      32.263  21.319  22.770  1.00  0.00     0.000 A 
ATOM     95  C   UNL A   1      32.725  19.962  24.695  1.00  0.00     0.021 A 
ATOM     96  Cl  UNL A   1      33.400  20.851  27.113  1.00  0.00    -0.084 Cl
ATOM     97  C   UNL A   1      32.388  20.063  23.349  1.00  0.00     0.002 A 
ENDBRANCH  81  91
ENDBRANCH  74  77
ENDBRANCH  72  73
ENDBRANCH  71  72
ENDBRANCH  70  71
ENDBRANCH  69  70
ENDBRANCH   1  69
TORSDOF 19
ENDMDL
MODEL 2
REMARK VINA RESULT:     -11.2      2.918      9.225
REMARK SMILES O=C(NCCCCCCNC(=O)[C@H]1C[C@](O)(c2ccccc2Cl)[C@@H](c2ccccc2Cl)O1)c1ccc(-c2c3nc(c(-c4ccc(S(=O)(=O)[O-])cc4)c4ccc([nH]4)c(-c4ccc(S(=O)(=O)[O-])cc4)c4nc(c(-c5ccc(S(=O)(=O)[O-])cc5)c5ccc2[nH]5)C=C4)C=C3)cc1
REMARK SMILES IDX 5 1 4 2 3 3 1 4 2 5 33 7 34 8 92 9 35 10 91 11 36 12 37 13
REMARK SMILES IDX 38 14 85 15 39 16 90 17 84 18 86 19 40 20 89 21 83 22 82 23
REMARK SMILES IDX 41 25 71 26 52 27 70 28 53 29 56 30 69 31 87 32 54 33 55 34
REMARK SMILES IDX 68 36 88 37 57 38 42 39 43 40 51 41 44 42 50 43 45 44 46 45
REMARK SMILES IDX 47 46 48 47 49 48 72 49 73 50 81 51 74 52 80 53 75 54 76 55
REMARK SMILES IDX 77 56 78 57 79 58 58 59 59 60 67 61 60 62 66 63 61 64 62 65
REMARK SMILES IDX 63 66 64 67 65 68 6 69 7 70 8 71 9 72 10 73 11 74 12 76
REMARK SMILES IDX 13 77 14 78 32 79 15 80 24 81 17 82 18 83 22 84 19 85 21 86
REMARK SMILES IDX 23 87 20 88 16 89 25 91 26 92 30 93 27 94 29 95 31 96 28 97
REMARK H PARENT 3 6 86 24 56 35 10 75 16 90
REMARK Flexibility Score: inf
ROOT
ATOM      1  C   UNL A   1      32.093  27.999  27.383  1.00  0.00     0.021 C 
ENDROOT
BRANCH   1   2
ATOM      2  C   UNL A   1      33.461  28.668  27.441  1.00  0.00     0.116 C 
BRANCH   2   3
ATOM      3  N   UNL A   1      33.379  30.104  27.232  1.00  0.00    -0.352 N 
ATOM      4  O   UNL A   1      33.885  32.270  27.613  1.00  0.00    -0.269 OA
ATOM      5  C   UNL A   1      34.201  31.092  27.722  1.00  0.00     0.251 C 
ATOM      6  H   UNL A   1      32.636  30.410  26.663  1.00  0.00     0.163 HD
BRANCH   5   7
ATOM      7  C   UNL A   1      35.461  30.714  28.400  1.00  0.00     0.039 A 
ATOM      8  C   UNL A   1      36.665  31.336  28.055  1.00  0.00     0.014 A 
ATOM      9  C   UNL A   1      35.437  29.726  29.386  1.00  0.00     0.014 A 
ATOM     10  C   UNL A   1      37.859  30.879  28.599  1.00  0.00     0.010 A 
ATOM     11  C   UNL A   1      36.630  29.331  29.998  1.00  0.00     0.010 A 
ATOM     12  C   UNL A   1      37.852  29.888  29.593  1.00  0.00    -0.014 A 
BRANCH  12  13
ATOM     13  C   UNL A   1      39.126  29.513  30.259  1.00  0.00     0.031 A 
ATOM     14  C   UNL A   1      39.619  30.245  31.474  1.00  0.00     0.074 A 
ATOM     15  C   UNL A   1      39.845  28.499  29.739  1.00  0.00     0.049 A 
ATOM     16  N   UNL A   1      40.720  30.054  32.157  1.00  0.00    -0.248 NA
ATOM     17  C   UNL A   1      38.778  31.337  31.985  1.00  0.00     0.031 C 
ATOM     18  C   UNL A   1      39.472  27.724  28.552  1.00  0.00     0.029 A 
ATOM     19  N   UNL A   1      41.035  27.945  30.136  1.00  0.00    -0.354 N 
ATOM     20  C   UNL A   1      40.718  31.013  33.162  1.00  0.00     0.074 A 
ATOM     21  C   UNL A   1      39.515  31.801  32.986  1.00  0.00     0.031 C 
ATOM     22  C   UNL A   1      40.399  26.783  28.332  1.00  0.00     0.029 A 
ATOM     23  C   UNL A   1      41.465  26.930  29.316  1.00  0.00     0.049 A 
ATOM     24  H   UNL A   1      41.533  28.246  30.930  1.00  0.00     0.167 HD
ATOM     25  C   UNL A   1      41.635  31.218  34.140  1.00  0.00     0.031 A 
ATOM     26  C   UNL A   1      42.605  26.215  29.324  1.00  0.00     0.031 A 
ATOM     27  C   UNL A   1      42.835  30.436  34.293  1.00  0.00     0.049 A 
ATOM     28  C   UNL A   1      43.622  26.480  30.394  1.00  0.00     0.074 A 
ATOM     29  C   UNL A   1      43.807  30.535  35.275  1.00  0.00     0.029 A 
ATOM     30  N   UNL A   1      43.241  29.425  33.435  1.00  0.00    -0.354 N 
ATOM     31  N   UNL A   1      43.574  27.355  31.371  1.00  0.00    -0.248 NA
ATOM     32  C   UNL A   1      44.841  25.664  30.370  1.00  0.00     0.031 C 
ATOM     33  C   UNL A   1      44.830  29.631  34.972  1.00  0.00     0.029 A 
ATOM     34  C   UNL A   1      44.464  28.916  33.843  1.00  0.00     0.049 A 
ATOM     35  H   UNL A   1      42.734  29.113  32.650  1.00  0.00     0.167 HD
ATOM     36  C   UNL A   1      44.751  27.183  32.089  1.00  0.00     0.074 A 
ATOM     37  C   UNL A   1      45.480  26.108  31.443  1.00  0.00     0.031 C 
ATOM     38  C   UNL A   1      45.185  27.853  33.185  1.00  0.00     0.031 A 
BRANCH  25  39
ATOM     39  C   UNL A   1      41.395  32.363  35.093  1.00  0.00    -0.014 A 
ATOM     40  C   UNL A   1      40.642  32.195  36.270  1.00  0.00     0.010 A 
ATOM     41  C   UNL A   1      41.955  33.625  34.818  1.00  0.00     0.010 A 
ATOM     42  C   UNL A   1      40.405  33.280  37.121  1.00  0.00     0.020 A 
ATOM     43  C   UNL A   1      41.746  34.704  35.681  1.00  0.00     0.020 A 
ATOM     44  C   UNL A   1      40.951  34.530  36.814  1.00  0.00     0.054 A 
BRANCH  44  45
ATOM     45  S   UNL A   1      40.612  35.923  37.927  1.00  0.00     0.124 S 
ATOM     46  O   UNL A   1      39.801  36.793  37.079  1.00  0.00    -0.237 OA
ATOM     47  O   UNL A   1      39.901  35.285  39.032  1.00  0.00    -0.237 OA
ATOM     48  O   UNL A   1      41.939  36.435  38.257  1.00  0.00    -0.744 OA
ENDBRANCH  44  45
ENDBRANCH  25  39
BRANCH  26  49
ATOM     49  C   UNL A   1      42.836  25.205  28.256  1.00  0.00    -0.014 A 
ATOM     50  C   UNL A   1      43.253  25.595  26.973  1.00  0.00     0.010 A 
ATOM     51  C   UNL A   1      42.708  23.833  28.549  1.00  0.00     0.010 A 
ATOM     52  C   UNL A   1      43.537  24.630  26.002  1.00  0.00     0.020 A 
ATOM     53  C   UNL A   1      43.020  22.868  27.590  1.00  0.00     0.020 A 
ATOM     54  C   UNL A   1      43.427  23.273  26.320  1.00  0.00     0.054 A 
BRANCH  54  55
ATOM     55  S   UNL A   1      43.881  22.042  25.068  1.00  0.00     0.124 S 
ATOM     56  O   UNL A   1      43.584  22.748  23.825  1.00  0.00    -0.237 OA
ATOM     57  O   UNL A   1      45.299  21.819  25.346  1.00  0.00    -0.237 OA
ATOM     58  O   UNL A   1      43.010  20.909  25.369  1.00  0.00    -0.744 OA
ENDBRANCH  54  55
ENDBRANCH  26  49
BRANCH  38  59
ATOM     59  C   UNL A   1      46.502  27.429  33.778  1.00  0.00    -0.014 A 
ATOM     60  C   UNL A   1      46.580  26.383  34.714  1.00  0.00     0.010 A 
ATOM     61  C   UNL A   1      47.689  28.046  33.339  1.00  0.00     0.010 A 
ATOM     62  C   UNL A   1      47.818  25.975  35.216  1.00  0.00     0.020 A 
ATOM     63  C   UNL A   1      48.930  27.621  33.817  1.00  0.00     0.020 A 
ATOM     64  C   UNL A   1      48.988  26.594  34.761  1.00  0.00     0.054 A 
BRANCH  64  65
ATOM     65  S   UNL A   1      50.586  26.004  35.380  1.00  0.00     0.124 S 
ATOM     66  O   UNL A   1      51.124  27.199  36.022  1.00  0.00    -0.237 OA
ATOM     67  O   UNL A   1      50.199  24.924  36.285  1.00  0.00    -0.237 OA
ATOM     68  O   UNL A   1      51.289  25.575  34.173  1.00  0.00    -0.744 OA
ENDBRANCH  64  65
ENDBRANCH  38  59
ENDBRANCH  12  13
ENDBRANCH   5   7
ENDBRANCH   2   3
ENDBRANCH   1   2
BRANCH   1  69
ATOM     69  C   UNL A   1      31.580  27.738  25.969  1.00  0.00     0.002 C 
BRANCH  69  70
ATOM     70  C   UNL A   1      30.506  26.650  25.867  1.00  0.00     0.002 C 
BRANCH  70  71
ATOM     71  C   UNL A   1      31.027  25.223  25.613  1.00  0.00     0.021 C 
BRANCH  71  72
ATOM     72  C   UNL A   1      31.121  24.342  26.866  1.00  0.00     0.116 C 
BRANCH  72  73
ATOM     73  N   UNL A   1      31.308  22.959  26.483  1.00  0.00    -0.354 N 
ATOM     74  C   UNL A   1      32.373  22.498  25.756  1.00  0.00     0.249 C 
ATOM     75  H   UNL A   1      30.626  22.308  26.761  1.00  0.00     0.163 HD
ATOM     76  O   UNL A   1      32.114  21.797  24.779  1.00  0.00    -0.272 OA
BRANCH  74  77
ATOM     77  C   UNL A   1      33.807  22.836  26.230  1.00  0.00     0.211 C 
ATOM     78  C   UNL A   1      34.838  21.941  25.538  1.00  0.00     0.085 C 
ATOM     79  O   UNL A   1      34.155  24.198  25.945  1.00  0.00    -0.357 OA
ATOM     80  C   UNL A   1      35.785  22.884  24.793  1.00  0.00     0.124 C 
ATOM     81  C   UNL A   1      35.028  24.241  24.800  1.00  0.00     0.187 C 
BRANCH  80  82
ATOM     82  C   UNL A   1      37.207  22.822  25.400  1.00  0.00     0.005 A 
ATOM     83  C   UNL A   1      37.734  24.046  25.892  1.00  0.00     0.008 A 
ATOM     84  C   UNL A   1      38.043  21.695  25.533  1.00  0.00     0.047 A 
ATOM     85  C   UNL A   1      38.955  24.126  26.569  1.00  0.00     0.001 A 
ATOM     86  C   UNL A   1      39.253  21.773  26.250  1.00  0.00     0.021 A 
ATOM     87  Cl  UNL A   1      37.767  20.158  24.793  1.00  0.00    -0.084 Cl
ATOM     88  C   UNL A   1      39.701  22.978  26.780  1.00  0.00     0.002 A 
ENDBRANCH  80  82
BRANCH  80  89
ATOM     89  O   UNL A   1      35.924  22.412  23.436  1.00  0.00    -0.382 OA
ATOM     90  H   UNL A   1      36.685  22.845  23.020  1.00  0.00     0.212 HD
ENDBRANCH  80  89
BRANCH  81  91
ATOM     91  C   UNL A   1      34.204  24.704  23.598  1.00  0.00     0.003 A 
ATOM     92  C   UNL A   1      33.732  23.792  22.637  1.00  0.00     0.008 A 
ATOM     93  C   UNL A   1      33.780  26.043  23.471  1.00  0.00     0.046 A 
ATOM     94  C   UNL A   1      32.818  24.171  21.650  1.00  0.00     0.000 A 
ATOM     95  C   UNL A   1      32.887  26.428  22.463  1.00  0.00     0.021 A 
ATOM     96  Cl  UNL A   1      34.324  27.307  24.525  1.00  0.00    -0.084 Cl
ATOM     97  C   UNL A   1      32.387  25.488  21.567  1.00  0.00     0.002 A 
ENDBRANCH  81  91
ENDBRANCH  74  77
ENDBRANCH  72  73
ENDBRANCH  71  72
ENDBRANCH  70  71
ENDBRANCH  69  70
ENDBRANCH   1  69
TORSDOF 19
ENDMDL
MODEL 3
REMARK VINA RESULT:     -11.2      4.473      8.133
REMARK SMILES O=C(NCCCCCCNC(=O)[C@H]1C[C@](O)(c2ccccc2Cl)[C@@H](c2ccccc2Cl)O1)c1ccc(-c2c3nc(c(-c4ccc(S(=O)(=O)[O-])cc4)c4ccc([nH]4)c(-c4ccc(S(=O)(=O)[O-])cc4)c4nc(c(-c5ccc(S(=O)(=O)[O-])cc5)c5ccc2[nH]5)C=C4)C=C3)cc1
REMARK SMILES IDX 5 1 4 2 3 3 1 4 2 5 33 7 34 8 92 9 35 10 91 11 36 12 37 13
REMARK SMILES IDX 38 14 85 15 39 16 90 17 84 18 86 19 40 20 89 21 83 22 82 23
REMARK SMILES IDX 41 25 71 26 52 27 70 28 53 29 56 30 69 31 87 32 54 33 55 34
REMARK SMILES IDX 68 36 88 37 57 38 42 39 43 40 51 41 44 42 50 43 45 44 46 45
REMARK SMILES IDX 47 46 48 47 49 48 72 49 73 50 81 51 74 52 80 53 75 54 76 55
REMARK SMILES IDX 77 56 78 57 79 58 58 59 59 60 67 61 60 62 66 63 61 64 62 65
REMARK SMILES IDX 63 66 64 67 65 68 6 69 7 70 8 71 9 72 10 73 11 74 12 76
REMARK SMILES IDX 13 77 14 78 32 79 15 80 24 81 17 82 18 83 22 84 19 85 21 86
REMARK SMILES IDX 23 87 20 88 16 89 25 91 26 92 30 93 27 94 29 95 31 96 28 97
REMARK H PARENT 3 6 86 24 56 35 10 75 16 90
REMARK Flexibility Score: inf
ROOT
ATOM      1  C   UNL A   1      41.732  21.247  26.179  1.00  0.00     0.021 C 
ENDROOT
BRANCH   1   2
ATOM      2  C   UNL A   1      40.485  21.666  26.947  1.00  0.00     0.116 C 
BRANCH   2   3
ATOM      3  N   UNL A   1      39.374  21.978  26.062  1.00  0.00    -0.352 N 
ATOM      4  O   UNL A   1      37.617  23.180  25.314  1.00  0.00    -0.269 OA
ATOM      5  C   UNL A   1      38.646  23.143  25.975  1.00  0.00     0.251 C 
ATOM      6  H   UNL A   1      39.108  21.261  25.443  1.00  0.00     0.163 HD
BRANCH   5   7
ATOM      7  C   UNL A   1      39.110  24.342  26.707  1.00  0.00     0.039 A 
ATOM      8  C   UNL A   1      39.968  25.259  26.092  1.00  0.00     0.014 A 
ATOM      9  C   UNL A   1      38.685  24.548  28.021  1.00  0.00     0.014 A 
ATOM     10  C   UNL A   1      40.504  26.306  26.832  1.00  0.00     0.010 A 
ATOM     11  C   UNL A   1      39.156  25.653  28.735  1.00  0.00     0.010 A 
ATOM     12  C   UNL A   1      40.086  26.529  28.153  1.00  0.00    -0.014 A 
BRANCH  12  13
ATOM     13  C   UNL A   1      40.567  27.732  28.879  1.00  0.00     0.031 A 
ATOM     14  C   UNL A   1      41.926  27.768  29.518  1.00  0.00     0.074 A 
ATOM     15  C   UNL A   1      39.748  28.798  28.965  1.00  0.00     0.049 A 
ATOM     16  N   UNL A   1      42.485  28.733  30.205  1.00  0.00    -0.248 NA
ATOM     17  C   UNL A   1      42.764  26.568  29.378  1.00  0.00     0.031 C 
ATOM     18  C   UNL A   1      38.399  28.871  28.396  1.00  0.00     0.029 A 
ATOM     19  N   UNL A   1      39.923  30.020  29.561  1.00  0.00    -0.354 N 
ATOM     20  C   UNL A   1      43.726  28.252  30.600  1.00  0.00     0.074 A 
ATOM     21  C   UNL A   1      43.831  26.898  30.094  1.00  0.00     0.031 C 
ATOM     22  C   UNL A   1      37.880  30.079  28.648  1.00  0.00     0.029 A 
ATOM     23  C   UNL A   1      38.826  30.842  29.455  1.00  0.00     0.049 A 
ATOM     24  H   UNL A   1      40.753  30.284  30.021  1.00  0.00     0.167 HD
ATOM     25  C   UNL A   1      44.689  28.881  31.319  1.00  0.00     0.031 A 
ATOM     26  C   UNL A   1      38.585  32.059  29.975  1.00  0.00     0.031 A 
ATOM     27  C   UNL A   1      44.564  30.222  31.830  1.00  0.00     0.049 A 
ATOM     28  C   UNL A   1      39.650  32.723  30.796  1.00  0.00     0.074 A 
ATOM     29  C   UNL A   1      45.498  30.965  32.533  1.00  0.00     0.029 A 
ATOM     30  N   UNL A   1      43.433  31.016  31.712  1.00  0.00    -0.354 N 
ATOM     31  N   UNL A   1      40.842  32.273  31.111  1.00  0.00    -0.248 NA
ATOM     32  C   UNL A   1      39.345  34.056  31.328  1.00  0.00     0.031 C 
ATOM     33  C   UNL A   1      44.907  32.180  32.897  1.00  0.00     0.029 A 
ATOM     34  C   UNL A   1      43.631  32.226  32.359  1.00  0.00     0.049 A 
ATOM     35  H   UNL A   1      42.610  30.758  31.238  1.00  0.00     0.167 HD
ATOM     36  C   UNL A   1      41.437  33.277  31.865  1.00  0.00     0.074 A 
ATOM     37  C   UNL A   1      40.479  34.363  31.943  1.00  0.00     0.031 C 
ATOM     38  C   UNL A   1      42.665  33.295  32.438  1.00  0.00     0.031 A 
BRANCH  25  39
ATOM     39  C   UNL A   1      45.944  28.105  31.634  1.00  0.00    -0.014 A 
ATOM     40  C   UNL A   1      46.119  27.462  32.873  1.00  0.00     0.010 A 
ATOM     41  C   UNL A   1      46.956  27.996  30.662  1.00  0.00     0.010 A 
ATOM     42  C   UNL A   1      47.306  26.777  33.155  1.00  0.00     0.020 A 
ATOM     43  C   UNL A   1      48.131  27.286  30.928  1.00  0.00     0.020 A 
ATOM     44  C   UNL A   1      48.308  26.703  32.183  1.00  0.00     0.054 A 
BRANCH  44  45
ATOM     45  S   UNL A   1      49.844  25.822  32.582  1.00  0.00     0.124 S 
ATOM     46  O   UNL A   1      49.337  24.601  33.203  1.00  0.00    -0.237 OA
ATOM     47  O   UNL A   1      50.464  25.647  31.271  1.00  0.00    -0.237 OA
ATOM     48  O   UNL A   1      50.544  26.735  33.483  1.00  0.00    -0.744 OA
ENDBRANCH  44  45
ENDBRANCH  25  39
BRANCH  26  49
ATOM     49  C   UNL A   1      37.260  32.696  29.746  1.00  0.00    -0.014 A 
ATOM     50  C   UNL A   1      36.204  32.508  30.651  1.00  0.00     0.010 A 
ATOM     51  C   UNL A   1      37.078  33.559  28.648  1.00  0.00     0.010 A 
ATOM     52  C   UNL A   1      34.988  33.172  30.462  1.00  0.00     0.020 A 
ATOM     53  C   UNL A   1      35.876  34.247  28.474  1.00  0.00     0.020 A 
ATOM     54  C   UNL A   1      34.835  34.043  29.379  1.00  0.00     0.054 A 
BRANCH  54  55
ATOM     55  S   UNL A   1      33.277  34.955  29.204  1.00  0.00     0.124 S 
ATOM     56  O   UNL A   1      32.544  34.124  28.254  1.00  0.00    -0.237 OA
ATOM     57  O   UNL A   1      32.761  34.962  30.571  1.00  0.00    -0.237 OA
ATOM     58  O   UNL A   1      33.699  36.260  28.700  1.00  0.00    -0.744 OA
ENDBRANCH  54  55
ENDBRANCH  26  49
BRANCH  38  59
ATOM     59  C   UNL A   1      43.062  34.543  33.182  1.00  0.00    -0.014 A 
ATOM     60  C   UNL A   1      42.807  34.687  34.558  1.00  0.00     0.010 A 
ATOM     61  C   UNL A   1      43.761  35.560  32.504  1.00  0.00     0.010 A 
ATOM     62  C   UNL A   1      43.226  35.833  35.237  1.00  0.00     0.020 A 
ATOM     63  C   UNL A   1      44.206  36.693  33.186  1.00  0.00     0.020 A 
ATOM     64  C   UNL A   1      43.928  36.829  34.548  1.00  0.00     0.054 A 
BRANCH  64  65
ATOM     65  S   UNL A   1      44.516  38.277  35.466  1.00  0.00     0.124 S 
ATOM     66  O   UNL A   1      44.093  37.967  36.828  1.00  0.00    -0.237 OA
ATOM     67  O   UNL A   1      45.958  38.240  35.232  1.00  0.00    -0.237 OA
ATOM     68  O   UNL A   1      43.817  39.394  34.836  1.00  0.00    -0.744 OA
ENDBRANCH  64  65
ENDBRANCH  38  59
ENDBRANCH  12  13
ENDBRANCH   5   7
ENDBRANCH   2   3
ENDBRANCH   1   2
BRANCH   1  69
ATOM     69  C   UNL A   1      42.485  22.402  25.523  1.00  0.00     0.002 C 
BRANCH  69  70
ATOM     70  C   UNL A   1      43.989  22.172  25.350  1.00  0.00     0.002 C 
BRANCH  70  71
ATOM     71  C   UNL A   1      44.575  22.595  23.990  1.00  0.00     0.021 C 
BRANCH  71  72
ATOM     72  C   UNL A   1      45.957  23.259  24.065  1.00  0.00     0.116 C 
BRANCH  72  73
ATOM     73  N   UNL A   1      46.419  23.280  25.436  1.00  0.00    -0.354 N 
ATOM     74  C   UNL A   1      46.817  24.410  26.098  1.00  0.00     0.249 C 
ATOM     75  H   UNL A   1      46.449  22.427  25.924  1.00  0.00     0.163 HD
ATOM     76  O   UNL A   1      47.900  24.359  26.679  1.00  0.00    -0.272 OA
BRANCH  74  77
ATOM     77  C   UNL A   1      45.876  25.639  26.118  1.00  0.00     0.211 C 
ATOM     78  C   UNL A   1      46.181  26.543  27.315  1.00  0.00     0.085 C 
ATOM     79  O   UNL A   1      46.010  26.432  24.931  1.00  0.00    -0.357 OA
ATOM     80  C   UNL A   1      46.546  27.909  26.731  1.00  0.00     0.124 C 
ATOM     81  C   UNL A   1      46.785  27.610  25.225  1.00  0.00     0.187 C 
BRANCH  80  82
ATOM     82  C   UNL A   1      45.488  28.970  27.121  1.00  0.00     0.005 A 
ATOM     83  C   UNL A   1      45.927  30.005  27.990  1.00  0.00     0.008 A 
ATOM     84  C   UNL A   1      44.141  29.041  26.712  1.00  0.00     0.047 A 
ATOM     85  C   UNL A   1      45.122  31.094  28.337  1.00  0.00     0.001 A 
ATOM     86  C   UNL A   1      43.347  30.159  27.032  1.00  0.00     0.021 A 
ATOM     87  Cl  UNL A   1      43.285  27.789  25.884  1.00  0.00    -0.084 Cl
ATOM     88  C   UNL A   1      43.837  31.189  27.827  1.00  0.00     0.002 A 
ENDBRANCH  80  82
BRANCH  80  89
ATOM     89  O   UNL A   1      47.777  28.352  27.341  1.00  0.00    -0.382 OA
ATOM     90  H   UNL A   1      47.868  27.946  28.217  1.00  0.00     0.212 HD
ENDBRANCH  80  89
BRANCH  81  91
ATOM     91  C   UNL A   1      48.192  27.399  24.665  1.00  0.00     0.003 A 
ATOM     92  C   UNL A   1      49.238  26.918  25.472  1.00  0.00     0.008 A 
ATOM     93  C   UNL A   1      48.466  27.560  23.291  1.00  0.00     0.046 A 
ATOM     94  C   UNL A   1      50.468  26.534  24.930  1.00  0.00     0.000 A 
ATOM     95  C   UNL A   1      49.710  27.203  22.754  1.00  0.00     0.021 A 
ATOM     96  Cl  UNL A   1      47.314  28.209  22.171  1.00  0.00    -0.084 Cl
ATOM     97  C   UNL A   1      50.703  26.668  23.568  1.00  0.00     0.002 A 
ENDBRANCH  81  91
ENDBRANCH  74  77
ENDBRANCH  72  73
ENDBRANCH  71  72
ENDBRANCH  70  71
ENDBRANCH  69  70
ENDBRANCH   1  69
TORSDOF 19
ENDMDL
