MODEL 1
REMARK VINA RESULT:     -11.3      0.000      0.000
REMARK SMILES O=C(NCCCCCCNC(=O)c1ccc(OC[C@H]2C[C@H]3CC[C@@H]2C3)c(Cl)c1)c1ccc(-c2c3nc(c(-c4ccc(S(=O)(=O)[O-])cc4)c4ccc([nH]4)c(-c4ccc(S(=O)(=O)[O-])cc4)c4nc(c(-c5ccc(S(=O)(=O)[O-])cc5)c5ccc2[nH]5)C=C4)C=C3)cc1
REMARK SMILES IDX 6 1 5 2 4 3 3 4 1 5 2 6 29 8 30 9 88 10 31 11 87 12 32 13
REMARK SMILES IDX 33 14 34 15 81 16 35 17 86 18 80 19 82 20 36 21 85 22 79 23
REMARK SMILES IDX 78 24 37 26 67 27 48 28 66 29 49 30 52 31 65 32 83 33 50 34
REMARK SMILES IDX 51 35 64 37 84 38 53 39 38 40 39 41 47 42 40 43 46 44 41 45
REMARK SMILES IDX 42 46 43 47 44 48 45 49 68 50 69 51 77 52 70 53 76 54 71 55
REMARK SMILES IDX 72 56 73 57 74 58 75 59 54 60 55 61 63 62 56 63 62 64 57 65
REMARK SMILES IDX 58 66 59 67 60 68 61 69 7 70 8 71 9 72 10 73 11 74 12 76
REMARK SMILES IDX 13 77 14 78 28 79 15 80 26 81 16 82 27 83 17 84 18 85 19 86
REMARK SMILES IDX 20 87 24 88 21 89 23 90 25 91 22 92
REMARK H PARENT 3 7 82 25 52 36 10 75
REMARK Flexibility Score: inf
ROOT
ATOM      1  C   UNL A   1      32.258  27.981  27.236  1.00  0.00     0.002 C 
ENDROOT
BRANCH   1   2
ATOM      2  C   UNL A   1      33.545  27.607  26.500  1.00  0.00     0.021 C 
BRANCH   2   3
ATOM      3  C   UNL A   1      34.375  28.792  26.031  1.00  0.00     0.116 C 
BRANCH   3   4
ATOM      4  N   UNL A   1      33.986  30.025  26.689  1.00  0.00    -0.352 N 
ATOM      5  O   UNL A   1      34.077  31.623  28.279  1.00  0.00    -0.269 OA
ATOM      6  C   UNL A   1      34.628  30.689  27.705  1.00  0.00     0.251 C 
ATOM      7  H   UNL A   1      33.154  30.441  26.365  1.00  0.00     0.163 HD
BRANCH   6   8
ATOM      8  C   UNL A   1      35.980  30.251  28.114  1.00  0.00     0.039 A 
ATOM      9  C   UNL A   1      37.071  30.413  27.253  1.00  0.00     0.014 A 
ATOM     10  C   UNL A   1      36.155  29.670  29.371  1.00  0.00     0.014 A 
ATOM     11  C   UNL A   1      38.311  29.894  27.605  1.00  0.00     0.010 A 
ATOM     12  C   UNL A   1      37.420  29.217  29.754  1.00  0.00     0.010 A 
ATOM     13  C   UNL A   1      38.503  29.308  28.867  1.00  0.00    -0.014 A 
BRANCH  13  14
ATOM     14  C   UNL A   1      39.863  28.870  29.269  1.00  0.00     0.031 A 
ATOM     15  C   UNL A   1      40.753  29.750  30.098  1.00  0.00     0.074 A 
ATOM     16  C   UNL A   1      40.281  27.649  28.884  1.00  0.00     0.049 A 
ATOM     17  N   UNL A   1      41.958  29.505  30.548  1.00  0.00    -0.248 NA
ATOM     18  C   UNL A   1      40.232  31.075  30.465  1.00  0.00     0.031 C 
ATOM     19  C   UNL A   1      39.504  26.710  28.070  1.00  0.00     0.029 A 
ATOM     20  N   UNL A   1      41.451  26.980  29.136  1.00  0.00    -0.354 N 
ATOM     21  C   UNL A   1      42.349  30.649  31.232  1.00  0.00     0.074 A 
ATOM     22  C   UNL A   1      41.260  31.597  31.121  1.00  0.00     0.031 C 
ATOM     23  C   UNL A   1      40.195  25.570  27.935  1.00  0.00     0.029 A 
ATOM     24  C   UNL A   1      41.486  25.717  28.596  1.00  0.00     0.049 A 
ATOM     25  H   UNL A   1      42.193  27.367  29.654  1.00  0.00     0.167 HD
ATOM     26  C   UNL A   1      43.510  30.886  31.893  1.00  0.00     0.031 A 
ATOM     27  C   UNL A   1      42.453  24.780  28.618  1.00  0.00     0.031 A 
ATOM     28  C   UNL A   1      44.591  29.940  31.993  1.00  0.00     0.049 A 
ATOM     29  C   UNL A   1      43.736  25.076  29.334  1.00  0.00     0.074 A 
ATOM     30  C   UNL A   1      45.795  30.075  32.664  1.00  0.00     0.029 A 
ATOM     31  N   UNL A   1      44.605  28.686  31.400  1.00  0.00    -0.354 N 
ATOM     32  N   UNL A   1      44.076  26.155  30.000  1.00  0.00    -0.248 NA
ATOM     33  C   UNL A   1      44.767  24.033  29.301  1.00  0.00     0.031 C 
ATOM     34  C   UNL A   1      46.554  28.921  32.438  1.00  0.00     0.029 A 
ATOM     35  C   UNL A   1      45.804  28.046  31.667  1.00  0.00     0.049 A 
ATOM     36  H   UNL A   1      43.869  28.307  30.866  1.00  0.00     0.167 HD
ATOM     37  C   UNL A   1      45.358  25.916  30.476  1.00  0.00     0.074 A 
ATOM     38  C   UNL A   1      45.724  24.583  30.037  1.00  0.00     0.031 C 
ATOM     39  C   UNL A   1      46.159  26.726  31.209  1.00  0.00     0.031 A 
BRANCH  26  40
ATOM     40  C   UNL A   1      43.680  32.241  32.528  1.00  0.00    -0.014 A 
ATOM     41  C   UNL A   1      44.264  33.309  31.823  1.00  0.00     0.010 A 
ATOM     42  C   UNL A   1      43.232  32.455  33.844  1.00  0.00     0.010 A 
ATOM     43  C   UNL A   1      44.443  34.551  32.440  1.00  0.00     0.020 A 
ATOM     44  C   UNL A   1      43.388  33.703  34.457  1.00  0.00     0.020 A 
ATOM     45  C   UNL A   1      44.014  34.737  33.758  1.00  0.00     0.054 A 
BRANCH  45  46
ATOM     46  S   UNL A   1      44.269  36.353  34.541  1.00  0.00     0.124 S 
ATOM     47  O   UNL A   1      44.041  36.042  35.950  1.00  0.00    -0.237 OA
ATOM     48  O   UNL A   1      45.649  36.671  34.185  1.00  0.00    -0.237 OA
ATOM     49  O   UNL A   1      43.257  37.203  33.919  1.00  0.00    -0.744 OA
ENDBRANCH  45  46
ENDBRANCH  26  40
BRANCH  27  50
ATOM     50  C   UNL A   1      42.222  23.480  27.937  1.00  0.00    -0.014 A 
ATOM     51  C   UNL A   1      42.714  23.261  26.639  1.00  0.00     0.010 A 
ATOM     52  C   UNL A   1      41.568  22.433  28.611  1.00  0.00     0.010 A 
ATOM     53  C   UNL A   1      42.559  22.015  26.028  1.00  0.00     0.020 A 
ATOM     54  C   UNL A   1      41.433  21.178  28.012  1.00  0.00     0.020 A 
ATOM     55  C   UNL A   1      41.925  20.979  26.721  1.00  0.00     0.054 A 
BRANCH  55  56
ATOM     56  S   UNL A   1      41.813  19.343  25.943  1.00  0.00     0.124 S 
ATOM     57  O   UNL A   1      42.271  18.465  27.015  1.00  0.00    -0.237 OA
ATOM     58  O   UNL A   1      40.394  19.248  25.609  1.00  0.00    -0.237 OA
ATOM     59  O   UNL A   1      42.709  19.451  24.793  1.00  0.00    -0.744 OA
ENDBRANCH  55  56
ENDBRANCH  27  50
BRANCH  39  60
ATOM     60  C   UNL A   1      47.507  26.184  31.596  1.00  0.00    -0.014 A 
ATOM     61  C   UNL A   1      47.711  25.575  32.847  1.00  0.00     0.010 A 
ATOM     62  C   UNL A   1      48.573  26.254  30.682  1.00  0.00     0.010 A 
ATOM     63  C   UNL A   1      48.969  25.072  33.189  1.00  0.00     0.020 A 
ATOM     64  C   UNL A   1      49.826  25.731  31.012  1.00  0.00     0.020 A 
ATOM     65  C   UNL A   1      50.019  25.157  32.269  1.00  0.00     0.054 A 
BRANCH  65  66
ATOM     66  S   UNL A   1      51.635  24.465  32.719  1.00  0.00     0.124 S 
ATOM     67  O   UNL A   1      51.501  23.076  32.289  1.00  0.00    -0.237 OA
ATOM     68  O   UNL A   1      52.563  25.279  31.938  1.00  0.00    -0.237 OA
ATOM     69  O   UNL A   1      51.706  24.666  34.165  1.00  0.00    -0.744 OA
ENDBRANCH  65  66
ENDBRANCH  39  60
ENDBRANCH  13  14
ENDBRANCH   6   8
ENDBRANCH   3   4
ENDBRANCH   2   3
ENDBRANCH   1   2
BRANCH   1  70
ATOM     70  C   UNL A   1      31.021  27.164  26.847  1.00  0.00     0.002 C 
BRANCH  70  71
ATOM     71  C   UNL A   1      30.816  26.963  25.341  1.00  0.00     0.021 C 
BRANCH  71  72
ATOM     72  C   UNL A   1      29.899  25.795  24.994  1.00  0.00     0.116 C 
BRANCH  72  73
ATOM     73  N   UNL A   1      29.568  25.044  26.185  1.00  0.00    -0.352 N 
ATOM     74  C   UNL A   1      30.134  23.879  26.613  1.00  0.00     0.251 C 
ATOM     75  H   UNL A   1      28.855  25.417  26.752  1.00  0.00     0.163 HD
ATOM     76  O   UNL A   1      29.716  23.269  27.585  1.00  0.00    -0.269 OA
BRANCH  74  77
ATOM     77  C   UNL A   1      31.314  23.383  25.896  1.00  0.00     0.041 A 
ATOM     78  C   UNL A   1      32.567  23.583  26.470  1.00  0.00     0.018 A 
ATOM     79  C   UNL A   1      31.168  22.702  24.687  1.00  0.00     0.038 A 
ATOM     80  C   UNL A   1      33.673  22.972  25.894  1.00  0.00     0.049 A 
ATOM     81  C   UNL A   1      32.289  22.103  24.110  1.00  0.00     0.083 A 
ATOM     82  C   UNL A   1      33.512  22.119  24.794  1.00  0.00     0.137 A 
ATOM     83  Cl  UNL A   1      32.093  21.410  22.540  1.00  0.00    -0.080 Cl
BRANCH  82  84
ATOM     84  O   UNL A   1      34.609  21.342  24.535  1.00  0.00    -0.492 OA
BRANCH  84  85
ATOM     85  C   UNL A   1      34.620  20.050  25.158  1.00  0.00     0.233 C 
BRANCH  85  86
ATOM     86  C   UNL A   1      34.533  18.793  24.260  1.00  0.00     0.030 C 
ATOM     87  C   UNL A   1      35.277  17.488  24.604  1.00  0.00     0.011 C 
ATOM     88  C   UNL A   1      33.083  18.283  24.006  1.00  0.00    -0.004 C 
ATOM     89  C   UNL A   1      34.183  16.408  24.485  1.00  0.00    -0.010 C 
ATOM     90  C   UNL A   1      32.411  17.806  25.304  1.00  0.00     0.004 C 
ATOM     91  C   UNL A   1      33.349  16.937  23.322  1.00  0.00     0.007 C 
ATOM     92  C   UNL A   1      33.204  16.543  25.661  1.00  0.00     0.004 C 
ENDBRANCH  85  86
ENDBRANCH  84  85
ENDBRANCH  82  84
ENDBRANCH  74  77
ENDBRANCH  72  73
ENDBRANCH  71  72
ENDBRANCH  70  71
ENDBRANCH   1  70
TORSDOF 19
ENDMDL
MODEL 2
REMARK VINA RESULT:     -10.8      2.974      9.003
REMARK SMILES O=C(NCCCCCCNC(=O)c1ccc(OC[C@H]2C[C@H]3CC[C@@H]2C3)c(Cl)c1)c1ccc(-c2c3nc(c(-c4ccc(S(=O)(=O)[O-])cc4)c4ccc([nH]4)c(-c4ccc(S(=O)(=O)[O-])cc4)c4nc(c(-c5ccc(S(=O)(=O)[O-])cc5)c5ccc2[nH]5)C=C4)C=C3)cc1
REMARK SMILES IDX 6 1 5 2 4 3 3 4 1 5 2 6 29 8 30 9 88 10 31 11 87 12 32 13
REMARK SMILES IDX 33 14 34 15 81 16 35 17 86 18 80 19 82 20 36 21 85 22 79 23
REMARK SMILES IDX 78 24 37 26 67 27 48 28 66 29 49 30 52 31 65 32 83 33 50 34
REMARK SMILES IDX 51 35 64 37 84 38 53 39 38 40 39 41 47 42 40 43 46 44 41 45
REMARK SMILES IDX 42 46 43 47 44 48 45 49 68 50 69 51 77 52 70 53 76 54 71 55
REMARK SMILES IDX 72 56 73 57 74 58 75 59 54 60 55 61 63 62 56 63 62 64 57 65
REMARK SMILES IDX 58 66 59 67 60 68 61 69 7 70 8 71 9 72 10 73 11 74 12 76
REMARK SMILES IDX 13 77 14 78 28 79 15 80 26 81 16 82 27 83 17 84 18 85 19 86
REMARK SMILES IDX 20 87 24 88 21 89 23 90 25 91 22 92
REMARK H PARENT 3 7 82 25 52 36 10 75
REMARK Flexibility Score: inf
ROOT
ATOM      1  C   UNL A   1      34.534  25.110  24.111  1.00  0.00     0.002 C 
ENDROOT
BRANCH   1   2
ATOM      2  C   UNL A   1      35.706  24.133  24.213  1.00  0.00     0.021 C 
BRANCH   2   3
ATOM      3  C   UNL A   1      36.374  24.084  25.578  1.00  0.00     0.116 C 
BRANCH   3   4
ATOM      4  N   UNL A   1      37.347  23.012  25.672  1.00  0.00    -0.352 N 
ATOM      5  O   UNL A   1      39.391  22.115  25.996  1.00  0.00    -0.269 OA
ATOM      6  C   UNL A   1      38.632  23.065  26.152  1.00  0.00     0.251 C 
ATOM      7  H   UNL A   1      37.047  22.131  25.350  1.00  0.00     0.163 HD
BRANCH   6   8
ATOM      8  C   UNL A   1      39.097  24.290  26.839  1.00  0.00     0.039 A 
ATOM      9  C   UNL A   1      39.866  25.239  26.157  1.00  0.00     0.014 A 
ATOM     10  C   UNL A   1      38.760  24.487  28.179  1.00  0.00     0.014 A 
ATOM     11  C   UNL A   1      40.390  26.327  26.845  1.00  0.00     0.010 A 
ATOM     12  C   UNL A   1      39.225  25.622  28.849  1.00  0.00     0.010 A 
ATOM     13  C   UNL A   1      40.059  26.540  28.193  1.00  0.00    -0.014 A 
BRANCH  13  14
ATOM     14  C   UNL A   1      40.531  27.771  28.875  1.00  0.00     0.031 A 
ATOM     15  C   UNL A   1      41.936  27.888  29.393  1.00  0.00     0.074 A 
ATOM     16  C   UNL A   1      39.670  28.798  29.007  1.00  0.00     0.049 A 
ATOM     17  N   UNL A   1      42.507  28.902  29.992  1.00  0.00    -0.248 NA
ATOM     18  C   UNL A   1      42.811  26.718  29.225  1.00  0.00     0.031 C 
ATOM     19  C   UNL A   1      38.278  28.795  28.548  1.00  0.00     0.029 A 
ATOM     20  N   UNL A   1      39.838  30.046  29.549  1.00  0.00    -0.354 N 
ATOM     21  C   UNL A   1      43.799  28.489  30.293  1.00  0.00     0.074 A 
ATOM     22  C   UNL A   1      43.922  27.124  29.827  1.00  0.00     0.031 C 
ATOM     23  C   UNL A   1      37.736  29.999  28.780  1.00  0.00     0.029 A 
ATOM     24  C   UNL A   1      38.718  30.837  29.458  1.00  0.00     0.049 A 
ATOM     25  H   UNL A   1      40.679  30.346  29.962  1.00  0.00     0.167 HD
ATOM     26  C   UNL A   1      44.791  29.187  30.900  1.00  0.00     0.031 A 
ATOM     27  C   UNL A   1      38.496  32.095  29.881  1.00  0.00     0.031 A 
ATOM     28  C   UNL A   1      44.658  30.542  31.366  1.00  0.00     0.049 A 
ATOM     29  C   UNL A   1      39.602  32.835  30.572  1.00  0.00     0.074 A 
ATOM     30  C   UNL A   1      45.613  31.344  31.968  1.00  0.00     0.029 A 
ATOM     31  N   UNL A   1      43.496  31.297  31.291  1.00  0.00    -0.354 N 
ATOM     32  N   UNL A   1      40.826  32.437  30.823  1.00  0.00    -0.248 NA
ATOM     33  C   UNL A   1      39.296  34.192  31.041  1.00  0.00     0.031 C 
ATOM     34  C   UNL A   1      45.015  32.567  32.297  1.00  0.00     0.029 A 
ATOM     35  C   UNL A   1      43.701  32.545  31.856  1.00  0.00     0.049 A 
ATOM     36  H   UNL A   1      42.649  30.989  30.894  1.00  0.00     0.167 HD
ATOM     37  C   UNL A   1      41.444  33.500  31.469  1.00  0.00     0.074 A 
ATOM     38  C   UNL A   1      40.462  34.564  31.554  1.00  0.00     0.031 C 
ATOM     39  C   UNL A   1      42.708  33.586  31.948  1.00  0.00     0.031 A 
BRANCH  26  40
ATOM     40  C   UNL A   1      46.098  28.474  31.127  1.00  0.00    -0.014 A 
ATOM     41  C   UNL A   1      47.094  28.443  30.134  1.00  0.00     0.010 A 
ATOM     42  C   UNL A   1      46.342  27.840  32.359  1.00  0.00     0.010 A 
ATOM     43  C   UNL A   1      48.288  27.749  30.350  1.00  0.00     0.020 A 
ATOM     44  C   UNL A   1      47.545  27.164  32.588  1.00  0.00     0.020 A 
ATOM     45  C   UNL A   1      48.501  27.104  31.573  1.00  0.00     0.054 A 
BRANCH  45  46
ATOM     46  S   UNL A   1      50.053  26.199  31.825  1.00  0.00     0.124 S 
ATOM     47  O   UNL A   1      49.816  25.550  33.112  1.00  0.00    -0.237 OA
ATOM     48  O   UNL A   1      50.097  25.304  30.671  1.00  0.00    -0.237 OA
ATOM     49  O   UNL A   1      51.069  27.248  31.834  1.00  0.00    -0.744 OA
ENDBRANCH  45  46
ENDBRANCH  26  40
BRANCH  27  50
ATOM     50  C   UNL A   1      37.167  32.717  29.652  1.00  0.00    -0.014 A 
ATOM     51  C   UNL A   1      36.224  32.786  30.693  1.00  0.00     0.010 A 
ATOM     52  C   UNL A   1      36.863  33.303  28.409  1.00  0.00     0.010 A 
ATOM     53  C   UNL A   1      35.003  33.434  30.496  1.00  0.00     0.020 A 
ATOM     54  C   UNL A   1      35.652  33.973  28.217  1.00  0.00     0.020 A 
ATOM     55  C   UNL A   1      34.727  34.029  29.261  1.00  0.00     0.054 A 
BRANCH  55  56
ATOM     56  S   UNL A   1      33.172  34.942  29.056  1.00  0.00     0.124 S 
ATOM     57  O   UNL A   1      32.609  34.889  30.401  1.00  0.00    -0.237 OA
ATOM     58  O   UNL A   1      33.633  36.257  28.614  1.00  0.00    -0.237 OA
ATOM     59  O   UNL A   1      32.456  34.170  28.043  1.00  0.00    -0.744 OA
ENDBRANCH  55  56
ENDBRANCH  27  50
BRANCH  39  60
ATOM     60  C   UNL A   1      43.105  34.884  32.594  1.00  0.00    -0.014 A 
ATOM     61  C   UNL A   1      42.926  35.092  33.973  1.00  0.00     0.010 A 
ATOM     62  C   UNL A   1      43.696  35.896  31.817  1.00  0.00     0.010 A 
ATOM     63  C   UNL A   1      43.304  36.302  34.559  1.00  0.00     0.020 A 
ATOM     64  C   UNL A   1      44.097  37.099  32.404  1.00  0.00     0.020 A 
ATOM     65  C   UNL A   1      43.884  37.299  33.769  1.00  0.00     0.054 A 
BRANCH  65  66
ATOM     66  S   UNL A   1      44.402  38.850  34.557  1.00  0.00     0.124 S 
ATOM     67  O   UNL A   1      45.712  39.074  33.953  1.00  0.00    -0.237 OA
ATOM     68  O   UNL A   1      43.354  39.783  34.149  1.00  0.00    -0.237 OA
ATOM     69  O   UNL A   1      44.418  38.525  35.981  1.00  0.00    -0.744 OA
ENDBRANCH  65  66
ENDBRANCH  39  60
ENDBRANCH  13  14
ENDBRANCH   6   8
ENDBRANCH   3   4
ENDBRANCH   2   3
ENDBRANCH   1   2
BRANCH   1  70
ATOM     70  C   UNL A   1      33.593  24.881  22.922  1.00  0.00     0.002 C 
BRANCH  70  71
ATOM     71  C   UNL A   1      33.527  26.031  21.909  1.00  0.00     0.021 C 
BRANCH  71  72
ATOM     72  C   UNL A   1      33.336  27.403  22.546  1.00  0.00     0.116 C 
BRANCH  72  73
ATOM     73  N   UNL A   1      32.082  27.985  22.119  1.00  0.00    -0.352 N 
ATOM     74  C   UNL A   1      30.850  27.792  22.672  1.00  0.00     0.251 C 
ATOM     75  H   UNL A   1      32.122  28.588  21.341  1.00  0.00     0.163 HD
ATOM     76  O   UNL A   1      29.833  28.253  22.176  1.00  0.00    -0.269 OA
BRANCH  74  77
ATOM     77  C   UNL A   1      30.770  27.044  23.931  1.00  0.00     0.041 A 
ATOM     78  C   UNL A   1      30.294  25.735  23.890  1.00  0.00     0.018 A 
ATOM     79  C   UNL A   1      31.194  27.627  25.125  1.00  0.00     0.038 A 
ATOM     80  C   UNL A   1      30.375  24.958  25.039  1.00  0.00     0.049 A 
ATOM     81  C   UNL A   1      31.259  26.840  26.275  1.00  0.00     0.083 A 
ATOM     82  C   UNL A   1      30.985  25.468  26.193  1.00  0.00     0.137 A 
ATOM     83  Cl  UNL A   1      31.635  27.640  27.760  1.00  0.00    -0.080 Cl
BRANCH  82  84
ATOM     84  O   UNL A   1      31.287  24.511  27.124  1.00  0.00    -0.492 OA
BRANCH  84  85
ATOM     85  C   UNL A   1      31.410  23.172  26.627  1.00  0.00     0.233 C 
BRANCH  85  86
ATOM     86  C   UNL A   1      32.778  22.709  26.072  1.00  0.00     0.030 C 
ATOM     87  C   UNL A   1      33.752  21.854  26.906  1.00  0.00     0.011 C 
ATOM     88  C   UNL A   1      32.693  21.902  24.742  1.00  0.00    -0.004 C 
ATOM     89  C   UNL A   1      34.116  20.695  25.957  1.00  0.00    -0.010 C 
ATOM     90  C   UNL A   1      31.949  20.571  24.930  1.00  0.00     0.004 C 
ATOM     91  C   UNL A   1      34.134  21.395  24.601  1.00  0.00     0.007 C 
ATOM     92  C   UNL A   1      32.906  19.759  25.811  1.00  0.00     0.004 C 
ENDBRANCH  85  86
ENDBRANCH  84  85
ENDBRANCH  82  84
ENDBRANCH  74  77
ENDBRANCH  72  73
ENDBRANCH  71  72
ENDBRANCH  70  71
ENDBRANCH   1  70
TORSDOF 19
ENDMDL
MODEL 3
REMARK VINA RESULT:     -10.8      3.244      9.921
REMARK SMILES O=C(NCCCCCCNC(=O)c1ccc(OC[C@H]2C[C@H]3CC[C@@H]2C3)c(Cl)c1)c1ccc(-c2c3nc(c(-c4ccc(S(=O)(=O)[O-])cc4)c4ccc([nH]4)c(-c4ccc(S(=O)(=O)[O-])cc4)c4nc(c(-c5ccc(S(=O)(=O)[O-])cc5)c5ccc2[nH]5)C=C4)C=C3)cc1
REMARK SMILES IDX 6 1 5 2 4 3 3 4 1 5 2 6 29 8 30 9 88 10 31 11 87 12 32 13
REMARK SMILES IDX 33 14 34 15 81 16 35 17 86 18 80 19 82 20 36 21 85 22 79 23
REMARK SMILES IDX 78 24 37 26 67 27 48 28 66 29 49 30 52 31 65 32 83 33 50 34
REMARK SMILES IDX 51 35 64 37 84 38 53 39 38 40 39 41 47 42 40 43 46 44 41 45
REMARK SMILES IDX 42 46 43 47 44 48 45 49 68 50 69 51 77 52 70 53 76 54 71 55
REMARK SMILES IDX 72 56 73 57 74 58 75 59 54 60 55 61 63 62 56 63 62 64 57 65
REMARK SMILES IDX 58 66 59 67 60 68 61 69 7 70 8 71 9 72 10 73 11 74 12 76
REMARK SMILES IDX 13 77 14 78 28 79 15 80 26 81 16 82 27 83 17 84 18 85 19 86
REMARK SMILES IDX 20 87 24 88 21 89 23 90 25 91 22 92
REMARK H PARENT 3 7 82 25 52 36 10 75
REMARK Flexibility Score: inf
ROOT
ATOM      1  C   UNL A   1      34.022  23.702  26.384  1.00  0.00     0.002 C 
ENDROOT
BRANCH   1   2
ATOM      2  C   UNL A   1      35.207  23.283  25.513  1.00  0.00     0.021 C 
BRANCH   2   3
ATOM      3  C   UNL A   1      36.547  23.861  25.945  1.00  0.00     0.116 C 
BRANCH   3   4
ATOM      4  N   UNL A   1      37.599  22.861  25.939  1.00  0.00    -0.352 N 
ATOM      5  O   UNL A   1      39.723  22.114  26.069  1.00  0.00    -0.269 OA
ATOM      6  C   UNL A   1      38.914  23.006  26.304  1.00  0.00     0.251 C 
ATOM      7  H   UNL A   1      37.335  21.963  25.635  1.00  0.00     0.163 HD
BRANCH   6   8
ATOM      8  C   UNL A   1      39.350  24.258  26.960  1.00  0.00     0.039 A 
ATOM      9  C   UNL A   1      40.074  25.219  26.248  1.00  0.00     0.014 A 
ATOM     10  C   UNL A   1      39.031  24.467  28.303  1.00  0.00     0.014 A 
ATOM     11  C   UNL A   1      40.573  26.337  26.907  1.00  0.00     0.010 A 
ATOM     12  C   UNL A   1      39.468  25.629  28.945  1.00  0.00     0.010 A 
ATOM     13  C   UNL A   1      40.259  26.562  28.258  1.00  0.00    -0.014 A 
BRANCH  13  14
ATOM     14  C   UNL A   1      40.701  27.820  28.909  1.00  0.00     0.031 A 
ATOM     15  C   UNL A   1      42.101  27.983  29.426  1.00  0.00     0.074 A 
ATOM     16  C   UNL A   1      39.816  28.830  29.015  1.00  0.00     0.049 A 
ATOM     17  N   UNL A   1      42.647  29.025  30.000  1.00  0.00    -0.248 NA
ATOM     18  C   UNL A   1      43.004  26.830  29.289  1.00  0.00     0.031 C 
ATOM     19  C   UNL A   1      38.425  28.784  28.554  1.00  0.00     0.029 A 
ATOM     20  N   UNL A   1      39.954  30.095  29.525  1.00  0.00    -0.354 N 
ATOM     21  C   UNL A   1      43.948  28.650  30.313  1.00  0.00     0.074 A 
ATOM     22  C   UNL A   1      44.104  27.276  29.882  1.00  0.00     0.031 C 
ATOM     23  C   UNL A   1      37.856  29.980  28.755  1.00  0.00     0.029 A 
ATOM     24  C   UNL A   1      38.816  30.858  29.413  1.00  0.00     0.049 A 
ATOM     25  H   UNL A   1      40.787  30.425  29.932  1.00  0.00     0.167 HD
ATOM     26  C   UNL A   1      44.922  29.385  30.904  1.00  0.00     0.031 A 
ATOM     27  C   UNL A   1      38.564  32.120  29.805  1.00  0.00     0.031 A 
ATOM     28  C   UNL A   1      44.757  30.748  31.337  1.00  0.00     0.049 A 
ATOM     29  C   UNL A   1      39.651  32.903  30.479  1.00  0.00     0.074 A 
ATOM     30  C   UNL A   1      45.693  31.587  31.919  1.00  0.00     0.029 A 
ATOM     31  N   UNL A   1      43.579  31.473  31.241  1.00  0.00    -0.354 N 
ATOM     32  N   UNL A   1      40.884  32.539  30.740  1.00  0.00    -0.248 NA
ATOM     33  C   UNL A   1      39.313  34.263  30.913  1.00  0.00     0.031 C 
ATOM     34  C   UNL A   1      45.066  32.803  32.217  1.00  0.00     0.029 A 
ATOM     35  C   UNL A   1      43.753  32.740  31.775  1.00  0.00     0.049 A 
ATOM     36  H   UNL A   1      42.740  31.136  30.850  1.00  0.00     0.167 HD
ATOM     37  C   UNL A   1      41.476  33.632  31.361  1.00  0.00     0.074 A 
ATOM     38  C   UNL A   1      40.469  34.674  31.418  1.00  0.00     0.031 C 
ATOM     39  C   UNL A   1      42.737  33.759  31.839  1.00  0.00     0.031 A 
BRANCH  26  40
ATOM     40  C   UNL A   1      46.246  28.708  31.151  1.00  0.00    -0.014 A 
ATOM     41  C   UNL A   1      47.277  28.754  30.195  1.00  0.00     0.010 A 
ATOM     42  C   UNL A   1      46.468  28.032  32.364  1.00  0.00     0.010 A 
ATOM     43  C   UNL A   1      48.487  28.092  30.428  1.00  0.00     0.020 A 
ATOM     44  C   UNL A   1      47.685  27.388  32.610  1.00  0.00     0.020 A 
ATOM     45  C   UNL A   1      48.679  27.404  31.630  1.00  0.00     0.054 A 
BRANCH  45  46
ATOM     46  S   UNL A   1      50.252  26.543  31.903  1.00  0.00     0.124 S 
ATOM     47  O   UNL A   1      49.938  25.192  31.442  1.00  0.00    -0.237 OA
ATOM     48  O   UNL A   1      51.181  27.292  31.061  1.00  0.00    -0.237 OA
ATOM     49  O   UNL A   1      50.475  26.675  33.340  1.00  0.00    -0.744 OA
ENDBRANCH  45  46
ENDBRANCH  26  40
BRANCH  27  50
ATOM     50  C   UNL A   1      37.221  32.705  29.558  1.00  0.00    -0.014 A 
ATOM     51  C   UNL A   1      36.252  32.716  30.576  1.00  0.00     0.010 A 
ATOM     52  C   UNL A   1      36.929  33.314  28.324  1.00  0.00     0.010 A 
ATOM     53  C   UNL A   1      35.015  33.329  30.365  1.00  0.00     0.020 A 
ATOM     54  C   UNL A   1      35.702  33.949  28.118  1.00  0.00     0.020 A 
ATOM     55  C   UNL A   1      34.751  33.948  29.140  1.00  0.00     0.054 A 
BRANCH  55  56
ATOM     56  S   UNL A   1      33.172  34.816  28.919  1.00  0.00     0.124 S 
ATOM     57  O   UNL A   1      32.616  34.783  30.268  1.00  0.00    -0.237 OA
ATOM     58  O   UNL A   1      33.598  36.131  28.442  1.00  0.00    -0.237 OA
ATOM     59  O   UNL A   1      32.471  34.001  27.929  1.00  0.00    -0.744 OA
ENDBRANCH  55  56
ENDBRANCH  27  50
BRANCH  39  60
ATOM     60  C   UNL A   1      43.102  35.082  32.454  1.00  0.00    -0.014 A 
ATOM     61  C   UNL A   1      43.614  36.130  31.668  1.00  0.00     0.010 A 
ATOM     62  C   UNL A   1      42.898  35.290  33.829  1.00  0.00     0.010 A 
ATOM     63  C   UNL A   1      43.944  37.354  32.253  1.00  0.00     0.020 A 
ATOM     64  C   UNL A   1      43.206  36.521  34.414  1.00  0.00     0.020 A 
ATOM     65  C   UNL A   1      43.741  37.540  33.624  1.00  0.00     0.054 A 
BRANCH  65  66
ATOM     66  S   UNL A   1      44.142  39.150  34.359  1.00  0.00     0.124 S 
ATOM     67  O   UNL A   1      44.086  38.854  35.787  1.00  0.00    -0.237 OA
ATOM     68  O   UNL A   1      45.474  39.424  33.825  1.00  0.00    -0.237 OA
ATOM     69  O   UNL A   1      43.086  40.029  33.861  1.00  0.00    -0.744 OA
ENDBRANCH  65  66
ENDBRANCH  39  60
ENDBRANCH  13  14
ENDBRANCH   6   8
ENDBRANCH   3   4
ENDBRANCH   2   3
ENDBRANCH   1   2
BRANCH   1  70
ATOM     70  C   UNL A   1      32.897  22.667  26.498  1.00  0.00     0.002 C 
BRANCH  70  71
ATOM     71  C   UNL A   1      32.819  21.655  25.348  1.00  0.00     0.021 C 
BRANCH  71  72
ATOM     72  C   UNL A   1      31.940  22.107  24.188  1.00  0.00     0.116 C 
BRANCH  72  73
ATOM     73  N   UNL A   1      32.735  22.272  22.990  1.00  0.00    -0.352 N 
ATOM     74  C   UNL A   1      33.006  23.435  22.331  1.00  0.00     0.251 C 
ATOM     75  H   UNL A   1      33.124  21.453  22.607  1.00  0.00     0.163 HD
ATOM     76  O   UNL A   1      33.608  23.457  21.268  1.00  0.00    -0.269 OA
BRANCH  74  77
ATOM     77  C   UNL A   1      32.594  24.695  22.960  1.00  0.00     0.041 A 
ATOM     78  C   UNL A   1      33.579  25.630  23.267  1.00  0.00     0.018 A 
ATOM     79  C   UNL A   1      31.245  24.950  23.208  1.00  0.00     0.038 A 
ATOM     80  C   UNL A   1      33.191  26.892  23.702  1.00  0.00     0.049 A 
ATOM     81  C   UNL A   1      30.868  26.216  23.655  1.00  0.00     0.083 A 
ATOM     82  C   UNL A   1      31.832  27.228  23.762  1.00  0.00     0.137 A 
ATOM     83  Cl  UNL A   1      29.213  26.437  24.100  1.00  0.00    -0.080 Cl
BRANCH  82  84
ATOM     84  O   UNL A   1      31.603  28.572  23.886  1.00  0.00    -0.492 OA
BRANCH  84  85
ATOM     85  C   UNL A   1      30.650  29.130  22.971  1.00  0.00     0.233 C 
BRANCH  85  86
ATOM     86  C   UNL A   1      29.410  29.857  23.544  1.00  0.00     0.030 C 
ATOM     87  C   UNL A   1      29.446  31.345  23.943  1.00  0.00     0.011 C 
ATOM     88  C   UNL A   1      28.150  29.797  22.630  1.00  0.00    -0.004 C 
ATOM     89  C   UNL A   1      28.209  31.937  23.238  1.00  0.00    -0.010 C 
ATOM     90  C   UNL A   1      28.375  30.531  21.299  1.00  0.00     0.004 C 
ATOM     91  C   UNL A   1      27.213  30.785  23.336  1.00  0.00     0.007 C 
ATOM     92  C   UNL A   1      28.468  32.001  21.725  1.00  0.00     0.004 C 
ENDBRANCH  85  86
ENDBRANCH  84  85
ENDBRANCH  82  84
ENDBRANCH  74  77
ENDBRANCH  72  73
ENDBRANCH  71  72
ENDBRANCH  70  71
ENDBRANCH   1  70
TORSDOF 19
ENDMDL
