MODEL 1
REMARK VINA RESULT:     -10.6      0.000      0.000
REMARK SMILES CC(C)C[C@H](NC(=O)CNC(=O)[C@@H](NC(=O)OCc1ccccc1)C(C)C)C(=O)NCCCCCCNC(=O)c1ccc(-c2c3nc(c(-c4ccc(S(=O)(=O)[O-])cc4)c4ccc([nH]4)c(-c4ccc(S(=O)(=O)[O-])cc4)c4nc(c(-c5ccc(S(=O)(=O)[O-])cc5)c5ccc2[nH]5)C=C4)C=C3)cc1
REMARK SMILES IDX 31 1 30 2 28 3 29 4 5 6 4 7 2 8 1 9 3 10 6 11 7 12 8 14 9 15
REMARK SMILES IDX 10 16 11 17 12 19 13 20 14 21 15 22 16 24 17 25 18 26 19 27
REMARK SMILES IDX 20 28 24 29 21 30 23 31 22 32 25 33 26 34 27 35 32 36 33 37
REMARK SMILES IDX 34 38 35 39 36 40 37 41 38 42 39 44 40 45 41 46 99 47 42 48
REMARK SMILES IDX 98 49 43 50 44 51 45 52 92 53 46 54 97 55 91 56 93 57 47 58
REMARK SMILES IDX 96 59 90 60 89 61 48 63 78 64 59 65 77 66 60 67 63 68 76 69
REMARK SMILES IDX 94 70 61 71 62 72 75 74 95 75 64 76 49 77 50 78 58 79 51 80
REMARK SMILES IDX 57 81 52 82 53 83 54 84 55 85 56 86 79 87 80 88 88 89 81 90
REMARK SMILES IDX 87 91 82 92 83 93 84 94 85 95 86 96 65 97 66 98 74 99 67 100
REMARK SMILES IDX 73 101 68 102 69 103 70 104 71 105 72 106
REMARK H PARENT 30 5 6 13 10 18 14 23 37 43 93 62 63 73
REMARK Flexibility Score: inf
ROOT
ATOM      1  C   UNL A   1      36.993  21.459  25.017  1.00  0.00     0.116 C 
ENDROOT
BRANCH   1   2
ATOM      2  N   UNL A   1      36.069  21.452  26.133  1.00  0.00    -0.354 N 
ATOM      3  C   UNL A   1      34.734  21.199  26.130  1.00  0.00     0.242 C 
ATOM      4  O   UNL A   1      34.104  21.310  27.184  1.00  0.00    -0.273 OA
ATOM      5  H   UNL A   1      36.463  21.658  27.012  1.00  0.00     0.163 HD
BRANCH   3   6
ATOM      6  C   UNL A   1      34.057  20.740  24.841  1.00  0.00     0.171 C 
BRANCH   6   7
ATOM      7  C   UNL A   1      34.370  19.283  24.476  1.00  0.00     0.038 C 
BRANCH   7   8
ATOM      8  C   UNL A   1      33.320  18.236  24.033  1.00  0.00    -0.015 C 
ATOM      9  C   UNL A   1      32.314  18.734  23.000  1.00  0.00     0.007 C 
ATOM     10  C   UNL A   1      34.024  17.005  23.435  1.00  0.00     0.007 C 
ENDBRANCH   7   8
ENDBRANCH   6   7
BRANCH   6  11
ATOM     11  N   UNL A   1      34.173  21.860  23.861  1.00  0.00    -0.343 N 
ATOM     12  C   UNL A   1      33.999  23.179  23.653  1.00  0.00     0.240 C 
ATOM     13  H   UNL A   1      34.521  21.478  23.024  1.00  0.00     0.164 HD
ATOM     14  O   UNL A   1      34.200  23.522  22.474  1.00  0.00    -0.273 OA
BRANCH  12  15
ATOM     15  C   UNL A   1      33.730  24.300  24.663  1.00  0.00     0.216 C 
BRANCH  15  16
ATOM     16  N   UNL A   1      33.139  24.052  25.953  1.00  0.00    -0.345 N 
ATOM     17  C   UNL A   1      31.891  24.255  26.442  1.00  0.00     0.243 C 
ATOM     18  H   UNL A   1      33.762  23.660  26.606  1.00  0.00     0.164 HD
ATOM     19  O   UNL A   1      31.654  23.638  27.489  1.00  0.00    -0.273 OA
BRANCH  17  20
ATOM     20  C   UNL A   1      30.818  25.231  25.835  1.00  0.00     0.177 C 
BRANCH  20  21
ATOM     21  N   UNL A   1      30.525  26.446  26.594  1.00  0.00    -0.309 N 
ATOM     22  C   UNL A   1      31.244  27.547  26.903  1.00  0.00     0.408 C 
ATOM     23  H   UNL A   1      29.609  26.467  26.956  1.00  0.00     0.167 HD
ATOM     24  O   UNL A   1      30.864  28.272  27.807  1.00  0.00    -0.225 OA
BRANCH  22  25
ATOM     25  O   UNL A   1      32.349  27.708  26.143  1.00  0.00    -0.445 OA
BRANCH  25  26
ATOM     26  C   UNL A   1      33.590  27.624  26.861  1.00  0.00     0.270 C 
BRANCH  26  27
ATOM     27  C   UNL A   1      34.205  28.990  27.061  1.00  0.00    -0.011 A 
ATOM     28  C   UNL A   1      35.591  29.116  27.237  1.00  0.00     0.007 A 
ATOM     29  C   UNL A   1      33.395  30.124  27.212  1.00  0.00     0.007 A 
ATOM     30  C   UNL A   1      36.153  30.341  27.593  1.00  0.00     0.000 A 
ATOM     31  C   UNL A   1      33.960  31.350  27.562  1.00  0.00     0.000 A 
ATOM     32  C   UNL A   1      35.336  31.456  27.759  1.00  0.00     0.000 A 
ENDBRANCH  26  27
ENDBRANCH  25  26
ENDBRANCH  22  25
ENDBRANCH  20  21
BRANCH  20  33
ATOM     33  C   UNL A   1      30.905  25.406  24.304  1.00  0.00     0.015 C 
ATOM     34  C   UNL A   1      30.429  24.150  23.558  1.00  0.00     0.010 C 
ATOM     35  C   UNL A   1      30.023  26.570  23.826  1.00  0.00     0.010 C 
ENDBRANCH  20  33
ENDBRANCH  17  20
ENDBRANCH  15  16
ENDBRANCH  12  15
ENDBRANCH   6  11
ENDBRANCH   3   6
ENDBRANCH   1   2
BRANCH   1  36
ATOM     36  C   UNL A   1      38.373  21.020  25.463  1.00  0.00     0.021 C 
BRANCH  36  37
ATOM     37  C   UNL A   1      39.079  22.103  26.281  1.00  0.00     0.002 C 
BRANCH  37  38
ATOM     38  C   UNL A   1      40.539  21.779  26.626  1.00  0.00     0.002 C 
BRANCH  38  39
ATOM     39  C   UNL A   1      41.059  22.479  27.885  1.00  0.00     0.021 C 
BRANCH  39  40
ATOM     40  C   UNL A   1      42.160  23.494  27.609  1.00  0.00     0.116 C 
BRANCH  40  41
ATOM     41  N   UNL A   1      41.856  24.304  26.441  1.00  0.00    -0.352 N 
ATOM     42  C   UNL A   1      41.330  25.566  26.380  1.00  0.00     0.251 C 
ATOM     43  H   UNL A   1      42.057  23.887  25.573  1.00  0.00     0.163 HD
ATOM     44  O   UNL A   1      40.926  26.015  25.313  1.00  0.00    -0.269 OA
BRANCH  42  45
ATOM     45  C   UNL A   1      41.244  26.363  27.615  1.00  0.00     0.039 A 
ATOM     46  C   UNL A   1      42.217  27.331  27.860  1.00  0.00     0.014 A 
ATOM     47  C   UNL A   1      40.193  26.161  28.516  1.00  0.00     0.014 A 
ATOM     48  C   UNL A   1      42.110  28.132  28.994  1.00  0.00     0.010 A 
ATOM     49  C   UNL A   1      40.042  27.016  29.598  1.00  0.00     0.010 A 
ATOM     50  C   UNL A   1      41.006  28.003  29.854  1.00  0.00    -0.014 A 
BRANCH  50  51
ATOM     51  C   UNL A   1      40.843  28.902  31.020  1.00  0.00     0.031 A 
ATOM     52  C   UNL A   1      39.784  29.970  31.011  1.00  0.00     0.074 A 
ATOM     53  C   UNL A   1      41.682  28.782  32.067  1.00  0.00     0.049 A 
ATOM     54  N   UNL A   1      39.499  30.851  31.934  1.00  0.00    -0.248 NA
ATOM     55  C   UNL A   1      38.953  30.076  29.800  1.00  0.00     0.031 C 
ATOM     56  C   UNL A   1      42.776  27.811  32.167  1.00  0.00     0.029 A 
ATOM     57  N   UNL A   1      41.746  29.476  33.247  1.00  0.00    -0.354 N 
ATOM     58  C   UNL A   1      38.467  31.622  31.413  1.00  0.00     0.074 A 
ATOM     59  C   UNL A   1      38.216  31.143  30.072  1.00  0.00     0.031 C 
ATOM     60  C   UNL A   1      43.373  27.944  33.361  1.00  0.00     0.029 A 
ATOM     61  C   UNL A   1      42.740  29.038  34.091  1.00  0.00     0.049 A 
ATOM     62  H   UNL A   1      41.138  30.217  33.471  1.00  0.00     0.167 HD
ATOM     63  C   UNL A   1      37.776  32.625  32.007  1.00  0.00     0.031 A 
ATOM     64  C   UNL A   1      43.105  29.471  35.312  1.00  0.00     0.031 A 
ATOM     65  C   UNL A   1      38.038  33.097  33.341  1.00  0.00     0.049 A 
ATOM     66  C   UNL A   1      42.339  30.602  35.941  1.00  0.00     0.074 A 
ATOM     67  C   UNL A   1      37.363  34.070  34.055  1.00  0.00     0.029 A 
ATOM     68  N   UNL A   1      39.060  32.637  34.159  1.00  0.00    -0.354 N 
ATOM     69  N   UNL A   1      41.315  31.270  35.463  1.00  0.00    -0.248 NA
ATOM     70  C   UNL A   1      42.771  31.031  37.277  1.00  0.00     0.031 C 
ATOM     71  C   UNL A   1      38.020  34.249  35.277  1.00  0.00     0.029 A 
ATOM     72  C   UNL A   1      39.057  33.333  35.356  1.00  0.00     0.049 A 
ATOM     73  H   UNL A   1      39.695  31.922  33.922  1.00  0.00     0.167 HD
ATOM     74  C   UNL A   1      40.963  32.182  36.453  1.00  0.00     0.074 A 
ATOM     75  C   UNL A   1      41.872  31.963  37.560  1.00  0.00     0.031 C 
ATOM     76  C   UNL A   1      39.977  33.112  36.447  1.00  0.00     0.031 A 
BRANCH  63  77
ATOM     77  C   UNL A   1      36.684  33.288  31.206  1.00  0.00    -0.014 A 
ATOM     78  C   UNL A   1      36.973  34.008  30.031  1.00  0.00     0.010 A 
ATOM     79  C   UNL A   1      35.344  33.165  31.617  1.00  0.00     0.010 A 
ATOM     80  C   UNL A   1      35.949  34.634  29.313  1.00  0.00     0.020 A 
ATOM     81  C   UNL A   1      34.314  33.760  30.883  1.00  0.00     0.020 A 
ATOM     82  C   UNL A   1      34.626  34.507  29.746  1.00  0.00     0.054 A 
BRANCH  82  83
ATOM     83  S   UNL A   1      33.318  35.318  28.786  1.00  0.00     0.124 S 
ATOM     84  O   UNL A   1      34.082  36.265  27.977  1.00  0.00    -0.237 OA
ATOM     85  O   UNL A   1      32.723  34.203  28.053  1.00  0.00    -0.237 OA
ATOM     86  O   UNL A   1      32.462  35.920  29.805  1.00  0.00    -0.744 OA
ENDBRANCH  82  83
ENDBRANCH  63  77
BRANCH  64  87
ATOM     87  C   UNL A   1      44.237  28.816  36.022  1.00  0.00    -0.014 A 
ATOM     88  C   UNL A   1      45.550  29.291  35.867  1.00  0.00     0.010 A 
ATOM     89  C   UNL A   1      44.002  27.727  36.883  1.00  0.00     0.010 A 
ATOM     90  C   UNL A   1      46.609  28.683  36.548  1.00  0.00     0.020 A 
ATOM     91  C   UNL A   1      45.053  27.137  37.590  1.00  0.00     0.020 A 
ATOM     92  C   UNL A   1      46.352  27.613  37.409  1.00  0.00     0.054 A 
BRANCH  92  93
ATOM     93  S   UNL A   1      47.734  26.880  38.329  1.00  0.00     0.124 S 
ATOM     94  O   UNL A   1      48.246  28.028  39.073  1.00  0.00    -0.237 OA
ATOM     95  O   UNL A   1      47.070  25.853  39.127  1.00  0.00    -0.237 OA
ATOM     96  O   UNL A   1      48.613  26.372  37.279  1.00  0.00    -0.744 OA
ENDBRANCH  92  93
ENDBRANCH  64  87
BRANCH  76  97
ATOM     97  C   UNL A   1      39.808  33.950  37.687  1.00  0.00    -0.014 A 
ATOM     98  C   UNL A   1      39.002  33.522  38.757  1.00  0.00     0.010 A 
ATOM     99  C   UNL A   1      40.509  35.166  37.801  1.00  0.00     0.010 A 
ATOM    100  C   UNL A   1      38.872  34.312  39.902  1.00  0.00     0.020 A 
ATOM    101  C   UNL A   1      40.408  35.942  38.959  1.00  0.00     0.020 A 
ATOM    102  C   UNL A   1      39.576  35.516  39.996  1.00  0.00     0.054 A 
BRANCH 102 103
ATOM    103  S   UNL A   1      39.419  36.502  41.509  1.00  0.00     0.124 S 
ATOM    104  O   UNL A   1      39.000  37.800  40.985  1.00  0.00    -0.237 OA
ATOM    105  O   UNL A   1      38.403  35.772  42.262  1.00  0.00    -0.237 OA
ATOM    106  O   UNL A   1      40.760  36.469  42.087  1.00  0.00    -0.744 OA
ENDBRANCH 102 103
ENDBRANCH  76  97
ENDBRANCH  50  51
ENDBRANCH  42  45
ENDBRANCH  40  41
ENDBRANCH  39  40
ENDBRANCH  38  39
ENDBRANCH  37  38
ENDBRANCH  36  37
ENDBRANCH   1  36
TORSDOF 27
ENDMDL
MODEL 2
REMARK VINA RESULT:     -10.1      1.570      2.542
REMARK SMILES CC(C)C[C@H](NC(=O)CNC(=O)[C@@H](NC(=O)OCc1ccccc1)C(C)C)C(=O)NCCCCCCNC(=O)c1ccc(-c2c3nc(c(-c4ccc(S(=O)(=O)[O-])cc4)c4ccc([nH]4)c(-c4ccc(S(=O)(=O)[O-])cc4)c4nc(c(-c5ccc(S(=O)(=O)[O-])cc5)c5ccc2[nH]5)C=C4)C=C3)cc1
REMARK SMILES IDX 31 1 30 2 28 3 29 4 5 6 4 7 2 8 1 9 3 10 6 11 7 12 8 14 9 15
REMARK SMILES IDX 10 16 11 17 12 19 13 20 14 21 15 22 16 24 17 25 18 26 19 27
REMARK SMILES IDX 20 28 24 29 21 30 23 31 22 32 25 33 26 34 27 35 32 36 33 37
REMARK SMILES IDX 34 38 35 39 36 40 37 41 38 42 39 44 40 45 41 46 99 47 42 48
REMARK SMILES IDX 98 49 43 50 44 51 45 52 92 53 46 54 97 55 91 56 93 57 47 58
REMARK SMILES IDX 96 59 90 60 89 61 48 63 78 64 59 65 77 66 60 67 63 68 76 69
REMARK SMILES IDX 94 70 61 71 62 72 75 74 95 75 64 76 49 77 50 78 58 79 51 80
REMARK SMILES IDX 57 81 52 82 53 83 54 84 55 85 56 86 79 87 80 88 88 89 81 90
REMARK SMILES IDX 87 91 82 92 83 93 84 94 85 95 86 96 65 97 66 98 74 99 67 100
REMARK SMILES IDX 73 101 68 102 69 103 70 104 71 105 72 106
REMARK H PARENT 30 5 6 13 10 18 14 23 37 43 93 62 63 73
REMARK Flexibility Score: inf
ROOT
ATOM      1  C   UNL A   1      36.761  20.844  25.115  1.00  0.00     0.116 C 
ENDROOT
BRANCH   1   2
ATOM      2  N   UNL A   1      35.794  21.149  26.149  1.00  0.00    -0.354 N 
ATOM      3  C   UNL A   1      34.438  21.123  26.082  1.00  0.00     0.242 C 
ATOM      4  O   UNL A   1      33.783  21.486  27.061  1.00  0.00    -0.273 OA
ATOM      5  H   UNL A   1      36.172  21.411  27.020  1.00  0.00     0.163 HD
BRANCH   3   6
ATOM      6  C   UNL A   1      33.757  20.602  24.818  1.00  0.00     0.171 C 
BRANCH   6   7
ATOM      7  C   UNL A   1      34.127  19.152  24.482  1.00  0.00     0.038 C 
BRANCH   7   8
ATOM      8  C   UNL A   1      33.143  18.092  23.929  1.00  0.00    -0.015 C 
ATOM      9  C   UNL A   1      33.802  16.894  23.255  1.00  0.00     0.007 C 
ATOM     10  C   UNL A   1      32.258  17.552  25.068  1.00  0.00     0.007 C 
ENDBRANCH   7   8
ENDBRANCH   6   7
BRANCH   6  11
ATOM     11  N   UNL A   1      33.805  21.701  23.809  1.00  0.00    -0.343 N 
ATOM     12  C   UNL A   1      33.083  22.529  23.031  1.00  0.00     0.240 C 
ATOM     13  H   UNL A   1      34.754  21.903  23.645  1.00  0.00     0.164 HD
ATOM     14  O   UNL A   1      33.780  23.213  22.260  1.00  0.00    -0.273 OA
BRANCH  12  15
ATOM     15  C   UNL A   1      31.581  22.836  23.061  1.00  0.00     0.216 C 
BRANCH  15  16
ATOM     16  N   UNL A   1      31.050  24.131  22.720  1.00  0.00    -0.345 N 
ATOM     17  C   UNL A   1      31.426  25.390  23.052  1.00  0.00     0.243 C 
ATOM     18  H   UNL A   1      30.262  24.094  22.132  1.00  0.00     0.164 HD
ATOM     19  O   UNL A   1      30.936  26.268  22.330  1.00  0.00    -0.273 OA
BRANCH  17  20
ATOM     20  C   UNL A   1      32.329  25.782  24.278  1.00  0.00     0.177 C 
BRANCH  20  21
ATOM     21  N   UNL A   1      33.049  27.052  24.191  1.00  0.00    -0.309 N 
ATOM     22  C   UNL A   1      32.657  28.337  24.057  1.00  0.00     0.408 C 
ATOM     23  H   UNL A   1      34.027  26.948  24.240  1.00  0.00     0.167 HD
ATOM     24  O   UNL A   1      33.469  29.173  23.700  1.00  0.00    -0.225 OA
BRANCH  22  25
ATOM     25  O   UNL A   1      31.351  28.541  24.340  1.00  0.00    -0.445 OA
BRANCH  25  26
ATOM     26  C   UNL A   1      30.998  29.911  24.591  1.00  0.00     0.270 C 
BRANCH  26  27
ATOM     27  C   UNL A   1      29.718  30.289  23.883  1.00  0.00    -0.011 A 
ATOM     28  C   UNL A   1      29.078  29.359  23.049  1.00  0.00     0.007 A 
ATOM     29  C   UNL A   1      29.230  31.601  23.936  1.00  0.00     0.007 A 
ATOM     30  C   UNL A   1      27.997  29.742  22.257  1.00  0.00     0.000 A 
ATOM     31  C   UNL A   1      28.144  31.981  23.147  1.00  0.00     0.000 A 
ATOM     32  C   UNL A   1      27.534  31.054  22.304  1.00  0.00     0.000 A 
ENDBRANCH  26  27
ENDBRANCH  25  26
ENDBRANCH  22  25
ENDBRANCH  20  21
BRANCH  20  33
ATOM     33  C   UNL A   1      31.713  25.459  25.656  1.00  0.00     0.015 C 
ATOM     34  C   UNL A   1      32.223  26.412  26.748  1.00  0.00     0.010 C 
ATOM     35  C   UNL A   1      30.182  25.594  25.627  1.00  0.00     0.010 C 
ENDBRANCH  20  33
ENDBRANCH  17  20
ENDBRANCH  15  16
ENDBRANCH  12  15
ENDBRANCH   6  11
ENDBRANCH   3   6
ENDBRANCH   1   2
BRANCH   1  36
ATOM     36  C   UNL A   1      38.049  21.607  25.344  1.00  0.00     0.021 C 
BRANCH  36  37
ATOM     37  C   UNL A   1      37.787  23.052  25.772  1.00  0.00     0.002 C 
BRANCH  37  38
ATOM     38  C   UNL A   1      38.836  23.624  26.735  1.00  0.00     0.002 C 
BRANCH  38  39
ATOM     39  C   UNL A   1      40.065  22.730  26.931  1.00  0.00     0.021 C 
BRANCH  39  40
ATOM     40  C   UNL A   1      41.354  23.505  27.164  1.00  0.00     0.116 C 
BRANCH  40  41
ATOM     41  N   UNL A   1      41.652  24.389  26.049  1.00  0.00    -0.352 N 
ATOM     42  C   UNL A   1      41.630  25.756  26.003  1.00  0.00     0.251 C 
ATOM     43  H   UNL A   1      41.905  23.941  25.209  1.00  0.00     0.163 HD
ATOM     44  O   UNL A   1      41.687  26.339  24.925  1.00  0.00    -0.269 OA
BRANCH  42  45
ATOM     45  C   UNL A   1      41.521  26.510  27.263  1.00  0.00     0.039 A 
ATOM     46  C   UNL A   1      42.487  27.471  27.558  1.00  0.00     0.014 A 
ATOM     47  C   UNL A   1      40.455  26.276  28.138  1.00  0.00     0.014 A 
ATOM     48  C   UNL A   1      42.360  28.232  28.717  1.00  0.00     0.010 A 
ATOM     49  C   UNL A   1      40.284  27.093  29.247  1.00  0.00     0.010 A 
ATOM     50  C   UNL A   1      41.241  28.071  29.553  1.00  0.00    -0.014 A 
BRANCH  50  51
ATOM     51  C   UNL A   1      41.057  28.930  30.747  1.00  0.00     0.031 A 
ATOM     52  C   UNL A   1      39.965  29.964  30.774  1.00  0.00     0.074 A 
ATOM     53  C   UNL A   1      41.905  28.804  31.785  1.00  0.00     0.049 A 
ATOM     54  N   UNL A   1      39.657  30.808  31.725  1.00  0.00    -0.248 NA
ATOM     55  C   UNL A   1      39.125  30.081  29.571  1.00  0.00     0.031 C 
ATOM     56  C   UNL A   1      43.028  27.865  31.851  1.00  0.00     0.029 A 
ATOM     57  N   UNL A   1      41.953  29.464  32.986  1.00  0.00    -0.354 N 
ATOM     58  C   UNL A   1      38.599  31.561  31.232  1.00  0.00     0.074 A 
ATOM     59  C   UNL A   1      38.357  31.116  29.878  1.00  0.00     0.031 C 
ATOM     60  C   UNL A   1      43.627  27.981  33.046  1.00  0.00     0.029 A 
ATOM     61  C   UNL A   1      42.964  29.032  33.811  1.00  0.00     0.049 A 
ATOM     62  H   UNL A   1      41.323  30.179  33.234  1.00  0.00     0.167 HD
ATOM     63  C   UNL A   1      37.881  32.524  31.859  1.00  0.00     0.031 A 
ATOM     64  C   UNL A   1      43.322  29.439  35.044  1.00  0.00     0.031 A 
ATOM     65  C   UNL A   1      38.135  32.963  33.205  1.00  0.00     0.049 A 
ATOM     66  C   UNL A   1      42.525  30.527  35.710  1.00  0.00     0.074 A 
ATOM     67  C   UNL A   1      37.434  33.893  33.952  1.00  0.00     0.029 A 
ATOM     68  N   UNL A   1      39.175  32.511  34.004  1.00  0.00    -0.354 N 
ATOM     69  N   UNL A   1      41.479  31.176  35.257  1.00  0.00    -0.248 NA
ATOM     70  C   UNL A   1      42.950  30.928  37.057  1.00  0.00     0.031 C 
ATOM     71  C   UNL A   1      38.092  34.055  35.175  1.00  0.00     0.029 A 
ATOM     72  C   UNL A   1      39.157  33.170  35.222  1.00  0.00     0.049 A 
ATOM     73  H   UNL A   1      39.830  31.824  33.743  1.00  0.00     0.167 HD
ATOM     74  C   UNL A   1      41.103  32.046  36.275  1.00  0.00     0.074 A 
ATOM     75  C   UNL A   1      42.024  31.823  37.372  1.00  0.00     0.031 C 
ATOM     76  C   UNL A   1      40.088  32.945  36.301  1.00  0.00     0.031 A 
BRANCH  63  77
ATOM     77  C   UNL A   1      36.765  33.176  31.082  1.00  0.00    -0.014 A 
ATOM     78  C   UNL A   1      37.031  34.023  29.990  1.00  0.00     0.010 A 
ATOM     79  C   UNL A   1      35.427  32.917  31.432  1.00  0.00     0.010 A 
ATOM     80  C   UNL A   1      35.983  34.635  29.296  1.00  0.00     0.020 A 
ATOM     81  C   UNL A   1      34.376  33.500  30.720  1.00  0.00     0.020 A 
ATOM     82  C   UNL A   1      34.662  34.371  29.667  1.00  0.00     0.054 A 
BRANCH  82  83
ATOM     83  S   UNL A   1      33.323  35.169  28.739  1.00  0.00     0.124 S 
ATOM     84  O   UNL A   1      34.056  36.142  27.932  1.00  0.00    -0.237 OA
ATOM     85  O   UNL A   1      32.740  34.054  27.999  1.00  0.00    -0.237 OA
ATOM     86  O   UNL A   1      32.471  35.740  29.779  1.00  0.00    -0.744 OA
ENDBRANCH  82  83
ENDBRANCH  63  77
BRANCH  64  87
ATOM     87  C   UNL A   1      44.478  28.799  35.729  1.00  0.00    -0.014 A 
ATOM     88  C   UNL A   1      44.271  27.839  36.736  1.00  0.00     0.010 A 
ATOM     89  C   UNL A   1      45.795  29.124  35.356  1.00  0.00     0.010 A 
ATOM     90  C   UNL A   1      45.359  27.229  37.366  1.00  0.00     0.020 A 
ATOM     91  C   UNL A   1      46.885  28.492  35.961  1.00  0.00     0.020 A 
ATOM     92  C   UNL A   1      46.659  27.555  36.970  1.00  0.00     0.054 A 
BRANCH  92  93
ATOM     93  S   UNL A   1      48.053  26.703  37.759  1.00  0.00     0.124 S 
ATOM     94  O   UNL A   1      48.303  25.605  36.830  1.00  0.00    -0.237 OA
ATOM     95  O   UNL A   1      49.075  27.745  37.799  1.00  0.00    -0.237 OA
ATOM     96  O   UNL A   1      47.522  26.311  39.063  1.00  0.00    -0.744 OA
ENDBRANCH  92  93
ENDBRANCH  64  87
BRANCH  76  97
ATOM     97  C   UNL A   1      39.901  33.740  37.567  1.00  0.00    -0.014 A 
ATOM     98  C   UNL A   1      40.541  34.978  37.757  1.00  0.00     0.010 A 
ATOM     99  C   UNL A   1      39.030  33.260  38.563  1.00  0.00     0.010 A 
ATOM    100  C   UNL A   1      40.340  35.702  38.936  1.00  0.00     0.020 A 
ATOM    101  C   UNL A   1      38.801  33.997  39.727  1.00  0.00     0.020 A 
ATOM    102  C   UNL A   1      39.471  35.208  39.912  1.00  0.00     0.054 A 
BRANCH 102 103
ATOM    103  S   UNL A   1      39.201  36.187  41.414  1.00  0.00     0.124 S 
ATOM    104  O   UNL A   1      38.753  37.465  40.867  1.00  0.00    -0.237 OA
ATOM    105  O   UNL A   1      38.182  35.414  42.120  1.00  0.00    -0.237 OA
ATOM    106  O   UNL A   1      40.513  36.211  42.055  1.00  0.00    -0.744 OA
ENDBRANCH 102 103
ENDBRANCH  76  97
ENDBRANCH  50  51
ENDBRANCH  42  45
ENDBRANCH  40  41
ENDBRANCH  39  40
ENDBRANCH  38  39
ENDBRANCH  37  38
ENDBRANCH  36  37
ENDBRANCH   1  36
TORSDOF 27
ENDMDL
MODEL 3
REMARK VINA RESULT:     -10.0      1.039      7.760
REMARK SMILES CC(C)C[C@H](NC(=O)CNC(=O)[C@@H](NC(=O)OCc1ccccc1)C(C)C)C(=O)NCCCCCCNC(=O)c1ccc(-c2c3nc(c(-c4ccc(S(=O)(=O)[O-])cc4)c4ccc([nH]4)c(-c4ccc(S(=O)(=O)[O-])cc4)c4nc(c(-c5ccc(S(=O)(=O)[O-])cc5)c5ccc2[nH]5)C=C4)C=C3)cc1
REMARK SMILES IDX 31 1 30 2 28 3 29 4 5 6 4 7 2 8 1 9 3 10 6 11 7 12 8 14 9 15
REMARK SMILES IDX 10 16 11 17 12 19 13 20 14 21 15 22 16 24 17 25 18 26 19 27
REMARK SMILES IDX 20 28 24 29 21 30 23 31 22 32 25 33 26 34 27 35 32 36 33 37
REMARK SMILES IDX 34 38 35 39 36 40 37 41 38 42 39 44 40 45 41 46 99 47 42 48
REMARK SMILES IDX 98 49 43 50 44 51 45 52 92 53 46 54 97 55 91 56 93 57 47 58
REMARK SMILES IDX 96 59 90 60 89 61 48 63 78 64 59 65 77 66 60 67 63 68 76 69
REMARK SMILES IDX 94 70 61 71 62 72 75 74 95 75 64 76 49 77 50 78 58 79 51 80
REMARK SMILES IDX 57 81 52 82 53 83 54 84 55 85 56 86 79 87 80 88 88 89 81 90
REMARK SMILES IDX 87 91 82 92 83 93 84 94 85 95 86 96 65 97 66 98 74 99 67 100
REMARK SMILES IDX 73 101 68 102 69 103 70 104 71 105 72 106
REMARK H PARENT 30 5 6 13 10 18 14 23 37 43 93 62 63 73
REMARK Flexibility Score: inf
ROOT
ATOM      1  C   UNL A   1      36.084  21.638  24.375  1.00  0.00     0.116 C 
ENDROOT
BRANCH   1   2
ATOM      2  N   UNL A   1      35.170  21.792  25.488  1.00  0.00    -0.354 N 
ATOM      3  C   UNL A   1      34.016  21.123  25.741  1.00  0.00     0.242 C 
ATOM      4  O   UNL A   1      33.337  21.450  26.716  1.00  0.00    -0.273 OA
ATOM      5  H   UNL A   1      35.421  22.476  26.151  1.00  0.00     0.163 HD
BRANCH   3   6
ATOM      6  C   UNL A   1      33.612  19.954  24.846  1.00  0.00     0.171 C 
BRANCH   6   7
ATOM      7  C   UNL A   1      34.693  18.872  24.733  1.00  0.00     0.038 C 
BRANCH   7   8
ATOM      8  C   UNL A   1      34.450  17.425  24.241  1.00  0.00    -0.015 C 
ATOM      9  C   UNL A   1      35.137  16.342  25.066  1.00  0.00     0.007 C 
ATOM     10  C   UNL A   1      32.941  17.117  24.241  1.00  0.00     0.007 C 
ENDBRANCH   7   8
ENDBRANCH   6   7
BRANCH   6  11
ATOM     11  N   UNL A   1      32.922  20.532  23.655  1.00  0.00    -0.343 N 
ATOM     12  C   UNL A   1      32.339  21.626  23.129  1.00  0.00     0.240 C 
ATOM     13  H   UNL A   1      32.874  19.823  22.974  1.00  0.00     0.164 HD
ATOM     14  O   UNL A   1      31.813  21.419  22.020  1.00  0.00    -0.273 OA
BRANCH  12  15
ATOM     15  C   UNL A   1      32.354  23.075  23.627  1.00  0.00     0.216 C 
BRANCH  15  16
ATOM     16  N   UNL A   1      32.586  24.192  22.747  1.00  0.00    -0.345 N 
ATOM     17  C   UNL A   1      32.114  25.463  22.737  1.00  0.00     0.243 C 
ATOM     18  H   UNL A   1      33.208  23.994  22.010  1.00  0.00     0.164 HD
ATOM     19  O   UNL A   1      32.765  26.236  22.022  1.00  0.00    -0.273 OA
BRANCH  17  20
ATOM     20  C   UNL A   1      30.818  25.963  23.473  1.00  0.00     0.177 C 
BRANCH  20  21
ATOM     21  N   UNL A   1      30.778  25.802  24.926  1.00  0.00    -0.309 N 
ATOM     22  C   UNL A   1      31.559  26.247  25.934  1.00  0.00     0.408 C 
ATOM     23  H   UNL A   1      30.021  25.252  25.235  1.00  0.00     0.167 HD
ATOM     24  O   UNL A   1      31.481  25.713  27.027  1.00  0.00    -0.225 OA
BRANCH  22  25
ATOM     25  O   UNL A   1      32.371  27.268  25.584  1.00  0.00    -0.445 OA
BRANCH  25  26
ATOM     26  C   UNL A   1      33.596  27.345  26.332  1.00  0.00     0.270 C 
BRANCH  26  27
ATOM     27  C   UNL A   1      33.899  28.766  26.748  1.00  0.00    -0.011 A 
ATOM     28  C   UNL A   1      35.132  29.073  27.344  1.00  0.00     0.007 A 
ATOM     29  C   UNL A   1      32.913  29.759  26.675  1.00  0.00     0.007 A 
ATOM     30  C   UNL A   1      35.361  30.336  27.889  1.00  0.00     0.000 A 
ATOM     31  C   UNL A   1      33.147  31.024  27.215  1.00  0.00     0.000 A 
ATOM     32  C   UNL A   1      34.367  31.309  27.826  1.00  0.00     0.000 A 
ENDBRANCH  26  27
ENDBRANCH  25  26
ENDBRANCH  22  25
ENDBRANCH  20  21
BRANCH  20  33
ATOM     33  C   UNL A   1      30.249  27.293  22.934  1.00  0.00     0.015 C 
ATOM     34  C   UNL A   1      28.783  27.496  23.347  1.00  0.00     0.010 C 
ATOM     35  C   UNL A   1      31.036  28.496  23.478  1.00  0.00     0.010 C 
ENDBRANCH  20  33
ENDBRANCH  17  20
ENDBRANCH  15  16
ENDBRANCH  12  15
ENDBRANCH   6  11
ENDBRANCH   3   6
ENDBRANCH   1   2
BRANCH   1  36
ATOM     36  C   UNL A   1      37.456  21.221  24.863  1.00  0.00     0.021 C 
BRANCH  36  37
ATOM     37  C   UNL A   1      38.091  22.286  25.759  1.00  0.00     0.002 C 
BRANCH  37  38
ATOM     38  C   UNL A   1      39.556  22.011  26.123  1.00  0.00     0.002 C 
BRANCH  38  39
ATOM     39  C   UNL A   1      40.044  22.748  27.373  1.00  0.00     0.021 C 
BRANCH  39  40
ATOM     40  C   UNL A   1      41.498  23.192  27.293  1.00  0.00     0.116 C 
BRANCH  40  41
ATOM     41  N   UNL A   1      41.730  24.050  26.143  1.00  0.00    -0.352 N 
ATOM     42  C   UNL A   1      41.624  25.411  26.048  1.00  0.00     0.251 C 
ATOM     43  H   UNL A   1      42.000  23.588  25.316  1.00  0.00     0.163 HD
ATOM     44  O   UNL A   1      41.634  25.956  24.949  1.00  0.00    -0.269 OA
BRANCH  42  45
ATOM     45  C   UNL A   1      41.485  26.203  27.282  1.00  0.00     0.039 A 
ATOM     46  C   UNL A   1      42.511  27.074  27.641  1.00  0.00     0.014 A 
ATOM     47  C   UNL A   1      40.332  26.093  28.067  1.00  0.00     0.014 A 
ATOM     48  C   UNL A   1      42.362  27.873  28.772  1.00  0.00     0.010 A 
ATOM     49  C   UNL A   1      40.149  26.950  29.142  1.00  0.00     0.010 A 
ATOM     50  C   UNL A   1      41.167  27.840  29.512  1.00  0.00    -0.014 A 
BRANCH  50  51
ATOM     51  C   UNL A   1      40.968  28.741  30.672  1.00  0.00     0.031 A 
ATOM     52  C   UNL A   1      41.820  28.592  31.902  1.00  0.00     0.074 A 
ATOM     53  C   UNL A   1      39.988  29.664  30.628  1.00  0.00     0.049 A 
ATOM     54  N   UNL A   1      41.787  29.281  33.013  1.00  0.00    -0.248 NA
ATOM     55  C   UNL A   1      42.824  27.514  31.893  1.00  0.00     0.031 C 
ATOM     56  C   UNL A   1      39.071  29.871  29.504  1.00  0.00     0.029 A 
ATOM     57  N   UNL A   1      39.602  30.603  31.548  1.00  0.00    -0.354 N 
ATOM     58  C   UNL A   1      42.753  28.717  33.837  1.00  0.00     0.074 A 
ATOM     59  C   UNL A   1      43.314  27.592  33.121  1.00  0.00     0.031 C 
ATOM     60  C   UNL A   1      38.257  30.900  29.785  1.00  0.00     0.029 A 
ATOM     61  C   UNL A   1      38.560  31.395  31.124  1.00  0.00     0.049 A 
ATOM     62  H   UNL A   1      40.029  30.703  32.430  1.00  0.00     0.167 HD
ATOM     63  C   UNL A   1      43.151  29.112  35.069  1.00  0.00     0.031 A 
ATOM     64  C   UNL A   1      37.917  32.402  31.745  1.00  0.00     0.031 A 
ATOM     65  C   UNL A   1      42.582  30.230  35.774  1.00  0.00     0.049 A 
ATOM     66  C   UNL A   1      38.361  32.807  33.123  1.00  0.00     0.074 A 
ATOM     67  C   UNL A   1      42.948  30.747  37.003  1.00  0.00     0.029 A 
ATOM     68  N   UNL A   1      41.521  30.999  35.317  1.00  0.00    -0.354 N 
ATOM     69  N   UNL A   1      39.328  32.310  33.857  1.00  0.00    -0.248 NA
ATOM     70  C   UNL A   1      37.633  33.917  33.752  1.00  0.00     0.031 C 
ATOM     71  C   UNL A   1      42.064  31.783  37.322  1.00  0.00     0.029 A 
ATOM     72  C   UNL A   1      41.195  31.963  36.256  1.00  0.00     0.049 A 
ATOM     73  H   UNL A   1      41.066  30.877  34.452  1.00  0.00     0.167 HD
ATOM     74  C   UNL A   1      39.343  33.064  35.025  1.00  0.00     0.074 A 
ATOM     75  C   UNL A   1      38.300  34.062  34.888  1.00  0.00     0.031 C 
ATOM     76  C   UNL A   1      40.146  32.943  36.111  1.00  0.00     0.031 A 
BRANCH  63  77
ATOM     77  C   UNL A   1      44.243  28.315  35.738  1.00  0.00    -0.014 A 
ATOM     78  C   UNL A   1      43.944  27.228  36.580  1.00  0.00     0.010 A 
ATOM     79  C   UNL A   1      45.590  28.640  35.498  1.00  0.00     0.010 A 
ATOM     80  C   UNL A   1      44.969  26.514  37.207  1.00  0.00     0.020 A 
ATOM     81  C   UNL A   1      46.619  27.908  36.097  1.00  0.00     0.020 A 
ATOM     82  C   UNL A   1      46.301  26.860  36.962  1.00  0.00     0.054 A 
BRANCH  82  83
ATOM     83  S   UNL A   1      47.610  25.907  37.780  1.00  0.00     0.124 S 
ATOM     84  O   UNL A   1      48.258  26.928  38.600  1.00  0.00    -0.237 OA
ATOM     85  O   UNL A   1      46.854  24.898  38.517  1.00  0.00    -0.237 OA
ATOM     86  O   UNL A   1      48.413  25.397  36.672  1.00  0.00    -0.744 OA
ENDBRANCH  82  83
ENDBRANCH  63  77
BRANCH  64  87
ATOM     87  C   UNL A   1      36.802  33.105  31.054  1.00  0.00    -0.014 A 
ATOM     88  C   UNL A   1      37.063  34.017  30.017  1.00  0.00     0.010 A 
ATOM     89  C   UNL A   1      35.466  32.841  31.411  1.00  0.00     0.010 A 
ATOM     90  C   UNL A   1      36.011  34.664  29.361  1.00  0.00     0.020 A 
ATOM     91  C   UNL A   1      34.411  33.460  30.736  1.00  0.00     0.020 A 
ATOM     92  C   UNL A   1      34.692  34.376  29.721  1.00  0.00     0.054 A 
BRANCH  92  93
ATOM     93  S   UNL A   1      33.344  35.181  28.812  1.00  0.00     0.124 S 
ATOM     94  O   UNL A   1      32.376  34.095  28.679  1.00  0.00    -0.237 OA
ATOM     95  O   UNL A   1      32.960  36.263  29.714  1.00  0.00    -0.237 OA
ATOM     96  O   UNL A   1      33.977  35.611  27.568  1.00  0.00    -0.744 OA
ENDBRANCH  92  93
ENDBRANCH  64  87
BRANCH  76  97
ATOM     97  C   UNL A   1      39.950  33.932  37.230  1.00  0.00    -0.014 A 
ATOM     98  C   UNL A   1      39.207  33.603  38.378  1.00  0.00     0.010 A 
ATOM     99  C   UNL A   1      40.562  35.198  37.151  1.00  0.00     0.010 A 
ATOM    100  C   UNL A   1      39.050  34.534  39.408  1.00  0.00     0.020 A 
ATOM    101  C   UNL A   1      40.435  36.118  38.194  1.00  0.00     0.020 A 
ATOM    102  C   UNL A   1      39.666  35.785  39.310  1.00  0.00     0.054 A 
BRANCH 102 103
ATOM    103  S   UNL A   1      39.477  36.959  40.679  1.00  0.00     0.124 S 
ATOM    104  O   UNL A   1      38.442  36.319  41.487  1.00  0.00    -0.237 OA
ATOM    105  O   UNL A   1      40.813  36.979  41.269  1.00  0.00    -0.237 OA
ATOM    106  O   UNL A   1      39.074  38.199  40.020  1.00  0.00    -0.744 OA
ENDBRANCH 102 103
ENDBRANCH  76  97
ENDBRANCH  50  51
ENDBRANCH  42  45
ENDBRANCH  40  41
ENDBRANCH  39  40
ENDBRANCH  38  39
ENDBRANCH  37  38
ENDBRANCH  36  37
ENDBRANCH   1  36
TORSDOF 27
ENDMDL
