MODEL 1
REMARK VINA RESULT:      -8.6      0.000      0.000
REMARK SMILES CC[NH+](CC)CCS[C@H](F)C(=O)NCCCCCCNC(=O)c1ccc(-c2c3nc(c(-c4ccc(S(=O)(=O)[O-])cc4)c4ccc([nH]4)c(-c4ccc(S(=O)(=O)[O-])cc4)c4nc(c(-c5ccc(S(=O)(=O)[O-])cc5)c5ccc2[nH]5)C=C4)C=C3)cc1
REMARK SMILES IDX 15 1 14 2 13 3 11 4 12 5 9 7 10 8 8 9 7 10 6 11 3 12 2 14
REMARK SMILES IDX 1 15 4 16 5 17 16 18 17 19 18 20 19 21 20 22 21 23 22 25
REMARK SMILES IDX 23 26 24 27 82 28 25 29 81 30 26 31 27 32 28 33 75 34 29 35
REMARK SMILES IDX 80 36 74 37 76 38 30 39 79 40 73 41 72 42 31 44 61 45 42 46
REMARK SMILES IDX 60 47 43 48 46 49 59 50 77 51 44 52 45 53 58 55 78 56 47 57
REMARK SMILES IDX 32 58 33 59 41 60 34 61 40 62 35 63 36 64 37 65 38 66 39 67
REMARK SMILES IDX 62 68 63 69 71 70 64 71 70 72 65 73 66 74 67 75 68 76 69 77
REMARK SMILES IDX 48 78 49 79 57 80 50 81 56 82 51 83 52 84 53 85 54 86 55 87
REMARK H PARENT 13 6 3 13 20 24 76 43 46 54
REMARK Flexibility Score: inf
ROOT
ATOM      1  C   UNL A   1      32.707  23.431  26.868  1.00  0.00     0.021 C 
ENDROOT
BRANCH   1   2
ATOM      2  C   UNL A   1      31.702  23.924  25.832  1.00  0.00     0.116 C 
BRANCH   2   3
ATOM      3  N   UNL A   1      32.311  24.266  24.563  1.00  0.00    -0.353 N 
ATOM      4  C   UNL A   1      32.961  25.419  24.213  1.00  0.00     0.265 C 
ATOM      5  O   UNL A   1      33.412  25.479  23.063  1.00  0.00    -0.271 OA
ATOM      6  H   UNL A   1      32.250  23.579  23.861  1.00  0.00     0.163 HD
BRANCH   4   7
ATOM      7  C   UNL A   1      33.138  26.575  25.206  1.00  0.00     0.313 C 
ATOM      8  F   UNL A   1      34.235  26.483  26.008  1.00  0.00    -0.225 F 
BRANCH   7   9
ATOM      9  S   UNL A   1      33.139  28.194  24.376  1.00  0.00    -0.110 SA
BRANCH   9  10
ATOM     10  C   UNL A   1      31.429  28.254  23.731  1.00  0.00     0.134 C 
BRANCH  10  11
ATOM     11  C   UNL A   1      30.648  29.578  23.914  1.00  0.00     0.273 C 
BRANCH  11  12
ATOM     12  N   UNL A   1      29.290  29.756  23.382  1.00  0.00    -0.335 N 
ATOM     13  H   UNL A   1      28.828  30.156  24.198  1.00  0.00     0.348 HD
BRANCH  12  14
ATOM     14  C   UNL A   1      29.110  30.788  22.362  1.00  0.00     0.258 C 
ATOM     15  C   UNL A   1      28.331  31.994  22.882  1.00  0.00     0.071 C 
ENDBRANCH  12  14
BRANCH  12  16
ATOM     16  C   UNL A   1      28.553  28.520  23.100  1.00  0.00     0.258 C 
ATOM     17  C   UNL A   1      27.036  28.573  23.207  1.00  0.00     0.071 C 
ENDBRANCH  12  16
ENDBRANCH  11  12
ENDBRANCH  10  11
ENDBRANCH   9  10
ENDBRANCH   7   9
ENDBRANCH   4   7
ENDBRANCH   2   3
ENDBRANCH   1   2
BRANCH   1  18
ATOM     18  C   UNL A   1      33.430  22.119  26.550  1.00  0.00     0.002 C 
BRANCH  18  19
ATOM     19  C   UNL A   1      34.800  22.219  25.875  1.00  0.00     0.002 C 
BRANCH  19  20
ATOM     20  C   UNL A   1      35.594  23.503  26.107  1.00  0.00     0.021 C 
BRANCH  20  21
ATOM     21  C   UNL A   1      36.821  23.710  25.226  1.00  0.00     0.116 C 
BRANCH  21  22
ATOM     22  N   UNL A   1      37.880  22.742  25.442  1.00  0.00    -0.352 N 
ATOM     23  C   UNL A   1      39.069  22.912  26.113  1.00  0.00     0.251 C 
ATOM     24  H   UNL A   1      37.728  21.846  25.059  1.00  0.00     0.163 HD
ATOM     25  O   UNL A   1      39.889  21.999  26.160  1.00  0.00    -0.269 OA
BRANCH  23  26
ATOM     26  C   UNL A   1      39.377  24.220  26.737  1.00  0.00     0.039 A 
ATOM     27  C   UNL A   1      38.960  24.453  28.052  1.00  0.00     0.014 A 
ATOM     28  C   UNL A   1      40.100  25.197  26.049  1.00  0.00     0.014 A 
ATOM     29  C   UNL A   1      39.336  25.633  28.701  1.00  0.00     0.010 A 
ATOM     30  C   UNL A   1      40.529  26.341  26.718  1.00  0.00     0.010 A 
ATOM     31  C   UNL A   1      40.157  26.569  28.053  1.00  0.00    -0.014 A 
BRANCH  31  32
ATOM     32  C   UNL A   1      40.641  27.795  28.738  1.00  0.00     0.031 A 
ATOM     33  C   UNL A   1      42.018  27.820  29.342  1.00  0.00     0.074 A 
ATOM     34  C   UNL A   1      39.817  28.850  28.895  1.00  0.00     0.049 A 
ATOM     35  N   UNL A   1      42.572  28.733  30.096  1.00  0.00    -0.248 NA
ATOM     36  C   UNL A   1      42.875  26.650  29.083  1.00  0.00     0.031 C 
ATOM     37  C   UNL A   1      38.451  28.947  28.374  1.00  0.00     0.029 A 
ATOM     38  N   UNL A   1      40.004  30.041  29.554  1.00  0.00    -0.354 N 
ATOM     39  C   UNL A   1      43.829  28.239  30.424  1.00  0.00     0.074 A 
ATOM     40  C   UNL A   1      43.939  26.928  29.820  1.00  0.00     0.031 C 
ATOM     41  C   UNL A   1      37.931  30.137  28.720  1.00  0.00     0.029 A 
ATOM     42  C   UNL A   1      38.905  30.868  29.525  1.00  0.00     0.049 A 
ATOM     43  H   UNL A   1      40.846  30.279  30.004  1.00  0.00     0.167 HD
ATOM     44  C   UNL A   1      44.810  28.826  31.152  1.00  0.00     0.031 A 
ATOM     45  C   UNL A   1      38.698  32.071  30.094  1.00  0.00     0.031 A 
ATOM     46  C   UNL A   1      44.705  30.135  31.739  1.00  0.00     0.049 A 
ATOM     47  C   UNL A   1      39.794  32.699  30.914  1.00  0.00     0.074 A 
ATOM     48  C   UNL A   1      45.657  30.832  32.460  1.00  0.00     0.029 A 
ATOM     49  N   UNL A   1      43.582  30.945  31.670  1.00  0.00    -0.354 N 
ATOM     50  N   UNL A   1      40.988  32.229  31.185  1.00  0.00    -0.248 NA
ATOM     51  C   UNL A   1      39.517  34.019  31.497  1.00  0.00     0.031 C 
ATOM     52  C   UNL A   1      45.095  32.049  32.861  1.00  0.00     0.029 A 
ATOM     53  C   UNL A   1      43.811  32.130  32.346  1.00  0.00     0.049 A 
ATOM     54  H   UNL A   1      42.744  30.710  31.208  1.00  0.00     0.167 HD
ATOM     55  C   UNL A   1      41.617  33.212  31.941  1.00  0.00     0.074 A 
ATOM     56  C   UNL A   1      40.673  34.300  32.085  1.00  0.00     0.031 C 
ATOM     57  C   UNL A   1      42.867  33.211  32.465  1.00  0.00     0.031 A 
BRANCH  44  58
ATOM     58  C   UNL A   1      46.079  28.045  31.360  1.00  0.00    -0.014 A 
ATOM     59  C   UNL A   1      47.124  28.092  30.418  1.00  0.00     0.010 A 
ATOM     60  C   UNL A   1      46.241  27.269  32.522  1.00  0.00     0.010 A 
ATOM     61  C   UNL A   1      48.284  27.338  30.608  1.00  0.00     0.020 A 
ATOM     62  C   UNL A   1      47.412  26.534  32.730  1.00  0.00     0.020 A 
ATOM     63  C   UNL A   1      48.417  26.556  31.760  1.00  0.00     0.054 A 
BRANCH  63  64
ATOM     64  S   UNL A   1      49.933  25.586  31.983  1.00  0.00     0.124 S 
ATOM     65  O   UNL A   1      50.849  26.585  32.526  1.00  0.00    -0.237 OA
ATOM     66  O   UNL A   1      49.514  24.544  32.918  1.00  0.00    -0.237 OA
ATOM     67  O   UNL A   1      50.248  25.119  30.635  1.00  0.00    -0.744 OA
ENDBRANCH  63  64
ENDBRANCH  44  58
BRANCH  45  68
ATOM     68  C   UNL A   1      37.399  32.771  29.900  1.00  0.00    -0.014 A 
ATOM     69  C   UNL A   1      37.231  33.670  28.831  1.00  0.00     0.010 A 
ATOM     70  C   UNL A   1      36.317  32.529  30.766  1.00  0.00     0.010 A 
ATOM     71  C   UNL A   1      36.010  34.324  28.641  1.00  0.00     0.020 A 
ATOM     72  C   UNL A   1      35.088  33.162  30.564  1.00  0.00     0.020 A 
ATOM     73  C   UNL A   1      34.945  34.065  29.508  1.00  0.00     0.054 A 
BRANCH  73  74
ATOM     74  S   UNL A   1      33.352  34.880  29.208  1.00  0.00     0.124 S 
ATOM     75  O   UNL A   1      32.772  34.913  30.546  1.00  0.00    -0.237 OA
ATOM     76  O   UNL A   1      33.758  36.173  28.661  1.00  0.00    -0.237 OA
ATOM     77  O   UNL A   1      32.689  33.992  28.256  1.00  0.00    -0.744 OA
ENDBRANCH  73  74
ENDBRANCH  45  68
BRANCH  57  78
ATOM     78  C   UNL A   1      43.318  34.444  33.202  1.00  0.00    -0.014 A 
ATOM     79  C   UNL A   1      43.881  35.536  32.521  1.00  0.00     0.010 A 
ATOM     80  C   UNL A   1      43.089  34.539  34.587  1.00  0.00     0.010 A 
ATOM     81  C   UNL A   1      44.217  36.701  33.216  1.00  0.00     0.020 A 
ATOM     82  C   UNL A   1      43.402  35.710  35.281  1.00  0.00     0.020 A 
ATOM     83  C   UNL A   1      43.971  36.783  34.592  1.00  0.00     0.054 A 
BRANCH  83  84
ATOM     84  S   UNL A   1      44.342  38.334  35.456  1.00  0.00     0.124 S 
ATOM     85  O   UNL A   1      43.623  39.313  34.645  1.00  0.00    -0.237 OA
ATOM     86  O   UNL A   1      43.794  38.098  36.789  1.00  0.00    -0.237 OA
ATOM     87  O   UNL A   1      45.799  38.424  35.396  1.00  0.00    -0.744 OA
ENDBRANCH  83  84
ENDBRANCH  57  78
ENDBRANCH  31  32
ENDBRANCH  23  26
ENDBRANCH  21  22
ENDBRANCH  20  21
ENDBRANCH  19  20
ENDBRANCH  18  19
ENDBRANCH   1  18
TORSDOF 22
ENDMDL
MODEL 2
REMARK VINA RESULT:      -8.0      3.699      8.112
REMARK SMILES CC[NH+](CC)CCS[C@H](F)C(=O)NCCCCCCNC(=O)c1ccc(-c2c3nc(c(-c4ccc(S(=O)(=O)[O-])cc4)c4ccc([nH]4)c(-c4ccc(S(=O)(=O)[O-])cc4)c4nc(c(-c5ccc(S(=O)(=O)[O-])cc5)c5ccc2[nH]5)C=C4)C=C3)cc1
REMARK SMILES IDX 15 1 14 2 13 3 11 4 12 5 9 7 10 8 8 9 7 10 6 11 3 12 2 14
REMARK SMILES IDX 1 15 4 16 5 17 16 18 17 19 18 20 19 21 20 22 21 23 22 25
REMARK SMILES IDX 23 26 24 27 82 28 25 29 81 30 26 31 27 32 28 33 75 34 29 35
REMARK SMILES IDX 80 36 74 37 76 38 30 39 79 40 73 41 72 42 31 44 61 45 42 46
REMARK SMILES IDX 60 47 43 48 46 49 59 50 77 51 44 52 45 53 58 55 78 56 47 57
REMARK SMILES IDX 32 58 33 59 41 60 34 61 40 62 35 63 36 64 37 65 38 66 39 67
REMARK SMILES IDX 62 68 63 69 71 70 64 71 70 72 65 73 66 74 67 75 68 76 69 77
REMARK SMILES IDX 48 78 49 79 57 80 50 81 56 82 51 83 52 84 53 85 54 86 55 87
REMARK H PARENT 13 6 3 13 20 24 76 43 46 54
REMARK Flexibility Score: inf
ROOT
ATOM      1  C   UNL A   1      31.896  27.665  26.884  1.00  0.00     0.021 C 
ENDROOT
BRANCH   1   2
ATOM      2  C   UNL A   1      32.562  26.635  25.979  1.00  0.00     0.116 C 
BRANCH   2   3
ATOM      3  N   UNL A   1      32.595  25.307  26.555  1.00  0.00    -0.353 N 
ATOM      4  C   UNL A   1      31.632  24.334  26.509  1.00  0.00     0.265 C 
ATOM      5  O   UNL A   1      31.893  23.263  27.070  1.00  0.00    -0.271 OA
ATOM      6  H   UNL A   1      33.418  25.071  27.040  1.00  0.00     0.163 HD
BRANCH   4   7
ATOM      7  C   UNL A   1      30.300  24.555  25.782  1.00  0.00     0.313 C 
ATOM      8  F   UNL A   1      29.493  25.503  26.333  1.00  0.00    -0.225 F 
BRANCH   7   9
ATOM      9  S   UNL A   1      30.537  24.925  24.017  1.00  0.00    -0.110 SA
BRANCH   9  10
ATOM     10  C   UNL A   1      29.573  26.470  23.853  1.00  0.00     0.134 C 
BRANCH  10  11
ATOM     11  C   UNL A   1      30.137  27.560  22.911  1.00  0.00     0.273 C 
BRANCH  11  12
ATOM     12  N   UNL A   1      30.993  28.647  23.409  1.00  0.00    -0.335 N 
ATOM     13  H   UNL A   1      31.361  28.212  24.254  1.00  0.00     0.348 HD
BRANCH  12  14
ATOM     14  C   UNL A   1      32.199  28.944  22.639  1.00  0.00     0.258 C 
ATOM     15  C   UNL A   1      33.457  28.957  23.503  1.00  0.00     0.071 C 
ENDBRANCH  12  14
BRANCH  12  16
ATOM     16  C   UNL A   1      30.288  29.844  23.877  1.00  0.00     0.258 C 
ATOM     17  C   UNL A   1      29.028  30.250  23.128  1.00  0.00     0.071 C 
ENDBRANCH  12  16
ENDBRANCH  11  12
ENDBRANCH  10  11
ENDBRANCH   9  10
ENDBRANCH   7   9
ENDBRANCH   4   7
ENDBRANCH   2   3
ENDBRANCH   1   2
BRANCH   1  18
ATOM     18  C   UNL A   1      32.804  28.749  27.473  1.00  0.00     0.002 C 
BRANCH  18  19
ATOM     19  C   UNL A   1      32.534  30.195  27.053  1.00  0.00     0.002 C 
BRANCH  19  20
ATOM     20  C   UNL A   1      33.209  31.293  27.873  1.00  0.00     0.021 C 
BRANCH  20  21
ATOM     21  C   UNL A   1      33.595  32.562  27.122  1.00  0.00     0.116 C 
BRANCH  21  22
ATOM     22  N   UNL A   1      32.944  33.763  27.609  1.00  0.00    -0.352 N 
ATOM     23  C   UNL A   1      33.278  34.531  28.702  1.00  0.00     0.251 C 
ATOM     24  H   UNL A   1      32.164  34.069  27.092  1.00  0.00     0.163 HD
ATOM     25  O   UNL A   1      32.585  35.497  29.012  1.00  0.00    -0.269 OA
BRANCH  23  26
ATOM     26  C   UNL A   1      34.448  34.159  29.529  1.00  0.00     0.039 A 
ATOM     27  C   UNL A   1      34.234  33.477  30.731  1.00  0.00     0.014 A 
ATOM     28  C   UNL A   1      35.750  34.449  29.112  1.00  0.00     0.014 A 
ATOM     29  C   UNL A   1      35.326  33.016  31.473  1.00  0.00     0.010 A 
ATOM     30  C   UNL A   1      36.834  33.932  29.817  1.00  0.00     0.010 A 
ATOM     31  C   UNL A   1      36.634  33.205  31.001  1.00  0.00    -0.014 A 
BRANCH  31  32
ATOM     32  C   UNL A   1      37.814  32.660  31.721  1.00  0.00     0.031 A 
ATOM     33  C   UNL A   1      38.547  31.470  31.165  1.00  0.00     0.074 A 
ATOM     34  C   UNL A   1      38.173  33.175  32.914  1.00  0.00     0.049 A 
ATOM     35  N   UNL A   1      39.505  30.764  31.706  1.00  0.00    -0.248 NA
ATOM     36  C   UNL A   1      38.127  30.999  29.834  1.00  0.00     0.031 C 
ATOM     37  C   UNL A   1      37.534  34.317  33.575  1.00  0.00     0.029 A 
ATOM     38  N   UNL A   1      39.157  32.793  33.794  1.00  0.00    -0.354 N 
ATOM     39  C   UNL A   1      39.785  29.750  30.797  1.00  0.00     0.074 A 
ATOM     40  C   UNL A   1      38.867  29.911  29.688  1.00  0.00     0.031 C 
ATOM     41  C   UNL A   1      38.152  34.550  34.745  1.00  0.00     0.029 A 
ATOM     42  C   UNL A   1      39.198  33.550  34.942  1.00  0.00     0.049 A 
ATOM     43  H   UNL A   1      39.774  32.047  33.619  1.00  0.00     0.167 HD
ATOM     44  C   UNL A   1      40.727  28.780  30.870  1.00  0.00     0.031 A 
ATOM     45  C   UNL A   1      39.977  33.444  36.036  1.00  0.00     0.031 A 
ATOM     46  C   UNL A   1      41.648  28.630  31.964  1.00  0.00     0.049 A 
ATOM     47  C   UNL A   1      41.007  32.348  36.104  1.00  0.00     0.074 A 
ATOM     48  C   UNL A   1      42.665  27.704  32.112  1.00  0.00     0.029 A 
ATOM     49  N   UNL A   1      41.666  29.430  33.097  1.00  0.00    -0.354 N 
ATOM     50  N   UNL A   1      41.278  31.419  35.219  1.00  0.00    -0.248 NA
ATOM     51  C   UNL A   1      41.838  32.291  37.315  1.00  0.00     0.031 C 
ATOM     52  C   UNL A   1      43.273  27.919  33.354  1.00  0.00     0.029 A 
ATOM     53  C   UNL A   1      42.668  29.012  33.955  1.00  0.00     0.049 A 
ATOM     54  H   UNL A   1      41.056  30.184  33.266  1.00  0.00     0.167 HD
ATOM     55  C   UNL A   1      42.334  30.688  35.751  1.00  0.00     0.074 A 
ATOM     56  C   UNL A   1      42.653  31.282  37.032  1.00  0.00     0.031 C 
ATOM     57  C   UNL A   1      42.984  29.624  35.220  1.00  0.00     0.031 A 
BRANCH  44  58
ATOM     58  C   UNL A   1      40.798  27.797  29.732  1.00  0.00    -0.014 A 
ATOM     59  C   UNL A   1      39.809  26.812  29.561  1.00  0.00     0.010 A 
ATOM     60  C   UNL A   1      41.856  27.871  28.808  1.00  0.00     0.010 A 
ATOM     61  C   UNL A   1      39.903  25.886  28.520  1.00  0.00     0.020 A 
ATOM     62  C   UNL A   1      41.939  26.964  27.747  1.00  0.00     0.020 A 
ATOM     63  C   UNL A   1      40.974  25.963  27.623  1.00  0.00     0.054 A 
BRANCH  63  64
ATOM     64  S   UNL A   1      41.074  24.750  26.279  1.00  0.00     0.124 S 
ATOM     65  O   UNL A   1      42.325  24.062  26.589  1.00  0.00    -0.237 OA
ATOM     66  O   UNL A   1      39.860  23.959  26.468  1.00  0.00    -0.237 OA
ATOM     67  O   UNL A   1      41.098  25.572  25.072  1.00  0.00    -0.744 OA
ENDBRANCH  63  64
ENDBRANCH  44  58
BRANCH  45  68
ATOM     68  C   UNL A   1      39.821  34.412  37.155  1.00  0.00    -0.014 A 
ATOM     69  C   UNL A   1      40.466  35.662  37.106  1.00  0.00     0.010 A 
ATOM     70  C   UNL A   1      39.014  34.102  38.264  1.00  0.00     0.010 A 
ATOM     71  C   UNL A   1      40.317  36.577  38.153  1.00  0.00     0.020 A 
ATOM     72  C   UNL A   1      38.843  35.024  39.301  1.00  0.00     0.020 A 
ATOM     73  C   UNL A   1      39.505  36.253  39.243  1.00  0.00     0.054 A 
BRANCH  73  74
ATOM     74  S   UNL A   1      39.279  37.479  40.562  1.00  0.00     0.124 S 
ATOM     75  O   UNL A   1      40.593  38.111  40.616  1.00  0.00    -0.237 OA
ATOM     76  O   UNL A   1      38.197  38.309  40.039  1.00  0.00    -0.237 OA
ATOM     77  O   UNL A   1      38.924  36.667  41.723  1.00  0.00    -0.744 OA
ENDBRANCH  73  74
ENDBRANCH  45  68
BRANCH  57  78
ATOM     78  C   UNL A   1      44.143  29.054  35.993  1.00  0.00    -0.014 A 
ATOM     79  C   UNL A   1      43.963  28.007  36.912  1.00  0.00     0.010 A 
ATOM     80  C   UNL A   1      45.443  29.519  35.724  1.00  0.00     0.010 A 
ATOM     81  C   UNL A   1      45.066  27.439  37.557  1.00  0.00     0.020 A 
ATOM     82  C   UNL A   1      46.549  28.939  36.349  1.00  0.00     0.020 A 
ATOM     83  C   UNL A   1      46.353  27.906  37.267  1.00  0.00     0.054 A 
BRANCH  83  84
ATOM     84  S   UNL A   1      47.774  27.101  38.058  1.00  0.00     0.124 S 
ATOM     85  O   UNL A   1      47.496  27.317  39.475  1.00  0.00    -0.237 OA
ATOM     86  O   UNL A   1      47.657  25.719  37.597  1.00  0.00    -0.237 OA
ATOM     87  O   UNL A   1      48.924  27.831  37.529  1.00  0.00    -0.744 OA
ENDBRANCH  83  84
ENDBRANCH  57  78
ENDBRANCH  31  32
ENDBRANCH  23  26
ENDBRANCH  21  22
ENDBRANCH  20  21
ENDBRANCH  19  20
ENDBRANCH  18  19
ENDBRANCH   1  18
TORSDOF 22
ENDMDL
MODEL 3
REMARK VINA RESULT:      -8.0      1.396      8.511
REMARK SMILES CC[NH+](CC)CCS[C@H](F)C(=O)NCCCCCCNC(=O)c1ccc(-c2c3nc(c(-c4ccc(S(=O)(=O)[O-])cc4)c4ccc([nH]4)c(-c4ccc(S(=O)(=O)[O-])cc4)c4nc(c(-c5ccc(S(=O)(=O)[O-])cc5)c5ccc2[nH]5)C=C4)C=C3)cc1
REMARK SMILES IDX 15 1 14 2 13 3 11 4 12 5 9 7 10 8 8 9 7 10 6 11 3 12 2 14
REMARK SMILES IDX 1 15 4 16 5 17 16 18 17 19 18 20 19 21 20 22 21 23 22 25
REMARK SMILES IDX 23 26 24 27 82 28 25 29 81 30 26 31 27 32 28 33 75 34 29 35
REMARK SMILES IDX 80 36 74 37 76 38 30 39 79 40 73 41 72 42 31 44 61 45 42 46
REMARK SMILES IDX 60 47 43 48 46 49 59 50 77 51 44 52 45 53 58 55 78 56 47 57
REMARK SMILES IDX 32 58 33 59 41 60 34 61 40 62 35 63 36 64 37 65 38 66 39 67
REMARK SMILES IDX 62 68 63 69 71 70 64 71 70 72 65 73 66 74 67 75 68 76 69 77
REMARK SMILES IDX 48 78 49 79 57 80 50 81 56 82 51 83 52 84 53 85 54 86 55 87
REMARK H PARENT 13 6 3 13 20 24 76 43 46 54
REMARK Flexibility Score: inf
ROOT
ATOM      1  C   UNL A   1      32.281  22.497  27.058  1.00  0.00     0.021 C 
ENDROOT
BRANCH   1   2
ATOM      2  C   UNL A   1      31.953  21.915  25.687  1.00  0.00     0.116 C 
BRANCH   2   3
ATOM      3  N   UNL A   1      31.109  22.779  24.888  1.00  0.00    -0.353 N 
ATOM      4  C   UNL A   1      31.387  23.362  23.681  1.00  0.00     0.265 C 
ATOM      5  O   UNL A   1      30.496  24.058  23.178  1.00  0.00    -0.271 OA
ATOM      6  H   UNL A   1      30.219  22.970  25.260  1.00  0.00     0.163 HD
BRANCH   4   7
ATOM      7  C   UNL A   1      32.732  23.150  22.976  1.00  0.00     0.313 C 
ATOM      8  F   UNL A   1      32.699  22.297  21.915  1.00  0.00    -0.225 F 
BRANCH   7   9
ATOM      9  S   UNL A   1      33.488  24.720  22.456  1.00  0.00    -0.110 SA
BRANCH   9  10
ATOM     10  C   UNL A   1      33.183  25.758  23.930  1.00  0.00     0.134 C 
BRANCH  10  11
ATOM     11  C   UNL A   1      33.194  27.293  23.732  1.00  0.00     0.273 C 
BRANCH  11  12
ATOM     12  N   UNL A   1      32.250  28.172  24.435  1.00  0.00    -0.335 N 
ATOM     13  H   UNL A   1      32.017  27.583  25.235  1.00  0.00     0.348 HD
BRANCH  12  14
ATOM     14  C   UNL A   1      32.802  29.372  25.059  1.00  0.00     0.258 C 
ATOM     15  C   UNL A   1      31.910  29.918  26.171  1.00  0.00     0.071 C 
ENDBRANCH  12  14
BRANCH  12  16
ATOM     16  C   UNL A   1      30.971  28.402  23.754  1.00  0.00     0.258 C 
ATOM     17  C   UNL A   1      29.890  27.344  23.925  1.00  0.00     0.071 C 
ENDBRANCH  12  16
ENDBRANCH  11  12
ENDBRANCH  10  11
ENDBRANCH   9  10
ENDBRANCH   7   9
ENDBRANCH   4   7
ENDBRANCH   2   3
ENDBRANCH   1   2
BRANCH   1  18
ATOM     18  C   UNL A   1      33.765  22.698  27.380  1.00  0.00     0.002 C 
BRANCH  18  19
ATOM     19  C   UNL A   1      34.735  22.767  26.199  1.00  0.00     0.002 C 
BRANCH  19  20
ATOM     20  C   UNL A   1      35.637  23.997  26.114  1.00  0.00     0.021 C 
BRANCH  20  21
ATOM     21  C   UNL A   1      36.752  23.951  25.076  1.00  0.00     0.116 C 
BRANCH  21  22
ATOM     22  N   UNL A   1      37.720  22.892  25.288  1.00  0.00    -0.352 N 
ATOM     23  C   UNL A   1      38.884  22.934  26.022  1.00  0.00     0.251 C 
ATOM     24  H   UNL A   1      37.519  22.032  24.851  1.00  0.00     0.163 HD
ATOM     25  O   UNL A   1      39.627  21.956  26.058  1.00  0.00    -0.269 OA
BRANCH  23  26
ATOM     26  C   UNL A   1      39.259  24.179  26.730  1.00  0.00     0.039 A 
ATOM     27  C   UNL A   1      38.829  24.361  28.048  1.00  0.00     0.014 A 
ATOM     28  C   UNL A   1      40.059  25.147  26.115  1.00  0.00     0.014 A 
ATOM     29  C   UNL A   1      39.264  25.474  28.774  1.00  0.00     0.010 A 
ATOM     30  C   UNL A   1      40.544  26.219  26.860  1.00  0.00     0.010 A 
ATOM     31  C   UNL A   1      40.157  26.391  28.199  1.00  0.00    -0.014 A 
BRANCH  31  32
ATOM     32  C   UNL A   1      40.702  27.541  28.965  1.00  0.00     0.031 A 
ATOM     33  C   UNL A   1      39.864  28.775  29.162  1.00  0.00     0.074 A 
ATOM     34  C   UNL A   1      41.976  27.515  29.406  1.00  0.00     0.049 A 
ATOM     35  N   UNL A   1      40.201  29.929  29.675  1.00  0.00    -0.248 NA
ATOM     36  C   UNL A   1      38.468  28.705  28.697  1.00  0.00     0.031 C 
ATOM     37  C   UNL A   1      42.902  26.389  29.264  1.00  0.00     0.029 A 
ATOM     38  N   UNL A   1      42.719  28.473  30.052  1.00  0.00    -0.354 N 
ATOM     39  C   UNL A   1      39.071  30.732  29.571  1.00  0.00     0.074 A 
ATOM     40  C   UNL A   1      38.052  29.944  28.909  1.00  0.00     0.031 C 
ATOM     41  C   UNL A   1      44.081  26.716  29.819  1.00  0.00     0.029 A 
ATOM     42  C   UNL A   1      44.013  28.087  30.315  1.00  0.00     0.049 A 
ATOM     43  H   UNL A   1      42.359  29.354  30.303  1.00  0.00     0.167 HD
ATOM     44  C   UNL A   1      38.892  32.006  29.997  1.00  0.00     0.031 A 
ATOM     45  C   UNL A   1      45.034  28.764  30.876  1.00  0.00     0.031 A 
ATOM     46  C   UNL A   1      39.900  32.782  30.667  1.00  0.00     0.049 A 
ATOM     47  C   UNL A   1      44.818  30.184  31.327  1.00  0.00     0.074 A 
ATOM     48  C   UNL A   1      39.803  34.065  31.172  1.00  0.00     0.029 A 
ATOM     49  N   UNL A   1      41.190  32.345  30.929  1.00  0.00    -0.354 N 
ATOM     50  N   UNL A   1      43.732  30.915  31.249  1.00  0.00    -0.248 NA
ATOM     51  C   UNL A   1      45.963  30.867  31.947  1.00  0.00     0.031 C 
ATOM     52  C   UNL A   1      41.047  34.420  31.705  1.00  0.00     0.029 A 
ATOM     53  C   UNL A   1      41.903  33.338  31.577  1.00  0.00     0.049 A 
ATOM     54  H   UNL A   1      41.546  31.459  30.688  1.00  0.00     0.167 HD
ATOM     55  C   UNL A   1      44.052  32.131  31.841  1.00  0.00     0.074 A 
ATOM     56  C   UNL A   1      45.432  32.038  32.272  1.00  0.00     0.031 C 
ATOM     57  C   UNL A   1      43.271  33.224  32.015  1.00  0.00     0.031 A 
BRANCH  44  58
ATOM     58  C   UNL A   1      37.552  32.639  29.737  1.00  0.00    -0.014 A 
ATOM     59  C   UNL A   1      37.205  33.104  28.455  1.00  0.00     0.010 A 
ATOM     60  C   UNL A   1      36.618  32.754  30.783  1.00  0.00     0.010 A 
ATOM     61  C   UNL A   1      35.970  33.719  28.235  1.00  0.00     0.020 A 
ATOM     62  C   UNL A   1      35.369  33.344  30.560  1.00  0.00     0.020 A 
ATOM     63  C   UNL A   1      35.063  33.843  29.292  1.00  0.00     0.054 A 
BRANCH  63  64
ATOM     64  S   UNL A   1      33.466  34.644  28.981  1.00  0.00     0.124 S 
ATOM     65  O   UNL A   1      32.873  34.658  30.315  1.00  0.00    -0.237 OA
ATOM     66  O   UNL A   1      33.858  35.949  28.455  1.00  0.00    -0.237 OA
ATOM     67  O   UNL A   1      32.815  33.758  28.020  1.00  0.00    -0.744 OA
ENDBRANCH  63  64
ENDBRANCH  44  58
BRANCH  45  68
ATOM     68  C   UNL A   1      46.354  28.101  31.055  1.00  0.00    -0.014 A 
ATOM     69  C   UNL A   1      47.343  28.211  30.061  1.00  0.00     0.010 A 
ATOM     70  C   UNL A   1      46.639  27.374  32.225  1.00  0.00     0.010 A 
ATOM     71  C   UNL A   1      48.587  27.595  30.228  1.00  0.00     0.020 A 
ATOM     72  C   UNL A   1      47.889  26.778  32.406  1.00  0.00     0.020 A 
ATOM     73  C   UNL A   1      48.854  26.884  31.401  1.00  0.00     0.054 A 
BRANCH  73  74
ATOM     74  S   UNL A   1      50.495  26.142  31.623  1.00  0.00     0.124 S 
ATOM     75  O   UNL A   1      51.340  27.040  30.842  1.00  0.00    -0.237 OA
ATOM     76  O   UNL A   1      50.675  26.201  33.071  1.00  0.00    -0.237 OA
ATOM     77  O   UNL A   1      50.336  24.796  31.078  1.00  0.00    -0.744 OA
ENDBRANCH  73  74
ENDBRANCH  45  68
BRANCH  57  78
ATOM     78  C   UNL A   1      43.861  34.399  32.747  1.00  0.00    -0.014 A 
ATOM     79  C   UNL A   1      44.470  35.460  32.055  1.00  0.00     0.010 A 
ATOM     80  C   UNL A   1      43.722  34.479  34.144  1.00  0.00     0.010 A 
ATOM     81  C   UNL A   1      44.938  36.577  32.751  1.00  0.00     0.020 A 
ATOM     82  C   UNL A   1      44.168  35.604  34.841  1.00  0.00     0.020 A 
ATOM     83  C   UNL A   1      44.780  36.645  34.140  1.00  0.00     0.054 A 
BRANCH  83  84
ATOM     84  S   UNL A   1      45.324  38.140  35.011  1.00  0.00     0.124 S 
ATOM     85  O   UNL A   1      46.054  38.852  33.965  1.00  0.00    -0.237 OA
ATOM     86  O   UNL A   1      44.062  38.750  35.423  1.00  0.00    -0.237 OA
ATOM     87  O   UNL A   1      46.146  37.625  36.104  1.00  0.00    -0.744 OA
ENDBRANCH  83  84
ENDBRANCH  57  78
ENDBRANCH  31  32
ENDBRANCH  23  26
ENDBRANCH  21  22
ENDBRANCH  20  21
ENDBRANCH  19  20
ENDBRANCH  18  19
ENDBRANCH   1  18
TORSDOF 22
ENDMDL
