MODEL 1
REMARK VINA RESULT:     -11.1      0.000      0.000
REMARK SMILES NS(=O)(=O)c1ccc(N2N=C(C(=O)NCCCCCCNC(=O)c3ccc(-c4c5nc(c(-c6ccc(S(=O)(=O)[O-])cc6)c6ccc([nH]6)c(-c6ccc(S(=O)(=O)[O-])cc6)c6nc(c(-c7ccc(S(=O)(=O)[O-])cc7)c7ccc4[nH]7)C=C6)C=C5)cc3)C[C@H]2c2cccs2)cc1
REMARK SMILES IDX 17 1 16 2 15 3 14 4 12 5 13 6 11 8 9 9 10 10 85 11 84 12
REMARK SMILES IDX 8 13 5 14 6 15 92 16 7 17 91 18 2 19 3 20 4 21 1 22 86 25
REMARK SMILES IDX 87 26 90 27 88 28 89 29 18 30 19 31 20 32 21 33 22 34 23 36
REMARK SMILES IDX 24 37 25 38 83 39 26 40 82 41 27 42 28 43 29 44 76 45 30 46
REMARK SMILES IDX 81 47 75 48 77 49 31 50 80 51 74 52 73 53 32 55 62 56 43 57
REMARK SMILES IDX 61 58 44 59 47 60 60 61 78 62 45 63 46 64 59 66 79 67 48 68
REMARK SMILES IDX 33 69 34 70 42 71 35 72 41 73 36 74 37 75 38 76 39 77 40 78
REMARK SMILES IDX 63 79 64 80 72 81 65 82 71 83 66 84 67 85 68 86 69 87 70 88
REMARK SMILES IDX 49 89 50 90 58 91 51 92 57 93 52 94 53 95 54 96 55 97 56 98
REMARK H PARENT 14 7 1 23 1 24 21 35 77 54 47 65
REMARK Flexibility Score: inf
ROOT
ATOM      1  C   UNL A   1      35.630  22.051  25.611  1.00  0.00     0.002 C 
ENDROOT
BRANCH   1   2
ATOM      2  C   UNL A   1      34.334  21.415  25.103  1.00  0.00     0.021 C 
BRANCH   2   3
ATOM      3  C   UNL A   1      33.216  22.396  24.755  1.00  0.00     0.116 C 
BRANCH   3   4
ATOM      4  N   UNL A   1      32.310  22.592  25.868  1.00  0.00    -0.351 N 
ATOM      5  C   UNL A   1      31.721  23.693  26.437  1.00  0.00     0.267 C 
ATOM      6  O   UNL A   1      31.022  23.508  27.432  1.00  0.00    -0.268 OA
ATOM      7  H   UNL A   1      32.063  21.750  26.315  1.00  0.00     0.163 HD
BRANCH   5   8
ATOM      8  C   UNL A   1      31.850  25.111  25.898  1.00  0.00     0.128 C 
ATOM      9  N   UNL A   1      31.951  27.248  25.955  1.00  0.00    -0.256 N 
ATOM     10  N   UNL A   1      32.029  26.114  26.706  1.00  0.00    -0.171 NA
ATOM     11  C   UNL A   1      31.782  26.990  24.522  1.00  0.00     0.154 C 
ATOM     12  C   UNL A   1      31.822  25.461  24.448  1.00  0.00     0.097 C 
BRANCH   9  13
ATOM     13  C   UNL A   1      32.510  28.443  26.405  1.00  0.00     0.060 A 
ATOM     14  C   UNL A   1      33.633  30.812  27.421  1.00  0.00     0.082 A 
ATOM     15  C   UNL A   1      32.291  30.792  27.036  1.00  0.00     0.024 A 
ATOM     16  C   UNL A   1      34.428  29.676  27.272  1.00  0.00     0.024 A 
ATOM     17  C   UNL A   1      31.743  29.612  26.517  1.00  0.00     0.029 A 
ATOM     18  C   UNL A   1      33.860  28.503  26.773  1.00  0.00     0.029 A 
BRANCH  14  19
ATOM     19  S   UNL A   1      34.374  32.277  28.068  1.00  0.00     0.238 S 
ATOM     20  O   UNL A   1      33.401  33.348  28.036  1.00  0.00    -0.207 OA
ATOM     21  O   UNL A   1      35.695  32.410  27.509  1.00  0.00    -0.207 OA
BRANCH  19  22
ATOM     22  N   UNL A   1      34.592  31.947  29.702  1.00  0.00    -0.225 NA
ATOM     23  H   UNL A   1      33.711  31.626  30.104  1.00  0.00     0.137 HD
ATOM     24  H   UNL A   1      34.896  32.794  30.182  1.00  0.00     0.137 HD
ENDBRANCH  19  22
ENDBRANCH  14  19
ENDBRANCH   9  13
BRANCH  11  25
ATOM     25  C   UNL A   1      30.569  27.597  23.851  1.00  0.00     0.030 A 
ATOM     26  C   UNL A   1      29.282  27.086  23.839  1.00  0.00     0.017 A 
ATOM     27  S   UNL A   1      30.655  29.052  22.941  1.00  0.00    -0.147 S 
ATOM     28  C   UNL A   1      28.366  27.916  23.134  1.00  0.00     0.012 A 
ATOM     29  C   UNL A   1      28.975  29.044  22.634  1.00  0.00     0.065 A 
ENDBRANCH  11  25
ENDBRANCH   5   8
ENDBRANCH   3   4
ENDBRANCH   2   3
ENDBRANCH   1   2
BRANCH   1  30
ATOM     30  C   UNL A   1      36.848  21.907  24.694  1.00  0.00     0.002 C 
BRANCH  30  31
ATOM     31  C   UNL A   1      37.783  20.734  25.001  1.00  0.00     0.021 C 
BRANCH  31  32
ATOM     32  C   UNL A   1      38.997  21.066  25.864  1.00  0.00     0.116 C 
BRANCH  32  33
ATOM     33  N   UNL A   1      39.946  19.970  25.938  1.00  0.00    -0.352 N 
ATOM     34  C   UNL A   1      41.304  20.007  26.140  1.00  0.00     0.251 C 
ATOM     35  H   UNL A   1      39.562  19.070  25.827  1.00  0.00     0.163 HD
ATOM     36  O   UNL A   1      41.968  18.982  26.020  1.00  0.00    -0.269 OA
BRANCH  34  37
ATOM     37  C   UNL A   1      41.971  21.286  26.477  1.00  0.00     0.039 A 
ATOM     38  C   UNL A   1      42.241  22.192  25.449  1.00  0.00     0.014 A 
ATOM     39  C   UNL A   1      42.343  21.585  27.791  1.00  0.00     0.014 A 
ATOM     40  C   UNL A   1      42.834  23.422  25.746  1.00  0.00     0.010 A 
ATOM     41  C   UNL A   1      42.874  22.837  28.095  1.00  0.00     0.010 A 
ATOM     42  C   UNL A   1      43.131  23.766  27.075  1.00  0.00    -0.014 A 
BRANCH  42  43
ATOM     43  C   UNL A   1      43.702  25.094  27.416  1.00  0.00     0.031 A 
ATOM     44  C   UNL A   1      45.152  25.389  27.151  1.00  0.00     0.074 A 
ATOM     45  C   UNL A   1      42.933  26.010  28.037  1.00  0.00     0.049 A 
ATOM     46  N   UNL A   1      45.838  26.469  27.428  1.00  0.00    -0.248 NA
ATOM     47  C   UNL A   1      45.942  24.321  26.521  1.00  0.00     0.031 C 
ATOM     48  C   UNL A   1      41.527  25.824  28.403  1.00  0.00     0.029 A 
ATOM     49  N   UNL A   1      43.231  27.272  28.485  1.00  0.00    -0.354 N 
ATOM     50  C   UNL A   1      47.142  26.201  27.031  1.00  0.00     0.074 A 
ATOM     51  C   UNL A   1      47.160  24.842  26.534  1.00  0.00     0.031 C 
ATOM     52  C   UNL A   1      41.082  26.936  29.011  1.00  0.00     0.029 A 
ATOM     53  C   UNL A   1      42.176  27.899  29.103  1.00  0.00     0.049 A 
ATOM     54  H   UNL A   1      44.115  27.689  28.373  1.00  0.00     0.167 HD
ATOM     55  C   UNL A   1      48.226  27.014  27.065  1.00  0.00     0.031 A 
ATOM     56  C   UNL A   1      42.094  29.110  29.690  1.00  0.00     0.031 A 
ATOM     57  C   UNL A   1      48.204  28.369  27.551  1.00  0.00     0.049 A 
ATOM     58  C   UNL A   1      43.296  30.010  29.690  1.00  0.00     0.074 A 
ATOM     59  C   UNL A   1      49.227  29.301  27.552  1.00  0.00     0.029 A 
ATOM     60  N   UNL A   1      47.104  28.983  28.133  1.00  0.00    -0.354 N 
ATOM     61  N   UNL A   1      44.500  29.773  29.226  1.00  0.00    -0.248 NA
ATOM     62  C   UNL A   1      43.125  31.346  30.275  1.00  0.00     0.031 C 
ATOM     63  C   UNL A   1      48.760  30.462  28.180  1.00  0.00     0.029 A 
ATOM     64  C   UNL A   1      47.430  30.271  28.521  1.00  0.00     0.049 A 
ATOM     65  H   UNL A   1      46.221  28.564  28.251  1.00  0.00     0.167 HD
ATOM     66  C   UNL A   1      45.228  30.935  29.450  1.00  0.00     0.074 A 
ATOM     67  C   UNL A   1      44.323  31.880  30.076  1.00  0.00     0.031 C 
ATOM     68  C   UNL A   1      46.526  31.197  29.159  1.00  0.00     0.031 A 
BRANCH  55  69
ATOM     69  C   UNL A   1      49.532  26.439  26.583  1.00  0.00    -0.014 A 
ATOM     70  C   UNL A   1      50.387  25.737  27.452  1.00  0.00     0.010 A 
ATOM     71  C   UNL A   1      49.916  26.611  25.240  1.00  0.00     0.010 A 
ATOM     72  C   UNL A   1      51.632  25.281  27.007  1.00  0.00     0.020 A 
ATOM     73  C   UNL A   1      51.145  26.129  24.783  1.00  0.00     0.020 A 
ATOM     74  C   UNL A   1      52.007  25.493  25.677  1.00  0.00     0.054 A 
BRANCH  74  75
ATOM     75  S   UNL A   1      53.638  24.918  25.129  1.00  0.00     0.124 S 
ATOM     76  O   UNL A   1      53.777  25.597  23.843  1.00  0.00    -0.237 OA
ATOM     77  O   UNL A   1      54.522  25.396  26.190  1.00  0.00    -0.237 OA
ATOM     78  O   UNL A   1      53.487  23.467  25.056  1.00  0.00    -0.744 OA
ENDBRANCH  74  75
ENDBRANCH  55  69
BRANCH  56  79
ATOM     79  C   UNL A   1      40.808  29.530  30.305  1.00  0.00    -0.014 A 
ATOM     80  C   UNL A   1      40.592  29.377  31.685  1.00  0.00     0.010 A 
ATOM     81  C   UNL A   1      39.823  30.159  29.522  1.00  0.00     0.010 A 
ATOM     82  C   UNL A   1      39.418  29.857  32.273  1.00  0.00     0.020 A 
ATOM     83  C   UNL A   1      38.658  30.659  30.110  1.00  0.00     0.020 A 
ATOM     84  C   UNL A   1      38.463  30.504  31.484  1.00  0.00     0.054 A 
BRANCH  84  85
ATOM     85  S   UNL A   1      36.999  31.217  32.286  1.00  0.00     0.124 S 
ATOM     86  O   UNL A   1      37.377  31.185  33.694  1.00  0.00    -0.237 OA
ATOM     87  O   UNL A   1      36.923  32.545  31.679  1.00  0.00    -0.237 OA
ATOM     88  O   UNL A   1      35.924  30.305  31.902  1.00  0.00    -0.744 OA
ENDBRANCH  84  85
ENDBRANCH  56  79
BRANCH  68  89
ATOM     89  C   UNL A   1      47.051  32.565  29.502  1.00  0.00    -0.014 A 
ATOM     90  C   UNL A   1      47.667  32.817  30.741  1.00  0.00     0.010 A 
ATOM     91  C   UNL A   1      46.977  33.598  28.550  1.00  0.00     0.010 A 
ATOM     92  C   UNL A   1      48.177  34.086  31.031  1.00  0.00     0.020 A 
ATOM     93  C   UNL A   1      47.507  34.860  28.826  1.00  0.00     0.020 A 
ATOM     94  C   UNL A   1      48.092  35.100  30.072  1.00  0.00     0.054 A 
BRANCH  94  95
ATOM     95  S   UNL A   1      48.802  36.726  30.453  1.00  0.00     0.124 S 
ATOM     96  O   UNL A   1      47.606  37.551  30.600  1.00  0.00    -0.237 OA
ATOM     97  O   UNL A   1      49.546  36.472  31.684  1.00  0.00    -0.237 OA
ATOM     98  O   UNL A   1      49.627  37.025  29.284  1.00  0.00    -0.744 OA
ENDBRANCH  94  95
ENDBRANCH  68  89
ENDBRANCH  42  43
ENDBRANCH  34  37
ENDBRANCH  32  33
ENDBRANCH  31  32
ENDBRANCH  30  31
ENDBRANCH   1  30
TORSDOF 20
ENDMDL
MODEL 2
REMARK VINA RESULT:     -10.1      1.974      8.443
REMARK SMILES NS(=O)(=O)c1ccc(N2N=C(C(=O)NCCCCCCNC(=O)c3ccc(-c4c5nc(c(-c6ccc(S(=O)(=O)[O-])cc6)c6ccc([nH]6)c(-c6ccc(S(=O)(=O)[O-])cc6)c6nc(c(-c7ccc(S(=O)(=O)[O-])cc7)c7ccc4[nH]7)C=C6)C=C5)cc3)C[C@H]2c2cccs2)cc1
REMARK SMILES IDX 17 1 16 2 15 3 14 4 12 5 13 6 11 8 9 9 10 10 85 11 84 12
REMARK SMILES IDX 8 13 5 14 6 15 92 16 7 17 91 18 2 19 3 20 4 21 1 22 86 25
REMARK SMILES IDX 87 26 90 27 88 28 89 29 18 30 19 31 20 32 21 33 22 34 23 36
REMARK SMILES IDX 24 37 25 38 83 39 26 40 82 41 27 42 28 43 29 44 76 45 30 46
REMARK SMILES IDX 81 47 75 48 77 49 31 50 80 51 74 52 73 53 32 55 62 56 43 57
REMARK SMILES IDX 61 58 44 59 47 60 60 61 78 62 45 63 46 64 59 66 79 67 48 68
REMARK SMILES IDX 33 69 34 70 42 71 35 72 41 73 36 74 37 75 38 76 39 77 40 78
REMARK SMILES IDX 63 79 64 80 72 81 65 82 71 83 66 84 67 85 68 86 69 87 70 88
REMARK SMILES IDX 49 89 50 90 58 91 51 92 57 93 52 94 53 95 54 96 55 97 56 98
REMARK H PARENT 14 7 1 23 1 24 21 35 77 54 47 65
REMARK Flexibility Score: inf
ROOT
ATOM      1  C   UNL A   1      35.672  21.732  26.057  1.00  0.00     0.002 C 
ENDROOT
BRANCH   1   2
ATOM      2  C   UNL A   1      34.709  22.838  25.615  1.00  0.00     0.021 C 
BRANCH   2   3
ATOM      3  C   UNL A   1      34.658  23.099  24.112  1.00  0.00     0.116 C 
BRANCH   3   4
ATOM      4  N   UNL A   1      33.429  22.607  23.524  1.00  0.00    -0.351 N 
ATOM      5  C   UNL A   1      32.149  23.094  23.439  1.00  0.00     0.267 C 
ATOM      6  O   UNL A   1      31.308  22.380  22.896  1.00  0.00    -0.268 OA
ATOM      7  H   UNL A   1      33.535  21.730  23.090  1.00  0.00     0.163 HD
BRANCH   5   8
ATOM      8  C   UNL A   1      31.717  24.466  23.939  1.00  0.00     0.128 C 
ATOM      9  N   UNL A   1      31.202  26.540  23.828  1.00  0.00    -0.256 N 
ATOM     10  N   UNL A   1      31.386  25.404  23.100  1.00  0.00    -0.171 NA
ATOM     11  C   UNL A   1      31.346  26.340  25.273  1.00  0.00     0.154 C 
ATOM     12  C   UNL A   1      31.604  24.834  25.380  1.00  0.00     0.097 C 
BRANCH   9  13
ATOM     13  C   UNL A   1      30.442  27.595  23.325  1.00  0.00     0.060 A 
ATOM     14  C   UNL A   1      28.939  29.786  22.405  1.00  0.00     0.082 A 
ATOM     15  C   UNL A   1      28.287  28.684  22.963  1.00  0.00     0.024 A 
ATOM     16  C   UNL A   1      30.327  29.791  22.270  1.00  0.00     0.024 A 
ATOM     17  C   UNL A   1      29.042  27.591  23.406  1.00  0.00     0.029 A 
ATOM     18  C   UNL A   1      31.065  28.703  22.735  1.00  0.00     0.029 A 
BRANCH  14  19
ATOM     19  S   UNL A   1      28.032  31.182  21.820  1.00  0.00     0.238 S 
ATOM     20  O   UNL A   1      27.071  31.573  22.829  1.00  0.00    -0.207 OA
ATOM     21  O   UNL A   1      27.665  30.950  20.446  1.00  0.00    -0.207 OA
BRANCH  19  22
ATOM     22  N   UNL A   1      29.158  32.430  21.795  1.00  0.00    -0.225 NA
ATOM     23  H   UNL A   1      28.678  33.324  21.901  1.00  0.00     0.137 HD
ATOM     24  H   UNL A   1      29.660  32.417  20.907  1.00  0.00     0.137 HD
ENDBRANCH  19  22
ENDBRANCH  14  19
ENDBRANCH   9  13
BRANCH  11  25
ATOM     25  C   UNL A   1      32.381  27.184  25.986  1.00  0.00     0.030 A 
ATOM     26  C   UNL A   1      33.698  27.383  25.604  1.00  0.00     0.017 A 
ATOM     27  S   UNL A   1      32.041  28.009  27.454  1.00  0.00    -0.147 S 
ATOM     28  C   UNL A   1      34.400  28.253  26.483  1.00  0.00     0.012 A 
ATOM     29  C   UNL A   1      33.600  28.702  27.509  1.00  0.00     0.065 A 
ENDBRANCH  11  25
ENDBRANCH   5   8
ENDBRANCH   3   4
ENDBRANCH   2   3
ENDBRANCH   1   2
BRANCH   1  30
ATOM     30  C   UNL A   1      37.079  21.795  25.456  1.00  0.00     0.002 C 
BRANCH  30  31
ATOM     31  C   UNL A   1      37.919  20.521  25.583  1.00  0.00     0.021 C 
BRANCH  31  32
ATOM     32  C   UNL A   1      39.420  20.697  25.377  1.00  0.00     0.116 C 
BRANCH  32  33
ATOM     33  N   UNL A   1      40.203  19.715  26.106  1.00  0.00    -0.352 N 
ATOM     34  C   UNL A   1      41.369  19.882  26.813  1.00  0.00     0.251 C 
ATOM     35  H   UNL A   1      39.848  18.797  26.091  1.00  0.00     0.163 HD
ATOM     36  O   UNL A   1      41.970  18.901  27.239  1.00  0.00    -0.269 OA
BRANCH  34  37
ATOM     37  C   UNL A   1      41.913  21.241  27.040  1.00  0.00     0.039 A 
ATOM     38  C   UNL A   1      42.267  21.613  28.339  1.00  0.00     0.014 A 
ATOM     39  C   UNL A   1      42.059  22.147  25.986  1.00  0.00     0.014 A 
ATOM     40  C   UNL A   1      42.820  22.875  28.573  1.00  0.00     0.010 A 
ATOM     41  C   UNL A   1      42.670  23.380  26.210  1.00  0.00     0.010 A 
ATOM     42  C   UNL A   1      43.050  23.759  27.506  1.00  0.00    -0.014 A 
BRANCH  42  43
ATOM     43  C   UNL A   1      43.696  25.078  27.728  1.00  0.00     0.031 A 
ATOM     44  C   UNL A   1      42.887  26.247  28.219  1.00  0.00     0.074 A 
ATOM     45  C   UNL A   1      44.995  25.246  27.411  1.00  0.00     0.049 A 
ATOM     46  N   UNL A   1      43.264  27.484  28.421  1.00  0.00    -0.248 NA
ATOM     47  C   UNL A   1      41.463  26.001  28.491  1.00  0.00     0.031 C 
ATOM     48  C   UNL A   1      45.872  24.207  26.868  1.00  0.00     0.029 A 
ATOM     49  N   UNL A   1      45.797  26.357  27.483  1.00  0.00    -0.354 N 
ATOM     50  C   UNL A   1      42.122  28.168  28.817  1.00  0.00     0.074 A 
ATOM     51  C   UNL A   1      41.031  27.218  28.786  1.00  0.00     0.031 C 
ATOM     52  C   UNL A   1      47.094  24.728  26.667  1.00  0.00     0.029 A 
ATOM     53  C   UNL A   1      47.078  26.140  27.036  1.00  0.00     0.049 A 
ATOM     54  H   UNL A   1      45.484  27.226  27.823  1.00  0.00     0.167 HD
ATOM     55  C   UNL A   1      41.992  29.466  29.186  1.00  0.00     0.031 A 
ATOM     56  C   UNL A   1      48.124  26.982  26.925  1.00  0.00     0.031 A 
ATOM     57  C   UNL A   1      43.082  30.407  29.226  1.00  0.00     0.049 A 
ATOM     58  C   UNL A   1      47.971  28.409  27.367  1.00  0.00     0.074 A 
ATOM     59  C   UNL A   1      43.070  31.720  29.661  1.00  0.00     0.029 A 
ATOM     60  N   UNL A   1      44.375  30.137  28.803  1.00  0.00    -0.354 N 
ATOM     61  N   UNL A   1      46.903  29.016  27.827  1.00  0.00    -0.248 NA
ATOM     62  C   UNL A   1      49.167  29.259  27.294  1.00  0.00     0.031 C 
ATOM     63  C   UNL A   1      44.345  32.260  29.456  1.00  0.00     0.029 A 
ATOM     64  C   UNL A   1      45.164  31.266  28.942  1.00  0.00     0.049 A 
ATOM     65  H   UNL A   1      44.686  29.270  28.457  1.00  0.00     0.167 HD
ATOM     66  C   UNL A   1      47.300  30.317  28.112  1.00  0.00     0.074 A 
ATOM     67  C   UNL A   1      48.711  30.403  27.787  1.00  0.00     0.031 C 
ATOM     68  C   UNL A   1      46.564  31.345  28.601  1.00  0.00     0.031 A 
BRANCH  55  69
ATOM     69  C   UNL A   1      40.610  29.943  29.549  1.00  0.00    -0.014 A 
ATOM     70  C   UNL A   1      40.271  30.253  30.879  1.00  0.00     0.010 A 
ATOM     71  C   UNL A   1      39.632  30.074  28.547  1.00  0.00     0.010 A 
ATOM     72  C   UNL A   1      38.961  30.617  31.209  1.00  0.00     0.020 A 
ATOM     73  C   UNL A   1      38.330  30.467  28.868  1.00  0.00     0.020 A 
ATOM     74  C   UNL A   1      37.997  30.707  30.202  1.00  0.00     0.054 A 
BRANCH  74  75
ATOM     75  S   UNL A   1      36.298  31.151  30.658  1.00  0.00     0.124 S 
ATOM     76  O   UNL A   1      35.995  30.157  31.685  1.00  0.00    -0.237 OA
ATOM     77  O   UNL A   1      36.441  32.524  31.137  1.00  0.00    -0.237 OA
ATOM     78  O   UNL A   1      35.555  31.005  29.409  1.00  0.00    -0.744 OA
ENDBRANCH  74  75
ENDBRANCH  55  69
BRANCH  56  79
ATOM     79  C   UNL A   1      49.410  26.470  26.383  1.00  0.00    -0.014 A 
ATOM     80  C   UNL A   1      49.707  26.588  25.016  1.00  0.00     0.010 A 
ATOM     81  C   UNL A   1      50.377  25.931  27.252  1.00  0.00     0.010 A 
ATOM     82  C   UNL A   1      50.955  26.187  24.527  1.00  0.00     0.020 A 
ATOM     83  C   UNL A   1      51.633  25.550  26.770  1.00  0.00     0.020 A 
ATOM     84  C   UNL A   1      51.913  25.681  25.409  1.00  0.00     0.054 A 
BRANCH  84  85
ATOM     85  S   UNL A   1      53.563  25.272  24.772  1.00  0.00     0.124 S 
ATOM     86  O   UNL A   1      53.554  23.814  24.818  1.00  0.00    -0.237 OA
ATOM     87  O   UNL A   1      53.541  25.865  23.437  1.00  0.00    -0.237 OA
ATOM     88  O   UNL A   1      54.465  25.926  25.719  1.00  0.00    -0.744 OA
ENDBRANCH  84  85
ENDBRANCH  56  79
BRANCH  68  89
ATOM     89  C   UNL A   1      47.268  32.655  28.830  1.00  0.00    -0.014 A 
ATOM     90  C   UNL A   1      47.344  33.626  27.816  1.00  0.00     0.010 A 
ATOM     91  C   UNL A   1      47.813  32.939  30.096  1.00  0.00     0.010 A 
ATOM     92  C   UNL A   1      47.975  34.850  28.057  1.00  0.00     0.020 A 
ATOM     93  C   UNL A   1      48.424  34.170  30.347  1.00  0.00     0.020 A 
ATOM     94  C   UNL A   1      48.513  35.114  29.321  1.00  0.00     0.054 A 
BRANCH  94  95
ATOM     95  S   UNL A   1      49.287  36.726  29.623  1.00  0.00     0.124 S 
ATOM     96  O   UNL A   1      48.160  37.516  30.112  1.00  0.00    -0.237 OA
ATOM     97  O   UNL A   1      50.310  36.411  30.617  1.00  0.00    -0.237 OA
ATOM     98  O   UNL A   1      49.800  37.115  28.311  1.00  0.00    -0.744 OA
ENDBRANCH  94  95
ENDBRANCH  68  89
ENDBRANCH  42  43
ENDBRANCH  34  37
ENDBRANCH  32  33
ENDBRANCH  31  32
ENDBRANCH  30  31
ENDBRANCH   1  30
TORSDOF 20
ENDMDL
MODEL 3
REMARK VINA RESULT:     -10.0      2.861      9.400
REMARK SMILES NS(=O)(=O)c1ccc(N2N=C(C(=O)NCCCCCCNC(=O)c3ccc(-c4c5nc(c(-c6ccc(S(=O)(=O)[O-])cc6)c6ccc([nH]6)c(-c6ccc(S(=O)(=O)[O-])cc6)c6nc(c(-c7ccc(S(=O)(=O)[O-])cc7)c7ccc4[nH]7)C=C6)C=C5)cc3)C[C@H]2c2cccs2)cc1
REMARK SMILES IDX 17 1 16 2 15 3 14 4 12 5 13 6 11 8 9 9 10 10 85 11 84 12
REMARK SMILES IDX 8 13 5 14 6 15 92 16 7 17 91 18 2 19 3 20 4 21 1 22 86 25
REMARK SMILES IDX 87 26 90 27 88 28 89 29 18 30 19 31 20 32 21 33 22 34 23 36
REMARK SMILES IDX 24 37 25 38 83 39 26 40 82 41 27 42 28 43 29 44 76 45 30 46
REMARK SMILES IDX 81 47 75 48 77 49 31 50 80 51 74 52 73 53 32 55 62 56 43 57
REMARK SMILES IDX 61 58 44 59 47 60 60 61 78 62 45 63 46 64 59 66 79 67 48 68
REMARK SMILES IDX 33 69 34 70 42 71 35 72 41 73 36 74 37 75 38 76 39 77 40 78
REMARK SMILES IDX 63 79 64 80 72 81 65 82 71 83 66 84 67 85 68 86 69 87 70 88
REMARK SMILES IDX 49 89 50 90 58 91 51 92 57 93 52 94 53 95 54 96 55 97 56 98
REMARK H PARENT 14 7 1 23 1 24 21 35 77 54 47 65
REMARK Flexibility Score: inf
ROOT
ATOM      1  C   UNL A   1      33.874  28.881  26.865  1.00  0.00     0.002 C 
ENDROOT
BRANCH   1   2
ATOM      2  C   UNL A   1      32.513  28.195  27.014  1.00  0.00     0.021 C 
BRANCH   2   3
ATOM      3  C   UNL A   1      32.255  27.039  26.050  1.00  0.00     0.116 C 
BRANCH   3   4
ATOM      4  N   UNL A   1      31.380  26.042  26.632  1.00  0.00    -0.351 N 
ATOM      5  C   UNL A   1      31.335  24.671  26.591  1.00  0.00     0.267 C 
ATOM      6  O   UNL A   1      30.404  24.120  27.176  1.00  0.00    -0.268 OA
ATOM      7  H   UNL A   1      30.661  26.433  27.178  1.00  0.00     0.163 HD
BRANCH   5   8
ATOM      8  C   UNL A   1      32.374  23.798  25.901  1.00  0.00     0.128 C 
ATOM      9  N   UNL A   1      33.539  22.047  25.507  1.00  0.00    -0.256 N 
ATOM     10  N   UNL A   1      32.429  22.520  26.137  1.00  0.00    -0.171 NA
ATOM     11  C   UNL A   1      34.247  23.065  24.724  1.00  0.00     0.154 C 
ATOM     12  C   UNL A   1      33.362  24.302  24.904  1.00  0.00     0.097 C 
BRANCH   9  13
ATOM     13  C   UNL A   1      33.662  20.694  25.195  1.00  0.00     0.060 A 
ATOM     14  C   UNL A   1      33.885  17.939  24.678  1.00  0.00     0.082 A 
ATOM     15  C   UNL A   1      35.039  18.716  24.800  1.00  0.00     0.024 A 
ATOM     16  C   UNL A   1      32.624  18.526  24.776  1.00  0.00     0.024 A 
ATOM     17  C   UNL A   1      34.919  20.089  25.044  1.00  0.00     0.029 A 
ATOM     18  C   UNL A   1      32.523  19.893  25.039  1.00  0.00     0.029 A 
BRANCH  14  19
ATOM     19  S   UNL A   1      33.983  16.206  24.359  1.00  0.00     0.238 S 
ATOM     20  O   UNL A   1      32.679  15.616  24.571  1.00  0.00    -0.207 OA
ATOM     21  O   UNL A   1      35.178  15.691  24.975  1.00  0.00    -0.207 OA
BRANCH  19  22
ATOM     22  N   UNL A   1      34.234  16.102  22.699  1.00  0.00    -0.225 NA
ATOM     23  H   UNL A   1      33.603  16.744  22.219  1.00  0.00     0.137 HD
ATOM     24  H   UNL A   1      34.049  15.149  22.387  1.00  0.00     0.137 HD
ENDBRANCH  19  22
ENDBRANCH  14  19
ENDBRANCH   9  13
BRANCH  11  25
ATOM     25  C   UNL A   1      35.702  23.307  25.064  1.00  0.00     0.030 A 
ATOM     26  C   UNL A   1      36.204  23.843  26.239  1.00  0.00     0.017 A 
ATOM     27  S   UNL A   1      36.972  22.963  23.960  1.00  0.00    -0.147 S 
ATOM     28  C   UNL A   1      37.624  23.916  26.247  1.00  0.00     0.012 A 
ATOM     29  C   UNL A   1      38.171  23.426  25.084  1.00  0.00     0.065 A 
ENDBRANCH  11  25
ENDBRANCH   5   8
ENDBRANCH   3   4
ENDBRANCH   2   3
ENDBRANCH   1   2
BRANCH   1  30
ATOM     30  C   UNL A   1      34.002  30.258  27.524  1.00  0.00     0.002 C 
BRANCH  30  31
ATOM     31  C   UNL A   1      35.379  30.600  28.100  1.00  0.00     0.021 C 
BRANCH  31  32
ATOM     32  C   UNL A   1      35.914  29.631  29.150  1.00  0.00     0.116 C 
BRANCH  32  33
ATOM     33  N   UNL A   1      36.006  30.232  30.468  1.00  0.00    -0.352 N 
ATOM     34  C   UNL A   1      37.116  30.463  31.245  1.00  0.00     0.251 C 
ATOM     35  H   UNL A   1      35.150  30.516  30.864  1.00  0.00     0.163 HD
ATOM     36  O   UNL A   1      36.982  30.845  32.403  1.00  0.00    -0.269 OA
BRANCH  34  37
ATOM     37  C   UNL A   1      38.470  30.226  30.695  1.00  0.00     0.039 A 
ATOM     38  C   UNL A   1      39.383  29.490  31.453  1.00  0.00     0.014 A 
ATOM     39  C   UNL A   1      38.845  30.738  29.449  1.00  0.00     0.014 A 
ATOM     40  C   UNL A   1      40.654  29.219  30.940  1.00  0.00     0.010 A 
ATOM     41  C   UNL A   1      40.089  30.413  28.911  1.00  0.00     0.010 A 
ATOM     42  C   UNL A   1      41.008  29.656  29.653  1.00  0.00    -0.014 A 
BRANCH  42  43
ATOM     43  C   UNL A   1      42.331  29.322  29.066  1.00  0.00     0.031 A 
ATOM     44  C   UNL A   1      42.601  27.942  28.532  1.00  0.00     0.074 A 
ATOM     45  C   UNL A   1      43.318  30.239  29.085  1.00  0.00     0.049 A 
ATOM     46  N   UNL A   1      43.707  27.453  28.032  1.00  0.00    -0.248 NA
ATOM     47  C   UNL A   1      41.492  26.978  28.596  1.00  0.00     0.031 C 
ATOM     48  C   UNL A   1      43.202  31.594  29.629  1.00  0.00     0.029 A 
ATOM     49  N   UNL A   1      44.618  30.164  28.650  1.00  0.00    -0.354 N 
ATOM     50  C   UNL A   1      43.436  26.120  27.747  1.00  0.00     0.074 A 
ATOM     51  C   UNL A   1      42.075  25.868  28.169  1.00  0.00     0.031 C 
ATOM     52  C   UNL A   1      44.379  32.225  29.486  1.00  0.00     0.029 A 
ATOM     53  C   UNL A   1      45.338  31.313  28.869  1.00  0.00     0.049 A 
ATOM     54  H   UNL A   1      44.997  29.363  28.221  1.00  0.00     0.167 HD
ATOM     55  C   UNL A   1      44.241  25.192  27.175  1.00  0.00     0.031 A 
ATOM     56  C   UNL A   1      46.629  31.603  28.614  1.00  0.00     0.031 A 
ATOM     57  C   UNL A   1      45.592  25.448  26.746  1.00  0.00     0.049 A 
ATOM     58  C   UNL A   1      47.498  30.574  27.951  1.00  0.00     0.074 A 
ATOM     59  C   UNL A   1      46.461  24.599  26.084  1.00  0.00     0.029 A 
ATOM     60  N   UNL A   1      46.273  26.639  26.950  1.00  0.00    -0.354 N 
ATOM     61  N   UNL A   1      47.196  29.345  27.604  1.00  0.00    -0.248 NA
ATOM     62  C   UNL A   1      48.874  30.974  27.628  1.00  0.00     0.031 C 
ATOM     63  C   UNL A   1      47.684  25.261  25.930  1.00  0.00     0.029 A 
ATOM     64  C   UNL A   1      47.560  26.540  26.450  1.00  0.00     0.049 A 
ATOM     65  H   UNL A   1      45.896  27.438  27.385  1.00  0.00     0.167 HD
ATOM     66  C   UNL A   1      48.340  28.828  27.008  1.00  0.00     0.074 A 
ATOM     67  C   UNL A   1      49.335  29.884  27.028  1.00  0.00     0.031 C 
ATOM     68  C   UNL A   1      48.547  27.592  26.490  1.00  0.00     0.031 A 
BRANCH  55  69
ATOM     69  C   UNL A   1      43.679  23.805  27.006  1.00  0.00    -0.014 A 
ATOM     70  C   UNL A   1      43.612  23.192  25.741  1.00  0.00     0.010 A 
ATOM     71  C   UNL A   1      43.202  23.105  28.129  1.00  0.00     0.010 A 
ATOM     72  C   UNL A   1      43.014  21.937  25.593  1.00  0.00     0.020 A 
ATOM     73  C   UNL A   1      42.631  21.837  27.990  1.00  0.00     0.020 A 
ATOM     74  C   UNL A   1      42.515  21.274  26.718  1.00  0.00     0.054 A 
BRANCH  74  75
ATOM     75  S   UNL A   1      41.716  19.661  26.498  1.00  0.00     0.124 S 
ATOM     76  O   UNL A   1      40.301  20.021  26.528  1.00  0.00    -0.237 OA
ATOM     77  O   UNL A   1      42.225  19.223  25.200  1.00  0.00    -0.237 OA
ATOM     78  O   UNL A   1      42.186  18.882  27.642  1.00  0.00    -0.744 OA
ENDBRANCH  74  75
ENDBRANCH  55  69
BRANCH  56  79
ATOM     79  C   UNL A   1      47.154  32.945  28.979  1.00  0.00    -0.014 A 
ATOM     80  C   UNL A   1      47.697  33.178  30.254  1.00  0.00     0.010 A 
ATOM     81  C   UNL A   1      47.186  33.975  28.022  1.00  0.00     0.010 A 
ATOM     82  C   UNL A   1      48.271  34.415  30.562  1.00  0.00     0.020 A 
ATOM     83  C   UNL A   1      47.780  35.205  28.319  1.00  0.00     0.020 A 
ATOM     84  C   UNL A   1      48.320  35.417  29.589  1.00  0.00     0.054 A 
BRANCH  84  85
ATOM     85  S   UNL A   1      49.169  36.974  29.973  1.00  0.00     0.124 S 
ATOM     86  O   UNL A   1      49.885  37.245  28.731  1.00  0.00    -0.237 OA
ATOM     87  O   UNL A   1      48.057  37.873  30.274  1.00  0.00    -0.237 OA
ATOM     88  O   UNL A   1      50.007  36.629  31.120  1.00  0.00    -0.744 OA
ENDBRANCH  84  85
ENDBRANCH  56  79
BRANCH  68  89
ATOM     89  C   UNL A   1      49.896  27.311  25.885  1.00  0.00    -0.014 A 
ATOM     90  C   UNL A   1      50.924  26.725  26.645  1.00  0.00     0.010 A 
ATOM     91  C   UNL A   1      50.119  27.585  24.523  1.00  0.00     0.010 A 
ATOM     92  C   UNL A   1      52.161  26.442  26.059  1.00  0.00     0.020 A 
ATOM     93  C   UNL A   1      51.346  27.282  23.928  1.00  0.00     0.020 A 
ATOM     94  C   UNL A   1      52.365  26.723  24.704  1.00  0.00     0.054 A 
BRANCH  94  95
ATOM     95  S   UNL A   1      53.963  26.305  23.954  1.00  0.00     0.124 S 
ATOM     96  O   UNL A   1      53.609  26.164  22.545  1.00  0.00    -0.237 OA
ATOM     97  O   UNL A   1      54.786  27.467  24.282  1.00  0.00    -0.237 OA
ATOM     98  O   UNL A   1      54.348  25.067  24.628  1.00  0.00    -0.744 OA
ENDBRANCH  94  95
ENDBRANCH  68  89
ENDBRANCH  42  43
ENDBRANCH  34  37
ENDBRANCH  32  33
ENDBRANCH  31  32
ENDBRANCH  30  31
ENDBRANCH   1  30
TORSDOF 20
ENDMDL
