MODEL 1
REMARK VINA RESULT:     -11.8      0.000      0.000
REMARK SMILES CCc1nn(-c2ccncn2)c(Cl)c1C(=O)NCCCCCCNC(=O)c1ccc(-c2c3nc(c(-c4ccc(S(=O)(=O)[O-])cc4)c4ccc([nH]4)c(-c4ccc(S(=O)(=O)[O-])cc4)c4nc(c(-c5ccc(S(=O)(=O)[O-])cc5)c5ccc2[nH]5)C=C4)C=C3)cc1
REMARK SMILES IDX 21 1 20 2 19 3 18 4 17 5 15 6 16 7 14 9 3 10 4 11 5 12 12 13
REMARK SMILES IDX 13 14 2 15 1 16 6 17 7 18 11 19 8 20 10 21 9 22 22 23 23 24
REMARK SMILES IDX 24 25 25 26 26 28 27 29 28 30 86 31 29 32 85 33 30 34 31 35
REMARK SMILES IDX 32 36 79 37 33 38 84 39 78 40 80 41 34 42 83 43 77 44 76 45
REMARK SMILES IDX 35 47 65 48 46 49 64 50 47 51 50 52 63 53 81 54 48 55 49 56
REMARK SMILES IDX 62 58 82 59 51 60 36 61 37 62 45 63 38 64 44 65 39 66 40 67
REMARK SMILES IDX 41 68 42 69 43 70 66 71 67 72 75 73 68 74 74 75 69 76 70 77
REMARK SMILES IDX 71 78 72 79 73 80 52 81 53 82 61 83 54 84 60 85 55 86 56 87
REMARK SMILES IDX 57 88 58 89 59 90
REMARK H PARENT 17 8 24 27 80 46 50 57
REMARK Flexibility Score: inf
ROOT
ATOM      1  C   UNL A   1      34.950  23.156  24.593  1.00  0.00     0.002 C 
ENDROOT
BRANCH   1   2
ATOM      2  C   UNL A   1      34.034  24.352  24.287  1.00  0.00     0.002 C 
BRANCH   2   3
ATOM      3  C   UNL A   1      33.800  24.637  22.801  1.00  0.00     0.021 C 
BRANCH   3   4
ATOM      4  C   UNL A   1      32.352  24.432  22.352  1.00  0.00     0.116 C 
BRANCH   4   5
ATOM      5  N   UNL A   1      31.746  25.696  22.034  1.00  0.00    -0.352 N 
ATOM      6  C   UNL A   1      31.373  26.808  22.730  1.00  0.00     0.256 C 
ATOM      7  O   UNL A   1      30.759  27.613  22.021  1.00  0.00    -0.269 OA
ATOM      8  H   UNL A   1      31.550  25.780  21.073  1.00  0.00     0.163 HD
BRANCH   6   9
ATOM      9  C   UNL A   1      31.690  27.124  24.127  1.00  0.00     0.100 A 
ATOM     10  C   UNL A   1      31.306  26.688  25.449  1.00  0.00     0.077 A 
ATOM     11  N   UNL A   1      32.068  27.248  26.404  1.00  0.00    -0.169 NA
ATOM     12  N   UNL A   1      32.731  28.244  25.787  1.00  0.00    -0.203 N 
ATOM     13  C   UNL A   1      32.582  28.150  24.428  1.00  0.00     0.147 A 
ATOM     14  Cl  UNL A   1      33.552  29.144  23.411  1.00  0.00    -0.061 Cl
BRANCH  10  15
ATOM     15  C   UNL A   1      30.246  25.770  25.978  1.00  0.00     0.056 C 
ATOM     16  C   UNL A   1      30.552  24.299  25.748  1.00  0.00     0.011 C 
ENDBRANCH  10  15
BRANCH  12  17
ATOM     17  C   UNL A   1      33.431  29.223  26.545  1.00  0.00     0.158 A 
ATOM     18  C   UNL A   1      32.780  30.401  26.866  1.00  0.00     0.069 A 
ATOM     19  N   UNL A   1      34.705  28.956  26.919  1.00  0.00    -0.217 NA
ATOM     20  C   UNL A   1      33.523  31.321  27.564  1.00  0.00     0.117 A 
ATOM     21  C   UNL A   1      35.335  29.941  27.571  1.00  0.00     0.224 A 
ATOM     22  N   UNL A   1      34.810  31.130  27.907  1.00  0.00    -0.245 NA
ENDBRANCH  12  17
ENDBRANCH   6   9
ENDBRANCH   4   5
ENDBRANCH   3   4
ENDBRANCH   2   3
ENDBRANCH   1   2
BRANCH   1  23
ATOM     23  C   UNL A   1      36.350  23.194  23.963  1.00  0.00     0.021 C 
BRANCH  23  24
ATOM     24  C   UNL A   1      37.450  23.478  24.969  1.00  0.00     0.116 C 
BRANCH  24  25
ATOM     25  N   UNL A   1      38.090  22.253  25.451  1.00  0.00    -0.352 N 
ATOM     26  C   UNL A   1      39.255  22.115  26.187  1.00  0.00     0.251 C 
ATOM     27  H   UNL A   1      37.630  21.413  25.221  1.00  0.00     0.163 HD
ATOM     28  O   UNL A   1      39.850  21.052  26.217  1.00  0.00    -0.269 OA
BRANCH  26  29
ATOM     29  C   UNL A   1      39.743  23.279  26.948  1.00  0.00     0.039 A 
ATOM     30  C   UNL A   1      41.029  23.329  27.497  1.00  0.00     0.014 A 
ATOM     31  C   UNL A   1      38.864  24.344  27.112  1.00  0.00     0.014 A 
ATOM     32  C   UNL A   1      41.419  24.481  28.177  1.00  0.00     0.010 A 
ATOM     33  C   UNL A   1      39.321  25.544  27.566  1.00  0.00     0.010 A 
ATOM     34  C   UNL A   1      40.550  25.581  28.203  1.00  0.00    -0.014 A 
BRANCH  34  35
ATOM     35  C   UNL A   1      40.899  26.846  28.822  1.00  0.00     0.031 A 
ATOM     36  C   UNL A   1      42.010  27.552  28.142  1.00  0.00     0.074 A 
ATOM     37  C   UNL A   1      40.104  27.433  29.744  1.00  0.00     0.049 A 
ATOM     38  N   UNL A   1      43.219  27.688  28.568  1.00  0.00    -0.248 NA
ATOM     39  C   UNL A   1      41.816  27.991  26.748  1.00  0.00     0.031 C 
ATOM     40  C   UNL A   1      38.797  26.986  30.249  1.00  0.00     0.029 A 
ATOM     41  N   UNL A   1      40.239  28.645  30.336  1.00  0.00    -0.354 N 
ATOM     42  C   UNL A   1      43.870  28.458  27.612  1.00  0.00     0.074 A 
ATOM     43  C   UNL A   1      43.045  28.407  26.432  1.00  0.00     0.031 C 
ATOM     44  C   UNL A   1      38.166  28.018  30.855  1.00  0.00     0.029 A 
ATOM     45  C   UNL A   1      39.082  29.142  30.930  1.00  0.00     0.049 A 
ATOM     46  H   UNL A   1      41.090  29.138  30.343  1.00  0.00     0.167 HD
ATOM     47  C   UNL A   1      44.882  29.302  27.959  1.00  0.00     0.031 A 
ATOM     48  C   UNL A   1      38.891  30.400  31.409  1.00  0.00     0.031 A 
ATOM     49  C   UNL A   1      45.306  29.077  29.320  1.00  0.00     0.049 A 
ATOM     50  C   UNL A   1      40.245  30.975  31.631  1.00  0.00     0.074 A 
ATOM     51  C   UNL A   1      45.809  27.992  30.010  1.00  0.00     0.029 A 
ATOM     52  N   UNL A   1      44.811  29.940  30.272  1.00  0.00    -0.354 N 
ATOM     53  N   UNL A   1      41.078  30.502  32.517  1.00  0.00    -0.248 NA
ATOM     54  C   UNL A   1      40.856  31.718  30.538  1.00  0.00     0.031 C 
ATOM     55  C   UNL A   1      45.154  28.032  31.276  1.00  0.00     0.029 A 
ATOM     56  C   UNL A   1      44.368  29.185  31.327  1.00  0.00     0.049 A 
ATOM     57  H   UNL A   1      44.780  30.922  30.207  1.00  0.00     0.167 HD
ATOM     58  C   UNL A   1      42.309  30.486  31.874  1.00  0.00     0.074 A 
ATOM     59  C   UNL A   1      42.126  31.330  30.691  1.00  0.00     0.031 C 
ATOM     60  C   UNL A   1      43.264  29.560  32.189  1.00  0.00     0.031 A 
BRANCH  47  61
ATOM     61  C   UNL A   1      45.190  30.592  27.244  1.00  0.00    -0.014 A 
ATOM     62  C   UNL A   1      46.530  30.859  26.895  1.00  0.00     0.010 A 
ATOM     63  C   UNL A   1      44.278  31.663  27.147  1.00  0.00     0.010 A 
ATOM     64  C   UNL A   1      46.948  32.150  26.550  1.00  0.00     0.020 A 
ATOM     65  C   UNL A   1      44.676  32.944  26.762  1.00  0.00     0.020 A 
ATOM     66  C   UNL A   1      46.017  33.186  26.501  1.00  0.00     0.054 A 
BRANCH  66  67
ATOM     67  S   UNL A   1      46.587  34.868  26.158  1.00  0.00     0.124 S 
ATOM     68  O   UNL A   1      47.531  34.648  25.068  1.00  0.00    -0.237 OA
ATOM     69  O   UNL A   1      45.344  35.545  25.797  1.00  0.00    -0.237 OA
ATOM     70  O   UNL A   1      47.178  35.292  27.425  1.00  0.00    -0.744 OA
ENDBRANCH  66  67
ENDBRANCH  47  61
BRANCH  48  71
ATOM     71  C   UNL A   1      37.654  31.227  31.362  1.00  0.00    -0.014 A 
ATOM     72  C   UNL A   1      36.529  30.919  32.152  1.00  0.00     0.010 A 
ATOM     73  C   UNL A   1      37.682  32.496  30.746  1.00  0.00     0.010 A 
ATOM     74  C   UNL A   1      35.506  31.865  32.368  1.00  0.00     0.020 A 
ATOM     75  C   UNL A   1      36.668  33.442  30.953  1.00  0.00     0.020 A 
ATOM     76  C   UNL A   1      35.595  33.132  31.785  1.00  0.00     0.054 A 
BRANCH  76  77
ATOM     77  S   UNL A   1      34.378  34.416  32.215  1.00  0.00     0.124 S 
ATOM     78  O   UNL A   1      35.224  35.489  32.731  1.00  0.00    -0.237 OA
ATOM     79  O   UNL A   1      33.729  34.683  30.934  1.00  0.00    -0.237 OA
ATOM     80  O   UNL A   1      33.530  33.764  33.211  1.00  0.00    -0.744 OA
ENDBRANCH  76  77
ENDBRANCH  48  71
BRANCH  60  81
ATOM     81  C   UNL A   1      43.065  28.702  33.421  1.00  0.00    -0.014 A 
ATOM     82  C   UNL A   1      43.644  28.971  34.678  1.00  0.00     0.010 A 
ATOM     83  C   UNL A   1      42.112  27.673  33.334  1.00  0.00     0.010 A 
ATOM     84  C   UNL A   1      43.295  28.212  35.809  1.00  0.00     0.020 A 
ATOM     85  C   UNL A   1      41.746  26.927  34.457  1.00  0.00     0.020 A 
ATOM     86  C   UNL A   1      42.347  27.191  35.688  1.00  0.00     0.054 A 
BRANCH  86  87
ATOM     87  S   UNL A   1      41.872  26.228  37.150  1.00  0.00     0.124 S 
ATOM     88  O   UNL A   1      41.870  24.858  36.641  1.00  0.00    -0.237 OA
ATOM     89  O   UNL A   1      42.930  26.542  38.107  1.00  0.00    -0.237 OA
ATOM     90  O   UNL A   1      40.554  26.756  37.503  1.00  0.00    -0.744 OA
ENDBRANCH  86  87
ENDBRANCH  60  81
ENDBRANCH  34  35
ENDBRANCH  26  29
ENDBRANCH  24  25
ENDBRANCH  23  24
ENDBRANCH   1  23
TORSDOF 18
ENDMDL
MODEL 2
REMARK VINA RESULT:     -11.8      2.993      9.156
REMARK SMILES CCc1nn(-c2ccncn2)c(Cl)c1C(=O)NCCCCCCNC(=O)c1ccc(-c2c3nc(c(-c4ccc(S(=O)(=O)[O-])cc4)c4ccc([nH]4)c(-c4ccc(S(=O)(=O)[O-])cc4)c4nc(c(-c5ccc(S(=O)(=O)[O-])cc5)c5ccc2[nH]5)C=C4)C=C3)cc1
REMARK SMILES IDX 21 1 20 2 19 3 18 4 17 5 15 6 16 7 14 9 3 10 4 11 5 12 12 13
REMARK SMILES IDX 13 14 2 15 1 16 6 17 7 18 11 19 8 20 10 21 9 22 22 23 23 24
REMARK SMILES IDX 24 25 25 26 26 28 27 29 28 30 86 31 29 32 85 33 30 34 31 35
REMARK SMILES IDX 32 36 79 37 33 38 84 39 78 40 80 41 34 42 83 43 77 44 76 45
REMARK SMILES IDX 35 47 65 48 46 49 64 50 47 51 50 52 63 53 81 54 48 55 49 56
REMARK SMILES IDX 62 58 82 59 51 60 36 61 37 62 45 63 38 64 44 65 39 66 40 67
REMARK SMILES IDX 41 68 42 69 43 70 66 71 67 72 75 73 68 74 74 75 69 76 70 77
REMARK SMILES IDX 71 78 72 79 73 80 52 81 53 82 61 83 54 84 60 85 55 86 56 87
REMARK SMILES IDX 57 88 58 89 59 90
REMARK H PARENT 17 8 24 27 80 46 50 57
REMARK Flexibility Score: inf
ROOT
ATOM      1  C   UNL A   1      32.765  28.297  26.551  1.00  0.00     0.002 C 
ENDROOT
BRANCH   1   2
ATOM      2  C   UNL A   1      31.316  27.791  26.641  1.00  0.00     0.002 C 
BRANCH   2   3
ATOM      3  C   UNL A   1      31.158  26.280  26.833  1.00  0.00     0.021 C 
BRANCH   3   4
ATOM      4  C   UNL A   1      32.138  25.445  26.007  1.00  0.00     0.116 C 
BRANCH   4   5
ATOM      5  N   UNL A   1      31.466  24.859  24.880  1.00  0.00    -0.352 N 
ATOM      6  C   UNL A   1      30.899  25.317  23.727  1.00  0.00     0.256 C 
ATOM      7  O   UNL A   1      30.316  24.420  23.110  1.00  0.00    -0.269 OA
ATOM      8  H   UNL A   1      31.397  23.880  24.960  1.00  0.00     0.163 HD
BRANCH   6   9
ATOM      9  C   UNL A   1      30.989  26.675  23.178  1.00  0.00     0.100 A 
ATOM     10  C   UNL A   1      31.989  27.551  22.615  1.00  0.00     0.077 A 
ATOM     11  N   UNL A   1      31.449  28.676  22.115  1.00  0.00    -0.169 NA
ATOM     12  N   UNL A   1      30.189  28.701  22.588  1.00  0.00    -0.203 N 
ATOM     13  C   UNL A   1      29.866  27.498  23.160  1.00  0.00     0.147 A 
ATOM     14  Cl  UNL A   1      28.228  27.192  23.591  1.00  0.00    -0.061 Cl
BRANCH  10  15
ATOM     15  C   UNL A   1      33.480  27.483  22.485  1.00  0.00     0.056 C 
ATOM     16  C   UNL A   1      34.188  28.726  22.999  1.00  0.00     0.011 C 
ENDBRANCH  10  15
BRANCH  12  17
ATOM     17  C   UNL A   1      29.402  29.881  22.480  1.00  0.00     0.158 A 
ATOM     18  C   UNL A   1      29.131  30.602  23.630  1.00  0.00     0.069 A 
ATOM     19  N   UNL A   1      28.953  30.245  21.255  1.00  0.00    -0.217 NA
ATOM     20  C   UNL A   1      28.333  31.708  23.466  1.00  0.00     0.117 A 
ATOM     21  C   UNL A   1      28.162  31.325  21.227  1.00  0.00     0.224 A 
ATOM     22  N   UNL A   1      27.812  32.078  22.281  1.00  0.00    -0.245 NA
ENDBRANCH  12  17
ENDBRANCH   6   9
ENDBRANCH   4   5
ENDBRANCH   3   4
ENDBRANCH   2   3
ENDBRANCH   1   2
BRANCH   1  23
ATOM     23  C   UNL A   1      32.946  29.812  26.374  1.00  0.00     0.021 C 
BRANCH  23  24
ATOM     24  C   UNL A   1      34.291  30.313  26.868  1.00  0.00     0.116 C 
BRANCH  24  25
ATOM     25  N   UNL A   1      34.165  31.508  27.702  1.00  0.00    -0.352 N 
ATOM     26  C   UNL A   1      34.840  31.827  28.868  1.00  0.00     0.251 C 
ATOM     27  H   UNL A   1      33.512  32.177  27.392  1.00  0.00     0.163 HD
ATOM     28  O   UNL A   1      34.397  32.666  29.634  1.00  0.00    -0.269 OA
BRANCH  26  29
ATOM     29  C   UNL A   1      36.115  31.142  29.148  1.00  0.00     0.039 A 
ATOM     30  C   UNL A   1      36.217  29.749  29.218  1.00  0.00     0.014 A 
ATOM     31  C   UNL A   1      37.233  31.943  29.351  1.00  0.00     0.014 A 
ATOM     32  C   UNL A   1      37.468  29.183  29.458  1.00  0.00     0.010 A 
ATOM     33  C   UNL A   1      38.478  31.391  29.352  1.00  0.00     0.010 A 
ATOM     34  C   UNL A   1      38.590  30.022  29.523  1.00  0.00    -0.014 A 
BRANCH  34  35
ATOM     35  C   UNL A   1      39.939  29.518  29.696  1.00  0.00     0.031 A 
ATOM     36  C   UNL A   1      40.286  29.223  31.106  1.00  0.00     0.074 A 
ATOM     37  C   UNL A   1      40.685  29.100  28.648  1.00  0.00     0.049 A 
ATOM     38  N   UNL A   1      41.078  29.898  31.868  1.00  0.00    -0.248 NA
ATOM     39  C   UNL A   1      39.526  28.178  31.815  1.00  0.00     0.031 C 
ATOM     40  C   UNL A   1      40.314  29.026  27.227  1.00  0.00     0.029 A 
ATOM     41  N   UNL A   1      41.909  28.518  28.654  1.00  0.00    -0.354 N 
ATOM     42  C   UNL A   1      41.117  29.210  33.074  1.00  0.00     0.074 A 
ATOM     43  C   UNL A   1      39.983  28.322  33.061  1.00  0.00     0.031 C 
ATOM     44  C   UNL A   1      41.176  28.214  26.574  1.00  0.00     0.029 A 
ATOM     45  C   UNL A   1      42.247  27.847  27.482  1.00  0.00     0.049 A 
ATOM     46  H   UNL A   1      42.513  28.565  29.429  1.00  0.00     0.167 HD
ATOM     47  C   UNL A   1      42.233  29.222  33.854  1.00  0.00     0.031 A 
ATOM     48  C   UNL A   1      43.312  27.022  27.297  1.00  0.00     0.031 A 
ATOM     49  C   UNL A   1      43.184  30.204  33.390  1.00  0.00     0.049 A 
ATOM     50  C   UNL A   1      44.288  27.347  28.372  1.00  0.00     0.074 A 
ATOM     51  C   UNL A   1      43.151  31.572  33.204  1.00  0.00     0.029 A 
ATOM     52  N   UNL A   1      44.226  29.739  32.620  1.00  0.00    -0.354 N 
ATOM     53  N   UNL A   1      44.888  28.502  28.458  1.00  0.00    -0.248 NA
ATOM     54  C   UNL A   1      44.200  26.598  29.618  1.00  0.00     0.031 C 
ATOM     55  C   UNL A   1      43.837  31.787  31.973  1.00  0.00     0.029 A 
ATOM     56  C   UNL A   1      44.336  30.561  31.528  1.00  0.00     0.049 A 
ATOM     57  H   UNL A   1      44.791  28.957  32.817  1.00  0.00     0.167 HD
ATOM     58  C   UNL A   1      44.845  28.826  29.807  1.00  0.00     0.074 A 
ATOM     59  C   UNL A   1      44.491  27.575  30.483  1.00  0.00     0.031 C 
ATOM     60  C   UNL A   1      44.802  30.127  30.226  1.00  0.00     0.031 A 
BRANCH  47  61
ATOM     61  C   UNL A   1      42.654  28.083  34.748  1.00  0.00    -0.014 A 
ATOM     62  C   UNL A   1      43.020  28.377  36.077  1.00  0.00     0.010 A 
ATOM     63  C   UNL A   1      42.967  26.795  34.267  1.00  0.00     0.010 A 
ATOM     64  C   UNL A   1      43.736  27.458  36.854  1.00  0.00     0.020 A 
ATOM     65  C   UNL A   1      43.641  25.856  35.048  1.00  0.00     0.020 A 
ATOM     66  C   UNL A   1      44.053  26.208  36.326  1.00  0.00     0.054 A 
BRANCH  66  67
ATOM     67  S   UNL A   1      45.069  25.071  37.299  1.00  0.00     0.124 S 
ATOM     68  O   UNL A   1      46.409  25.609  37.084  1.00  0.00    -0.237 OA
ATOM     69  O   UNL A   1      44.522  25.244  38.642  1.00  0.00    -0.237 OA
ATOM     70  O   UNL A   1      44.807  23.771  36.685  1.00  0.00    -0.744 OA
ENDBRANCH  66  67
ENDBRANCH  47  61
BRANCH  48  71
ATOM     71  C   UNL A   1      43.384  25.778  26.482  1.00  0.00    -0.014 A 
ATOM     72  C   UNL A   1      44.276  25.656  25.398  1.00  0.00     0.010 A 
ATOM     73  C   UNL A   1      42.772  24.596  26.951  1.00  0.00     0.010 A 
ATOM     74  C   UNL A   1      44.591  24.396  24.849  1.00  0.00     0.020 A 
ATOM     75  C   UNL A   1      43.077  23.340  26.408  1.00  0.00     0.020 A 
ATOM     76  C   UNL A   1      44.005  23.241  25.375  1.00  0.00     0.054 A 
BRANCH  76  77
ATOM     77  S   UNL A   1      44.552  21.603  24.798  1.00  0.00     0.124 S 
ATOM     78  O   UNL A   1      43.480  20.731  25.270  1.00  0.00    -0.237 OA
ATOM     79  O   UNL A   1      44.630  21.784  23.352  1.00  0.00    -0.237 OA
ATOM     80  O   UNL A   1      45.839  21.417  25.466  1.00  0.00    -0.744 OA
ENDBRANCH  76  77
ENDBRANCH  48  71
BRANCH  60  81
ATOM     81  C   UNL A   1      45.052  31.224  29.212  1.00  0.00    -0.014 A 
ATOM     82  C   UNL A   1      46.328  31.733  28.892  1.00  0.00     0.010 A 
ATOM     83  C   UNL A   1      43.957  31.634  28.433  1.00  0.00     0.010 A 
ATOM     84  C   UNL A   1      46.493  32.647  27.836  1.00  0.00     0.020 A 
ATOM     85  C   UNL A   1      44.118  32.527  27.371  1.00  0.00     0.020 A 
ATOM     86  C   UNL A   1      45.382  33.039  27.084  1.00  0.00     0.054 A 
BRANCH  86  87
ATOM     87  S   UNL A   1      45.596  34.196  25.702  1.00  0.00     0.124 S 
ATOM     88  O   UNL A   1      44.843  33.551  24.629  1.00  0.00    -0.237 OA
ATOM     89  O   UNL A   1      45.018  35.434  26.220  1.00  0.00    -0.237 OA
ATOM     90  O   UNL A   1      47.044  34.236  25.501  1.00  0.00    -0.744 OA
ENDBRANCH  86  87
ENDBRANCH  60  81
ENDBRANCH  34  35
ENDBRANCH  26  29
ENDBRANCH  24  25
ENDBRANCH  23  24
ENDBRANCH   1  23
TORSDOF 18
ENDMDL
MODEL 3
REMARK VINA RESULT:     -11.7      2.843      9.400
REMARK SMILES CCc1nn(-c2ccncn2)c(Cl)c1C(=O)NCCCCCCNC(=O)c1ccc(-c2c3nc(c(-c4ccc(S(=O)(=O)[O-])cc4)c4ccc([nH]4)c(-c4ccc(S(=O)(=O)[O-])cc4)c4nc(c(-c5ccc(S(=O)(=O)[O-])cc5)c5ccc2[nH]5)C=C4)C=C3)cc1
REMARK SMILES IDX 21 1 20 2 19 3 18 4 17 5 15 6 16 7 14 9 3 10 4 11 5 12 12 13
REMARK SMILES IDX 13 14 2 15 1 16 6 17 7 18 11 19 8 20 10 21 9 22 22 23 23 24
REMARK SMILES IDX 24 25 25 26 26 28 27 29 28 30 86 31 29 32 85 33 30 34 31 35
REMARK SMILES IDX 32 36 79 37 33 38 84 39 78 40 80 41 34 42 83 43 77 44 76 45
REMARK SMILES IDX 35 47 65 48 46 49 64 50 47 51 50 52 63 53 81 54 48 55 49 56
REMARK SMILES IDX 62 58 82 59 51 60 36 61 37 62 45 63 38 64 44 65 39 66 40 67
REMARK SMILES IDX 41 68 42 69 43 70 66 71 67 72 75 73 68 74 74 75 69 76 70 77
REMARK SMILES IDX 71 78 72 79 73 80 52 81 53 82 61 83 54 84 60 85 55 86 56 87
REMARK SMILES IDX 57 88 58 89 59 90
REMARK H PARENT 17 8 24 27 80 46 50 57
REMARK Flexibility Score: inf
ROOT
ATOM      1  C   UNL A   1      31.560  29.721  25.631  1.00  0.00     0.002 C 
ENDROOT
BRANCH   1   2
ATOM      2  C   UNL A   1      31.989  29.016  24.334  1.00  0.00     0.002 C 
BRANCH   2   3
ATOM      3  C   UNL A   1      30.932  28.980  23.226  1.00  0.00     0.021 C 
BRANCH   3   4
ATOM      4  C   UNL A   1      30.659  27.580  22.676  1.00  0.00     0.116 C 
BRANCH   4   5
ATOM      5  N   UNL A   1      31.829  27.064  22.021  1.00  0.00    -0.352 N 
ATOM      6  C   UNL A   1      32.693  26.029  22.227  1.00  0.00     0.256 C 
ATOM      7  O   UNL A   1      33.650  26.063  21.444  1.00  0.00    -0.269 OA
ATOM      8  H   UNL A   1      32.067  27.589  21.223  1.00  0.00     0.163 HD
BRANCH   6   9
ATOM      9  C   UNL A   1      32.541  24.928  23.184  1.00  0.00     0.100 A 
ATOM     10  C   UNL A   1      32.175  24.739  24.567  1.00  0.00     0.077 A 
ATOM     11  N   UNL A   1      32.051  23.438  24.882  1.00  0.00    -0.169 NA
ATOM     12  N   UNL A   1      32.603  22.772  23.851  1.00  0.00    -0.203 N 
ATOM     13  C   UNL A   1      32.837  23.622  22.801  1.00  0.00     0.147 A 
ATOM     14  Cl  UNL A   1      33.284  22.961  21.276  1.00  0.00    -0.061 Cl
BRANCH  10  15
ATOM     15  C   UNL A   1      31.921  25.668  25.715  1.00  0.00     0.056 C 
ATOM     16  C   UNL A   1      30.448  25.815  26.058  1.00  0.00     0.011 C 
ENDBRANCH  10  15
BRANCH  12  17
ATOM     17  C   UNL A   1      32.888  21.383  23.959  1.00  0.00     0.158 A 
ATOM     18  C   UNL A   1      32.154  20.496  23.191  1.00  0.00     0.069 A 
ATOM     19  N   UNL A   1      33.867  20.992  24.809  1.00  0.00    -0.217 NA
ATOM     20  C   UNL A   1      32.450  19.166  23.371  1.00  0.00     0.117 A 
ATOM     21  C   UNL A   1      34.043  19.669  24.918  1.00  0.00     0.224 A 
ATOM     22  N   UNL A   1      33.370  18.722  24.246  1.00  0.00    -0.245 NA
ENDBRANCH  12  17
ENDBRANCH   6   9
ENDBRANCH   4   5
ENDBRANCH   3   4
ENDBRANCH   2   3
ENDBRANCH   1   2
BRANCH   1  23
ATOM     23  C   UNL A   1      32.020  29.068  26.943  1.00  0.00     0.021 C 
BRANCH  23  24
ATOM     24  C   UNL A   1      33.421  29.479  27.355  1.00  0.00     0.116 C 
BRANCH  24  25
ATOM     25  N   UNL A   1      33.635  30.921  27.230  1.00  0.00    -0.352 N 
ATOM     26  C   UNL A   1      34.687  31.686  27.706  1.00  0.00     0.251 C 
ATOM     27  H   UNL A   1      32.936  31.415  26.743  1.00  0.00     0.163 HD
ATOM     28  O   UNL A   1      34.568  32.892  27.839  1.00  0.00    -0.269 OA
BRANCH  26  29
ATOM     29  C   UNL A   1      35.956  31.009  28.025  1.00  0.00     0.039 A 
ATOM     30  C   UNL A   1      36.238  29.707  27.598  1.00  0.00     0.014 A 
ATOM     31  C   UNL A   1      36.879  31.717  28.786  1.00  0.00     0.014 A 
ATOM     32  C   UNL A   1      37.476  29.153  27.919  1.00  0.00     0.010 A 
ATOM     33  C   UNL A   1      38.160  31.270  28.898  1.00  0.00     0.010 A 
ATOM     34  C   UNL A   1      38.427  29.951  28.573  1.00  0.00    -0.014 A 
BRANCH  34  35
ATOM     35  C   UNL A   1      39.765  29.484  28.882  1.00  0.00     0.031 A 
ATOM     36  C   UNL A   1      40.002  29.282  30.331  1.00  0.00     0.074 A 
ATOM     37  C   UNL A   1      40.598  29.019  27.924  1.00  0.00     0.049 A 
ATOM     38  N   UNL A   1      40.721  30.017  31.109  1.00  0.00    -0.248 NA
ATOM     39  C   UNL A   1      39.203  28.267  31.040  1.00  0.00     0.031 C 
ATOM     40  C   UNL A   1      40.342  28.852  26.485  1.00  0.00     0.029 A 
ATOM     41  N   UNL A   1      41.826  28.462  28.062  1.00  0.00    -0.354 N 
ATOM     42  C   UNL A   1      40.673  29.404  32.355  1.00  0.00     0.074 A 
ATOM     43  C   UNL A   1      39.557  28.494  32.307  1.00  0.00     0.031 C 
ATOM     44  C   UNL A   1      41.266  28.019  25.953  1.00  0.00     0.029 A 
ATOM     45  C   UNL A   1      42.266  27.729  26.963  1.00  0.00     0.049 A 
ATOM     46  H   UNL A   1      42.366  28.568  28.878  1.00  0.00     0.167 HD
ATOM     47  C   UNL A   1      41.724  29.485  33.218  1.00  0.00     0.031 A 
ATOM     48  C   UNL A   1      43.355  26.915  26.914  1.00  0.00     0.031 A 
ATOM     49  C   UNL A   1      42.694  30.455  32.771  1.00  0.00     0.049 A 
ATOM     50  C   UNL A   1      44.236  27.323  28.041  1.00  0.00     0.074 A 
ATOM     51  C   UNL A   1      42.655  31.808  32.498  1.00  0.00     0.029 A 
ATOM     52  N   UNL A   1      43.801  29.965  32.115  1.00  0.00    -0.354 N 
ATOM     53  N   UNL A   1      44.811  28.493  28.102  1.00  0.00    -0.248 NA
ATOM     54  C   UNL A   1      44.061  26.649  29.320  1.00  0.00     0.031 C 
ATOM     55  C   UNL A   1      43.435  31.963  31.315  1.00  0.00     0.029 A 
ATOM     56  C   UNL A   1      43.986  30.722  30.986  1.00  0.00     0.049 A 
ATOM     57  H   UNL A   1      44.360  29.207  32.404  1.00  0.00     0.167 HD
ATOM     58  C   UNL A   1      44.656  28.897  29.422  1.00  0.00     0.074 A 
ATOM     59  C   UNL A   1      44.268  27.682  30.143  1.00  0.00     0.031 C 
ATOM     60  C   UNL A   1      44.561  30.219  29.755  1.00  0.00     0.031 A 
BRANCH  47  61
ATOM     61  C   UNL A   1      42.089  28.410  34.210  1.00  0.00    -0.014 A 
ATOM     62  C   UNL A   1      41.968  28.701  35.585  1.00  0.00     0.010 A 
ATOM     63  C   UNL A   1      42.797  27.242  33.863  1.00  0.00     0.010 A 
ATOM     64  C   UNL A   1      42.595  27.909  36.553  1.00  0.00     0.020 A 
ATOM     65  C   UNL A   1      43.389  26.420  34.823  1.00  0.00     0.020 A 
ATOM     66  C   UNL A   1      43.314  26.781  36.161  1.00  0.00     0.054 A 
BRANCH  66  67
ATOM     67  S   UNL A   1      44.208  25.826  37.410  1.00  0.00     0.124 S 
ATOM     68  O   UNL A   1      43.833  24.458  37.066  1.00  0.00    -0.237 OA
ATOM     69  O   UNL A   1      45.596  26.192  37.141  1.00  0.00    -0.237 OA
ATOM     70  O   UNL A   1      43.668  26.326  38.672  1.00  0.00    -0.744 OA
ENDBRANCH  66  67
ENDBRANCH  47  61
BRANCH  48  71
ATOM     71  C   UNL A   1      43.510  25.625  26.186  1.00  0.00    -0.014 A 
ATOM     72  C   UNL A   1      44.646  25.354  25.398  1.00  0.00     0.010 A 
ATOM     73  C   UNL A   1      42.665  24.539  26.496  1.00  0.00     0.010 A 
ATOM     74  C   UNL A   1      44.958  24.040  24.993  1.00  0.00     0.020 A 
ATOM     75  C   UNL A   1      42.967  23.230  26.095  1.00  0.00     0.020 A 
ATOM     76  C   UNL A   1      44.126  22.981  25.365  1.00  0.00     0.054 A 
BRANCH  76  77
ATOM     77  S   UNL A   1      44.625  21.267  25.009  1.00  0.00     0.124 S 
ATOM     78  O   UNL A   1      45.984  21.219  25.542  1.00  0.00    -0.237 OA
ATOM     79  O   UNL A   1      43.631  20.486  25.739  1.00  0.00    -0.237 OA
ATOM     80  O   UNL A   1      44.530  21.178  23.553  1.00  0.00    -0.744 OA
ENDBRANCH  76  77
ENDBRANCH  48  71
BRANCH  60  81
ATOM     81  C   UNL A   1      44.874  31.258  28.698  1.00  0.00    -0.014 A 
ATOM     82  C   UNL A   1      43.938  31.747  27.764  1.00  0.00     0.010 A 
ATOM     83  C   UNL A   1      46.130  31.883  28.770  1.00  0.00     0.010 A 
ATOM     84  C   UNL A   1      44.264  32.815  26.910  1.00  0.00     0.020 A 
ATOM     85  C   UNL A   1      46.454  32.957  27.939  1.00  0.00     0.020 A 
ATOM     86  C   UNL A   1      45.525  33.412  27.004  1.00  0.00     0.054 A 
BRANCH  86  87
ATOM     87  S   UNL A   1      45.940  34.810  25.924  1.00  0.00     0.124 S 
ATOM     88  O   UNL A   1      45.441  34.368  24.625  1.00  0.00    -0.237 OA
ATOM     89  O   UNL A   1      45.212  35.921  26.533  1.00  0.00    -0.237 OA
ATOM     90  O   UNL A   1      47.396  34.908  26.025  1.00  0.00    -0.744 OA
ENDBRANCH  86  87
ENDBRANCH  60  81
ENDBRANCH  34  35
ENDBRANCH  26  29
ENDBRANCH  24  25
ENDBRANCH  23  24
ENDBRANCH   1  23
TORSDOF 18
ENDMDL
