MODEL 1
REMARK VINA RESULT:      -9.6      0.000      0.000
REMARK SMILES CCOCCC[N@@H+]1[C@@H](C(=O)NCCCCCCNC(=O)c2ccc(-c3c4nc(c(-c5ccc(S(=O)(=O)[O-])cc5)c5ccc([nH]5)c(-c5ccc(S(=O)(=O)[O-])cc5)c5nc(c(-c6ccc(S(=O)(=O)[O-])cc6)c6ccc3[nH]6)C=C5)C=C4)cc2)CC[C@H]2CCCC[C@H]21
REMARK SMILES IDX 13 1 12 2 11 3 9 4 10 5 8 7 7 8 88 9 81 11 83 12 87 13 82 14
REMARK SMILES IDX 84 15 86 16 85 17 6 18 5 19 4 20 3 21 2 22 1 23 14 24 15 25
REMARK SMILES IDX 16 26 17 27 18 28 19 29 20 31 21 32 22 33 80 34 23 35 79 36
REMARK SMILES IDX 24 37 25 38 26 39 73 40 27 41 78 42 72 43 74 44 28 45 77 46
REMARK SMILES IDX 71 47 70 48 29 50 59 51 40 52 58 53 41 54 44 55 57 56 75 57
REMARK SMILES IDX 42 58 43 59 56 61 76 62 45 63 30 64 31 65 39 66 32 67 38 68
REMARK SMILES IDX 33 69 34 70 35 71 36 72 37 73 60 74 61 75 69 76 62 77 68 78
REMARK SMILES IDX 63 79 64 80 65 81 66 82 67 83 46 84 47 85 55 86 48 87 54 88
REMARK SMILES IDX 49 89 50 90 51 91 52 92 53 93
REMARK H PARENT 11 6 7 10 18 30 74 49 44 60
REMARK Flexibility Score: inf
ROOT
ATOM      1  C   UNL A   1      34.312  25.699  24.194  1.00  0.00     0.021 C 
ENDROOT
BRANCH   1   2
ATOM      2  C   UNL A   1      35.071  24.875  25.230  1.00  0.00     0.116 C 
BRANCH   2   3
ATOM      3  N   UNL A   1      35.866  23.856  24.579  1.00  0.00    -0.351 N 
ATOM      4  C   UNL A   1      35.497  22.598  24.204  1.00  0.00     0.278 C 
ATOM      5  O   UNL A   1      36.376  21.849  23.767  1.00  0.00    -0.268 OA
ATOM      6  H   UNL A   1      36.797  24.106  24.380  1.00  0.00     0.163 HD
BRANCH   4   7
ATOM      7  C   UNL A   1      34.026  22.123  24.309  1.00  0.00     0.274 C 
ATOM      8  N   UNL A   1      33.938  20.875  25.115  1.00  0.00    -0.322 N 
ATOM      9  C   UNL A   1      32.664  20.137  25.010  1.00  0.00     0.187 C 
ATOM     10  H   UNL A   1      34.599  20.244  24.663  1.00  0.00     0.349 HD
ATOM     11  C   UNL A   1      33.380  22.086  22.918  1.00  0.00     0.076 C 
ATOM     12  C   UNL A   1      32.073  20.038  23.581  1.00  0.00     0.048 C 
ATOM     13  C   UNL A   1      32.727  18.698  25.570  1.00  0.00     0.065 C 
ATOM     14  C   UNL A   1      32.009  21.428  22.944  1.00  0.00     0.016 C 
ATOM     15  C   UNL A   1      32.766  19.014  22.659  1.00  0.00     0.010 C 
ATOM     16  C   UNL A   1      33.650  17.812  24.745  1.00  0.00     0.006 C 
ATOM     17  C   UNL A   1      33.142  17.685  23.316  1.00  0.00     0.001 C 
BRANCH   8  18
ATOM     18  C   UNL A   1      34.424  21.046  26.508  1.00  0.00     0.265 C 
BRANCH  18  19
ATOM     19  C   UNL A   1      33.561  21.710  27.605  1.00  0.00     0.090 C 
BRANCH  19  20
ATOM     20  C   UNL A   1      32.720  22.937  27.248  1.00  0.00     0.166 C 
BRANCH  20  21
ATOM     21  O   UNL A   1      31.374  22.881  27.715  1.00  0.00    -0.382 OA
BRANCH  21  22
ATOM     22  C   UNL A   1      30.367  23.090  26.732  1.00  0.00     0.156 C 
ATOM     23  C   UNL A   1      30.237  24.545  26.302  1.00  0.00     0.035 C 
ENDBRANCH  21  22
ENDBRANCH  20  21
ENDBRANCH  19  20
ENDBRANCH  18  19
ENDBRANCH   8  18
ENDBRANCH   4   7
ENDBRANCH   2   3
ENDBRANCH   1   2
BRANCH   1  24
ATOM     24  C   UNL A   1      32.906  26.093  24.654  1.00  0.00     0.002 C 
BRANCH  24  25
ATOM     25  C   UNL A   1      32.681  27.604  24.771  1.00  0.00     0.002 C 
BRANCH  25  26
ATOM     26  C   UNL A   1      33.813  28.364  25.469  1.00  0.00     0.021 C 
BRANCH  26  27
ATOM     27  C   UNL A   1      33.624  28.523  26.974  1.00  0.00     0.116 C 
BRANCH  27  28
ATOM     28  N   UNL A   1      33.509  29.921  27.357  1.00  0.00    -0.352 N 
ATOM     29  C   UNL A   1      34.374  30.691  28.092  1.00  0.00     0.251 C 
ATOM     30  H   UNL A   1      32.695  30.379  27.046  1.00  0.00     0.163 HD
ATOM     31  O   UNL A   1      34.020  31.786  28.514  1.00  0.00    -0.269 OA
BRANCH  29  32
ATOM     32  C   UNL A   1      35.729  30.180  28.379  1.00  0.00     0.039 A 
ATOM     33  C   UNL A   1      36.675  30.158  27.354  1.00  0.00     0.014 A 
ATOM     34  C   UNL A   1      36.062  29.733  29.662  1.00  0.00     0.014 A 
ATOM     35  C   UNL A   1      37.978  29.743  27.630  1.00  0.00     0.010 A 
ATOM     36  C   UNL A   1      37.377  29.385  29.951  1.00  0.00     0.010 A 
ATOM     37  C   UNL A   1      38.347  29.386  28.938  1.00  0.00    -0.014 A 
BRANCH  37  38
ATOM     38  C   UNL A   1      39.752  29.042  29.268  1.00  0.00     0.031 A 
ATOM     39  C   UNL A   1      40.657  30.061  29.903  1.00  0.00     0.074 A 
ATOM     40  C   UNL A   1      40.230  27.828  28.930  1.00  0.00     0.049 A 
ATOM     41  N   UNL A   1      41.921  29.954  30.222  1.00  0.00    -0.248 NA
ATOM     42  C   UNL A   1      40.073  31.381  30.195  1.00  0.00     0.031 C 
ATOM     43  C   UNL A   1      39.463  26.773  28.264  1.00  0.00     0.029 A 
ATOM     44  N   UNL A   1      41.477  27.279  29.092  1.00  0.00    -0.354 N 
ATOM     45  C   UNL A   1      42.289  31.192  30.736  1.00  0.00     0.074 A 
ATOM     46  C   UNL A   1      41.126  32.048  30.645  1.00  0.00     0.031 C 
ATOM     47  C   UNL A   1      40.249  25.698  28.094  1.00  0.00     0.029 A 
ATOM     48  C   UNL A   1      41.584  26.000  28.600  1.00  0.00     0.049 A 
ATOM     49  H   UNL A   1      42.225  27.756  29.519  1.00  0.00     0.167 HD
ATOM     50  C   UNL A   1      43.481  31.575  31.251  1.00  0.00     0.031 A 
ATOM     51  C   UNL A   1      42.639  25.164  28.551  1.00  0.00     0.031 A 
ATOM     52  C   UNL A   1      44.632  30.716  31.342  1.00  0.00     0.049 A 
ATOM     53  C   UNL A   1      43.954  25.613  29.125  1.00  0.00     0.074 A 
ATOM     54  C   UNL A   1      45.864  30.986  31.912  1.00  0.00     0.029 A 
ATOM     55  N   UNL A   1      44.697  29.423  30.844  1.00  0.00    -0.354 N 
ATOM     56  N   UNL A   1      44.258  26.759  29.685  1.00  0.00    -0.248 NA
ATOM     57  C   UNL A   1      45.064  24.653  29.070  1.00  0.00     0.031 C 
ATOM     58  C   UNL A   1      46.694  29.879  31.704  1.00  0.00     0.029 A 
ATOM     59  C   UNL A   1      45.960  28.895  31.061  1.00  0.00     0.049 A 
ATOM     60  H   UNL A   1      43.957  28.949  30.401  1.00  0.00     0.167 HD
ATOM     61  C   UNL A   1      45.592  26.653  30.065  1.00  0.00     0.074 A 
ATOM     62  C   UNL A   1      46.027  25.323  29.689  1.00  0.00     0.031 C 
ATOM     63  C   UNL A   1      46.384  27.574  30.668  1.00  0.00     0.031 A 
BRANCH  50  64
ATOM     64  C   UNL A   1      43.606  32.994  31.741  1.00  0.00    -0.014 A 
ATOM     65  C   UNL A   1      44.180  33.997  30.937  1.00  0.00     0.010 A 
ATOM     66  C   UNL A   1      43.107  33.340  33.010  1.00  0.00     0.010 A 
ATOM     67  C   UNL A   1      44.293  35.307  31.411  1.00  0.00     0.020 A 
ATOM     68  C   UNL A   1      43.191  34.655  33.476  1.00  0.00     0.020 A 
ATOM     69  C   UNL A   1      43.801  35.626  32.679  1.00  0.00     0.054 A 
BRANCH  69  70
ATOM     70  S   UNL A   1      43.945  37.338  33.261  1.00  0.00     0.124 S 
ATOM     71  O   UNL A   1      45.312  37.367  33.775  1.00  0.00    -0.237 OA
ATOM     72  O   UNL A   1      43.718  38.111  32.042  1.00  0.00    -0.237 OA
ATOM     73  O   UNL A   1      42.897  37.452  34.272  1.00  0.00    -0.744 OA
ENDBRANCH  69  70
ENDBRANCH  50  64
BRANCH  51  74
ATOM     74  C   UNL A   1      42.486  23.819  27.936  1.00  0.00    -0.014 A 
ATOM     75  C   UNL A   1      42.670  23.638  26.553  1.00  0.00     0.010 A 
ATOM     76  C   UNL A   1      42.187  22.701  28.738  1.00  0.00     0.010 A 
ATOM     77  C   UNL A   1      42.548  22.367  25.983  1.00  0.00     0.020 A 
ATOM     78  C   UNL A   1      42.093  21.426  28.176  1.00  0.00     0.020 A 
ATOM     79  C   UNL A   1      42.265  21.268  26.800  1.00  0.00     0.054 A 
BRANCH  79  80
ATOM     80  S   UNL A   1      42.179  19.618  26.049  1.00  0.00     0.124 S 
ATOM     81  O   UNL A   1      40.764  19.514  25.707  1.00  0.00    -0.237 OA
ATOM     82  O   UNL A   1      43.097  19.738  24.919  1.00  0.00    -0.237 OA
ATOM     83  O   UNL A   1      42.633  18.733  27.119  1.00  0.00    -0.744 OA
ENDBRANCH  79  80
ENDBRANCH  51  74
BRANCH  63  84
ATOM     84  C   UNL A   1      47.802  27.171  30.970  1.00  0.00    -0.014 A 
ATOM     85  C   UNL A   1      48.821  27.323  30.012  1.00  0.00     0.010 A 
ATOM     86  C   UNL A   1      48.130  26.686  32.249  1.00  0.00     0.010 A 
ATOM     87  C   UNL A   1      50.136  26.965  30.318  1.00  0.00     0.020 A 
ATOM     88  C   UNL A   1      49.450  26.355  32.568  1.00  0.00     0.020 A 
ATOM     89  C   UNL A   1      50.442  26.483  31.595  1.00  0.00     0.054 A 
BRANCH  89  90
ATOM     90  S   UNL A   1      52.165  26.067  31.980  1.00  0.00     0.124 S 
ATOM     91  O   UNL A   1      52.897  26.883  31.015  1.00  0.00    -0.237 OA
ATOM     92  O   UNL A   1      52.291  26.480  33.376  1.00  0.00    -0.237 OA
ATOM     93  O   UNL A   1      52.233  24.625  31.755  1.00  0.00    -0.744 OA
ENDBRANCH  89  90
ENDBRANCH  63  84
ENDBRANCH  37  38
ENDBRANCH  29  32
ENDBRANCH  27  28
ENDBRANCH  26  27
ENDBRANCH  25  26
ENDBRANCH  24  25
ENDBRANCH   1  24
TORSDOF 21
ENDMDL
MODEL 2
REMARK VINA RESULT:      -9.6      3.154      4.369
REMARK SMILES CCOCCC[N@@H+]1[C@@H](C(=O)NCCCCCCNC(=O)c2ccc(-c3c4nc(c(-c5ccc(S(=O)(=O)[O-])cc5)c5ccc([nH]5)c(-c5ccc(S(=O)(=O)[O-])cc5)c5nc(c(-c6ccc(S(=O)(=O)[O-])cc6)c6ccc3[nH]6)C=C5)C=C4)cc2)CC[C@H]2CCCC[C@H]21
REMARK SMILES IDX 13 1 12 2 11 3 9 4 10 5 8 7 7 8 88 9 81 11 83 12 87 13 82 14
REMARK SMILES IDX 84 15 86 16 85 17 6 18 5 19 4 20 3 21 2 22 1 23 14 24 15 25
REMARK SMILES IDX 16 26 17 27 18 28 19 29 20 31 21 32 22 33 80 34 23 35 79 36
REMARK SMILES IDX 24 37 25 38 26 39 73 40 27 41 78 42 72 43 74 44 28 45 77 46
REMARK SMILES IDX 71 47 70 48 29 50 59 51 40 52 58 53 41 54 44 55 57 56 75 57
REMARK SMILES IDX 42 58 43 59 56 61 76 62 45 63 30 64 31 65 39 66 32 67 38 68
REMARK SMILES IDX 33 69 34 70 35 71 36 72 37 73 60 74 61 75 69 76 62 77 68 78
REMARK SMILES IDX 63 79 64 80 65 81 66 82 67 83 46 84 47 85 55 86 48 87 54 88
REMARK SMILES IDX 49 89 50 90 51 91 52 92 53 93
REMARK H PARENT 11 6 7 10 18 30 74 49 44 60
REMARK Flexibility Score: inf
ROOT
ATOM      1  C   UNL A   1      31.652  28.547  26.286  1.00  0.00     0.021 C 
ENDROOT
BRANCH   1   2
ATOM      2  C   UNL A   1      32.536  27.303  26.315  1.00  0.00     0.116 C 
BRANCH   2   3
ATOM      3  N   UNL A   1      31.804  26.177  26.851  1.00  0.00    -0.351 N 
ATOM      4  C   UNL A   1      31.884  24.862  26.499  1.00  0.00     0.278 C 
ATOM      5  O   UNL A   1      31.075  24.080  27.008  1.00  0.00    -0.268 OA
ATOM      6  H   UNL A   1      31.161  26.389  27.566  1.00  0.00     0.163 HD
BRANCH   4   7
ATOM      7  C   UNL A   1      32.959  24.358  25.504  1.00  0.00     0.274 C 
ATOM      8  N   UNL A   1      32.369  23.381  24.549  1.00  0.00    -0.322 N 
ATOM      9  C   UNL A   1      33.338  22.576  23.779  1.00  0.00     0.187 C 
ATOM     10  H   UNL A   1      31.929  22.685  25.150  1.00  0.00     0.349 HD
ATOM     11  C   UNL A   1      34.211  23.900  26.264  1.00  0.00     0.076 C 
ATOM     12  C   UNL A   1      34.551  22.051  24.587  1.00  0.00     0.048 C 
ATOM     13  C   UNL A   1      32.711  21.356  23.067  1.00  0.00     0.065 C 
ATOM     14  C   UNL A   1      35.209  23.203  25.350  1.00  0.00     0.016 C 
ATOM     15  C   UNL A   1      34.252  20.849  25.506  1.00  0.00     0.010 C 
ATOM     16  C   UNL A   1      32.197  20.325  24.063  1.00  0.00     0.006 C 
ATOM     17  C   UNL A   1      33.336  19.778  24.911  1.00  0.00     0.001 C 
BRANCH   8  18
ATOM     18  C   UNL A   1      31.275  23.960  23.727  1.00  0.00     0.265 C 
BRANCH  18  19
ATOM     19  C   UNL A   1      31.525  25.092  22.705  1.00  0.00     0.090 C 
BRANCH  19  20
ATOM     20  C   UNL A   1      32.839  25.110  21.921  1.00  0.00     0.166 C 
BRANCH  20  21
ATOM     21  O   UNL A   1      33.387  26.411  21.725  1.00  0.00    -0.382 OA
BRANCH  21  22
ATOM     22  C   UNL A   1      33.833  27.080  22.898  1.00  0.00     0.156 C 
ATOM     23  C   UNL A   1      33.871  28.596  22.750  1.00  0.00     0.035 C 
ENDBRANCH  21  22
ENDBRANCH  20  21
ENDBRANCH  19  20
ENDBRANCH  18  19
ENDBRANCH   8  18
ENDBRANCH   4   7
ENDBRANCH   2   3
ENDBRANCH   1   2
BRANCH   1  24
ATOM     24  C   UNL A   1      32.449  29.847  26.153  1.00  0.00     0.002 C 
BRANCH  24  25
ATOM     25  C   UNL A   1      33.267  30.215  27.395  1.00  0.00     0.002 C 
BRANCH  25  26
ATOM     26  C   UNL A   1      34.771  30.363  27.147  1.00  0.00     0.021 C 
BRANCH  26  27
ATOM     27  C   UNL A   1      35.641  29.481  28.037  1.00  0.00     0.116 C 
BRANCH  27  28
ATOM     28  N   UNL A   1      35.543  29.865  29.436  1.00  0.00    -0.352 N 
ATOM     29  C   UNL A   1      36.512  29.855  30.405  1.00  0.00     0.251 C 
ATOM     30  H   UNL A   1      34.655  30.175  29.728  1.00  0.00     0.163 HD
ATOM     31  O   UNL A   1      36.209  29.995  31.584  1.00  0.00    -0.269 OA
BRANCH  29  32
ATOM     32  C   UNL A   1      37.923  29.660  30.014  1.00  0.00     0.039 A 
ATOM     33  C   UNL A   1      38.846  29.270  30.985  1.00  0.00     0.014 A 
ATOM     34  C   UNL A   1      38.325  29.852  28.689  1.00  0.00     0.014 A 
ATOM     35  C   UNL A   1      40.167  29.015  30.614  1.00  0.00     0.010 A 
ATOM     36  C   UNL A   1      39.624  29.533  28.308  1.00  0.00     0.010 A 
ATOM     37  C   UNL A   1      40.557  29.111  29.267  1.00  0.00    -0.014 A 
BRANCH  37  38
ATOM     38  C   UNL A   1      41.930  28.743  28.842  1.00  0.00     0.031 A 
ATOM     39  C   UNL A   1      43.005  29.791  28.752  1.00  0.00     0.074 A 
ATOM     40  C   UNL A   1      42.187  27.474  28.469  1.00  0.00     0.049 A 
ATOM     41  N   UNL A   1      44.247  29.664  28.360  1.00  0.00    -0.248 NA
ATOM     42  C   UNL A   1      42.631  31.164  29.128  1.00  0.00     0.031 C 
ATOM     43  C   UNL A   1      41.212  26.380  28.464  1.00  0.00     0.029 A 
ATOM     44  N   UNL A   1      43.343  26.890  28.015  1.00  0.00    -0.354 N 
ATOM     45  C   UNL A   1      44.797  30.938  28.426  1.00  0.00     0.074 A 
ATOM     46  C   UNL A   1      43.742  31.832  28.853  1.00  0.00     0.031 C 
ATOM     47  C   UNL A   1      41.816  25.256  28.049  1.00  0.00     0.029 A 
ATOM     48  C   UNL A   1      43.206  25.554  27.721  1.00  0.00     0.049 A 
ATOM     49  H   UNL A   1      44.189  27.381  27.909  1.00  0.00     0.167 HD
ATOM     50  C   UNL A   1      46.069  31.326  28.169  1.00  0.00     0.031 A 
ATOM     51  C   UNL A   1      44.095  24.669  27.231  1.00  0.00     0.031 A 
ATOM     52  C   UNL A   1      47.115  30.430  27.749  1.00  0.00     0.049 A 
ATOM     53  C   UNL A   1      45.500  25.123  26.949  1.00  0.00     0.074 A 
ATOM     54  C   UNL A   1      48.452  30.711  27.532  1.00  0.00     0.029 A 
ATOM     55  N   UNL A   1      46.939  29.082  27.473  1.00  0.00    -0.354 N 
ATOM     56  N   UNL A   1      46.024  26.316  27.100  1.00  0.00    -0.248 NA
ATOM     57  C   UNL A   1      46.435  24.110  26.442  1.00  0.00     0.031 C 
ATOM     58  C   UNL A   1      49.073  29.547  27.067  1.00  0.00     0.029 A 
ATOM     59  C   UNL A   1      48.137  28.525  27.054  1.00  0.00     0.049 A 
ATOM     60  H   UNL A   1      46.090  28.592  27.562  1.00  0.00     0.167 HD
ATOM     61  C   UNL A   1      47.357  26.194  26.721  1.00  0.00     0.074 A 
ATOM     62  C   UNL A   1      47.561  24.807  26.356  1.00  0.00     0.031 C 
ATOM     63  C   UNL A   1      48.322  27.145  26.679  1.00  0.00     0.031 A 
BRANCH  50  64
ATOM     64  C   UNL A   1      46.397  32.788  28.320  1.00  0.00    -0.014 A 
ATOM     65  C   UNL A   1      46.278  33.679  27.237  1.00  0.00     0.010 A 
ATOM     66  C   UNL A   1      46.793  33.288  29.574  1.00  0.00     0.010 A 
ATOM     67  C   UNL A   1      46.592  35.032  27.394  1.00  0.00     0.020 A 
ATOM     68  C   UNL A   1      47.079  34.646  29.742  1.00  0.00     0.020 A 
ATOM     69  C   UNL A   1      46.994  35.506  28.645  1.00  0.00     0.054 A 
BRANCH  69  70
ATOM     70  S   UNL A   1      47.379  37.269  28.824  1.00  0.00     0.124 S 
ATOM     71  O   UNL A   1      46.047  37.857  28.946  1.00  0.00    -0.237 OA
ATOM     72  O   UNL A   1      48.190  37.298  30.039  1.00  0.00    -0.237 OA
ATOM     73  O   UNL A   1      48.095  37.596  27.594  1.00  0.00    -0.744 OA
ENDBRANCH  69  70
ENDBRANCH  50  64
BRANCH  51  74
ATOM     74  C   UNL A   1      43.674  23.264  26.981  1.00  0.00    -0.014 A 
ATOM     75  C   UNL A   1      43.233  22.449  28.038  1.00  0.00     0.010 A 
ATOM     76  C   UNL A   1      43.682  22.743  25.673  1.00  0.00     0.010 A 
ATOM     77  C   UNL A   1      42.816  21.137  27.794  1.00  0.00     0.020 A 
ATOM     78  C   UNL A   1      43.240  21.442  25.422  1.00  0.00     0.020 A 
ATOM     79  C   UNL A   1      42.818  20.643  26.486  1.00  0.00     0.054 A 
BRANCH  79  80
ATOM     80  S   UNL A   1      42.209  18.961  26.183  1.00  0.00     0.124 S 
ATOM     81  O   UNL A   1      43.072  18.518  25.093  1.00  0.00    -0.237 OA
ATOM     82  O   UNL A   1      42.429  18.310  27.472  1.00  0.00    -0.237 OA
ATOM     83  O   UNL A   1      40.806  19.165  25.830  1.00  0.00    -0.744 OA
ENDBRANCH  79  80
ENDBRANCH  51  74
BRANCH  63  84
ATOM     84  C   UNL A   1      49.694  26.716  26.231  1.00  0.00    -0.014 A 
ATOM     85  C   UNL A   1      50.080  26.811  24.882  1.00  0.00     0.010 A 
ATOM     86  C   UNL A   1      50.626  26.263  27.181  1.00  0.00     0.010 A 
ATOM     87  C   UNL A   1      51.365  26.429  24.487  1.00  0.00     0.020 A 
ATOM     88  C   UNL A   1      51.921  25.908  26.795  1.00  0.00     0.020 A 
ATOM     89  C   UNL A   1      52.278  25.980  25.447  1.00  0.00     0.054 A 
BRANCH  89  90
ATOM     90  S   UNL A   1      53.953  25.532  24.916  1.00  0.00     0.124 S 
ATOM     91  O   UNL A   1      53.828  24.092  24.700  1.00  0.00    -0.237 OA
ATOM     92  O   UNL A   1      54.132  26.335  23.708  1.00  0.00    -0.237 OA
ATOM     93  O   UNL A   1      54.792  25.921  26.046  1.00  0.00    -0.744 OA
ENDBRANCH  89  90
ENDBRANCH  63  84
ENDBRANCH  37  38
ENDBRANCH  29  32
ENDBRANCH  27  28
ENDBRANCH  26  27
ENDBRANCH  25  26
ENDBRANCH  24  25
ENDBRANCH   1  24
TORSDOF 21
ENDMDL
MODEL 3
REMARK VINA RESULT:      -9.5      4.338      9.623
REMARK SMILES CCOCCC[N@@H+]1[C@@H](C(=O)NCCCCCCNC(=O)c2ccc(-c3c4nc(c(-c5ccc(S(=O)(=O)[O-])cc5)c5ccc([nH]5)c(-c5ccc(S(=O)(=O)[O-])cc5)c5nc(c(-c6ccc(S(=O)(=O)[O-])cc6)c6ccc3[nH]6)C=C5)C=C4)cc2)CC[C@H]2CCCC[C@H]21
REMARK SMILES IDX 13 1 12 2 11 3 9 4 10 5 8 7 7 8 88 9 81 11 83 12 87 13 82 14
REMARK SMILES IDX 84 15 86 16 85 17 6 18 5 19 4 20 3 21 2 22 1 23 14 24 15 25
REMARK SMILES IDX 16 26 17 27 18 28 19 29 20 31 21 32 22 33 80 34 23 35 79 36
REMARK SMILES IDX 24 37 25 38 26 39 73 40 27 41 78 42 72 43 74 44 28 45 77 46
REMARK SMILES IDX 71 47 70 48 29 50 59 51 40 52 58 53 41 54 44 55 57 56 75 57
REMARK SMILES IDX 42 58 43 59 56 61 76 62 45 63 30 64 31 65 39 66 32 67 38 68
REMARK SMILES IDX 33 69 34 70 35 71 36 72 37 73 60 74 61 75 69 76 62 77 68 78
REMARK SMILES IDX 63 79 64 80 65 81 66 82 67 83 46 84 47 85 55 86 48 87 54 88
REMARK SMILES IDX 49 89 50 90 51 91 52 92 53 93
REMARK H PARENT 11 6 7 10 18 30 74 49 44 60
REMARK Flexibility Score: inf
ROOT
ATOM      1  C   UNL A   1      33.073  29.536  25.728  1.00  0.00     0.021 C 
ENDROOT
BRANCH   1   2
ATOM      2  C   UNL A   1      33.319  28.151  25.133  1.00  0.00     0.116 C 
BRANCH   2   3
ATOM      3  N   UNL A   1      32.716  27.132  25.963  1.00  0.00    -0.351 N 
ATOM      4  C   UNL A   1      32.716  25.780  25.789  1.00  0.00     0.278 C 
ATOM      5  O   UNL A   1      32.033  25.101  26.562  1.00  0.00    -0.268 OA
ATOM      6  H   UNL A   1      32.244  27.460  26.763  1.00  0.00     0.163 HD
BRANCH   4   7
ATOM      7  C   UNL A   1      33.549  25.111  24.667  1.00  0.00     0.274 C 
ATOM      8  N   UNL A   1      32.711  24.154  23.894  1.00  0.00    -0.322 N 
ATOM      9  C   UNL A   1      33.451  23.210  23.033  1.00  0.00     0.187 C 
ATOM     10  H   UNL A   1      32.317  23.542  24.608  1.00  0.00     0.349 HD
ATOM     11  C   UNL A   1      34.863  24.562  25.239  1.00  0.00     0.076 C 
ATOM     12  C   UNL A   1      34.728  22.602  23.663  1.00  0.00     0.048 C 
ATOM     13  C   UNL A   1      32.595  22.028  22.523  1.00  0.00     0.065 C 
ATOM     14  C   UNL A   1      35.616  23.715  24.224  1.00  0.00     0.016 C 
ATOM     15  C   UNL A   1      34.477  21.489  24.701  1.00  0.00     0.010 C 
ATOM     16  C   UNL A   1      32.163  21.113  23.660  1.00  0.00     0.006 C 
ATOM     17  C   UNL A   1      33.373  20.493  24.344  1.00  0.00     0.001 C 
BRANCH   8  18
ATOM     18  C   UNL A   1      31.554  24.803  23.227  1.00  0.00     0.265 C 
BRANCH  18  19
ATOM     19  C   UNL A   1      31.728  25.775  22.038  1.00  0.00     0.090 C 
BRANCH  19  20
ATOM     20  C   UNL A   1      31.588  27.279  22.282  1.00  0.00     0.166 C 
BRANCH  20  21
ATOM     21  O   UNL A   1      30.315  27.814  21.927  1.00  0.00    -0.382 OA
BRANCH  21  22
ATOM     22  C   UNL A   1      29.530  28.314  23.003  1.00  0.00     0.156 C 
ATOM     23  C   UNL A   1      30.040  29.639  23.556  1.00  0.00     0.035 C 
ENDBRANCH  21  22
ENDBRANCH  20  21
ENDBRANCH  19  20
ENDBRANCH  18  19
ENDBRANCH   8  18
ENDBRANCH   4   7
ENDBRANCH   2   3
ENDBRANCH   1   2
BRANCH   1  24
ATOM     24  C   UNL A   1      33.329  29.594  27.236  1.00  0.00     0.002 C 
BRANCH  24  25
ATOM     25  C   UNL A   1      34.513  30.478  27.640  1.00  0.00     0.002 C 
BRANCH  25  26
ATOM     26  C   UNL A   1      34.283  31.980  27.445  1.00  0.00     0.021 C 
BRANCH  26  27
ATOM     27  C   UNL A   1      32.891  32.457  27.851  1.00  0.00     0.116 C 
BRANCH  27  28
ATOM     28  N   UNL A   1      32.802  33.908  27.861  1.00  0.00    -0.352 N 
ATOM     29  C   UNL A   1      33.452  34.809  28.664  1.00  0.00     0.251 C 
ATOM     30  H   UNL A   1      32.187  34.298  27.199  1.00  0.00     0.163 HD
ATOM     31  O   UNL A   1      33.095  35.981  28.694  1.00  0.00    -0.269 OA
BRANCH  29  32
ATOM     32  C   UNL A   1      34.578  34.348  29.501  1.00  0.00     0.039 A 
ATOM     33  C   UNL A   1      34.304  33.710  30.711  1.00  0.00     0.014 A 
ATOM     34  C   UNL A   1      35.899  34.540  29.083  1.00  0.00     0.014 A 
ATOM     35  C   UNL A   1      35.357  33.209  31.477  1.00  0.00     0.010 A 
ATOM     36  C   UNL A   1      36.942  33.981  29.814  1.00  0.00     0.010 A 
ATOM     37  C   UNL A   1      36.681  33.310  31.017  1.00  0.00    -0.014 A 
BRANCH  37  38
ATOM     38  C   UNL A   1      37.800  32.691  31.770  1.00  0.00     0.031 A 
ATOM     39  C   UNL A   1      38.479  31.456  31.246  1.00  0.00     0.074 A 
ATOM     40  C   UNL A   1      38.157  33.207  32.962  1.00  0.00     0.049 A 
ATOM     41  N   UNL A   1      39.442  30.755  31.786  1.00  0.00    -0.248 NA
ATOM     42  C   UNL A   1      37.996  30.925  29.960  1.00  0.00     0.031 C 
ATOM     43  C   UNL A   1      37.538  34.373  33.599  1.00  0.00     0.029 A 
ATOM     44  N   UNL A   1      39.121  32.814  33.856  1.00  0.00    -0.354 N 
ATOM     45  C   UNL A   1      39.671  29.693  30.919  1.00  0.00     0.074 A 
ATOM     46  C   UNL A   1      38.716  29.818  29.839  1.00  0.00     0.031 C 
ATOM     47  C   UNL A   1      38.151  34.612  34.768  1.00  0.00     0.029 A 
ATOM     48  C   UNL A   1      39.177  33.597  34.985  1.00  0.00     0.049 A 
ATOM     49  H   UNL A   1      39.715  32.045  33.704  1.00  0.00     0.167 HD
ATOM     50  C   UNL A   1      40.602  28.714  31.006  1.00  0.00     0.031 A 
ATOM     51  C   UNL A   1      39.958  33.505  36.078  1.00  0.00     0.031 A 
ATOM     52  C   UNL A   1      41.553  28.600  32.081  1.00  0.00     0.049 A 
ATOM     53  C   UNL A   1      40.982  32.406  36.155  1.00  0.00     0.074 A 
ATOM     54  C   UNL A   1      42.582  27.687  32.225  1.00  0.00     0.029 A 
ATOM     55  N   UNL A   1      41.585  29.419  33.200  1.00  0.00    -0.354 N 
ATOM     56  N   UNL A   1      41.240  31.462  35.283  1.00  0.00    -0.248 NA
ATOM     57  C   UNL A   1      41.825  32.368  37.356  1.00  0.00     0.031 C 
ATOM     58  C   UNL A   1      43.198  27.914  33.460  1.00  0.00     0.029 A 
ATOM     59  C   UNL A   1      42.594  29.009  34.057  1.00  0.00     0.049 A 
ATOM     60  H   UNL A   1      40.981  30.179  33.362  1.00  0.00     0.167 HD
ATOM     61  C   UNL A   1      42.289  30.725  35.823  1.00  0.00     0.074 A 
ATOM     62  C   UNL A   1      42.628  31.348  37.086  1.00  0.00     0.031 C 
ATOM     63  C   UNL A   1      42.911  29.631  35.319  1.00  0.00     0.031 A 
BRANCH  50  64
ATOM     64  C   UNL A   1      40.627  27.676  29.914  1.00  0.00    -0.014 A 
ATOM     65  C   UNL A   1      39.606  26.715  29.797  1.00  0.00     0.010 A 
ATOM     66  C   UNL A   1      41.667  27.686  28.967  1.00  0.00     0.010 A 
ATOM     67  C   UNL A   1      39.649  25.756  28.782  1.00  0.00     0.020 A 
ATOM     68  C   UNL A   1      41.698  26.746  27.932  1.00  0.00     0.020 A 
ATOM     69  C   UNL A   1      40.697  25.776  27.858  1.00  0.00     0.054 A 
BRANCH  69  70
ATOM     70  S   UNL A   1      40.718  24.529  26.540  1.00  0.00     0.124 S 
ATOM     71  O   UNL A   1      41.861  24.959  25.737  1.00  0.00    -0.237 OA
ATOM     72  O   UNL A   1      40.905  23.283  27.280  1.00  0.00    -0.237 OA
ATOM     73  O   UNL A   1      39.415  24.679  25.898  1.00  0.00    -0.744 OA
ENDBRANCH  69  70
ENDBRANCH  50  64
BRANCH  51  74
ATOM     74  C   UNL A   1      39.797  34.486  37.184  1.00  0.00    -0.014 A 
ATOM     75  C   UNL A   1      39.004  34.179  38.304  1.00  0.00     0.010 A 
ATOM     76  C   UNL A   1      40.466  35.724  37.138  1.00  0.00     0.010 A 
ATOM     77  C   UNL A   1      38.875  35.097  39.352  1.00  0.00     0.020 A 
ATOM     78  C   UNL A   1      40.362  36.630  38.196  1.00  0.00     0.020 A 
ATOM     79  C   UNL A   1      39.559  36.314  39.293  1.00  0.00     0.054 A 
BRANCH  79  80
ATOM     80  S   UNL A   1      39.432  37.459  40.695  1.00  0.00     0.124 S 
ATOM     81  O   UNL A   1      38.476  38.443  40.197  1.00  0.00    -0.237 OA
ATOM     82  O   UNL A   1      38.949  36.593  41.767  1.00  0.00    -0.237 OA
ATOM     83  O   UNL A   1      40.800  37.944  40.865  1.00  0.00    -0.744 OA
ENDBRANCH  79  80
ENDBRANCH  51  74
BRANCH  63  84
ATOM     84  C   UNL A   1      44.034  29.041  36.130  1.00  0.00    -0.014 A 
ATOM     85  C   UNL A   1      45.332  29.581  36.075  1.00  0.00     0.010 A 
ATOM     86  C   UNL A   1      43.774  27.967  37.000  1.00  0.00     0.010 A 
ATOM     87  C   UNL A   1      46.357  29.034  36.851  1.00  0.00     0.020 A 
ATOM     88  C   UNL A   1      44.790  27.437  37.800  1.00  0.00     0.020 A 
ATOM     89  C   UNL A   1      46.079  27.966  37.710  1.00  0.00     0.054 A 
BRANCH  89  90
ATOM     90  S   UNL A   1      47.417  27.304  38.740  1.00  0.00     0.124 S 
ATOM     91  O   UNL A   1      48.095  28.522  39.176  1.00  0.00    -0.237 OA
ATOM     92  O   UNL A   1      46.692  26.581  39.782  1.00  0.00    -0.237 OA
ATOM     93  O   UNL A   1      48.180  26.462  37.820  1.00  0.00    -0.744 OA
ENDBRANCH  89  90
ENDBRANCH  63  84
ENDBRANCH  37  38
ENDBRANCH  29  32
ENDBRANCH  27  28
ENDBRANCH  26  27
ENDBRANCH  25  26
ENDBRANCH  24  25
ENDBRANCH   1  24
TORSDOF 21
ENDMDL
