MODEL 1
REMARK VINA RESULT:     -12.7      0.000      0.000
REMARK SMILES Cc1c(CC(=O)NCCCCCCNC(=O)c2ccc(-c3c4nc(c(-c5ccc(S(=O)(=O)[O-])cc5)c5ccc([nH]5)c(-c5ccc(S(=O)(=O)[O-])cc5)c5nc(c(-c6ccc(S(=O)(=O)[O-])cc6)c6ccc3[nH]6)C=C5)C=C4)cc2)c2cc(O)ccc2n1C(=O)c1ccc(Cl)cc1
REMARK SMILES IDX 10 1 9 2 8 3 7 4 5 5 6 6 4 8 3 9 1 10 2 11 84 12 77 13 83 14
REMARK SMILES IDX 78 15 82 16 79 17 81 18 85 19 86 20 87 21 88 22 93 23 89 24
REMARK SMILES IDX 92 25 90 26 91 27 80 28 11 30 12 31 13 32 14 33 15 34 16 36
REMARK SMILES IDX 17 37 18 38 76 39 19 40 75 41 20 42 21 43 22 44 69 45 23 46
REMARK SMILES IDX 74 47 68 48 70 49 24 50 73 51 67 52 66 53 25 55 55 56 36 57
REMARK SMILES IDX 54 58 37 59 40 60 53 61 71 62 38 63 39 64 52 66 72 67 41 68
REMARK SMILES IDX 26 69 27 70 35 71 28 72 34 73 29 74 30 75 31 76 32 77 33 78
REMARK SMILES IDX 56 79 57 80 65 81 58 82 64 83 59 84 60 85 61 86 62 87 63 88
REMARK SMILES IDX 42 89 43 90 51 91 44 92 50 93 45 94 46 95 47 96 48 97 49 98
REMARK H PARENT 7 7 80 29 14 35 70 54 40 65
REMARK Flexibility Score: inf
ROOT
ATOM      1  C   UNL A   1      38.481  23.419  26.269  1.00  0.00     0.002 C 
ENDROOT
BRANCH   1   2
ATOM      2  C   UNL A   1      37.720  22.457  25.349  1.00  0.00     0.021 C 
BRANCH   2   3
ATOM      3  C   UNL A   1      36.578  23.125  24.584  1.00  0.00     0.116 C 
BRANCH   3   4
ATOM      4  N   UNL A   1      35.309  22.928  25.258  1.00  0.00    -0.356 N 
ATOM      5  C   UNL A   1      34.214  23.745  25.265  1.00  0.00     0.224 C 
ATOM      6  O   UNL A   1      33.241  23.422  25.952  1.00  0.00    -0.275 OA
ATOM      7  H   UNL A   1      35.226  22.098  25.780  1.00  0.00     0.163 HD
BRANCH   5   8
ATOM      8  C   UNL A   1      34.190  24.991  24.394  1.00  0.00     0.138 C 
BRANCH   8   9
ATOM      9  C   UNL A   1      32.984  25.865  24.617  1.00  0.00    -0.009 A 
ATOM     10  C   UNL A   1      31.259  24.659  23.096  1.00  0.00     0.065 C 
ATOM     11  C   UNL A   1      31.728  25.723  24.043  1.00  0.00     0.028 A 
ATOM     12  N   UNL A   1      30.921  26.797  24.441  1.00  0.00    -0.280 N 
ATOM     13  C   UNL A   1      32.916  26.976  25.503  1.00  0.00     0.008 A 
ATOM     14  C   UNL A   1      31.614  27.490  25.451  1.00  0.00     0.057 A 
ATOM     15  C   UNL A   1      33.863  27.571  26.367  1.00  0.00     0.056 A 
ATOM     16  C   UNL A   1      31.237  28.535  26.322  1.00  0.00     0.031 A 
ATOM     17  C   UNL A   1      33.493  28.651  27.160  1.00  0.00     0.116 A 
ATOM     18  C   UNL A   1      32.195  29.125  27.154  1.00  0.00     0.048 A 
BRANCH  12  19
ATOM     19  C   UNL A   1      29.638  27.112  23.905  1.00  0.00     0.262 C 
ATOM     20  O   UNL A   1      28.694  26.351  24.132  1.00  0.00    -0.268 OA
BRANCH  19  21
ATOM     21  C   UNL A   1      29.303  28.294  23.095  1.00  0.00     0.040 A 
ATOM     22  C   UNL A   1      30.269  28.941  22.318  1.00  0.00     0.015 A 
ATOM     23  C   UNL A   1      27.978  28.746  23.112  1.00  0.00     0.015 A 
ATOM     24  C   UNL A   1      29.921  30.105  21.628  1.00  0.00     0.021 A 
ATOM     25  C   UNL A   1      27.633  29.901  22.411  1.00  0.00     0.021 A 
ATOM     26  C   UNL A   1      28.611  30.586  21.689  1.00  0.00     0.041 A 
ATOM     27  Cl  UNL A   1      28.199  32.048  20.880  1.00  0.00    -0.084 Cl
ENDBRANCH  19  21
ENDBRANCH  12  19
BRANCH  17  28
ATOM     28  O   UNL A   1      34.449  29.214  27.954  1.00  0.00    -0.508 OA
ATOM     29  H   UNL A   1      35.002  28.670  28.479  1.00  0.00     0.293 HD
ENDBRANCH  17  28
ENDBRANCH   8   9
ENDBRANCH   5   8
ENDBRANCH   3   4
ENDBRANCH   2   3
ENDBRANCH   1   2
BRANCH   1  30
ATOM     30  C   UNL A   1      39.684  22.801  26.993  1.00  0.00     0.002 C 
BRANCH  30  31
ATOM     31  C   UNL A   1      40.399  21.675  26.234  1.00  0.00     0.021 C 
BRANCH  31  32
ATOM     32  C   UNL A   1      41.899  21.587  26.511  1.00  0.00     0.116 C 
BRANCH  32  33
ATOM     33  N   UNL A   1      42.703  22.321  25.556  1.00  0.00    -0.352 N 
ATOM     34  C   UNL A   1      43.018  23.638  25.369  1.00  0.00     0.251 C 
ATOM     35  H   UNL A   1      43.119  21.734  24.883  1.00  0.00     0.163 HD
ATOM     36  O   UNL A   1      43.830  23.870  24.468  1.00  0.00    -0.269 OA
BRANCH  34  37
ATOM     37  C   UNL A   1      42.427  24.784  26.116  1.00  0.00     0.039 A 
ATOM     38  C   UNL A   1      41.493  25.691  25.617  1.00  0.00     0.014 A 
ATOM     39  C   UNL A   1      42.925  24.988  27.418  1.00  0.00     0.014 A 
ATOM     40  C   UNL A   1      41.154  26.827  26.347  1.00  0.00     0.010 A 
ATOM     41  C   UNL A   1      42.571  26.111  28.161  1.00  0.00     0.010 A 
ATOM     42  C   UNL A   1      41.730  27.063  27.599  1.00  0.00    -0.014 A 
BRANCH  42  43
ATOM     43  C   UNL A   1      41.398  28.315  28.275  1.00  0.00     0.031 A 
ATOM     44  C   UNL A   1      42.423  29.395  28.195  1.00  0.00     0.074 A 
ATOM     45  C   UNL A   1      40.226  28.539  28.903  1.00  0.00     0.049 A 
ATOM     46  N   UNL A   1      43.089  29.942  29.160  1.00  0.00    -0.248 NA
ATOM     47  C   UNL A   1      42.816  29.862  26.857  1.00  0.00     0.031 C 
ATOM     48  C   UNL A   1      39.002  27.731  28.886  1.00  0.00     0.029 A 
ATOM     49  N   UNL A   1      39.865  29.623  29.643  1.00  0.00    -0.354 N 
ATOM     50  C   UNL A   1      43.892  30.922  28.579  1.00  0.00     0.074 A 
ATOM     51  C   UNL A   1      43.754  30.763  27.151  1.00  0.00     0.031 C 
ATOM     52  C   UNL A   1      37.977  28.461  29.382  1.00  0.00     0.029 A 
ATOM     53  C   UNL A   1      38.505  29.708  29.906  1.00  0.00     0.049 A 
ATOM     54  H   UNL A   1      40.513  30.290  29.966  1.00  0.00     0.167 HD
ATOM     55  C   UNL A   1      44.524  31.890  29.302  1.00  0.00     0.031 A 
ATOM     56  C   UNL A   1      37.855  30.755  30.472  1.00  0.00     0.031 A 
ATOM     57  C   UNL A   1      44.592  31.568  30.699  1.00  0.00     0.049 A 
ATOM     58  C   UNL A   1      38.859  31.522  31.246  1.00  0.00     0.074 A 
ATOM     59  C   UNL A   1      45.230  30.589  31.435  1.00  0.00     0.029 A 
ATOM     60  N   UNL A   1      43.642  32.106  31.531  1.00  0.00    -0.354 N 
ATOM     61  N   UNL A   1      39.473  31.056  32.299  1.00  0.00    -0.248 NA
ATOM     62  C   UNL A   1      39.491  32.665  30.608  1.00  0.00     0.031 C 
ATOM     63  C   UNL A   1      44.315  30.260  32.475  1.00  0.00     0.029 A 
ATOM     64  C   UNL A   1      43.200  31.092  32.345  1.00  0.00     0.049 A 
ATOM     65  H   UNL A   1      43.334  33.041  31.542  1.00  0.00     0.167 HD
ATOM     66  C   UNL A   1      40.760  31.567  32.217  1.00  0.00     0.074 A 
ATOM     67  C   UNL A   1      40.682  32.623  31.210  1.00  0.00     0.031 C 
ATOM     68  C   UNL A   1      41.825  30.921  32.777  1.00  0.00     0.031 A 
BRANCH  55  69
ATOM     69  C   UNL A   1      44.870  33.254  28.770  1.00  0.00    -0.014 A 
ATOM     70  C   UNL A   1      44.077  34.389  29.032  1.00  0.00     0.010 A 
ATOM     71  C   UNL A   1      46.134  33.480  28.186  1.00  0.00     0.010 A 
ATOM     72  C   UNL A   1      44.497  35.680  28.704  1.00  0.00     0.020 A 
ATOM     73  C   UNL A   1      46.585  34.777  27.890  1.00  0.00     0.020 A 
ATOM     74  C   UNL A   1      45.757  35.869  28.147  1.00  0.00     0.054 A 
BRANCH  74  75
ATOM     75  S   UNL A   1      46.309  37.566  27.846  1.00  0.00     0.124 S 
ATOM     76  O   UNL A   1      47.744  37.383  27.639  1.00  0.00    -0.237 OA
ATOM     77  O   UNL A   1      45.544  37.938  26.660  1.00  0.00    -0.237 OA
ATOM     78  O   UNL A   1      45.940  38.271  29.071  1.00  0.00    -0.744 OA
ENDBRANCH  74  75
ENDBRANCH  55  69
BRANCH  56  79
ATOM     79  C   UNL A   1      36.607  31.379  29.958  1.00  0.00    -0.014 A 
ATOM     80  C   UNL A   1      36.576  31.902  28.649  1.00  0.00     0.010 A 
ATOM     81  C   UNL A   1      35.571  31.744  30.837  1.00  0.00     0.010 A 
ATOM     82  C   UNL A   1      35.596  32.817  28.253  1.00  0.00     0.020 A 
ATOM     83  C   UNL A   1      34.581  32.663  30.446  1.00  0.00     0.020 A 
ATOM     84  C   UNL A   1      34.625  33.221  29.167  1.00  0.00     0.054 A 
BRANCH  84  85
ATOM     85  S   UNL A   1      33.487  34.548  28.676  1.00  0.00     0.124 S 
ATOM     86  O   UNL A   1      32.639  33.874  27.696  1.00  0.00    -0.237 OA
ATOM     87  O   UNL A   1      32.835  34.890  29.939  1.00  0.00    -0.237 OA
ATOM     88  O   UNL A   1      34.369  35.580  28.135  1.00  0.00    -0.744 OA
ENDBRANCH  84  85
ENDBRANCH  56  79
BRANCH  68  89
ATOM     89  C   UNL A   1      41.575  29.745  33.701  1.00  0.00    -0.014 A 
ATOM     90  C   UNL A   1      41.594  29.992  35.086  1.00  0.00     0.010 A 
ATOM     91  C   UNL A   1      41.582  28.406  33.260  1.00  0.00     0.010 A 
ATOM     92  C   UNL A   1      41.686  28.942  36.003  1.00  0.00     0.020 A 
ATOM     93  C   UNL A   1      41.649  27.345  34.178  1.00  0.00     0.020 A 
ATOM     94  C   UNL A   1      41.738  27.624  35.544  1.00  0.00     0.054 A 
BRANCH  94  95
ATOM     95  S   UNL A   1      41.984  26.301  36.762  1.00  0.00     0.124 S 
ATOM     96  O   UNL A   1      42.350  25.167  35.915  1.00  0.00    -0.237 OA
ATOM     97  O   UNL A   1      43.060  26.826  37.598  1.00  0.00    -0.237 OA
ATOM     98  O   UNL A   1      40.687  26.183  37.424  1.00  0.00    -0.744 OA
ENDBRANCH  94  95
ENDBRANCH  68  89
ENDBRANCH  42  43
ENDBRANCH  34  37
ENDBRANCH  32  33
ENDBRANCH  31  32
ENDBRANCH  30  31
ENDBRANCH   1  30
TORSDOF 20
ENDMDL
MODEL 2
REMARK VINA RESULT:     -12.6      1.865      2.802
REMARK SMILES Cc1c(CC(=O)NCCCCCCNC(=O)c2ccc(-c3c4nc(c(-c5ccc(S(=O)(=O)[O-])cc5)c5ccc([nH]5)c(-c5ccc(S(=O)(=O)[O-])cc5)c5nc(c(-c6ccc(S(=O)(=O)[O-])cc6)c6ccc3[nH]6)C=C5)C=C4)cc2)c2cc(O)ccc2n1C(=O)c1ccc(Cl)cc1
REMARK SMILES IDX 10 1 9 2 8 3 7 4 5 5 6 6 4 8 3 9 1 10 2 11 84 12 77 13 83 14
REMARK SMILES IDX 78 15 82 16 79 17 81 18 85 19 86 20 87 21 88 22 93 23 89 24
REMARK SMILES IDX 92 25 90 26 91 27 80 28 11 30 12 31 13 32 14 33 15 34 16 36
REMARK SMILES IDX 17 37 18 38 76 39 19 40 75 41 20 42 21 43 22 44 69 45 23 46
REMARK SMILES IDX 74 47 68 48 70 49 24 50 73 51 67 52 66 53 25 55 55 56 36 57
REMARK SMILES IDX 54 58 37 59 40 60 53 61 71 62 38 63 39 64 52 66 72 67 41 68
REMARK SMILES IDX 26 69 27 70 35 71 28 72 34 73 29 74 30 75 31 76 32 77 33 78
REMARK SMILES IDX 56 79 57 80 65 81 58 82 64 83 59 84 60 85 61 86 62 87 63 88
REMARK SMILES IDX 42 89 43 90 51 91 44 92 50 93 45 94 46 95 47 96 48 97 49 98
REMARK H PARENT 7 7 80 29 14 35 70 54 40 65
REMARK Flexibility Score: inf
ROOT
ATOM      1  C   UNL A   1      36.142  23.396  25.430  1.00  0.00     0.002 C 
ENDROOT
BRANCH   1   2
ATOM      2  C   UNL A   1      35.444  22.157  26.003  1.00  0.00     0.021 C 
BRANCH   2   3
ATOM      3  C   UNL A   1      35.266  21.034  24.981  1.00  0.00     0.116 C 
BRANCH   3   4
ATOM      4  N   UNL A   1      34.218  20.117  25.386  1.00  0.00    -0.356 N 
ATOM      5  C   UNL A   1      32.953  19.998  24.888  1.00  0.00     0.224 C 
ATOM      6  O   UNL A   1      32.186  19.184  25.411  1.00  0.00    -0.275 OA
ATOM      7  H   UNL A   1      34.450  19.499  26.117  1.00  0.00     0.163 HD
BRANCH   5   8
ATOM      8  C   UNL A   1      32.532  20.817  23.679  1.00  0.00     0.138 C 
BRANCH   8   9
ATOM      9  C   UNL A   1      32.343  22.282  23.972  1.00  0.00    -0.009 A 
ATOM     10  C   UNL A   1      33.763  23.318  22.060  1.00  0.00     0.065 C 
ATOM     11  C   UNL A   1      32.889  23.354  23.277  1.00  0.00     0.028 A 
ATOM     12  N   UNL A   1      32.543  24.544  23.932  1.00  0.00    -0.280 N 
ATOM     13  C   UNL A   1      31.524  22.824  25.002  1.00  0.00     0.008 A 
ATOM     14  C   UNL A   1      31.587  24.220  24.912  1.00  0.00     0.057 A 
ATOM     15  C   UNL A   1      30.711  22.228  25.992  1.00  0.00     0.056 A 
ATOM     16  C   UNL A   1      30.773  25.015  25.750  1.00  0.00     0.031 A 
ATOM     17  C   UNL A   1      29.979  23.029  26.860  1.00  0.00     0.116 A 
ATOM     18  C   UNL A   1      29.993  24.406  26.739  1.00  0.00     0.048 A 
BRANCH  12  19
ATOM     19  C   UNL A   1      33.077  25.833  23.641  1.00  0.00     0.262 C 
ATOM     20  O   UNL A   1      33.610  26.025  22.545  1.00  0.00    -0.268 OA
BRANCH  19  21
ATOM     21  C   UNL A   1      33.048  27.005  24.530  1.00  0.00     0.040 A 
ATOM     22  C   UNL A   1      32.173  28.072  24.300  1.00  0.00     0.015 A 
ATOM     23  C   UNL A   1      33.914  27.016  25.630  1.00  0.00     0.015 A 
ATOM     24  C   UNL A   1      32.236  29.197  25.127  1.00  0.00     0.021 A 
ATOM     25  C   UNL A   1      33.964  28.136  26.459  1.00  0.00     0.021 A 
ATOM     26  C   UNL A   1      33.140  29.229  26.191  1.00  0.00     0.041 A 
ATOM     27  Cl  UNL A   1      33.251  30.636  27.176  1.00  0.00    -0.084 Cl
ENDBRANCH  19  21
ENDBRANCH  12  19
BRANCH  17  28
ATOM     28  O   UNL A   1      29.234  22.411  27.821  1.00  0.00    -0.508 OA
ATOM     29  H   UNL A   1      28.538  21.833  27.576  1.00  0.00     0.293 HD
ENDBRANCH  17  28
ENDBRANCH   8   9
ENDBRANCH   5   8
ENDBRANCH   3   4
ENDBRANCH   2   3
ENDBRANCH   1   2
BRANCH   1  30
ATOM     30  C   UNL A   1      37.621  23.536  25.812  1.00  0.00     0.002 C 
BRANCH  30  31
ATOM     31  C   UNL A   1      38.440  22.240  25.749  1.00  0.00     0.021 C 
BRANCH  31  32
ATOM     32  C   UNL A   1      39.609  22.189  26.732  1.00  0.00     0.116 C 
BRANCH  32  33
ATOM     33  N   UNL A   1      40.905  22.208  26.084  1.00  0.00    -0.352 N 
ATOM     34  C   UNL A   1      41.945  23.093  26.032  1.00  0.00     0.251 C 
ATOM     35  H   UNL A   1      41.074  21.394  25.556  1.00  0.00     0.163 HD
ATOM     36  O   UNL A   1      42.948  22.702  25.426  1.00  0.00    -0.269 OA
BRANCH  34  37
ATOM     37  C   UNL A   1      41.936  24.474  26.590  1.00  0.00     0.039 A 
ATOM     38  C   UNL A   1      42.523  24.876  27.789  1.00  0.00     0.014 A 
ATOM     39  C   UNL A   1      41.201  25.427  25.855  1.00  0.00     0.014 A 
ATOM     40  C   UNL A   1      42.290  26.152  28.296  1.00  0.00     0.010 A 
ATOM     41  C   UNL A   1      40.986  26.711  26.347  1.00  0.00     0.010 A 
ATOM     42  C   UNL A   1      41.481  27.054  27.599  1.00  0.00    -0.014 A 
BRANCH  42  43
ATOM     43  C   UNL A   1      41.206  28.345  28.226  1.00  0.00     0.031 A 
ATOM     44  C   UNL A   1      42.247  29.398  28.042  1.00  0.00     0.074 A 
ATOM     45  C   UNL A   1      40.071  28.625  28.897  1.00  0.00     0.049 A 
ATOM     46  N   UNL A   1      42.970  29.977  28.945  1.00  0.00    -0.248 NA
ATOM     47  C   UNL A   1      42.582  29.788  26.664  1.00  0.00     0.031 C 
ATOM     48  C   UNL A   1      38.833  27.844  28.979  1.00  0.00     0.029 A 
ATOM     49  N   UNL A   1      39.767  29.752  29.598  1.00  0.00    -0.354 N 
ATOM     50  C   UNL A   1      43.762  30.909  28.277  1.00  0.00     0.074 A 
ATOM     51  C   UNL A   1      43.551  30.682  26.867  1.00  0.00     0.031 C 
ATOM     52  C   UNL A   1      37.847  28.620  29.487  1.00  0.00     0.029 A 
ATOM     53  C   UNL A   1      38.424  29.880  29.920  1.00  0.00     0.049 A 
ATOM     54  H   UNL A   1      40.443  30.421  29.854  1.00  0.00     0.167 HD
ATOM     55  C   UNL A   1      44.446  31.898  28.919  1.00  0.00     0.031 A 
ATOM     56  C   UNL A   1      37.822  30.967  30.463  1.00  0.00     0.031 A 
ATOM     57  C   UNL A   1      44.577  31.645  30.326  1.00  0.00     0.049 A 
ATOM     58  C   UNL A   1      38.878  31.750  31.148  1.00  0.00     0.074 A 
ATOM     59  C   UNL A   1      45.231  30.691  31.079  1.00  0.00     0.029 A 
ATOM     60  N   UNL A   1      43.679  32.244  31.174  1.00  0.00    -0.354 N 
ATOM     61  N   UNL A   1      39.533  31.324  32.192  1.00  0.00    -0.248 NA
ATOM     62  C   UNL A   1      39.499  32.846  30.424  1.00  0.00     0.031 C 
ATOM     63  C   UNL A   1      44.362  30.433  32.177  1.00  0.00     0.029 A 
ATOM     64  C   UNL A   1      43.258  31.282  32.058  1.00  0.00     0.049 A 
ATOM     65  H   UNL A   1      43.390  33.185  31.152  1.00  0.00     0.167 HD
ATOM     66  C   UNL A   1      40.824  31.802  32.023  1.00  0.00     0.074 A 
ATOM     67  C   UNL A   1      40.717  32.809  30.969  1.00  0.00     0.031 C 
ATOM     68  C   UNL A   1      41.902  31.163  32.564  1.00  0.00     0.031 A 
BRANCH  55  69
ATOM     69  C   UNL A   1      44.792  33.227  28.302  1.00  0.00    -0.014 A 
ATOM     70  C   UNL A   1      43.809  34.176  27.957  1.00  0.00     0.010 A 
ATOM     71  C   UNL A   1      46.135  33.657  28.269  1.00  0.00     0.010 A 
ATOM     72  C   UNL A   1      44.138  35.476  27.567  1.00  0.00     0.020 A 
ATOM     73  C   UNL A   1      46.475  34.974  27.919  1.00  0.00     0.020 A 
ATOM     74  C   UNL A   1      45.470  35.873  27.564  1.00  0.00     0.054 A 
BRANCH  74  75
ATOM     75  S   UNL A   1      45.843  37.599  27.166  1.00  0.00     0.124 S 
ATOM     76  O   UNL A   1      46.729  37.458  26.012  1.00  0.00    -0.237 OA
ATOM     77  O   UNL A   1      44.521  38.147  26.880  1.00  0.00    -0.237 OA
ATOM     78  O   UNL A   1      46.477  38.104  28.381  1.00  0.00    -0.744 OA
ENDBRANCH  74  75
ENDBRANCH  55  69
BRANCH  56  79
ATOM     79  C   UNL A   1      36.563  31.591  29.978  1.00  0.00    -0.014 A 
ATOM     80  C   UNL A   1      36.502  32.116  28.670  1.00  0.00     0.010 A 
ATOM     81  C   UNL A   1      35.547  31.955  30.881  1.00  0.00     0.010 A 
ATOM     82  C   UNL A   1      35.513  33.032  28.298  1.00  0.00     0.020 A 
ATOM     83  C   UNL A   1      34.548  32.874  30.514  1.00  0.00     0.020 A 
ATOM     84  C   UNL A   1      34.563  33.434  29.235  1.00  0.00     0.054 A 
BRANCH  84  85
ATOM     85  S   UNL A   1      33.413  34.762  28.772  1.00  0.00     0.124 S 
ATOM     86  O   UNL A   1      32.602  34.115  27.744  1.00  0.00    -0.237 OA
ATOM     87  O   UNL A   1      32.726  35.039  30.031  1.00  0.00    -0.237 OA
ATOM     88  O   UNL A   1      34.290  35.830  28.296  1.00  0.00    -0.744 OA
ENDBRANCH  84  85
ENDBRANCH  56  79
BRANCH  68  89
ATOM     89  C   UNL A   1      41.676  30.040  33.557  1.00  0.00    -0.014 A 
ATOM     90  C   UNL A   1      41.981  30.295  34.907  1.00  0.00     0.010 A 
ATOM     91  C   UNL A   1      41.427  28.708  33.168  1.00  0.00     0.010 A 
ATOM     92  C   UNL A   1      42.103  29.251  35.827  1.00  0.00     0.020 A 
ATOM     93  C   UNL A   1      41.522  27.656  34.094  1.00  0.00     0.020 A 
ATOM     94  C   UNL A   1      41.897  27.934  35.411  1.00  0.00     0.054 A 
BRANCH  94  95
ATOM     95  S   UNL A   1      42.188  26.602  36.609  1.00  0.00     0.124 S 
ATOM     96  O   UNL A   1      43.100  27.235  37.560  1.00  0.00    -0.237 OA
ATOM     97  O   UNL A   1      40.847  26.329  37.121  1.00  0.00    -0.237 OA
ATOM     98  O   UNL A   1      42.776  25.528  35.812  1.00  0.00    -0.744 OA
ENDBRANCH  94  95
ENDBRANCH  68  89
ENDBRANCH  42  43
ENDBRANCH  34  37
ENDBRANCH  32  33
ENDBRANCH  31  32
ENDBRANCH  30  31
ENDBRANCH   1  30
TORSDOF 20
ENDMDL
MODEL 3
REMARK VINA RESULT:     -12.6      2.310      3.508
REMARK SMILES Cc1c(CC(=O)NCCCCCCNC(=O)c2ccc(-c3c4nc(c(-c5ccc(S(=O)(=O)[O-])cc5)c5ccc([nH]5)c(-c5ccc(S(=O)(=O)[O-])cc5)c5nc(c(-c6ccc(S(=O)(=O)[O-])cc6)c6ccc3[nH]6)C=C5)C=C4)cc2)c2cc(O)ccc2n1C(=O)c1ccc(Cl)cc1
REMARK SMILES IDX 10 1 9 2 8 3 7 4 5 5 6 6 4 8 3 9 1 10 2 11 84 12 77 13 83 14
REMARK SMILES IDX 78 15 82 16 79 17 81 18 85 19 86 20 87 21 88 22 93 23 89 24
REMARK SMILES IDX 92 25 90 26 91 27 80 28 11 30 12 31 13 32 14 33 15 34 16 36
REMARK SMILES IDX 17 37 18 38 76 39 19 40 75 41 20 42 21 43 22 44 69 45 23 46
REMARK SMILES IDX 74 47 68 48 70 49 24 50 73 51 67 52 66 53 25 55 55 56 36 57
REMARK SMILES IDX 54 58 37 59 40 60 53 61 71 62 38 63 39 64 52 66 72 67 41 68
REMARK SMILES IDX 26 69 27 70 35 71 28 72 34 73 29 74 30 75 31 76 32 77 33 78
REMARK SMILES IDX 56 79 57 80 65 81 58 82 64 83 59 84 60 85 61 86 62 87 63 88
REMARK SMILES IDX 42 89 43 90 51 91 44 92 50 93 45 94 46 95 47 96 48 97 49 98
REMARK H PARENT 7 7 80 29 14 35 70 54 40 65
REMARK Flexibility Score: inf
ROOT
ATOM      1  C   UNL A   1      39.733  22.083  26.763  1.00  0.00     0.002 C 
ENDROOT
BRANCH   1   2
ATOM      2  C   UNL A   1      38.965  21.528  25.558  1.00  0.00     0.021 C 
BRANCH   2   3
ATOM      3  C   UNL A   1      37.455  21.753  25.643  1.00  0.00     0.116 C 
BRANCH   3   4
ATOM      4  N   UNL A   1      36.934  22.293  24.402  1.00  0.00    -0.356 N 
ATOM      5  C   UNL A   1      36.132  23.383  24.220  1.00  0.00     0.224 C 
ATOM      6  O   UNL A   1      35.749  23.650  23.077  1.00  0.00    -0.275 OA
ATOM      7  H   UNL A   1      37.190  21.809  23.584  1.00  0.00     0.163 HD
BRANCH   5   8
ATOM      8  C   UNL A   1      35.777  24.272  25.401  1.00  0.00     0.138 C 
BRANCH   8   9
ATOM      9  C   UNL A   1      34.308  24.581  25.509  1.00  0.00    -0.009 A 
ATOM     10  C   UNL A   1      34.372  27.172  25.337  1.00  0.00     0.065 C 
ATOM     11  C   UNL A   1      33.712  25.835  25.494  1.00  0.00     0.028 A 
ATOM     12  N   UNL A   1      32.335  25.687  25.715  1.00  0.00    -0.280 N 
ATOM     13  C   UNL A   1      33.262  23.621  25.602  1.00  0.00     0.008 A 
ATOM     14  C   UNL A   1      32.044  24.313  25.641  1.00  0.00     0.057 A 
ATOM     15  C   UNL A   1      33.259  22.208  25.632  1.00  0.00     0.056 A 
ATOM     16  C   UNL A   1      30.829  23.595  25.620  1.00  0.00     0.031 A 
ATOM     17  C   UNL A   1      32.052  21.520  25.692  1.00  0.00     0.116 A 
ATOM     18  C   UNL A   1      30.848  22.197  25.673  1.00  0.00     0.048 A 
BRANCH  12  19
ATOM     19  C   UNL A   1      31.419  26.750  25.968  1.00  0.00     0.262 C 
ATOM     20  O   UNL A   1      31.168  27.056  27.136  1.00  0.00    -0.268 OA
BRANCH  19  21
ATOM     21  C   UNL A   1      30.728  27.560  24.952  1.00  0.00     0.040 A 
ATOM     22  C   UNL A   1      29.719  27.015  24.151  1.00  0.00     0.015 A 
ATOM     23  C   UNL A   1      31.102  28.902  24.818  1.00  0.00     0.015 A 
ATOM     24  C   UNL A   1      29.147  27.801  23.147  1.00  0.00     0.021 A 
ATOM     25  C   UNL A   1      30.518  29.685  23.822  1.00  0.00     0.021 A 
ATOM     26  C   UNL A   1      29.558  29.125  22.979  1.00  0.00     0.041 A 
ATOM     27  Cl  UNL A   1      28.889  30.074  21.708  1.00  0.00    -0.084 Cl
ENDBRANCH  19  21
ENDBRANCH  12  19
BRANCH  17  28
ATOM     28  O   UNL A   1      32.099  20.158  25.752  1.00  0.00    -0.508 OA
ATOM     29  H   UNL A   1      31.415  19.648  25.365  1.00  0.00     0.293 HD
ENDBRANCH  17  28
ENDBRANCH   8   9
ENDBRANCH   5   8
ENDBRANCH   3   4
ENDBRANCH   2   3
ENDBRANCH   1   2
BRANCH   1  30
ATOM     30  C   UNL A   1      40.791  21.137  27.343  1.00  0.00     0.002 C 
BRANCH  30  31
ATOM     31  C   UNL A   1      40.979  19.817  26.583  1.00  0.00     0.021 C 
BRANCH  31  32
ATOM     32  C   UNL A   1      42.385  19.227  26.689  1.00  0.00     0.116 C 
BRANCH  32  33
ATOM     33  N   UNL A   1      43.202  19.479  25.519  1.00  0.00    -0.352 N 
ATOM     34  C   UNL A   1      43.890  20.556  25.035  1.00  0.00     0.251 C 
ATOM     35  H   UNL A   1      43.280  18.688  24.937  1.00  0.00     0.163 HD
ATOM     36  O   UNL A   1      44.561  20.348  24.019  1.00  0.00    -0.269 OA
BRANCH  34  37
ATOM     37  C   UNL A   1      43.845  21.936  25.596  1.00  0.00     0.039 A 
ATOM     38  C   UNL A   1      44.525  22.379  26.730  1.00  0.00     0.014 A 
ATOM     39  C   UNL A   1      42.976  22.834  24.945  1.00  0.00     0.014 A 
ATOM     40  C   UNL A   1      44.260  23.638  27.263  1.00  0.00     0.010 A 
ATOM     41  C   UNL A   1      42.726  24.102  25.462  1.00  0.00     0.010 A 
ATOM     42  C   UNL A   1      43.324  24.481  26.657  1.00  0.00    -0.014 A 
BRANCH  42  43
ATOM     43  C   UNL A   1      43.029  25.753  27.314  1.00  0.00     0.031 A 
ATOM     44  C   UNL A   1      44.019  26.848  27.097  1.00  0.00     0.074 A 
ATOM     45  C   UNL A   1      41.916  25.980  28.040  1.00  0.00     0.049 A 
ATOM     46  N   UNL A   1      44.760  27.444  27.974  1.00  0.00    -0.248 NA
ATOM     47  C   UNL A   1      44.275  27.268  25.712  1.00  0.00     0.031 C 
ATOM     48  C   UNL A   1      40.714  25.151  28.168  1.00  0.00     0.029 A 
ATOM     49  N   UNL A   1      41.601  27.086  28.770  1.00  0.00    -0.354 N 
ATOM     50  C   UNL A   1      45.483  28.414  27.284  1.00  0.00     0.074 A 
ATOM     51  C   UNL A   1      45.217  28.197  25.883  1.00  0.00     0.031 C 
ATOM     52  C   UNL A   1      39.723  25.881  28.731  1.00  0.00     0.029 A 
ATOM     53  C   UNL A   1      40.271  27.157  29.155  1.00  0.00     0.049 A 
ATOM     54  H   UNL A   1      42.263  27.777  29.004  1.00  0.00     0.167 HD
ATOM     55  C   UNL A   1      46.159  29.421  27.908  1.00  0.00     0.031 A 
ATOM     56  C   UNL A   1      39.654  28.213  29.740  1.00  0.00     0.031 A 
ATOM     57  C   UNL A   1      46.364  29.156  29.304  1.00  0.00     0.049 A 
ATOM     58  C   UNL A   1      40.709  29.029  30.387  1.00  0.00     0.074 A 
ATOM     59  C   UNL A   1      47.088  28.219  30.013  1.00  0.00     0.029 A 
ATOM     60  N   UNL A   1      45.483  29.709  30.200  1.00  0.00    -0.354 N 
ATOM     61  N   UNL A   1      41.428  28.615  31.394  1.00  0.00    -0.248 NA
ATOM     62  C   UNL A   1      41.254  30.157  29.650  1.00  0.00     0.031 C 
ATOM     63  C   UNL A   1      46.281  27.914  31.145  1.00  0.00     0.029 A 
ATOM     64  C   UNL A   1      45.141  28.721  31.089  1.00  0.00     0.049 A 
ATOM     65  H   UNL A   1      45.158  30.638  30.205  1.00  0.00     0.167 HD
ATOM     66  C   UNL A   1      42.690  29.146  31.173  1.00  0.00     0.074 A 
ATOM     67  C   UNL A   1      42.496  30.160  30.139  1.00  0.00     0.031 C 
ATOM     68  C   UNL A   1      43.816  28.542  31.655  1.00  0.00     0.031 A 
BRANCH  55  69
ATOM     69  C   UNL A   1      46.424  30.770  27.295  1.00  0.00    -0.014 A 
ATOM     70  C   UNL A   1      45.387  31.665  26.965  1.00  0.00     0.010 A 
ATOM     71  C   UNL A   1      47.741  31.274  27.250  1.00  0.00     0.010 A 
ATOM     72  C   UNL A   1      45.639  32.983  26.579  1.00  0.00     0.020 A 
ATOM     73  C   UNL A   1      48.005  32.609  26.904  1.00  0.00     0.020 A 
ATOM     74  C   UNL A   1      46.948  33.453  26.564  1.00  0.00     0.054 A 
BRANCH  74  75
ATOM     75  S   UNL A   1      47.221  35.199  26.171  1.00  0.00     0.124 S 
ATOM     76  O   UNL A   1      47.981  35.113  24.926  1.00  0.00    -0.237 OA
ATOM     77  O   UNL A   1      45.859  35.708  26.043  1.00  0.00    -0.237 OA
ATOM     78  O   UNL A   1      47.966  35.699  27.323  1.00  0.00    -0.744 OA
ENDBRANCH  74  75
ENDBRANCH  55  69
BRANCH  56  79
ATOM     79  C   UNL A   1      38.350  28.794  29.322  1.00  0.00    -0.014 A 
ATOM     80  C   UNL A   1      38.181  29.248  27.998  1.00  0.00     0.010 A 
ATOM     81  C   UNL A   1      37.399  29.190  30.281  1.00  0.00     0.010 A 
ATOM     82  C   UNL A   1      37.150  30.130  27.656  1.00  0.00     0.020 A 
ATOM     83  C   UNL A   1      36.360  30.075  29.945  1.00  0.00     0.020 A 
ATOM     84  C   UNL A   1      36.267  30.568  28.641  1.00  0.00     0.054 A 
BRANCH  84  85
ATOM     85  S   UNL A   1      35.062  31.853  28.200  1.00  0.00     0.124 S 
ATOM     86  O   UNL A   1      34.470  32.171  29.497  1.00  0.00    -0.237 OA
ATOM     87  O   UNL A   1      35.908  32.896  27.625  1.00  0.00    -0.237 OA
ATOM     88  O   UNL A   1      34.172  31.184  27.254  1.00  0.00    -0.744 OA
ENDBRANCH  84  85
ENDBRANCH  56  79
BRANCH  68  89
ATOM     89  C   UNL A   1      43.679  27.400  32.641  1.00  0.00    -0.014 A 
ATOM     90  C   UNL A   1      43.587  27.728  34.007  1.00  0.00     0.010 A 
ATOM     91  C   UNL A   1      43.894  26.051  32.291  1.00  0.00     0.010 A 
ATOM     92  C   UNL A   1      43.770  26.757  34.995  1.00  0.00     0.020 A 
ATOM     93  C   UNL A   1      44.055  25.066  33.279  1.00  0.00     0.020 A 
ATOM     94  C   UNL A   1      44.028  25.435  34.626  1.00  0.00     0.054 A 
BRANCH  94  95
ATOM     95  S   UNL A   1      44.384  24.233  35.939  1.00  0.00     0.124 S 
ATOM     96  O   UNL A   1      43.713  23.032  35.448  1.00  0.00    -0.237 OA
ATOM     97  O   UNL A   1      45.843  24.175  35.938  1.00  0.00    -0.237 OA
ATOM     98  O   UNL A   1      43.789  24.826  37.135  1.00  0.00    -0.744 OA
ENDBRANCH  94  95
ENDBRANCH  68  89
ENDBRANCH  42  43
ENDBRANCH  34  37
ENDBRANCH  32  33
ENDBRANCH  31  32
ENDBRANCH  30  31
ENDBRANCH   1  30
TORSDOF 20
ENDMDL
