MODEL 1
REMARK VINA RESULT:     -12.7      0.000      0.000
REMARK SMILES O=C(NCCCCCCNC(=O)c1ccccc1C(=O)Nc1ccc(N2C(=O)[C@H]3[C@@H]4CC[C@@H](C4)[C@@H]3C2=O)cc1)c1ccc(-c2c3nc(c(-c4ccc(S(=O)(=O)[O-])cc4)c4ccc([nH]4)c(-c4ccc(S(=O)(=O)[O-])cc4)c4nc(c(-c5ccc(S(=O)(=O)[O-])cc5)c5ccc2[nH]5)C=C4)C=C3)cc1
REMARK SMILES IDX 6 1 5 2 4 3 3 4 1 5 2 6 40 8 41 9 99 10 42 11 98 12 43 13
REMARK SMILES IDX 44 14 45 15 92 16 46 17 97 18 91 19 93 20 47 21 96 22 90 23
REMARK SMILES IDX 89 24 48 26 78 27 59 28 77 29 60 30 63 31 76 32 94 33 61 34
REMARK SMILES IDX 62 35 75 37 95 38 64 39 49 40 50 41 58 42 51 43 57 44 52 45
REMARK SMILES IDX 53 46 54 47 55 48 56 49 79 50 80 51 88 52 81 53 87 54 82 55
REMARK SMILES IDX 83 56 84 57 85 58 86 59 65 60 66 61 74 62 67 63 73 64 68 65
REMARK SMILES IDX 69 66 70 67 71 68 72 69 7 70 8 71 9 72 10 73 11 74 12 76
REMARK SMILES IDX 13 77 14 78 18 79 15 80 17 81 16 82 19 83 20 84 21 85 22 87
REMARK SMILES IDX 23 88 39 89 24 90 38 91 25 92 26 93 27 94 36 95 28 96 29 97
REMARK SMILES IDX 35 98 37 99 30 100 33 101 31 102 34 103 32 104
REMARK H PARENT 3 7 93 25 63 36 10 75 21 86
REMARK Flexibility Score: inf
ROOT
ATOM      1  C   UNL A   1      33.677  25.685  25.648  1.00  0.00     0.002 C 
ENDROOT
BRANCH   1   2
ATOM      2  C   UNL A   1      33.570  27.196  25.529  1.00  0.00     0.021 C 
BRANCH   2   3
ATOM      3  C   UNL A   1      34.348  27.978  26.564  1.00  0.00     0.116 C 
BRANCH   3   4
ATOM      4  N   UNL A   1      33.759  29.263  26.908  1.00  0.00    -0.352 N 
ATOM      5  O   UNL A   1      33.717  31.288  27.937  1.00  0.00    -0.269 OA
ATOM      6  C   UNL A   1      34.342  30.276  27.642  1.00  0.00     0.251 C 
ATOM      7  H   UNL A   1      32.846  29.429  26.580  1.00  0.00     0.163 HD
BRANCH   6   8
ATOM      8  C   UNL A   1      35.735  30.080  28.105  1.00  0.00     0.039 A 
ATOM      9  C   UNL A   1      36.785  30.327  27.222  1.00  0.00     0.014 A 
ATOM     10  C   UNL A   1      35.982  29.533  29.366  1.00  0.00     0.014 A 
ATOM     11  C   UNL A   1      38.046  29.832  27.515  1.00  0.00     0.010 A 
ATOM     12  C   UNL A   1      37.286  29.166  29.713  1.00  0.00     0.010 A 
ATOM     13  C   UNL A   1      38.325  29.278  28.777  1.00  0.00    -0.014 A 
BRANCH  13  14
ATOM     14  C   UNL A   1      39.735  28.930  29.089  1.00  0.00     0.031 A 
ATOM     15  C   UNL A   1      40.340  27.606  28.705  1.00  0.00     0.074 A 
ATOM     16  C   UNL A   1      40.496  29.881  29.670  1.00  0.00     0.049 A 
ATOM     17  N   UNL A   1      41.575  27.200  28.859  1.00  0.00    -0.248 NA
ATOM     18  C   UNL A   1      39.457  26.609  28.080  1.00  0.00     0.031 C 
ATOM     19  C   UNL A   1      40.008  31.198  30.102  1.00  0.00     0.029 A 
ATOM     20  N   UNL A   1      41.834  29.919  29.957  1.00  0.00    -0.354 N 
ATOM     21  C   UNL A   1      41.617  25.898  28.368  1.00  0.00     0.074 A 
ATOM     22  C   UNL A   1      40.275  25.574  27.932  1.00  0.00     0.031 C 
ATOM     23  C   UNL A   1      41.044  31.940  30.513  1.00  0.00     0.029 A 
ATOM     24  C   UNL A   1      42.249  31.124  30.471  1.00  0.00     0.049 A 
ATOM     25  H   UNL A   1      42.440  29.157  29.809  1.00  0.00     0.167 HD
ATOM     26  C   UNL A   1      42.679  25.058  28.287  1.00  0.00     0.031 A 
ATOM     27  C   UNL A   1      43.459  31.532  30.892  1.00  0.00     0.031 A 
ATOM     28  C   UNL A   1      44.011  25.394  28.728  1.00  0.00     0.049 A 
ATOM     29  C   UNL A   1      44.608  30.574  30.805  1.00  0.00     0.074 A 
ATOM     30  C   UNL A   1      45.155  24.614  28.687  1.00  0.00     0.029 A 
ATOM     31  N   UNL A   1      44.382  26.609  29.287  1.00  0.00    -0.354 N 
ATOM     32  N   UNL A   1      44.623  29.351  30.332  1.00  0.00    -0.248 NA
ATOM     33  C   UNL A   1      45.901  31.047  31.310  1.00  0.00     0.031 C 
ATOM     34  C   UNL A   1      46.204  25.337  29.264  1.00  0.00     0.029 A 
ATOM     35  C   UNL A   1      45.730  26.593  29.610  1.00  0.00     0.049 A 
ATOM     36  H   UNL A   1      43.776  27.371  29.434  1.00  0.00     0.167 HD
ATOM     37  C   UNL A   1      45.929  28.908  30.482  1.00  0.00     0.074 A 
ATOM     38  C   UNL A   1      46.681  30.009  31.049  1.00  0.00     0.031 C 
ATOM     39  C   UNL A   1      46.457  27.693  30.191  1.00  0.00     0.031 A 
BRANCH  26  40
ATOM     40  C   UNL A   1      42.452  23.682  27.712  1.00  0.00    -0.014 A 
ATOM     41  C   UNL A   1      42.695  23.412  26.353  1.00  0.00     0.010 A 
ATOM     42  C   UNL A   1      42.069  22.623  28.558  1.00  0.00     0.010 A 
ATOM     43  C   UNL A   1      42.540  22.116  25.848  1.00  0.00     0.020 A 
ATOM     44  C   UNL A   1      41.937  21.322  28.062  1.00  0.00     0.020 A 
ATOM     45  C   UNL A   1      42.164  21.079  26.707  1.00  0.00     0.054 A 
BRANCH  45  46
ATOM     46  S   UNL A   1      42.016  19.400  26.032  1.00  0.00     0.124 S 
ATOM     47  O   UNL A   1      42.863  19.478  24.844  1.00  0.00    -0.237 OA
ATOM     48  O   UNL A   1      42.534  18.572  27.117  1.00  0.00    -0.237 OA
ATOM     49  O   UNL A   1      40.586  19.256  25.768  1.00  0.00    -0.744 OA
ENDBRANCH  45  46
ENDBRANCH  26  40
BRANCH  27  50
ATOM     50  C   UNL A   1      43.619  32.889  31.481  1.00  0.00    -0.014 A 
ATOM     51  C   UNL A   1      43.943  33.996  30.678  1.00  0.00     0.010 A 
ATOM     52  C   UNL A   1      43.426  33.078  32.862  1.00  0.00     0.010 A 
ATOM     53  C   UNL A   1      44.099  35.261  31.252  1.00  0.00     0.020 A 
ATOM     54  C   UNL A   1      43.543  34.346  33.433  1.00  0.00     0.020 A 
ATOM     55  C   UNL A   1      43.898  35.427  32.626  1.00  0.00     0.054 A 
BRANCH  55  56
ATOM     56  S   UNL A   1      44.075  37.081  33.348  1.00  0.00     0.124 S 
ATOM     57  O   UNL A   1      45.281  36.930  34.154  1.00  0.00    -0.237 OA
ATOM     58  O   UNL A   1      44.204  37.931  32.166  1.00  0.00    -0.237 OA
ATOM     59  O   UNL A   1      42.835  37.258  34.100  1.00  0.00    -0.744 OA
ENDBRANCH  55  56
ENDBRANCH  27  50
BRANCH  39  60
ATOM     60  C   UNL A   1      47.925  27.513  30.470  1.00  0.00    -0.014 A 
ATOM     61  C   UNL A   1      48.890  27.778  29.482  1.00  0.00     0.010 A 
ATOM     62  C   UNL A   1      48.342  27.066  31.736  1.00  0.00     0.010 A 
ATOM     63  C   UNL A   1      50.243  27.546  29.738  1.00  0.00     0.020 A 
ATOM     64  C   UNL A   1      49.698  26.864  32.006  1.00  0.00     0.020 A 
ATOM     65  C   UNL A   1      50.637  27.083  30.997  1.00  0.00     0.054 A 
BRANCH  65  66
ATOM     66  S   UNL A   1      52.400  26.792  31.305  1.00  0.00     0.124 S 
ATOM     67  O   UNL A   1      52.738  27.898  32.196  1.00  0.00    -0.237 OA
ATOM     68  O   UNL A   1      52.405  25.467  31.918  1.00  0.00    -0.237 OA
ATOM     69  O   UNL A   1      52.999  26.859  29.974  1.00  0.00    -0.744 OA
ENDBRANCH  65  66
ENDBRANCH  39  60
ENDBRANCH  13  14
ENDBRANCH   6   8
ENDBRANCH   3   4
ENDBRANCH   2   3
ENDBRANCH   1   2
BRANCH   1  70
ATOM     70  C   UNL A   1      35.088  25.091  25.597  1.00  0.00     0.002 C 
BRANCH  70  71
ATOM     71  C   UNL A   1      35.320  24.018  24.522  1.00  0.00     0.021 C 
BRANCH  71  72
ATOM     72  C   UNL A   1      36.560  23.157  24.749  1.00  0.00     0.116 C 
BRANCH  72  73
ATOM     73  N   UNL A   1      36.295  21.760  24.470  1.00  0.00    -0.352 N 
ATOM     74  C   UNL A   1      35.269  20.968  24.893  1.00  0.00     0.252 C 
ATOM     75  H   UNL A   1      36.953  21.317  23.887  1.00  0.00     0.163 HD
ATOM     76  O   UNL A   1      35.334  19.749  24.722  1.00  0.00    -0.269 OA
BRANCH  74  77
ATOM     77  C   UNL A   1      34.133  21.502  25.671  1.00  0.00     0.052 A 
ATOM     78  C   UNL A   1      34.473  21.711  27.029  1.00  0.00     0.014 A 
ATOM     79  C   UNL A   1      32.840  21.809  25.221  1.00  0.00     0.052 A 
ATOM     80  C   UNL A   1      33.586  22.302  27.923  1.00  0.00     0.001 A 
ATOM     81  C   UNL A   1      31.969  22.439  26.147  1.00  0.00     0.014 A 
ATOM     82  C   UNL A   1      32.336  22.691  27.472  1.00  0.00     0.001 A 
BRANCH  79  83
ATOM     83  C   UNL A   1      32.251  21.687  23.853  1.00  0.00     0.256 C 
ATOM     84  O   UNL A   1      32.250  20.558  23.346  1.00  0.00    -0.269 OA
ATOM     85  N   UNL A   1      31.634  22.667  23.115  1.00  0.00    -0.322 N 
ATOM     86  H   UNL A   1      31.247  22.339  22.271  1.00  0.00     0.170 HD
BRANCH  85  87
ATOM     87  C   UNL A   1      31.446  24.031  23.320  1.00  0.00     0.041 A 
ATOM     88  C   UNL A   1      32.121  24.880  22.440  1.00  0.00     0.028 A 
ATOM     89  C   UNL A   1      30.574  24.562  24.261  1.00  0.00     0.028 A 
ATOM     90  C   UNL A   1      31.675  26.183  22.264  1.00  0.00     0.029 A 
ATOM     91  C   UNL A   1      30.238  25.918  24.187  1.00  0.00     0.029 A 
ATOM     92  C   UNL A   1      30.690  26.689  23.105  1.00  0.00     0.052 A 
BRANCH  92  93
ATOM     93  N   UNL A   1      30.023  27.877  22.770  1.00  0.00    -0.250 N 
ATOM     94  C   UNL A   1      30.665  29.063  22.414  1.00  0.00     0.237 C 
ATOM     95  C   UNL A   1      28.637  28.057  22.984  1.00  0.00     0.237 C 
ATOM     96  O   UNL A   1      31.799  29.255  22.003  1.00  0.00    -0.274 OA
ATOM     97  C   UNL A   1      29.677  30.105  22.798  1.00  0.00     0.095 C 
ATOM     98  C   UNL A   1      28.388  29.410  22.392  1.00  0.00     0.095 C 
ATOM     99  O   UNL A   1      27.796  27.300  23.424  1.00  0.00    -0.274 OA
ATOM    100  C   UNL A   1      29.410  31.550  22.375  1.00  0.00     0.002 C 
ATOM    101  C   UNL A   1      27.387  30.543  22.557  1.00  0.00     0.002 C 
ATOM    102  C   UNL A   1      28.829  32.205  23.647  1.00  0.00     0.005 C 
ATOM    103  C   UNL A   1      28.092  31.501  21.563  1.00  0.00     0.009 C 
ATOM    104  C   UNL A   1      27.536  31.367  23.869  1.00  0.00     0.005 C 
ENDBRANCH  92  93
ENDBRANCH  85  87
ENDBRANCH  79  83
ENDBRANCH  74  77
ENDBRANCH  72  73
ENDBRANCH  71  72
ENDBRANCH  70  71
ENDBRANCH   1  70
TORSDOF 19
ENDMDL
MODEL 2
REMARK VINA RESULT:     -12.4      2.565      8.144
REMARK SMILES O=C(NCCCCCCNC(=O)c1ccccc1C(=O)Nc1ccc(N2C(=O)[C@H]3[C@@H]4CC[C@@H](C4)[C@@H]3C2=O)cc1)c1ccc(-c2c3nc(c(-c4ccc(S(=O)(=O)[O-])cc4)c4ccc([nH]4)c(-c4ccc(S(=O)(=O)[O-])cc4)c4nc(c(-c5ccc(S(=O)(=O)[O-])cc5)c5ccc2[nH]5)C=C4)C=C3)cc1
REMARK SMILES IDX 6 1 5 2 4 3 3 4 1 5 2 6 40 8 41 9 99 10 42 11 98 12 43 13
REMARK SMILES IDX 44 14 45 15 92 16 46 17 97 18 91 19 93 20 47 21 96 22 90 23
REMARK SMILES IDX 89 24 48 26 78 27 59 28 77 29 60 30 63 31 76 32 94 33 61 34
REMARK SMILES IDX 62 35 75 37 95 38 64 39 49 40 50 41 58 42 51 43 57 44 52 45
REMARK SMILES IDX 53 46 54 47 55 48 56 49 79 50 80 51 88 52 81 53 87 54 82 55
REMARK SMILES IDX 83 56 84 57 85 58 86 59 65 60 66 61 74 62 67 63 73 64 68 65
REMARK SMILES IDX 69 66 70 67 71 68 72 69 7 70 8 71 9 72 10 73 11 74 12 76
REMARK SMILES IDX 13 77 14 78 18 79 15 80 17 81 16 82 19 83 20 84 21 85 22 87
REMARK SMILES IDX 23 88 39 89 24 90 38 91 25 92 26 93 27 94 36 95 28 96 29 97
REMARK SMILES IDX 35 98 37 99 30 100 33 101 31 102 34 103 32 104
REMARK H PARENT 3 7 93 25 63 36 10 75 21 86
REMARK Flexibility Score: inf
ROOT
ATOM      1  C   UNL A   1      34.008  29.141  26.745  1.00  0.00     0.002 C 
ENDROOT
BRANCH   1   2
ATOM      2  C   UNL A   1      35.317  29.196  27.516  1.00  0.00     0.021 C 
BRANCH   2   3
ATOM      3  C   UNL A   1      35.673  30.553  28.080  1.00  0.00     0.116 C 
BRANCH   3   4
ATOM      4  N   UNL A   1      35.406  30.698  29.503  1.00  0.00    -0.352 N 
ATOM      5  O   UNL A   1      35.969  30.692  31.704  1.00  0.00    -0.269 OA
ATOM      6  C   UNL A   1      36.323  30.634  30.532  1.00  0.00     0.251 C 
ATOM      7  H   UNL A   1      34.469  30.859  29.760  1.00  0.00     0.163 HD
BRANCH   6   8
ATOM      8  C   UNL A   1      37.748  30.445  30.178  1.00  0.00     0.039 A 
ATOM      9  C   UNL A   1      38.185  30.802  28.903  1.00  0.00     0.014 A 
ATOM     10  C   UNL A   1      38.609  29.797  31.066  1.00  0.00     0.014 A 
ATOM     11  C   UNL A   1      39.402  30.326  28.445  1.00  0.00     0.010 A 
ATOM     12  C   UNL A   1      39.895  29.443  30.644  1.00  0.00     0.010 A 
ATOM     13  C   UNL A   1      40.291  29.672  29.318  1.00  0.00    -0.014 A 
BRANCH  13  14
ATOM     14  C   UNL A   1      41.649  29.344  28.812  1.00  0.00     0.031 A 
ATOM     15  C   UNL A   1      42.774  30.345  28.823  1.00  0.00     0.074 A 
ATOM     16  C   UNL A   1      41.871  28.077  28.405  1.00  0.00     0.049 A 
ATOM     17  N   UNL A   1      44.023  30.170  28.471  1.00  0.00    -0.248 NA
ATOM     18  C   UNL A   1      42.467  31.712  29.272  1.00  0.00     0.031 C 
ATOM     19  C   UNL A   1      40.847  27.026  28.335  1.00  0.00     0.029 A 
ATOM     20  N   UNL A   1      43.020  27.439  28.019  1.00  0.00    -0.354 N 
ATOM     21  C   UNL A   1      44.648  31.402  28.640  1.00  0.00     0.074 A 
ATOM     22  C   UNL A   1      43.633  32.324  29.103  1.00  0.00     0.031 C 
ATOM     23  C   UNL A   1      41.429  25.863  28.020  1.00  0.00     0.029 A 
ATOM     24  C   UNL A   1      42.842  26.100  27.766  1.00  0.00     0.049 A 
ATOM     25  H   UNL A   1      43.888  27.895  27.933  1.00  0.00     0.167 HD
ATOM     26  C   UNL A   1      45.948  31.727  28.430  1.00  0.00     0.031 A 
ATOM     27  C   UNL A   1      43.708  25.161  27.348  1.00  0.00     0.031 A 
ATOM     28  C   UNL A   1      46.950  30.798  27.966  1.00  0.00     0.049 A 
ATOM     29  C   UNL A   1      45.134  25.557  27.109  1.00  0.00     0.074 A 
ATOM     30  C   UNL A   1      48.294  31.029  27.725  1.00  0.00     0.029 A 
ATOM     31  N   UNL A   1      46.720  29.460  27.675  1.00  0.00    -0.354 N 
ATOM     32  N   UNL A   1      45.701  26.727  27.281  1.00  0.00    -0.248 NA
ATOM     33  C   UNL A   1      46.036  24.509  26.618  1.00  0.00     0.031 C 
ATOM     34  C   UNL A   1      48.865  29.846  27.243  1.00  0.00     0.029 A 
ATOM     35  C   UNL A   1      47.892  28.860  27.241  1.00  0.00     0.049 A 
ATOM     36  H   UNL A   1      45.852  29.004  27.763  1.00  0.00     0.167 HD
ATOM     37  C   UNL A   1      47.029  26.556  26.919  1.00  0.00     0.074 A 
ATOM     38  C   UNL A   1      47.188  25.160  26.562  1.00  0.00     0.031 C 
ATOM     39  C   UNL A   1      48.026  27.474  26.872  1.00  0.00     0.031 A 
BRANCH  26  40
ATOM     40  C   UNL A   1      46.372  33.152  28.686  1.00  0.00    -0.014 A 
ATOM     41  C   UNL A   1      46.680  33.598  29.985  1.00  0.00     0.010 A 
ATOM     42  C   UNL A   1      46.546  34.037  27.604  1.00  0.00     0.010 A 
ATOM     43  C   UNL A   1      47.131  34.905  30.198  1.00  0.00     0.020 A 
ATOM     44  C   UNL A   1      47.021  35.336  27.811  1.00  0.00     0.020 A 
ATOM     45  C   UNL A   1      47.301  35.765  29.109  1.00  0.00     0.054 A 
BRANCH  45  46
ATOM     46  S   UNL A   1      47.934  37.439  29.412  1.00  0.00     0.124 S 
ATOM     47  O   UNL A   1      47.540  37.663  30.801  1.00  0.00    -0.237 OA
ATOM     48  O   UNL A   1      49.368  37.285  29.185  1.00  0.00    -0.237 OA
ATOM     49  O   UNL A   1      47.234  38.260  28.427  1.00  0.00    -0.744 OA
ENDBRANCH  45  46
ENDBRANCH  26  40
BRANCH  27  50
ATOM     50  C   UNL A   1      43.228  23.778  27.080  1.00  0.00    -0.014 A 
ATOM     51  C   UNL A   1      42.930  23.352  25.776  1.00  0.00     0.010 A 
ATOM     52  C   UNL A   1      43.084  22.870  28.147  1.00  0.00     0.010 A 
ATOM     53  C   UNL A   1      42.471  22.051  25.547  1.00  0.00     0.020 A 
ATOM     54  C   UNL A   1      42.663  21.561  27.918  1.00  0.00     0.020 A 
ATOM     55  C   UNL A   1      42.339  21.165  26.621  1.00  0.00     0.054 A 
BRANCH  55  56
ATOM     56  S   UNL A   1      41.770  19.473  26.300  1.00  0.00     0.124 S 
ATOM     57  O   UNL A   1      42.181  18.782  27.517  1.00  0.00    -0.237 OA
ATOM     58  O   UNL A   1      40.330  19.651  26.126  1.00  0.00    -0.237 OA
ATOM     59  O   UNL A   1      42.493  19.095  25.088  1.00  0.00    -0.744 OA
ENDBRANCH  55  56
ENDBRANCH  27  50
BRANCH  39  60
ATOM     60  C   UNL A   1      49.377  26.978  26.432  1.00  0.00    -0.014 A 
ATOM     61  C   UNL A   1      49.809  27.134  25.102  1.00  0.00     0.010 A 
ATOM     62  C   UNL A   1      50.222  26.342  27.358  1.00  0.00     0.010 A 
ATOM     63  C   UNL A   1      51.039  26.613  24.694  1.00  0.00     0.020 A 
ATOM     64  C   UNL A   1      51.467  25.848  26.962  1.00  0.00     0.020 A 
ATOM     65  C   UNL A   1      51.857  25.967  25.627  1.00  0.00     0.054 A 
BRANCH  65  66
ATOM     66  S   UNL A   1      53.450  25.301  25.074  1.00  0.00     0.124 S 
ATOM     67  O   UNL A   1      54.394  26.051  25.899  1.00  0.00    -0.237 OA
ATOM     68  O   UNL A   1      53.332  23.880  25.387  1.00  0.00    -0.237 OA
ATOM     69  O   UNL A   1      53.481  25.618  23.647  1.00  0.00    -0.744 OA
ENDBRANCH  65  66
ENDBRANCH  39  60
ENDBRANCH  13  14
ENDBRANCH   6   8
ENDBRANCH   3   4
ENDBRANCH   2   3
ENDBRANCH   1   2
BRANCH   1  70
ATOM     70  C   UNL A   1      33.429  27.749  26.474  1.00  0.00     0.002 C 
BRANCH  70  71
ATOM     71  C   UNL A   1      33.927  27.059  25.196  1.00  0.00     0.021 C 
BRANCH  71  72
ATOM     72  C   UNL A   1      34.142  25.553  25.336  1.00  0.00     0.116 C 
BRANCH  72  73
ATOM     73  N   UNL A   1      34.723  24.986  24.136  1.00  0.00    -0.352 N 
ATOM     74  C   UNL A   1      34.859  23.679  23.769  1.00  0.00     0.252 C 
ATOM     75  H   UNL A   1      35.071  25.641  23.489  1.00  0.00     0.163 HD
ATOM     76  O   UNL A   1      35.573  23.392  22.806  1.00  0.00    -0.269 OA
BRANCH  74  77
ATOM     77  C   UNL A   1      34.284  22.576  24.564  1.00  0.00     0.052 A 
ATOM     78  C   UNL A   1      35.027  22.329  25.744  1.00  0.00     0.014 A 
ATOM     79  C   UNL A   1      33.144  21.807  24.286  1.00  0.00     0.052 A 
ATOM     80  C   UNL A   1      34.610  21.400  26.691  1.00  0.00     0.001 A 
ATOM     81  C   UNL A   1      32.726  20.890  25.284  1.00  0.00     0.014 A 
ATOM     82  C   UNL A   1      33.439  20.696  26.471  1.00  0.00     0.001 A 
BRANCH  79  83
ATOM     83  C   UNL A   1      32.202  21.881  23.128  1.00  0.00     0.256 C 
ATOM     84  O   UNL A   1      32.039  20.842  22.475  1.00  0.00    -0.269 OA
ATOM     85  N   UNL A   1      31.427  22.947  22.744  1.00  0.00    -0.322 N 
ATOM     86  H   UNL A   1      30.817  22.743  21.998  1.00  0.00     0.170 HD
BRANCH  85  87
ATOM     87  C   UNL A   1      31.330  24.260  23.197  1.00  0.00     0.041 A 
ATOM     88  C   UNL A   1      31.777  25.246  22.315  1.00  0.00     0.028 A 
ATOM     89  C   UNL A   1      30.741  24.625  24.400  1.00  0.00     0.028 A 
ATOM     90  C   UNL A   1      31.331  26.553  22.461  1.00  0.00     0.029 A 
ATOM     91  C   UNL A   1      30.429  25.970  24.625  1.00  0.00     0.029 A 
ATOM     92  C   UNL A   1      30.606  26.906  23.594  1.00  0.00     0.052 A 
BRANCH  92  93
ATOM     93  N   UNL A   1      29.904  28.120  23.628  1.00  0.00    -0.250 N 
ATOM     94  C   UNL A   1      28.556  28.255  23.296  1.00  0.00     0.237 C 
ATOM     95  C   UNL A   1      30.550  29.368  23.781  1.00  0.00     0.237 C 
ATOM     96  O   UNL A   1      27.666  27.420  23.247  1.00  0.00    -0.274 OA
ATOM     97  C   UNL A   1      28.464  29.671  22.851  1.00  0.00     0.095 C 
ATOM     98  C   UNL A   1      29.400  30.325  23.853  1.00  0.00     0.095 C 
ATOM     99  O   UNL A   1      31.723  29.642  23.934  1.00  0.00    -0.274 OA
ATOM    100  C   UNL A   1      27.337  30.699  22.746  1.00  0.00     0.002 C 
ATOM    101  C   UNL A   1      29.142  31.797  23.569  1.00  0.00     0.002 C 
ATOM    102  C   UNL A   1      27.757  31.585  21.552  1.00  0.00     0.005 C 
ATOM    103  C   UNL A   1      27.621  31.733  23.863  1.00  0.00     0.009 C 
ATOM    104  C   UNL A   1      29.103  32.179  22.061  1.00  0.00     0.005 C 
ENDBRANCH  92  93
ENDBRANCH  85  87
ENDBRANCH  79  83
ENDBRANCH  74  77
ENDBRANCH  72  73
ENDBRANCH  71  72
ENDBRANCH  70  71
ENDBRANCH   1  70
TORSDOF 19
ENDMDL
MODEL 3
REMARK VINA RESULT:     -12.1      2.634      3.439
REMARK SMILES O=C(NCCCCCCNC(=O)c1ccccc1C(=O)Nc1ccc(N2C(=O)[C@H]3[C@@H]4CC[C@@H](C4)[C@@H]3C2=O)cc1)c1ccc(-c2c3nc(c(-c4ccc(S(=O)(=O)[O-])cc4)c4ccc([nH]4)c(-c4ccc(S(=O)(=O)[O-])cc4)c4nc(c(-c5ccc(S(=O)(=O)[O-])cc5)c5ccc2[nH]5)C=C4)C=C3)cc1
REMARK SMILES IDX 6 1 5 2 4 3 3 4 1 5 2 6 40 8 41 9 99 10 42 11 98 12 43 13
REMARK SMILES IDX 44 14 45 15 92 16 46 17 97 18 91 19 93 20 47 21 96 22 90 23
REMARK SMILES IDX 89 24 48 26 78 27 59 28 77 29 60 30 63 31 76 32 94 33 61 34
REMARK SMILES IDX 62 35 75 37 95 38 64 39 49 40 50 41 58 42 51 43 57 44 52 45
REMARK SMILES IDX 53 46 54 47 55 48 56 49 79 50 80 51 88 52 81 53 87 54 82 55
REMARK SMILES IDX 83 56 84 57 85 58 86 59 65 60 66 61 74 62 67 63 73 64 68 65
REMARK SMILES IDX 69 66 70 67 71 68 72 69 7 70 8 71 9 72 10 73 11 74 12 76
REMARK SMILES IDX 13 77 14 78 18 79 15 80 17 81 16 82 19 83 20 84 21 85 22 87
REMARK SMILES IDX 23 88 39 89 24 90 38 91 25 92 26 93 27 94 36 95 28 96 29 97
REMARK SMILES IDX 35 98 37 99 30 100 33 101 31 102 34 103 32 104
REMARK H PARENT 3 7 93 25 63 36 10 75 21 86
REMARK Flexibility Score: inf
ROOT
ATOM      1  C   UNL A   1      33.963  29.049  26.673  1.00  0.00     0.002 C 
ENDROOT
BRANCH   1   2
ATOM      2  C   UNL A   1      35.204  29.013  27.548  1.00  0.00     0.021 C 
BRANCH   2   3
ATOM      3  C   UNL A   1      35.696  30.363  28.020  1.00  0.00     0.116 C 
BRANCH   3   4
ATOM      4  N   UNL A   1      35.394  30.656  29.413  1.00  0.00    -0.352 N 
ATOM      5  O   UNL A   1      35.896  30.859  31.619  1.00  0.00    -0.269 OA
ATOM      6  C   UNL A   1      36.281  30.675  30.470  1.00  0.00     0.251 C 
ATOM      7  H   UNL A   1      34.456  30.865  29.623  1.00  0.00     0.163 HD
BRANCH   6   8
ATOM      8  C   UNL A   1      37.710  30.417  30.179  1.00  0.00     0.039 A 
ATOM      9  C   UNL A   1      38.222  30.762  28.929  1.00  0.00     0.014 A 
ATOM     10  C   UNL A   1      38.495  29.720  31.099  1.00  0.00     0.014 A 
ATOM     11  C   UNL A   1      39.434  30.229  28.523  1.00  0.00     0.010 A 
ATOM     12  C   UNL A   1      39.781  29.306  30.733  1.00  0.00     0.010 A 
ATOM     13  C   UNL A   1      40.248  29.525  29.429  1.00  0.00    -0.014 A 
BRANCH  13  14
ATOM     14  C   UNL A   1      41.610  29.134  28.982  1.00  0.00     0.031 A 
ATOM     15  C   UNL A   1      41.921  27.755  28.466  1.00  0.00     0.074 A 
ATOM     16  C   UNL A   1      42.562  30.090  28.981  1.00  0.00     0.049 A 
ATOM     17  N   UNL A   1      43.051  27.301  27.984  1.00  0.00    -0.248 NA
ATOM     18  C   UNL A   1      40.843  26.754  28.499  1.00  0.00     0.031 C 
ATOM     19  C   UNL A   1      42.376  31.461  29.476  1.00  0.00     0.029 A 
ATOM     20  N   UNL A   1      43.849  30.084  28.514  1.00  0.00    -0.354 N 
ATOM     21  C   UNL A   1      42.828  25.963  27.672  1.00  0.00     0.074 A 
ATOM     22  C   UNL A   1      41.459  25.671  28.042  1.00  0.00     0.031 C 
ATOM     23  C   UNL A   1      43.471  32.181  29.207  1.00  0.00     0.029 A 
ATOM     24  C   UNL A   1      44.472  31.306  28.615  1.00  0.00     0.049 A 
ATOM     25  H   UNL A   1      44.285  29.284  28.143  1.00  0.00     0.167 HD
ATOM     26  C   UNL A   1      43.687  25.067  27.124  1.00  0.00     0.031 A 
ATOM     27  C   UNL A   1      45.721  31.686  28.294  1.00  0.00     0.031 A 
ATOM     28  C   UNL A   1      45.050  25.371  26.762  1.00  0.00     0.049 A 
ATOM     29  C   UNL A   1      46.651  30.667  27.706  1.00  0.00     0.074 A 
ATOM     30  C   UNL A   1      45.999  24.534  26.199  1.00  0.00     0.029 A 
ATOM     31  N   UNL A   1      45.660  26.608  26.923  1.00  0.00    -0.354 N 
ATOM     32  N   UNL A   1      46.414  29.410  27.416  1.00  0.00    -0.248 NA
ATOM     33  C   UNL A   1      48.014  31.115  27.406  1.00  0.00     0.031 C 
ATOM     34  C   UNL A   1      47.194  25.249  26.065  1.00  0.00     0.029 A 
ATOM     35  C   UNL A   1      46.974  26.551  26.487  1.00  0.00     0.049 A 
ATOM     36  H   UNL A   1      45.222  27.409  27.293  1.00  0.00     0.167 HD
ATOM     37  C   UNL A   1      47.602  28.916  26.897  1.00  0.00     0.074 A 
ATOM     38  C   UNL A   1      48.539  30.022  26.873  1.00  0.00     0.031 C 
ATOM     39  C   UNL A   1      47.897  27.657  26.488  1.00  0.00     0.031 A 
BRANCH  26  40
ATOM     40  C   UNL A   1      43.192  23.662  26.890  1.00  0.00    -0.014 A 
ATOM     41  C   UNL A   1      42.843  23.218  25.601  1.00  0.00     0.010 A 
ATOM     42  C   UNL A   1      43.151  22.746  27.959  1.00  0.00     0.010 A 
ATOM     43  C   UNL A   1      42.445  21.894  25.390  1.00  0.00     0.020 A 
ATOM     44  C   UNL A   1      42.777  21.414  27.747  1.00  0.00     0.020 A 
ATOM     45  C   UNL A   1      42.417  21.000  26.465  1.00  0.00     0.054 A 
BRANCH  45  46
ATOM     46  S   UNL A   1      41.941  19.276  26.150  1.00  0.00     0.124 S 
ATOM     47  O   UNL A   1      40.510  19.403  25.879  1.00  0.00    -0.237 OA
ATOM     48  O   UNL A   1      42.768  18.921  25.001  1.00  0.00    -0.237 OA
ATOM     49  O   UNL A   1      42.280  18.589  27.395  1.00  0.00    -0.744 OA
ENDBRANCH  45  46
ENDBRANCH  26  40
BRANCH  27  50
ATOM     50  C   UNL A   1      46.167  33.077  28.576  1.00  0.00    -0.014 A 
ATOM     51  C   UNL A   1      46.015  34.096  27.622  1.00  0.00     0.010 A 
ATOM     52  C   UNL A   1      46.736  33.387  29.826  1.00  0.00     0.010 A 
ATOM     53  C   UNL A   1      46.450  35.395  27.903  1.00  0.00     0.020 A 
ATOM     54  C   UNL A   1      47.136  34.690  30.125  1.00  0.00     0.020 A 
ATOM     55  C   UNL A   1      47.008  35.682  29.153  1.00  0.00     0.054 A 
BRANCH  55  56
ATOM     56  S   UNL A   1      47.539  37.379  29.511  1.00  0.00     0.124 S 
ATOM     57  O   UNL A   1      47.855  37.303  30.932  1.00  0.00    -0.237 OA
ATOM     58  O   UNL A   1      48.680  37.550  28.614  1.00  0.00    -0.237 OA
ATOM     59  O   UNL A   1      46.365  38.181  29.171  1.00  0.00    -0.744 OA
ENDBRANCH  55  56
ENDBRANCH  27  50
BRANCH  39  60
ATOM     60  C   UNL A   1      49.291  27.428  25.969  1.00  0.00    -0.014 A 
ATOM     61  C   UNL A   1      50.369  27.221  26.849  1.00  0.00     0.010 A 
ATOM     62  C   UNL A   1      49.525  27.425  24.583  1.00  0.00     0.010 A 
ATOM     63  C   UNL A   1      51.666  27.072  26.352  1.00  0.00     0.020 A 
ATOM     64  C   UNL A   1      50.816  27.244  24.081  1.00  0.00     0.020 A 
ATOM     65  C   UNL A   1      51.881  27.091  24.971  1.00  0.00     0.054 A 
BRANCH  65  66
ATOM     66  S   UNL A   1      53.573  26.893  24.351  1.00  0.00     0.124 S 
ATOM     67  O   UNL A   1      53.392  25.910  23.286  1.00  0.00    -0.237 OA
ATOM     68  O   UNL A   1      53.915  28.242  23.910  1.00  0.00    -0.237 OA
ATOM     69  O   UNL A   1      54.315  26.418  25.517  1.00  0.00    -0.744 OA
ENDBRANCH  65  66
ENDBRANCH  39  60
ENDBRANCH  13  14
ENDBRANCH   6   8
ENDBRANCH   3   4
ENDBRANCH   2   3
ENDBRANCH   1   2
BRANCH   1  70
ATOM     70  C   UNL A   1      33.349  27.696  26.297  1.00  0.00     0.002 C 
BRANCH  70  71
ATOM     71  C   UNL A   1      33.963  27.004  25.071  1.00  0.00     0.021 C 
BRANCH  71  72
ATOM     72  C   UNL A   1      34.259  25.519  25.268  1.00  0.00     0.116 C 
BRANCH  72  73
ATOM     73  N   UNL A   1      34.814  24.924  24.069  1.00  0.00    -0.352 N 
ATOM     74  C   UNL A   1      34.926  23.611  23.721  1.00  0.00     0.252 C 
ATOM     75  H   UNL A   1      35.162  25.565  23.407  1.00  0.00     0.163 HD
ATOM     76  O   UNL A   1      35.623  23.298  22.753  1.00  0.00    -0.269 OA
BRANCH  74  77
ATOM     77  C   UNL A   1      34.347  22.529  24.541  1.00  0.00     0.052 A 
ATOM     78  C   UNL A   1      35.098  22.295  25.718  1.00  0.00     0.014 A 
ATOM     79  C   UNL A   1      33.196  21.767  24.287  1.00  0.00     0.052 A 
ATOM     80  C   UNL A   1      34.679  21.388  26.686  1.00  0.00     0.001 A 
ATOM     81  C   UNL A   1      32.777  20.873  25.306  1.00  0.00     0.014 A 
ATOM     82  C   UNL A   1      33.499  20.692  26.489  1.00  0.00     0.001 A 
BRANCH  79  83
ATOM     83  C   UNL A   1      32.244  21.830  23.136  1.00  0.00     0.256 C 
ATOM     84  O   UNL A   1      32.078  20.786  22.493  1.00  0.00    -0.269 OA
ATOM     85  N   UNL A   1      31.464  22.892  22.751  1.00  0.00    -0.322 N 
ATOM     86  H   UNL A   1      30.849  22.681  22.012  1.00  0.00     0.170 HD
BRANCH  85  87
ATOM     87  C   UNL A   1      31.368  24.208  23.195  1.00  0.00     0.041 A 
ATOM     88  C   UNL A   1      31.795  25.189  22.298  1.00  0.00     0.028 A 
ATOM     89  C   UNL A   1      30.797  24.580  24.405  1.00  0.00     0.028 A 
ATOM     90  C   UNL A   1      31.345  26.495  22.440  1.00  0.00     0.029 A 
ATOM     91  C   UNL A   1      30.482  25.925  24.624  1.00  0.00     0.029 A 
ATOM     92  C   UNL A   1      30.638  26.854  23.583  1.00  0.00     0.052 A 
BRANCH  92  93
ATOM     93  N   UNL A   1      29.930  28.065  23.619  1.00  0.00    -0.250 N 
ATOM     94  C   UNL A   1      28.582  28.195  23.283  1.00  0.00     0.237 C 
ATOM     95  C   UNL A   1      30.570  29.315  23.776  1.00  0.00     0.237 C 
ATOM     96  O   UNL A   1      27.696  27.356  23.230  1.00  0.00    -0.274 OA
ATOM     97  C   UNL A   1      28.485  29.611  22.843  1.00  0.00     0.095 C 
ATOM     98  C   UNL A   1      29.416  30.267  23.849  1.00  0.00     0.095 C 
ATOM     99  O   UNL A   1      31.741  29.594  23.933  1.00  0.00    -0.274 OA
ATOM    100  C   UNL A   1      27.354  30.635  22.738  1.00  0.00     0.002 C 
ATOM    101  C   UNL A   1      29.152  31.738  23.568  1.00  0.00     0.002 C 
ATOM    102  C   UNL A   1      27.772  31.526  21.548  1.00  0.00     0.005 C 
ATOM    103  C   UNL A   1      27.631  31.667  23.859  1.00  0.00     0.009 C 
ATOM    104  C   UNL A   1      29.114  32.124  22.061  1.00  0.00     0.005 C 
ENDBRANCH  92  93
ENDBRANCH  85  87
ENDBRANCH  79  83
ENDBRANCH  74  77
ENDBRANCH  72  73
ENDBRANCH  71  72
ENDBRANCH  70  71
ENDBRANCH   1  70
TORSDOF 19
ENDMDL
