MODEL 1
REMARK VINA RESULT:     -11.3      0.000      0.000
REMARK SMILES Cc1ccc(NC(=O)C[C@H]([NH2+]Cc2cccnc2)C(=O)NCCCCCCNC(=O)c2ccc(-c3c4nc(c(-c5ccc(S(=O)(=O)[O-])cc5)c5ccc([nH]5)c(-c5ccc(S(=O)(=O)[O-])cc5)c5nc(c(-c6ccc(S(=O)(=O)[O-])cc6)c6ccc3[nH]6)C=C5)C=C4)cc2)cc1Cl
REMARK SMILES IDX 24 1 23 2 22 3 21 4 19 5 20 6 10 8 9 9 7 10 6 11 8 13 5 14
REMARK SMILES IDX 1 15 2 16 3 17 92 18 4 19 91 20 93 21 11 22 12 25 13 26
REMARK SMILES IDX 14 27 18 28 15 29 17 30 16 31 25 32 26 33 27 34 28 35 29 36
REMARK SMILES IDX 30 38 31 39 32 40 90 41 33 42 89 43 34 44 35 45 36 46 83 47
REMARK SMILES IDX 37 48 88 49 82 50 84 51 38 52 87 53 81 54 80 55 39 57 69 58
REMARK SMILES IDX 50 59 68 60 51 61 54 62 67 63 85 64 52 65 53 66 66 68 86 69
REMARK SMILES IDX 55 70 40 71 41 72 49 73 42 74 48 75 43 76 44 77 45 78 46 79
REMARK SMILES IDX 47 80 70 81 71 82 79 83 72 84 78 85 73 86 74 87 75 88 76 89
REMARK SMILES IDX 77 90 56 91 57 92 65 93 58 94 64 95 59 96 60 97 61 98 62 99
REMARK SMILES IDX 63 100
REMARK H PARENT 21 7 6 12 11 23 11 24 28 37 84 56 54 67
REMARK Flexibility Score: inf
ROOT
ATOM      1  C   UNL A   1      36.701  23.495  26.320  1.00  0.00     0.002 C 
ENDROOT
BRANCH   1   2
ATOM      2  C   UNL A   1      35.684  23.840  25.233  1.00  0.00     0.021 C 
BRANCH   2   3
ATOM      3  C   UNL A   1      35.427  22.764  24.165  1.00  0.00     0.116 C 
BRANCH   3   4
ATOM      4  N   UNL A   1      34.633  23.270  23.036  1.00  0.00    -0.351 N 
ATOM      5  C   UNL A   1      33.541  24.058  22.848  1.00  0.00     0.278 C 
ATOM      6  O   UNL A   1      33.222  24.231  21.659  1.00  0.00    -0.268 OA
ATOM      7  H   UNL A   1      34.992  22.948  22.177  1.00  0.00     0.163 HD
BRANCH   5   8
ATOM      8  C   UNL A   1      32.616  24.684  23.947  1.00  0.00     0.282 C 
BRANCH   8   9
ATOM      9  C   UNL A   1      31.604  23.751  24.575  1.00  0.00     0.175 C 
BRANCH   9  10
ATOM     10  C   UNL A   1      31.721  22.861  25.804  1.00  0.00     0.230 C 
ATOM     11  N   UNL A   1      32.028  21.563  25.982  1.00  0.00    -0.326 N 
ATOM     12  H   UNL A   1      32.014  21.348  26.942  1.00  0.00     0.169 HD
ATOM     13  O   UNL A   1      31.518  23.453  26.885  1.00  0.00    -0.274 OA
BRANCH  11  14
ATOM     14  C   UNL A   1      32.364  20.415  25.246  1.00  0.00     0.042 A 
ATOM     15  C   UNL A   1      33.506  17.086  22.698  1.00  0.00     0.046 C 
ATOM     16  C   UNL A   1      33.073  18.216  23.580  1.00  0.00    -0.032 A 
ATOM     17  C   UNL A   1      32.601  19.414  23.031  1.00  0.00     0.007 A 
ATOM     18  C   UNL A   1      33.161  18.129  24.966  1.00  0.00     0.046 A 
ATOM     19  C   UNL A   1      32.253  20.497  23.854  1.00  0.00     0.026 A 
ATOM     20  C   UNL A   1      32.777  19.206  25.766  1.00  0.00     0.047 A 
ATOM     21  Cl  UNL A   1      33.735  16.704  25.763  1.00  0.00    -0.084 Cl
ENDBRANCH  11  14
ENDBRANCH   9  10
ENDBRANCH   8   9
BRANCH   8  22
ATOM     22  N   UNL A   1      32.212  26.037  23.530  1.00  0.00    -0.332 N 
ATOM     23  H   UNL A   1      32.143  26.030  22.512  1.00  0.00     0.347 HD
ATOM     24  H   UNL A   1      32.928  26.643  23.932  1.00  0.00     0.347 HD
BRANCH  22  25
ATOM     25  C   UNL A   1      30.962  26.586  24.040  1.00  0.00     0.299 C 
BRANCH  25  26
ATOM     26  C   UNL A   1      31.241  27.567  25.156  1.00  0.00     0.024 A 
ATOM     27  C   UNL A   1      31.293  27.178  26.498  1.00  0.00     0.013 A 
ATOM     28  C   UNL A   1      31.525  28.903  24.879  1.00  0.00     0.120 A 
ATOM     29  C   UNL A   1      31.657  28.101  27.478  1.00  0.00     0.021 A 
ATOM     30  N   UNL A   1      31.868  29.827  25.810  1.00  0.00    -0.264 NA
ATOM     31  C   UNL A   1      31.941  29.398  27.086  1.00  0.00     0.111 A 
ENDBRANCH  25  26
ENDBRANCH  22  25
ENDBRANCH   8  22
ENDBRANCH   5   8
ENDBRANCH   3   4
ENDBRANCH   2   3
ENDBRANCH   1   2
BRANCH   1  32
ATOM     32  C   UNL A   1      38.171  23.723  25.959  1.00  0.00     0.002 C 
BRANCH  32  33
ATOM     33  C   UNL A   1      39.186  22.702  26.491  1.00  0.00     0.021 C 
BRANCH  33  34
ATOM     34  C   UNL A   1      40.499  23.259  27.049  1.00  0.00     0.116 C 
BRANCH  34  35
ATOM     35  N   UNL A   1      41.257  24.013  26.064  1.00  0.00    -0.352 N 
ATOM     36  C   UNL A   1      41.622  25.334  26.006  1.00  0.00     0.251 C 
ATOM     37  H   UNL A   1      41.564  23.477  25.296  1.00  0.00     0.163 HD
ATOM     38  O   UNL A   1      42.111  25.764  24.961  1.00  0.00    -0.269 OA
BRANCH  36  39
ATOM     39  C   UNL A   1      41.440  26.259  27.153  1.00  0.00     0.039 A 
ATOM     40  C   UNL A   1      40.376  26.022  28.032  1.00  0.00     0.014 A 
ATOM     41  C   UNL A   1      42.232  27.397  27.329  1.00  0.00     0.014 A 
ATOM     42  C   UNL A   1      40.139  26.888  29.105  1.00  0.00     0.010 A 
ATOM     43  C   UNL A   1      42.030  28.230  28.436  1.00  0.00     0.010 A 
ATOM     44  C   UNL A   1      40.981  27.987  29.335  1.00  0.00    -0.014 A 
BRANCH  44  45
ATOM     45  C   UNL A   1      40.778  28.862  30.523  1.00  0.00     0.031 A 
ATOM     46  C   UNL A   1      41.629  28.711  31.758  1.00  0.00     0.074 A 
ATOM     47  C   UNL A   1      39.793  29.783  30.504  1.00  0.00     0.049 A 
ATOM     48  N   UNL A   1      41.595  29.397  32.873  1.00  0.00    -0.248 NA
ATOM     49  C   UNL A   1      42.638  27.639  31.746  1.00  0.00     0.031 C 
ATOM     50  C   UNL A   1      38.868  30.008  29.391  1.00  0.00     0.029 A 
ATOM     51  N   UNL A   1      39.405  30.704  31.447  1.00  0.00    -0.354 N 
ATOM     52  C   UNL A   1      42.560  28.834  33.701  1.00  0.00     0.074 A 
ATOM     53  C   UNL A   1      43.137  27.723  32.972  1.00  0.00     0.031 C 
ATOM     54  C   UNL A   1      38.046  31.024  29.699  1.00  0.00     0.029 A 
ATOM     55  C   UNL A   1      38.360  31.501  31.043  1.00  0.00     0.049 A 
ATOM     56  H   UNL A   1      39.836  30.786  32.328  1.00  0.00     0.167 HD
ATOM     57  C   UNL A   1      42.943  29.212  34.945  1.00  0.00     0.031 A 
ATOM     58  C   UNL A   1      37.725  32.506  31.675  1.00  0.00     0.031 A 
ATOM     59  C   UNL A   1      42.377  30.322  35.668  1.00  0.00     0.049 A 
ATOM     60  C   UNL A   1      38.172  32.911  33.053  1.00  0.00     0.074 A 
ATOM     61  C   UNL A   1      42.745  30.822  36.906  1.00  0.00     0.029 A 
ATOM     62  N   UNL A   1      41.320  31.102  35.224  1.00  0.00    -0.354 N 
ATOM     63  N   UNL A   1      39.138  32.411  33.785  1.00  0.00    -0.248 NA
ATOM     64  C   UNL A   1      37.451  34.026  33.680  1.00  0.00     0.031 C 
ATOM     65  C   UNL A   1      41.877  31.870  37.233  1.00  0.00     0.029 A 
ATOM     66  C   UNL A   1      41.004  32.060  36.174  1.00  0.00     0.049 A 
ATOM     67  H   UNL A   1      40.859  30.991  34.361  1.00  0.00     0.167 HD
ATOM     68  C   UNL A   1      39.155  33.168  34.952  1.00  0.00     0.074 A 
ATOM     69  C   UNL A   1      38.117  34.170  34.816  1.00  0.00     0.031 C 
ATOM     70  C   UNL A   1      39.960  33.043  36.037  1.00  0.00     0.031 A 
BRANCH  57  71
ATOM     71  C   UNL A   1      44.026  28.405  35.617  1.00  0.00    -0.014 A 
ATOM     72  C   UNL A   1      45.384  28.734  35.461  1.00  0.00     0.010 A 
ATOM     73  C   UNL A   1      43.677  27.327  36.451  1.00  0.00     0.010 A 
ATOM     74  C   UNL A   1      46.375  27.972  36.088  1.00  0.00     0.020 A 
ATOM     75  C   UNL A   1      44.663  26.579  37.103  1.00  0.00     0.020 A 
ATOM     76  C   UNL A   1      46.008  26.895  36.901  1.00  0.00     0.054 A 
BRANCH  76  77
ATOM     77  S   UNL A   1      47.311  25.929  37.714  1.00  0.00     0.124 S 
ATOM     78  O   UNL A   1      48.502  26.353  36.977  1.00  0.00    -0.237 OA
ATOM     79  O   UNL A   1      47.235  26.392  39.100  1.00  0.00    -0.237 OA
ATOM     80  O   UNL A   1      46.906  24.547  37.500  1.00  0.00    -0.744 OA
ENDBRANCH  76  77
ENDBRANCH  57  71
BRANCH  58  81
ATOM     81  C   UNL A   1      36.611  33.224  30.996  1.00  0.00    -0.014 A 
ATOM     82  C   UNL A   1      36.867  34.040  29.880  1.00  0.00     0.010 A 
ATOM     83  C   UNL A   1      35.289  33.087  31.454  1.00  0.00     0.010 A 
ATOM     84  C   UNL A   1      35.823  34.718  29.244  1.00  0.00     0.020 A 
ATOM     85  C   UNL A   1      34.239  33.741  30.804  1.00  0.00     0.020 A 
ATOM     86  C   UNL A   1      34.515  34.563  29.709  1.00  0.00     0.054 A 
BRANCH  86  87
ATOM     87  S   UNL A   1      33.168  35.408  28.834  1.00  0.00     0.124 S 
ATOM     88  O   UNL A   1      33.898  36.346  27.988  1.00  0.00    -0.237 OA
ATOM     89  O   UNL A   1      32.506  34.309  28.136  1.00  0.00    -0.237 OA
ATOM     90  O   UNL A   1      32.387  36.010  29.912  1.00  0.00    -0.744 OA
ENDBRANCH  86  87
ENDBRANCH  58  81
BRANCH  70  91
ATOM     91  C   UNL A   1      39.760  34.035  37.154  1.00  0.00    -0.014 A 
ATOM     92  C   UNL A   1      40.375  35.300  37.125  1.00  0.00     0.010 A 
ATOM     93  C   UNL A   1      38.934  33.700  38.242  1.00  0.00     0.010 A 
ATOM     94  C   UNL A   1      40.212  36.190  38.191  1.00  0.00     0.020 A 
ATOM     95  C   UNL A   1      38.745  34.598  39.295  1.00  0.00     0.020 A 
ATOM     96  C   UNL A   1      39.403  35.829  39.274  1.00  0.00     0.054 A 
BRANCH  96  97
ATOM     97  S   UNL A   1      39.200  37.002  40.643  1.00  0.00     0.124 S 
ATOM     98  O   UNL A   1      40.575  37.431  40.881  1.00  0.00    -0.237 OA
ATOM     99  O   UNL A   1      38.315  38.016  40.072  1.00  0.00    -0.237 OA
ATOM    100  O   UNL A   1      38.606  36.193  41.705  1.00  0.00    -0.744 OA
ENDBRANCH  96  97
ENDBRANCH  70  91
ENDBRANCH  44  45
ENDBRANCH  36  39
ENDBRANCH  34  35
ENDBRANCH  33  34
ENDBRANCH  32  33
ENDBRANCH   1  32
TORSDOF 22
ENDMDL
MODEL 2
REMARK VINA RESULT:     -11.1      3.740      4.896
REMARK SMILES Cc1ccc(NC(=O)C[C@H]([NH2+]Cc2cccnc2)C(=O)NCCCCCCNC(=O)c2ccc(-c3c4nc(c(-c5ccc(S(=O)(=O)[O-])cc5)c5ccc([nH]5)c(-c5ccc(S(=O)(=O)[O-])cc5)c5nc(c(-c6ccc(S(=O)(=O)[O-])cc6)c6ccc3[nH]6)C=C5)C=C4)cc2)cc1Cl
REMARK SMILES IDX 24 1 23 2 22 3 21 4 19 5 20 6 10 8 9 9 7 10 6 11 8 13 5 14
REMARK SMILES IDX 1 15 2 16 3 17 92 18 4 19 91 20 93 21 11 22 12 25 13 26
REMARK SMILES IDX 14 27 18 28 15 29 17 30 16 31 25 32 26 33 27 34 28 35 29 36
REMARK SMILES IDX 30 38 31 39 32 40 90 41 33 42 89 43 34 44 35 45 36 46 83 47
REMARK SMILES IDX 37 48 88 49 82 50 84 51 38 52 87 53 81 54 80 55 39 57 69 58
REMARK SMILES IDX 50 59 68 60 51 61 54 62 67 63 85 64 52 65 53 66 66 68 86 69
REMARK SMILES IDX 55 70 40 71 41 72 49 73 42 74 48 75 43 76 44 77 45 78 46 79
REMARK SMILES IDX 47 80 70 81 71 82 79 83 72 84 78 85 73 86 74 87 75 88 76 89
REMARK SMILES IDX 77 90 56 91 57 92 65 93 58 94 64 95 59 96 60 97 61 98 62 99
REMARK SMILES IDX 63 100
REMARK H PARENT 21 7 6 12 11 23 11 24 28 37 84 56 54 67
REMARK Flexibility Score: inf
ROOT
ATOM      1  C   UNL A   1      34.103  24.466  23.348  1.00  0.00     0.002 C 
ENDROOT
BRANCH   1   2
ATOM      2  C   UNL A   1      32.664  24.335  22.848  1.00  0.00     0.021 C 
BRANCH   2   3
ATOM      3  C   UNL A   1      32.099  25.528  22.059  1.00  0.00     0.116 C 
BRANCH   3   4
ATOM      4  N   UNL A   1      33.100  26.580  21.836  1.00  0.00    -0.351 N 
ATOM      5  C   UNL A   1      33.236  27.909  22.092  1.00  0.00     0.278 C 
ATOM      6  O   UNL A   1      34.314  28.403  21.717  1.00  0.00    -0.268 OA
ATOM      7  H   UNL A   1      33.894  26.223  21.374  1.00  0.00     0.163 HD
BRANCH   5   8
ATOM      8  C   UNL A   1      32.171  28.875  22.713  1.00  0.00     0.282 C 
BRANCH   8   9
ATOM      9  C   UNL A   1      32.149  28.959  24.223  1.00  0.00     0.175 C 
BRANCH   9  10
ATOM     10  C   UNL A   1      33.110  28.381  25.253  1.00  0.00     0.230 C 
ATOM     11  N   UNL A   1      33.121  27.247  25.977  1.00  0.00    -0.326 N 
ATOM     12  H   UNL A   1      33.930  27.219  26.536  1.00  0.00     0.169 HD
ATOM     13  O   UNL A   1      34.121  29.085  25.459  1.00  0.00    -0.274 OA
BRANCH  11  14
ATOM     14  C   UNL A   1      32.355  26.090  26.194  1.00  0.00     0.042 A 
ATOM     15  C   UNL A   1      29.776  22.615  26.591  1.00  0.00     0.046 C 
ATOM     16  C   UNL A   1      30.658  23.823  26.496  1.00  0.00    -0.032 A 
ATOM     17  C   UNL A   1      30.156  25.041  26.025  1.00  0.00     0.007 A 
ATOM     18  C   UNL A   1      32.007  23.764  26.833  1.00  0.00     0.046 A 
ATOM     19  C   UNL A   1      30.995  26.158  25.877  1.00  0.00     0.026 A 
ATOM     20  C   UNL A   1      32.815  24.895  26.710  1.00  0.00     0.047 A 
ATOM     21  Cl  UNL A   1      32.745  22.313  27.420  1.00  0.00    -0.084 Cl
ENDBRANCH  11  14
ENDBRANCH   9  10
ENDBRANCH   8   9
BRANCH   8  22
ATOM     22  N   UNL A   1      30.909  28.756  21.963  1.00  0.00    -0.332 N 
ATOM     23  H   UNL A   1      30.914  27.842  21.510  1.00  0.00     0.347 HD
ATOM     24  H   UNL A   1      30.912  29.569  21.346  1.00  0.00     0.347 HD
BRANCH  22  25
ATOM     25  C   UNL A   1      29.649  28.870  22.685  1.00  0.00     0.299 C 
BRANCH  25  26
ATOM     26  C   UNL A   1      29.052  30.243  22.478  1.00  0.00     0.024 A 
ATOM     27  C   UNL A   1      29.020  31.206  23.492  1.00  0.00     0.013 A 
ATOM     28  C   UNL A   1      28.562  30.630  21.231  1.00  0.00     0.120 A 
ATOM     29  C   UNL A   1      28.553  32.491  23.218  1.00  0.00     0.021 A 
ATOM     30  N   UNL A   1      28.090  31.865  20.939  1.00  0.00    -0.264 NA
ATOM     31  C   UNL A   1      28.112  32.772  21.936  1.00  0.00     0.111 A 
ENDBRANCH  25  26
ENDBRANCH  22  25
ENDBRANCH   8  22
ENDBRANCH   5   8
ENDBRANCH   3   4
ENDBRANCH   2   3
ENDBRANCH   1   2
BRANCH   1  32
ATOM     32  C   UNL A   1      34.750  23.180  23.868  1.00  0.00     0.002 C 
BRANCH  32  33
ATOM     33  C   UNL A   1      35.446  23.253  25.234  1.00  0.00     0.021 C 
BRANCH  33  34
ATOM     34  C   UNL A   1      36.841  23.887  25.265  1.00  0.00     0.116 C 
BRANCH  34  35
ATOM     35  N   UNL A   1      37.900  22.912  25.475  1.00  0.00    -0.352 N 
ATOM     36  C   UNL A   1      39.135  23.017  26.063  1.00  0.00     0.251 C 
ATOM     37  H   UNL A   1      37.693  22.013  25.132  1.00  0.00     0.163 HD
ATOM     38  O   UNL A   1      39.922  22.077  25.948  1.00  0.00    -0.269 OA
BRANCH  36  39
ATOM     39  C   UNL A   1      39.553  24.221  26.823  1.00  0.00     0.039 A 
ATOM     40  C   UNL A   1      40.391  25.146  26.188  1.00  0.00     0.014 A 
ATOM     41  C   UNL A   1      39.217  24.413  28.165  1.00  0.00     0.014 A 
ATOM     42  C   UNL A   1      40.844  26.277  26.875  1.00  0.00     0.010 A 
ATOM     43  C   UNL A   1      39.623  25.574  28.834  1.00  0.00     0.010 A 
ATOM     44  C   UNL A   1      40.443  26.518  28.198  1.00  0.00    -0.014 A 
BRANCH  44  45
ATOM     45  C   UNL A   1      40.860  27.762  28.903  1.00  0.00     0.031 A 
ATOM     46  C   UNL A   1      42.231  27.887  29.517  1.00  0.00     0.074 A 
ATOM     47  C   UNL A   1      39.983  28.780  29.022  1.00  0.00     0.049 A 
ATOM     48  N   UNL A   1      42.761  28.903  30.153  1.00  0.00    -0.248 NA
ATOM     49  C   UNL A   1      43.116  26.716  29.419  1.00  0.00     0.031 C 
ATOM     50  C   UNL A   1      38.611  28.777  28.512  1.00  0.00     0.029 A 
ATOM     51  N   UNL A   1      40.116  30.016  29.606  1.00  0.00    -0.354 N 
ATOM     52  C   UNL A   1      44.030  28.491  30.545  1.00  0.00     0.074 A 
ATOM     53  C   UNL A   1      44.175  27.117  30.109  1.00  0.00     0.031 C 
ATOM     54  C   UNL A   1      38.040  29.964  28.773  1.00  0.00     0.029 A 
ATOM     55  C   UNL A   1      38.992  30.801  29.498  1.00  0.00     0.049 A 
ATOM     56  H   UNL A   1      40.938  30.313  30.059  1.00  0.00     0.167 HD
ATOM     57  C   UNL A   1      44.991  29.191  31.196  1.00  0.00     0.031 A 
ATOM     58  C   UNL A   1      38.749  32.054  29.927  1.00  0.00     0.031 A 
ATOM     59  C   UNL A   1      44.852  30.560  31.623  1.00  0.00     0.049 A 
ATOM     60  C   UNL A   1      39.834  32.813  30.642  1.00  0.00     0.074 A 
ATOM     61  C   UNL A   1      45.795  31.373  32.230  1.00  0.00     0.029 A 
ATOM     62  N   UNL A   1      43.698  31.317  31.496  1.00  0.00    -0.354 N 
ATOM     63  N   UNL A   1      41.052  32.427  30.935  1.00  0.00    -0.248 NA
ATOM     64  C   UNL A   1      39.513  34.182  31.067  1.00  0.00     0.031 C 
ATOM     65  C   UNL A   1      45.194  32.604  32.516  1.00  0.00     0.029 A 
ATOM     66  C   UNL A   1      43.894  32.578  32.037  1.00  0.00     0.049 A 
ATOM     67  H   UNL A   1      42.860  31.005  31.083  1.00  0.00     0.167 HD
ATOM     68  C   UNL A   1      41.651  33.516  31.561  1.00  0.00     0.074 A 
ATOM     69  C   UNL A   1      40.667  34.579  31.582  1.00  0.00     0.031 C 
ATOM     70  C   UNL A   1      42.904  33.624  32.069  1.00  0.00     0.031 A 
BRANCH  57  71
ATOM     71  C   UNL A   1      46.287  28.480  31.501  1.00  0.00    -0.014 A 
ATOM     72  C   UNL A   1      46.455  27.750  32.692  1.00  0.00     0.010 A 
ATOM     73  C   UNL A   1      47.336  28.507  30.564  1.00  0.00     0.010 A 
ATOM     74  C   UNL A   1      47.663  27.100  32.960  1.00  0.00     0.020 A 
ATOM     75  C   UNL A   1      48.536  27.836  30.816  1.00  0.00     0.020 A 
ATOM     76  C   UNL A   1      48.699  27.152  32.023  1.00  0.00     0.054 A 
BRANCH  76  77
ATOM     77  S   UNL A   1      50.254  26.291  32.388  1.00  0.00     0.124 S 
ATOM     78  O   UNL A   1      50.016  24.978  31.789  1.00  0.00    -0.237 OA
ATOM     79  O   UNL A   1      51.247  27.119  31.704  1.00  0.00    -0.237 OA
ATOM     80  O   UNL A   1      50.329  26.307  33.842  1.00  0.00    -0.744 OA
ENDBRANCH  76  77
ENDBRANCH  57  71
BRANCH  58  81
ATOM     81  C   UNL A   1      37.426  32.686  29.666  1.00  0.00    -0.014 A 
ATOM     82  C   UNL A   1      37.123  33.199  28.393  1.00  0.00     0.010 A 
ATOM     83  C   UNL A   1      36.460  32.766  30.684  1.00  0.00     0.010 A 
ATOM     84  C   UNL A   1      35.883  33.796  28.147  1.00  0.00     0.020 A 
ATOM     85  C   UNL A   1      35.209  33.337  30.435  1.00  0.00     0.020 A 
ATOM     86  C   UNL A   1      34.933  33.859  29.169  1.00  0.00     0.054 A 
BRANCH  86  87
ATOM     87  S   UNL A   1      33.309  34.588  28.813  1.00  0.00     0.124 S 
ATOM     88  O   UNL A   1      32.681  34.589  30.129  1.00  0.00    -0.237 OA
ATOM     89  O   UNL A   1      33.663  35.902  28.279  1.00  0.00    -0.237 OA
ATOM     90  O   UNL A   1      32.728  33.666  27.840  1.00  0.00    -0.744 OA
ENDBRANCH  86  87
ENDBRANCH  58  81
BRANCH  70  91
ATOM     91  C   UNL A   1      43.285  34.951  32.672  1.00  0.00    -0.014 A 
ATOM     92  C   UNL A   1      43.173  35.183  34.055  1.00  0.00     0.010 A 
ATOM     93  C   UNL A   1      43.772  35.978  31.844  1.00  0.00     0.010 A 
ATOM     94  C   UNL A   1      43.491  36.435  34.590  1.00  0.00     0.020 A 
ATOM     95  C   UNL A   1      44.119  37.221  32.378  1.00  0.00     0.020 A 
ATOM     96  C   UNL A   1      43.955  37.449  33.746  1.00  0.00     0.054 A 
BRANCH  96  97
ATOM     97  S   UNL A   1      44.368  39.064  34.462  1.00  0.00     0.124 S 
ATOM     98  O   UNL A   1      45.793  39.172  34.166  1.00  0.00    -0.237 OA
ATOM     99  O   UNL A   1      43.500  39.977  33.722  1.00  0.00    -0.237 OA
ATOM    100  O   UNL A   1      44.035  38.909  35.877  1.00  0.00    -0.744 OA
ENDBRANCH  96  97
ENDBRANCH  70  91
ENDBRANCH  44  45
ENDBRANCH  36  39
ENDBRANCH  34  35
ENDBRANCH  33  34
ENDBRANCH  32  33
ENDBRANCH   1  32
TORSDOF 22
ENDMDL
MODEL 3
REMARK VINA RESULT:     -10.7      1.893      4.457
REMARK SMILES Cc1ccc(NC(=O)C[C@H]([NH2+]Cc2cccnc2)C(=O)NCCCCCCNC(=O)c2ccc(-c3c4nc(c(-c5ccc(S(=O)(=O)[O-])cc5)c5ccc([nH]5)c(-c5ccc(S(=O)(=O)[O-])cc5)c5nc(c(-c6ccc(S(=O)(=O)[O-])cc6)c6ccc3[nH]6)C=C5)C=C4)cc2)cc1Cl
REMARK SMILES IDX 24 1 23 2 22 3 21 4 19 5 20 6 10 8 9 9 7 10 6 11 8 13 5 14
REMARK SMILES IDX 1 15 2 16 3 17 92 18 4 19 91 20 93 21 11 22 12 25 13 26
REMARK SMILES IDX 14 27 18 28 15 29 17 30 16 31 25 32 26 33 27 34 28 35 29 36
REMARK SMILES IDX 30 38 31 39 32 40 90 41 33 42 89 43 34 44 35 45 36 46 83 47
REMARK SMILES IDX 37 48 88 49 82 50 84 51 38 52 87 53 81 54 80 55 39 57 69 58
REMARK SMILES IDX 50 59 68 60 51 61 54 62 67 63 85 64 52 65 53 66 66 68 86 69
REMARK SMILES IDX 55 70 40 71 41 72 49 73 42 74 48 75 43 76 44 77 45 78 46 79
REMARK SMILES IDX 47 80 70 81 71 82 79 83 72 84 78 85 73 86 74 87 75 88 76 89
REMARK SMILES IDX 77 90 56 91 57 92 65 93 58 94 64 95 59 96 60 97 61 98 62 99
REMARK SMILES IDX 63 100
REMARK H PARENT 21 7 6 12 11 23 11 24 28 37 84 56 54 67
REMARK Flexibility Score: inf
ROOT
ATOM      1  C   UNL A   1      38.123  23.950  26.480  1.00  0.00     0.002 C 
ENDROOT
BRANCH   1   2
ATOM      2  C   UNL A   1      36.792  23.789  25.747  1.00  0.00     0.021 C 
BRANCH   2   3
ATOM      3  C   UNL A   1      36.097  22.423  25.875  1.00  0.00     0.116 C 
BRANCH   3   4
ATOM      4  N   UNL A   1      35.059  22.415  26.916  1.00  0.00    -0.351 N 
ATOM      5  C   UNL A   1      33.740  22.104  27.017  1.00  0.00     0.278 C 
ATOM      6  O   UNL A   1      33.257  22.243  28.154  1.00  0.00    -0.268 OA
ATOM      7  H   UNL A   1      35.421  22.718  27.780  1.00  0.00     0.163 HD
BRANCH   5   8
ATOM      8  C   UNL A   1      32.768  21.682  25.863  1.00  0.00     0.282 C 
BRANCH   8   9
ATOM      9  C   UNL A   1      31.466  22.449  25.775  1.00  0.00     0.175 C 
BRANCH   9  10
ATOM     10  C   UNL A   1      30.977  23.646  26.577  1.00  0.00     0.230 C 
ATOM     11  N   UNL A   1      31.224  24.967  26.514  1.00  0.00    -0.326 N 
ATOM     12  H   UNL A   1      30.701  25.435  27.205  1.00  0.00     0.169 HD
ATOM     13  O   UNL A   1      30.149  23.360  27.468  1.00  0.00    -0.274 OA
BRANCH  11  14
ATOM     14  C   UNL A   1      31.982  25.897  25.785  1.00  0.00     0.042 A 
ATOM     15  C   UNL A   1      34.073  28.757  23.269  1.00  0.00     0.046 C 
ATOM     16  C   UNL A   1      33.388  27.747  24.137  1.00  0.00    -0.032 A 
ATOM     17  C   UNL A   1      32.592  26.742  23.576  1.00  0.00     0.007 A 
ATOM     18  C   UNL A   1      33.488  27.796  25.525  1.00  0.00     0.046 A 
ATOM     19  C   UNL A   1      31.899  25.831  24.390  1.00  0.00     0.026 A 
ATOM     20  C   UNL A   1      32.817  26.859  26.313  1.00  0.00     0.047 A 
ATOM     21  Cl  UNL A   1      34.436  28.994  26.336  1.00  0.00    -0.084 Cl
ENDBRANCH  11  14
ENDBRANCH   9  10
ENDBRANCH   8   9
BRANCH   8  22
ATOM     22  N   UNL A   1      32.769  20.215  25.735  1.00  0.00    -0.332 N 
ATOM     23  H   UNL A   1      31.859  19.946  25.360  1.00  0.00     0.347 HD
ATOM     24  H   UNL A   1      32.987  19.886  26.676  1.00  0.00     0.347 HD
BRANCH  22  25
ATOM     25  C   UNL A   1      33.781  19.583  24.900  1.00  0.00     0.299 C 
BRANCH  25  26
ATOM     26  C   UNL A   1      33.661  18.078  24.985  1.00  0.00     0.024 A 
ATOM     27  C   UNL A   1      32.653  17.449  25.723  1.00  0.00     0.013 A 
ATOM     28  C   UNL A   1      34.523  17.250  24.268  1.00  0.00     0.120 A 
ATOM     29  C   UNL A   1      32.524  16.061  25.684  1.00  0.00     0.021 A 
ATOM     30  N   UNL A   1      34.432  15.899  24.222  1.00  0.00    -0.264 NA
ATOM     31  C   UNL A   1      33.423  15.338  24.918  1.00  0.00     0.111 A 
ENDBRANCH  25  26
ENDBRANCH  22  25
ENDBRANCH   8  22
ENDBRANCH   5   8
ENDBRANCH   3   4
ENDBRANCH   2   3
ENDBRANCH   1   2
BRANCH   1  32
ATOM     32  C   UNL A   1      39.193  22.903  26.161  1.00  0.00     0.002 C 
BRANCH  32  33
ATOM     33  C   UNL A   1      40.112  22.472  27.313  1.00  0.00     0.021 C 
BRANCH  33  34
ATOM     34  C   UNL A   1      41.597  22.825  27.181  1.00  0.00     0.116 C 
BRANCH  34  35
ATOM     35  N   UNL A   1      41.866  23.732  26.077  1.00  0.00    -0.352 N 
ATOM     36  C   UNL A   1      41.820  25.100  25.987  1.00  0.00     0.251 C 
ATOM     37  H   UNL A   1      42.130  23.283  25.242  1.00  0.00     0.163 HD
ATOM     38  O   UNL A   1      41.917  25.619  24.874  1.00  0.00    -0.269 OA
BRANCH  36  39
ATOM     39  C   UNL A   1      41.649  25.969  27.177  1.00  0.00     0.039 A 
ATOM     40  C   UNL A   1      41.011  27.205  27.009  1.00  0.00     0.014 A 
ATOM     41  C   UNL A   1      42.179  25.639  28.427  1.00  0.00     0.014 A 
ATOM     42  C   UNL A   1      40.862  28.077  28.093  1.00  0.00     0.010 A 
ATOM     43  C   UNL A   1      41.977  26.486  29.524  1.00  0.00     0.010 A 
ATOM     44  C   UNL A   1      41.319  27.715  29.369  1.00  0.00    -0.014 A 
BRANCH  44  45
ATOM     45  C   UNL A   1      41.088  28.608  30.539  1.00  0.00     0.031 A 
ATOM     46  C   UNL A   1      41.946  28.510  31.775  1.00  0.00     0.074 A 
ATOM     47  C   UNL A   1      40.073  29.494  30.503  1.00  0.00     0.049 A 
ATOM     48  N   UNL A   1      41.890  29.219  32.875  1.00  0.00    -0.248 NA
ATOM     49  C   UNL A   1      42.989  27.473  31.783  1.00  0.00     0.031 C 
ATOM     50  C   UNL A   1      39.140  29.666  29.387  1.00  0.00     0.029 A 
ATOM     51  N   UNL A   1      39.657  30.422  31.427  1.00  0.00    -0.354 N 
ATOM     52  C   UNL A   1      42.875  28.706  33.713  1.00  0.00     0.074 A 
ATOM     53  C   UNL A   1      43.487  27.599  33.006  1.00  0.00     0.031 C 
ATOM     54  C   UNL A   1      38.285  30.660  29.676  1.00  0.00     0.029 A 
ATOM     55  C   UNL A   1      38.585  31.175  31.009  1.00  0.00     0.049 A 
ATOM     56  H   UNL A   1      40.085  30.537  32.305  1.00  0.00     0.167 HD
ATOM     57  C   UNL A   1      43.247  29.122  34.948  1.00  0.00     0.031 A 
ATOM     58  C   UNL A   1      37.918  32.172  31.621  1.00  0.00     0.031 A 
ATOM     59  C   UNL A   1      42.646  30.228  35.649  1.00  0.00     0.049 A 
ATOM     60  C   UNL A   1      38.353  32.620  32.989  1.00  0.00     0.074 A 
ATOM     61  C   UNL A   1      42.999  30.765  36.875  1.00  0.00     0.029 A 
ATOM     62  N   UNL A   1      41.562  30.963  35.191  1.00  0.00    -0.354 N 
ATOM     63  N   UNL A   1      39.336  32.168  33.730  1.00  0.00    -0.248 NA
ATOM     64  C   UNL A   1      37.597  33.724  33.595  1.00  0.00     0.031 C 
ATOM     65  C   UNL A   1      42.098  31.791  37.182  1.00  0.00     0.029 A 
ATOM     66  C   UNL A   1      41.217  31.930  36.121  1.00  0.00     0.049 A 
ATOM     67  H   UNL A   1      41.105  30.818  34.331  1.00  0.00     0.167 HD
ATOM     68  C   UNL A   1      39.330  32.949  34.881  1.00  0.00     0.074 A 
ATOM     69  C   UNL A   1      38.260  33.914  34.726  1.00  0.00     0.031 C 
ATOM     70  C   UNL A   1      40.140  32.874  35.966  1.00  0.00     0.031 A 
BRANCH  57  71
ATOM     71  C   UNL A   1      44.357  28.365  35.635  1.00  0.00    -0.014 A 
ATOM     72  C   UNL A   1      45.704  28.736  35.469  1.00  0.00     0.010 A 
ATOM     73  C   UNL A   1      44.046  27.293  36.491  1.00  0.00     0.010 A 
ATOM     74  C   UNL A   1      46.720  28.021  36.110  1.00  0.00     0.020 A 
ATOM     75  C   UNL A   1      45.056  26.592  37.156  1.00  0.00     0.020 A 
ATOM     76  C   UNL A   1      46.390  26.950  36.945  1.00  0.00     0.054 A 
BRANCH  76  77
ATOM     77  S   UNL A   1      47.726  26.044  37.775  1.00  0.00     0.124 S 
ATOM     78  O   UNL A   1      47.203  24.678  37.780  1.00  0.00    -0.237 OA
ATOM     79  O   UNL A   1      48.867  26.274  36.890  1.00  0.00    -0.237 OA
ATOM     80  O   UNL A   1      47.818  26.679  39.082  1.00  0.00    -0.744 OA
ENDBRANCH  76  77
ENDBRANCH  57  71
BRANCH  58  81
ATOM     81  C   UNL A   1      36.779  32.838  30.929  1.00  0.00    -0.014 A 
ATOM     82  C   UNL A   1      35.454  32.516  31.270  1.00  0.00     0.010 A 
ATOM     83  C   UNL A   1      37.015  33.805  29.936  1.00  0.00     0.010 A 
ATOM     84  C   UNL A   1      34.384  33.137  30.618  1.00  0.00     0.020 A 
ATOM     85  C   UNL A   1      35.949  34.448  29.302  1.00  0.00     0.020 A 
ATOM     86  C   UNL A   1      34.639  34.101  29.640  1.00  0.00     0.054 A 
BRANCH  86  87
ATOM     87  S   UNL A   1      33.236  34.935  28.847  1.00  0.00     0.124 S 
ATOM     88  O   UNL A   1      32.758  33.913  27.922  1.00  0.00    -0.237 OA
ATOM     89  O   UNL A   1      32.359  35.225  29.979  1.00  0.00    -0.237 OA
ATOM     90  O   UNL A   1      33.844  36.109  28.225  1.00  0.00    -0.744 OA
ENDBRANCH  86  87
ENDBRANCH  58  81
BRANCH  70  91
ATOM     91  C   UNL A   1      39.909  33.882  37.062  1.00  0.00    -0.014 A 
ATOM     92  C   UNL A   1      40.384  35.202  36.952  1.00  0.00     0.010 A 
ATOM     93  C   UNL A   1      39.197  33.506  38.215  1.00  0.00     0.010 A 
ATOM     94  C   UNL A   1      40.196  36.111  37.997  1.00  0.00     0.020 A 
ATOM     95  C   UNL A   1      38.982  34.419  39.250  1.00  0.00     0.020 A 
ATOM     96  C   UNL A   1      39.503  35.710  39.144  1.00  0.00     0.054 A 
BRANCH  96  97
ATOM     97  S   UNL A   1      39.266  36.908  40.486  1.00  0.00     0.124 S 
ATOM     98  O   UNL A   1      40.629  37.087  40.976  1.00  0.00    -0.237 OA
ATOM     99  O   UNL A   1      38.689  38.059  39.795  1.00  0.00    -0.237 OA
ATOM    100  O   UNL A   1      38.359  36.222  41.404  1.00  0.00    -0.744 OA
ENDBRANCH  96  97
ENDBRANCH  70  91
ENDBRANCH  44  45
ENDBRANCH  36  39
ENDBRANCH  34  35
ENDBRANCH  33  34
ENDBRANCH  32  33
ENDBRANCH   1  32
TORSDOF 22
ENDMDL
