MODEL 1
REMARK VINA RESULT:     -12.7      0.000      0.000
REMARK SMILES Cc1cc(C(=O)NCCCCCCNC(=O)c2ccc(-c3c4nc(c(-c5ccc(S(=O)(=O)[O-])cc5)c5ccc([nH]5)c(-c5ccc(S(=O)(=O)[O-])cc5)c5nc(c(-c6ccc(S(=O)(=O)[O-])cc6)c6ccc3[nH]6)C=C5)C=C4)cc2)ccc1NC(=O)c1ccc(=O)n(CCOc2ccccc2)n1
REMARK SMILES IDX 9 1 8 2 7 3 5 4 6 5 4 7 1 8 2 9 3 10 79 11 78 12 77 13 80 14
REMARK SMILES IDX 81 15 82 17 83 18 84 19 98 20 85 21 88 22 86 23 87 24 89 25
REMARK SMILES IDX 90 26 91 27 92 28 93 29 97 30 94 31 96 32 95 33 10 34 11 35
REMARK SMILES IDX 12 36 13 37 14 38 15 39 16 41 17 42 18 43 76 44 19 45 75 46
REMARK SMILES IDX 20 47 21 48 22 49 69 50 23 51 74 52 68 53 70 54 24 55 73 56
REMARK SMILES IDX 67 57 66 58 25 60 55 61 36 62 54 63 37 64 40 65 53 66 71 67
REMARK SMILES IDX 38 68 39 69 52 71 72 72 41 73 26 74 27 75 35 76 28 77 34 78
REMARK SMILES IDX 29 79 30 80 31 81 32 82 33 83 56 84 57 85 65 86 58 87 64 88
REMARK SMILES IDX 59 89 60 90 61 91 62 92 63 93 42 94 43 95 51 96 44 97 50 98
REMARK SMILES IDX 45 99 46 100 47 101 48 102 49 103
REMARK H PARENT 7 6 80 16 14 40 70 59 40 70
REMARK Flexibility Score: inf
ROOT
ATOM      1  C   UNL A   1      31.951  29.096  24.515  1.00  0.00     0.021 C 
ENDROOT
BRANCH   1   2
ATOM      2  C   UNL A   1      30.592  28.549  24.067  1.00  0.00     0.116 C 
BRANCH   2   3
ATOM      3  N   UNL A   1      30.120  27.461  24.919  1.00  0.00    -0.352 N 
ATOM      4  C   UNL A   1      30.740  26.310  25.351  1.00  0.00     0.251 C 
ATOM      5  O   UNL A   1      30.222  25.645  26.247  1.00  0.00    -0.269 OA
ATOM      6  H   UNL A   1      29.198  27.570  25.242  1.00  0.00     0.163 HD
BRANCH   4   7
ATOM      7  C   UNL A   1      32.043  25.862  24.794  1.00  0.00     0.040 A 
ATOM      8  C   UNL A   1      33.246  24.120  21.636  1.00  0.00     0.046 C 
ATOM      9  C   UNL A   1      33.286  24.671  23.035  1.00  0.00    -0.027 A 
ATOM     10  C   UNL A   1      32.080  25.197  23.559  1.00  0.00     0.019 A 
ATOM     11  C   UNL A   1      34.452  24.762  23.812  1.00  0.00     0.044 A 
ATOM     12  C   UNL A   1      34.429  25.632  24.902  1.00  0.00     0.027 A 
ATOM     13  C   UNL A   1      33.246  26.174  25.401  1.00  0.00     0.016 A 
BRANCH  11  14
ATOM     14  N   UNL A   1      35.593  23.985  23.499  1.00  0.00    -0.320 N 
ATOM     15  C   UNL A   1      36.064  22.818  24.086  1.00  0.00     0.276 C 
ATOM     16  H   UNL A   1      36.136  24.324  22.751  1.00  0.00     0.170 HD
ATOM     17  O   UNL A   1      37.074  22.252  23.684  1.00  0.00    -0.267 OA
BRANCH  15  18
ATOM     18  C   UNL A   1      35.297  22.202  25.241  1.00  0.00     0.149 A 
ATOM     19  C   UNL A   1      35.690  22.683  26.581  1.00  0.00     0.042 A 
ATOM     20  N   UNL A   1      34.335  21.360  25.003  1.00  0.00    -0.164 NA
ATOM     21  C   UNL A   1      34.732  22.606  27.506  1.00  0.00     0.076 A 
ATOM     22  N   UNL A   1      33.487  21.108  26.078  1.00  0.00    -0.226 N 
ATOM     23  C   UNL A   1      33.438  21.963  27.174  1.00  0.00     0.266 A 
ATOM     24  O   UNL A   1      32.458  22.162  27.882  1.00  0.00    -0.268 OA
BRANCH  22  25
ATOM     25  C   UNL A   1      32.490  20.047  25.927  1.00  0.00     0.190 C 
BRANCH  25  26
ATOM     26  C   UNL A   1      32.191  19.746  24.446  1.00  0.00     0.253 C 
BRANCH  26  27
ATOM     27  O   UNL A   1      31.853  18.360  24.243  1.00  0.00    -0.492 OA
BRANCH  27  28
ATOM     28  C   UNL A   1      32.874  17.520  24.587  1.00  0.00     0.119 A 
ATOM     29  C   UNL A   1      32.667  16.415  25.409  1.00  0.00     0.046 A 
ATOM     30  C   UNL A   1      34.161  17.834  24.165  1.00  0.00     0.046 A 
ATOM     31  C   UNL A   1      33.740  15.572  25.712  1.00  0.00     0.004 A 
ATOM     32  C   UNL A   1      35.220  16.966  24.414  1.00  0.00     0.004 A 
ATOM     33  C   UNL A   1      35.008  15.827  25.184  1.00  0.00     0.000 A 
ENDBRANCH  27  28
ENDBRANCH  26  27
ENDBRANCH  25  26
ENDBRANCH  22  25
ENDBRANCH  15  18
ENDBRANCH  11  14
ENDBRANCH   4   7
ENDBRANCH   2   3
ENDBRANCH   1   2
BRANCH   1  34
ATOM     34  C   UNL A   1      31.924  30.001  25.757  1.00  0.00     0.002 C 
BRANCH  34  35
ATOM     35  C   UNL A   1      32.012  29.303  27.124  1.00  0.00     0.002 C 
BRANCH  35  36
ATOM     36  C   UNL A   1      33.418  28.953  27.616  1.00  0.00     0.021 C 
BRANCH  36  37
ATOM     37  C   UNL A   1      34.536  29.498  26.733  1.00  0.00     0.116 C 
BRANCH  37  38
ATOM     38  N   UNL A   1      35.098  30.747  27.230  1.00  0.00    -0.352 N 
ATOM     39  C   UNL A   1      36.152  30.893  28.114  1.00  0.00     0.251 C 
ATOM     40  H   UNL A   1      34.681  31.576  26.901  1.00  0.00     0.163 HD
ATOM     41  O   UNL A   1      36.350  31.916  28.750  1.00  0.00    -0.269 OA
BRANCH  39  42
ATOM     42  C   UNL A   1      37.144  29.800  28.128  1.00  0.00     0.039 A 
ATOM     43  C   UNL A   1      37.265  29.069  29.317  1.00  0.00     0.014 A 
ATOM     44  C   UNL A   1      38.092  29.696  27.115  1.00  0.00     0.014 A 
ATOM     45  C   UNL A   1      38.428  28.345  29.559  1.00  0.00     0.010 A 
ATOM     46  C   UNL A   1      39.279  29.044  27.392  1.00  0.00     0.010 A 
ATOM     47  C   UNL A   1      39.466  28.407  28.629  1.00  0.00    -0.014 A 
BRANCH  47  48
ATOM     48  C   UNL A   1      40.806  27.885  28.878  1.00  0.00     0.031 A 
ATOM     49  C   UNL A   1      41.149  26.504  28.464  1.00  0.00     0.074 A 
ATOM     50  C   UNL A   1      41.762  28.674  29.417  1.00  0.00     0.049 A 
ATOM     51  N   UNL A   1      42.148  25.828  28.925  1.00  0.00    -0.248 NA
ATOM     52  C   UNL A   1      40.338  25.753  27.511  1.00  0.00     0.031 C 
ATOM     53  C   UNL A   1      43.199  28.411  29.448  1.00  0.00     0.029 A 
ATOM     54  N   UNL A   1      41.605  29.774  30.262  1.00  0.00    -0.354 N 
ATOM     55  C   UNL A   1      42.288  24.707  28.138  1.00  0.00     0.074 A 
ATOM     56  C   UNL A   1      41.095  24.668  27.325  1.00  0.00     0.031 C 
ATOM     57  C   UNL A   1      43.732  29.090  30.475  1.00  0.00     0.029 A 
ATOM     58  C   UNL A   1      42.630  29.672  31.219  1.00  0.00     0.049 A 
ATOM     59  H   UNL A   1      40.918  30.476  30.201  1.00  0.00     0.167 HD
ATOM     60  C   UNL A   1      43.454  24.000  28.166  1.00  0.00     0.031 A 
ATOM     61  C   UNL A   1      42.400  29.505  32.556  1.00  0.00     0.031 A 
ATOM     62  C   UNL A   1      44.383  24.495  29.181  1.00  0.00     0.049 A 
ATOM     63  C   UNL A   1      43.029  28.246  33.133  1.00  0.00     0.074 A 
ATOM     64  C   UNL A   1      45.548  25.243  29.158  1.00  0.00     0.029 A 
ATOM     65  N   UNL A   1      43.996  24.434  30.510  1.00  0.00    -0.354 N 
ATOM     66  N   UNL A   1      43.701  27.368  32.440  1.00  0.00    -0.248 NA
ATOM     67  C   UNL A   1      42.853  27.826  34.526  1.00  0.00     0.031 C 
ATOM     68  C   UNL A   1      45.852  25.635  30.495  1.00  0.00     0.029 A 
ATOM     69  C   UNL A   1      44.877  25.116  31.325  1.00  0.00     0.049 A 
ATOM     70  H   UNL A   1      43.194  23.963  30.832  1.00  0.00     0.167 HD
ATOM     71  C   UNL A   1      43.992  26.286  33.226  1.00  0.00     0.074 A 
ATOM     72  C   UNL A   1      43.456  26.624  34.531  1.00  0.00     0.031 C 
ATOM     73  C   UNL A   1      44.604  25.166  32.749  1.00  0.00     0.031 A 
BRANCH  60  74
ATOM     74  C   UNL A   1      43.838  22.994  27.103  1.00  0.00    -0.014 A 
ATOM     75  C   UNL A   1      42.928  21.981  26.739  1.00  0.00     0.010 A 
ATOM     76  C   UNL A   1      45.090  22.961  26.461  1.00  0.00     0.010 A 
ATOM     77  C   UNL A   1      43.285  20.930  25.879  1.00  0.00     0.020 A 
ATOM     78  C   UNL A   1      45.478  21.896  25.633  1.00  0.00     0.020 A 
ATOM     79  C   UNL A   1      44.576  20.876  25.358  1.00  0.00     0.054 A 
BRANCH  79  80
ATOM     80  S   UNL A   1      45.060  19.457  24.341  1.00  0.00     0.124 S 
ATOM     81  O   UNL A   1      44.472  18.333  25.068  1.00  0.00    -0.237 OA
ATOM     82  O   UNL A   1      44.445  19.767  23.055  1.00  0.00    -0.237 OA
ATOM     83  O   UNL A   1      46.521  19.501  24.360  1.00  0.00    -0.744 OA
ENDBRANCH  79  80
ENDBRANCH  60  74
BRANCH  61  84
ATOM     84  C   UNL A   1      41.127  30.116  33.032  1.00  0.00    -0.014 A 
ATOM     85  C   UNL A   1      41.091  31.520  33.175  1.00  0.00     0.010 A 
ATOM     86  C   UNL A   1      39.916  29.411  32.932  1.00  0.00     0.010 A 
ATOM     87  C   UNL A   1      39.888  32.217  33.039  1.00  0.00     0.020 A 
ATOM     88  C   UNL A   1      38.707  30.108  32.812  1.00  0.00     0.020 A 
ATOM     89  C   UNL A   1      38.713  31.506  32.795  1.00  0.00     0.054 A 
BRANCH  89  90
ATOM     90  S   UNL A   1      37.243  32.439  32.270  1.00  0.00     0.124 S 
ATOM     91  O   UNL A   1      36.343  31.382  31.827  1.00  0.00    -0.237 OA
ATOM     92  O   UNL A   1      36.855  33.120  33.505  1.00  0.00    -0.237 OA
ATOM     93  O   UNL A   1      37.760  33.309  31.218  1.00  0.00    -0.744 OA
ENDBRANCH  89  90
ENDBRANCH  61  84
BRANCH  73  94
ATOM     94  C   UNL A   1      44.958  23.986  33.608  1.00  0.00    -0.014 A 
ATOM     95  C   UNL A   1      46.240  23.822  34.155  1.00  0.00     0.010 A 
ATOM     96  C   UNL A   1      44.032  22.935  33.781  1.00  0.00     0.010 A 
ATOM     97  C   UNL A   1      46.567  22.676  34.894  1.00  0.00     0.020 A 
ATOM     98  C   UNL A   1      44.353  21.782  34.501  1.00  0.00     0.020 A 
ATOM     99  C   UNL A   1      45.616  21.668  35.072  1.00  0.00     0.054 A 
BRANCH  99 100
ATOM    100  S   UNL A   1      46.062  20.181  36.005  1.00  0.00     0.124 S 
ATOM    101  O   UNL A   1      45.717  20.545  37.377  1.00  0.00    -0.237 OA
ATOM    102  O   UNL A   1      45.205  19.171  35.389  1.00  0.00    -0.237 OA
ATOM    103  O   UNL A   1      47.493  20.027  35.749  1.00  0.00    -0.744 OA
ENDBRANCH  99 100
ENDBRANCH  73  94
ENDBRANCH  47  48
ENDBRANCH  39  42
ENDBRANCH  37  38
ENDBRANCH  36  37
ENDBRANCH  35  36
ENDBRANCH  34  35
ENDBRANCH   1  34
TORSDOF 22
ENDMDL
MODEL 2
REMARK VINA RESULT:     -12.3      3.921      5.699
REMARK SMILES Cc1cc(C(=O)NCCCCCCNC(=O)c2ccc(-c3c4nc(c(-c5ccc(S(=O)(=O)[O-])cc5)c5ccc([nH]5)c(-c5ccc(S(=O)(=O)[O-])cc5)c5nc(c(-c6ccc(S(=O)(=O)[O-])cc6)c6ccc3[nH]6)C=C5)C=C4)cc2)ccc1NC(=O)c1ccc(=O)n(CCOc2ccccc2)n1
REMARK SMILES IDX 9 1 8 2 7 3 5 4 6 5 4 7 1 8 2 9 3 10 79 11 78 12 77 13 80 14
REMARK SMILES IDX 81 15 82 17 83 18 84 19 98 20 85 21 88 22 86 23 87 24 89 25
REMARK SMILES IDX 90 26 91 27 92 28 93 29 97 30 94 31 96 32 95 33 10 34 11 35
REMARK SMILES IDX 12 36 13 37 14 38 15 39 16 41 17 42 18 43 76 44 19 45 75 46
REMARK SMILES IDX 20 47 21 48 22 49 69 50 23 51 74 52 68 53 70 54 24 55 73 56
REMARK SMILES IDX 67 57 66 58 25 60 55 61 36 62 54 63 37 64 40 65 53 66 71 67
REMARK SMILES IDX 38 68 39 69 52 71 72 72 41 73 26 74 27 75 35 76 28 77 34 78
REMARK SMILES IDX 29 79 30 80 31 81 32 82 33 83 56 84 57 85 65 86 58 87 64 88
REMARK SMILES IDX 59 89 60 90 61 91 62 92 63 93 42 94 43 95 51 96 44 97 50 98
REMARK SMILES IDX 45 99 46 100 47 101 48 102 49 103
REMARK H PARENT 7 6 80 16 14 40 70 59 40 70
REMARK Flexibility Score: inf
ROOT
ATOM      1  C   UNL A   1      36.071  30.144  27.547  1.00  0.00     0.021 C 
ENDROOT
BRANCH   1   2
ATOM      2  C   UNL A   1      34.959  29.093  27.475  1.00  0.00     0.116 C 
BRANCH   2   3
ATOM      3  N   UNL A   1      33.627  29.682  27.577  1.00  0.00    -0.352 N 
ATOM      4  C   UNL A   1      32.569  29.696  26.696  1.00  0.00     0.251 C 
ATOM      5  O   UNL A   1      31.462  30.065  27.087  1.00  0.00    -0.269 OA
ATOM      6  H   UNL A   1      33.455  30.151  28.424  1.00  0.00     0.163 HD
BRANCH   4   7
ATOM      7  C   UNL A   1      32.711  29.239  25.289  1.00  0.00     0.040 A 
ATOM      8  C   UNL A   1      30.395  28.591  22.345  1.00  0.00     0.046 C 
ATOM      9  C   UNL A   1      31.650  28.564  23.174  1.00  0.00    -0.027 A 
ATOM     10  C   UNL A   1      31.571  29.086  24.488  1.00  0.00     0.019 A 
ATOM     11  C   UNL A   1      32.897  28.127  22.699  1.00  0.00     0.044 A 
ATOM     12  C   UNL A   1      34.028  28.517  23.417  1.00  0.00     0.027 A 
ATOM     13  C   UNL A   1      33.949  29.058  24.699  1.00  0.00     0.016 A 
BRANCH  11  14
ATOM     14  N   UNL A   1      32.987  27.313  21.545  1.00  0.00    -0.320 N 
ATOM     15  C   UNL A   1      32.856  25.937  21.415  1.00  0.00     0.276 C 
ATOM     16  H   UNL A   1      33.172  27.795  20.707  1.00  0.00     0.170 HD
ATOM     17  O   UNL A   1      32.949  25.376  20.328  1.00  0.00    -0.267 OA
BRANCH  15  18
ATOM     18  C   UNL A   1      32.559  25.096  22.641  1.00  0.00     0.149 A 
ATOM     19  C   UNL A   1      31.127  24.839  22.894  1.00  0.00     0.042 A 
ATOM     20  N   UNL A   1      33.539  24.616  23.349  1.00  0.00    -0.164 NA
ATOM     21  C   UNL A   1      30.870  23.720  23.572  1.00  0.00     0.076 A 
ATOM     22  N   UNL A   1      33.188  23.605  24.240  1.00  0.00    -0.226 N 
ATOM     23  C   UNL A   1      31.991  22.910  24.108  1.00  0.00     0.266 A 
ATOM     24  O   UNL A   1      31.797  21.747  24.443  1.00  0.00    -0.268 OA
BRANCH  22  25
ATOM     25  C   UNL A   1      34.208  23.140  25.182  1.00  0.00     0.190 C 
BRANCH  25  26
ATOM     26  C   UNL A   1      35.631  23.498  24.712  1.00  0.00     0.253 C 
BRANCH  26  27
ATOM     27  O   UNL A   1      36.376  24.178  25.741  1.00  0.00    -0.492 OA
BRANCH  27  28
ATOM     28  C   UNL A   1      37.571  23.570  26.004  1.00  0.00     0.119 A 
ATOM     29  C   UNL A   1      38.604  24.238  26.655  1.00  0.00     0.046 A 
ATOM     30  C   UNL A   1      37.775  22.278  25.532  1.00  0.00     0.046 A 
ATOM     31  C   UNL A   1      39.799  23.565  26.924  1.00  0.00     0.004 A 
ATOM     32  C   UNL A   1      38.939  21.583  25.849  1.00  0.00     0.004 A 
ATOM     33  C   UNL A   1      39.952  22.226  26.553  1.00  0.00     0.000 A 
ENDBRANCH  27  28
ENDBRANCH  26  27
ENDBRANCH  25  26
ENDBRANCH  22  25
ENDBRANCH  15  18
ENDBRANCH  11  14
ENDBRANCH   4   7
ENDBRANCH   2   3
ENDBRANCH   1   2
BRANCH   1  34
ATOM     34  C   UNL A   1      35.653  31.512  28.109  1.00  0.00     0.002 C 
BRANCH  34  35
ATOM     35  C   UNL A   1      36.712  32.283  28.915  1.00  0.00     0.002 C 
BRANCH  35  36
ATOM     36  C   UNL A   1      36.832  31.921  30.397  1.00  0.00     0.021 C 
BRANCH  36  37
ATOM     37  C   UNL A   1      37.756  30.739  30.671  1.00  0.00     0.116 C 
BRANCH  37  38
ATOM     38  N   UNL A   1      37.549  30.147  31.986  1.00  0.00    -0.352 N 
ATOM     39  C   UNL A   1      37.850  28.855  32.377  1.00  0.00     0.251 C 
ATOM     40  H   UNL A   1      37.151  30.732  32.671  1.00  0.00     0.163 HD
ATOM     41  O   UNL A   1      37.352  28.321  33.354  1.00  0.00    -0.269 OA
BRANCH  39  42
ATOM     42  C   UNL A   1      38.951  28.195  31.645  1.00  0.00     0.039 A 
ATOM     43  C   UNL A   1      40.252  28.441  32.101  1.00  0.00     0.014 A 
ATOM     44  C   UNL A   1      38.717  27.599  30.410  1.00  0.00     0.014 A 
ATOM     45  C   UNL A   1      41.328  28.231  31.245  1.00  0.00     0.010 A 
ATOM     46  C   UNL A   1      39.779  27.469  29.534  1.00  0.00     0.010 A 
ATOM     47  C   UNL A   1      41.076  27.826  29.934  1.00  0.00    -0.014 A 
BRANCH  47  48
ATOM     48  C   UNL A   1      42.094  27.797  28.888  1.00  0.00     0.031 A 
ATOM     49  C   UNL A   1      42.751  26.517  28.532  1.00  0.00     0.074 A 
ATOM     50  C   UNL A   1      42.393  28.914  28.189  1.00  0.00     0.049 A 
ATOM     51  N   UNL A   1      43.872  26.420  27.899  1.00  0.00    -0.248 NA
ATOM     52  C   UNL A   1      42.196  25.224  28.920  1.00  0.00     0.031 C 
ATOM     53  C   UNL A   1      43.143  28.988  26.937  1.00  0.00     0.029 A 
ATOM     54  N   UNL A   1      42.279  30.246  28.590  1.00  0.00    -0.354 N 
ATOM     55  C   UNL A   1      44.032  25.101  27.540  1.00  0.00     0.074 A 
ATOM     56  C   UNL A   1      43.005  24.387  28.264  1.00  0.00     0.031 C 
ATOM     57  C   UNL A   1      43.681  30.213  26.837  1.00  0.00     0.029 A 
ATOM     58  C   UNL A   1      43.423  30.896  28.092  1.00  0.00     0.049 A 
ATOM     59  H   UNL A   1      41.548  30.648  29.114  1.00  0.00     0.167 HD
ATOM     60  C   UNL A   1      44.933  24.765  26.572  1.00  0.00     0.031 A 
ATOM     61  C   UNL A   1      44.370  31.474  28.890  1.00  0.00     0.031 A 
ATOM     62  C   UNL A   1      45.728  25.910  26.129  1.00  0.00     0.049 A 
ATOM     63  C   UNL A   1      45.766  30.904  28.694  1.00  0.00     0.074 A 
ATOM     64  C   UNL A   1      45.739  26.716  25.003  1.00  0.00     0.029 A 
ATOM     65  N   UNL A   1      46.545  26.539  27.055  1.00  0.00    -0.354 N 
ATOM     66  N   UNL A   1      46.062  29.932  27.875  1.00  0.00    -0.248 NA
ATOM     67  C   UNL A   1      46.923  31.320  29.492  1.00  0.00     0.031 C 
ATOM     68  C   UNL A   1      46.572  27.843  25.270  1.00  0.00     0.029 A 
ATOM     69  C   UNL A   1      47.070  27.711  26.552  1.00  0.00     0.049 A 
ATOM     70  H   UNL A   1      46.727  26.193  27.959  1.00  0.00     0.167 HD
ATOM     71  C   UNL A   1      47.368  29.561  28.055  1.00  0.00     0.074 A 
ATOM     72  C   UNL A   1      47.873  30.470  29.067  1.00  0.00     0.031 C 
ATOM     73  C   UNL A   1      47.934  28.505  27.406  1.00  0.00     0.031 A 
BRANCH  60  74
ATOM     74  C   UNL A   1      44.929  23.428  25.865  1.00  0.00    -0.014 A 
ATOM     75  C   UNL A   1      43.739  22.673  25.806  1.00  0.00     0.010 A 
ATOM     76  C   UNL A   1      46.066  22.838  25.283  1.00  0.00     0.010 A 
ATOM     77  C   UNL A   1      43.712  21.362  25.305  1.00  0.00     0.020 A 
ATOM     78  C   UNL A   1      46.067  21.514  24.817  1.00  0.00     0.020 A 
ATOM     79  C   UNL A   1      44.889  20.776  24.845  1.00  0.00     0.054 A 
BRANCH  79  80
ATOM     80  S   UNL A   1      44.865  19.046  24.307  1.00  0.00     0.124 S 
ATOM     81  O   UNL A   1      43.779  18.483  25.106  1.00  0.00    -0.237 OA
ATOM     82  O   UNL A   1      44.600  19.165  22.878  1.00  0.00    -0.237 OA
ATOM     83  O   UNL A   1      46.198  18.557  24.654  1.00  0.00    -0.744 OA
ENDBRANCH  79  80
ENDBRANCH  60  74
BRANCH  61  84
ATOM     84  C   UNL A   1      43.837  31.996  30.180  1.00  0.00    -0.014 A 
ATOM     85  C   UNL A   1      43.178  33.245  30.156  1.00  0.00     0.010 A 
ATOM     86  C   UNL A   1      43.613  31.130  31.263  1.00  0.00     0.010 A 
ATOM     87  C   UNL A   1      42.186  33.542  31.093  1.00  0.00     0.020 A 
ATOM     88  C   UNL A   1      42.628  31.434  32.213  1.00  0.00     0.020 A 
ATOM     89  C   UNL A   1      41.875  32.604  32.078  1.00  0.00     0.054 A 
BRANCH  89  90
ATOM     90  S   UNL A   1      40.358  32.855  33.048  1.00  0.00     0.124 S 
ATOM     91  O   UNL A   1      39.475  33.506  32.087  1.00  0.00    -0.237 OA
ATOM     92  O   UNL A   1      39.995  31.484  33.408  1.00  0.00    -0.237 OA
ATOM     93  O   UNL A   1      40.807  33.689  34.158  1.00  0.00    -0.744 OA
ENDBRANCH  89  90
ENDBRANCH  61  84
BRANCH  73  94
ATOM     94  C   UNL A   1      49.373  28.108  27.571  1.00  0.00    -0.014 A 
ATOM     95  C   UNL A   1      50.367  28.522  26.670  1.00  0.00     0.010 A 
ATOM     96  C   UNL A   1      49.742  27.189  28.577  1.00  0.00     0.010 A 
ATOM     97  C   UNL A   1      51.690  28.079  26.804  1.00  0.00     0.020 A 
ATOM     98  C   UNL A   1      51.054  26.728  28.708  1.00  0.00     0.020 A 
ATOM     99  C   UNL A   1      52.027  27.193  27.830  1.00  0.00     0.054 A 
BRANCH  99 100
ATOM    100  S   UNL A   1      53.735  26.607  27.973  1.00  0.00     0.124 S 
ATOM    101  O   UNL A   1      53.772  25.487  27.034  1.00  0.00    -0.237 OA
ATOM    102  O   UNL A   1      54.493  27.789  27.569  1.00  0.00    -0.237 OA
ATOM    103  O   UNL A   1      53.859  26.235  29.381  1.00  0.00    -0.744 OA
ENDBRANCH  99 100
ENDBRANCH  73  94
ENDBRANCH  47  48
ENDBRANCH  39  42
ENDBRANCH  37  38
ENDBRANCH  36  37
ENDBRANCH  35  36
ENDBRANCH  34  35
ENDBRANCH   1  34
TORSDOF 22
ENDMDL
MODEL 3
REMARK VINA RESULT:     -12.1      3.951      9.943
REMARK SMILES Cc1cc(C(=O)NCCCCCCNC(=O)c2ccc(-c3c4nc(c(-c5ccc(S(=O)(=O)[O-])cc5)c5ccc([nH]5)c(-c5ccc(S(=O)(=O)[O-])cc5)c5nc(c(-c6ccc(S(=O)(=O)[O-])cc6)c6ccc3[nH]6)C=C5)C=C4)cc2)ccc1NC(=O)c1ccc(=O)n(CCOc2ccccc2)n1
REMARK SMILES IDX 9 1 8 2 7 3 5 4 6 5 4 7 1 8 2 9 3 10 79 11 78 12 77 13 80 14
REMARK SMILES IDX 81 15 82 17 83 18 84 19 98 20 85 21 88 22 86 23 87 24 89 25
REMARK SMILES IDX 90 26 91 27 92 28 93 29 97 30 94 31 96 32 95 33 10 34 11 35
REMARK SMILES IDX 12 36 13 37 14 38 15 39 16 41 17 42 18 43 76 44 19 45 75 46
REMARK SMILES IDX 20 47 21 48 22 49 69 50 23 51 74 52 68 53 70 54 24 55 73 56
REMARK SMILES IDX 67 57 66 58 25 60 55 61 36 62 54 63 37 64 40 65 53 66 71 67
REMARK SMILES IDX 38 68 39 69 52 71 72 72 41 73 26 74 27 75 35 76 28 77 34 78
REMARK SMILES IDX 29 79 30 80 31 81 32 82 33 83 56 84 57 85 65 86 58 87 64 88
REMARK SMILES IDX 59 89 60 90 61 91 62 92 63 93 42 94 43 95 51 96 44 97 50 98
REMARK SMILES IDX 45 99 46 100 47 101 48 102 49 103
REMARK H PARENT 7 6 80 16 14 40 70 59 40 70
REMARK Flexibility Score: inf
ROOT
ATOM      1  C   UNL A   1      36.897  24.253  25.748  1.00  0.00     0.021 C 
ENDROOT
BRANCH   1   2
ATOM      2  C   UNL A   1      35.802  23.287  25.285  1.00  0.00     0.116 C 
BRANCH   2   3
ATOM      3  N   UNL A   1      35.412  22.344  26.329  1.00  0.00    -0.352 N 
ATOM      4  C   UNL A   1      34.205  22.128  26.957  1.00  0.00     0.251 C 
ATOM      5  O   UNL A   1      34.057  21.125  27.652  1.00  0.00    -0.269 OA
ATOM      6  H   UNL A   1      36.140  21.759  26.639  1.00  0.00     0.163 HD
BRANCH   4   7
ATOM      7  C   UNL A   1      33.055  23.054  26.786  1.00  0.00     0.040 A 
ATOM      8  C   UNL A   1      29.282  22.882  27.216  1.00  0.00     0.046 C 
ATOM      9  C   UNL A   1      30.620  23.413  26.782  1.00  0.00    -0.027 A 
ATOM     10  C   UNL A   1      31.751  22.595  27.021  1.00  0.00     0.019 A 
ATOM     11  C   UNL A   1      30.820  24.689  26.229  1.00  0.00     0.044 A 
ATOM     12  C   UNL A   1      32.119  25.195  26.241  1.00  0.00     0.027 A 
ATOM     13  C   UNL A   1      33.230  24.397  26.506  1.00  0.00     0.016 A 
BRANCH  11  14
ATOM     14  N   UNL A   1      29.739  25.413  25.673  1.00  0.00    -0.320 N 
ATOM     15  C   UNL A   1      29.557  25.889  24.381  1.00  0.00     0.276 C 
ATOM     16  H   UNL A   1      29.003  25.611  26.297  1.00  0.00     0.170 HD
ATOM     17  O   UNL A   1      28.544  26.495  24.050  1.00  0.00    -0.267 OA
BRANCH  15  18
ATOM     18  C   UNL A   1      30.623  25.630  23.334  1.00  0.00     0.149 A 
ATOM     19  C   UNL A   1      31.024  26.811  22.543  1.00  0.00     0.042 A 
ATOM     20  N   UNL A   1      31.151  24.446  23.227  1.00  0.00    -0.164 NA
ATOM     21  C   UNL A   1      32.263  26.760  22.051  1.00  0.00     0.076 A 
ATOM     22  N   UNL A   1      32.328  24.385  22.485  1.00  0.00    -0.226 N 
ATOM     23  C   UNL A   1      33.072  25.530  22.219  1.00  0.00     0.266 A 
ATOM     24  O   UNL A   1      34.287  25.573  22.065  1.00  0.00    -0.268 OA
BRANCH  22  25
ATOM     25  C   UNL A   1      32.879  23.063  22.186  1.00  0.00     0.190 C 
BRANCH  25  26
ATOM     26  C   UNL A   1      32.316  21.979  23.125  1.00  0.00     0.253 C 
BRANCH  26  27
ATOM     27  O   UNL A   1      32.035  20.756  22.417  1.00  0.00    -0.492 OA
BRANCH  27  28
ATOM     28  C   UNL A   1      32.350  19.647  23.151  1.00  0.00     0.119 A 
ATOM     29  C   UNL A   1      32.488  18.394  22.559  1.00  0.00     0.046 A 
ATOM     30  C   UNL A   1      32.455  19.774  24.531  1.00  0.00     0.046 A 
ATOM     31  C   UNL A   1      32.837  17.295  23.350  1.00  0.00     0.004 A 
ATOM     32  C   UNL A   1      32.861  18.696  25.313  1.00  0.00     0.004 A 
ATOM     33  C   UNL A   1      33.059  17.454  24.719  1.00  0.00     0.000 A 
ENDBRANCH  27  28
ENDBRANCH  26  27
ENDBRANCH  25  26
ENDBRANCH  22  25
ENDBRANCH  15  18
ENDBRANCH  11  14
ENDBRANCH   4   7
ENDBRANCH   2   3
ENDBRANCH   1   2
BRANCH   1  34
ATOM     34  C   UNL A   1      38.222  23.599  26.167  1.00  0.00     0.002 C 
BRANCH  34  35
ATOM     35  C   UNL A   1      39.210  24.476  26.955  1.00  0.00     0.002 C 
BRANCH  35  36
ATOM     36  C   UNL A   1      40.669  24.433  26.497  1.00  0.00     0.021 C 
BRANCH  36  37
ATOM     37  C   UNL A   1      41.531  25.554  27.071  1.00  0.00     0.116 C 
BRANCH  37  38
ATOM     38  N   UNL A   1      42.266  26.287  26.049  1.00  0.00    -0.352 N 
ATOM     39  C   UNL A   1      42.026  27.579  25.614  1.00  0.00     0.251 C 
ATOM     40  H   UNL A   1      43.014  25.812  25.622  1.00  0.00     0.163 HD
ATOM     41  O   UNL A   1      42.432  28.008  24.547  1.00  0.00    -0.269 OA
BRANCH  39  42
ATOM     42  C   UNL A   1      41.390  28.485  26.591  1.00  0.00     0.039 A 
ATOM     43  C   UNL A   1      42.240  29.322  27.326  1.00  0.00     0.014 A 
ATOM     44  C   UNL A   1      40.058  28.309  26.953  1.00  0.00     0.014 A 
ATOM     45  C   UNL A   1      41.794  29.865  28.526  1.00  0.00     0.010 A 
ATOM     46  C   UNL A   1      39.645  28.782  28.184  1.00  0.00     0.010 A 
ATOM     47  C   UNL A   1      40.525  29.521  28.991  1.00  0.00    -0.014 A 
BRANCH  47  48
ATOM     48  C   UNL A   1      40.042  29.839  30.332  1.00  0.00     0.031 A 
ATOM     49  C   UNL A   1      39.285  31.090  30.567  1.00  0.00     0.074 A 
ATOM     50  C   UNL A   1      40.216  28.966  31.349  1.00  0.00     0.049 A 
ATOM     51  N   UNL A   1      39.116  31.638  31.723  1.00  0.00    -0.248 NA
ATOM     52  C   UNL A   1      38.690  31.857  29.476  1.00  0.00     0.031 C 
ATOM     53  C   UNL A   1      39.543  28.989  32.646  1.00  0.00     0.029 A 
ATOM     54  N   UNL A   1      41.216  28.006  31.508  1.00  0.00    -0.354 N 
ATOM     55  C   UNL A   1      38.170  32.628  31.579  1.00  0.00     0.074 A 
ATOM     56  C   UNL A   1      37.996  32.775  30.152  1.00  0.00     0.031 C 
ATOM     57  C   UNL A   1      40.316  28.348  33.536  1.00  0.00     0.029 A 
ATOM     58  C   UNL A   1      41.568  28.040  32.870  1.00  0.00     0.049 A 
ATOM     59  H   UNL A   1      41.597  27.424  30.811  1.00  0.00     0.167 HD
ATOM     60  C   UNL A   1      37.541  33.132  32.680  1.00  0.00     0.031 A 
ATOM     61  C   UNL A   1      42.812  28.388  33.319  1.00  0.00     0.031 A 
ATOM     62  C   UNL A   1      38.091  32.603  33.927  1.00  0.00     0.049 A 
ATOM     63  C   UNL A   1      42.811  29.581  34.262  1.00  0.00     0.074 A 
ATOM     64  C   UNL A   1      37.671  31.675  34.865  1.00  0.00     0.029 A 
ATOM     65  N   UNL A   1      39.417  32.872  34.225  1.00  0.00    -0.354 N 
ATOM     66  N   UNL A   1      41.747  30.255  34.604  1.00  0.00    -0.248 NA
ATOM     67  C   UNL A   1      44.035  30.174  34.809  1.00  0.00     0.031 C 
ATOM     68  C   UNL A   1      38.769  31.386  35.728  1.00  0.00     0.029 A 
ATOM     69  C   UNL A   1      39.847  32.147  35.318  1.00  0.00     0.049 A 
ATOM     70  H   UNL A   1      39.982  33.502  33.721  1.00  0.00     0.167 HD
ATOM     71  C   UNL A   1      42.114  31.353  35.335  1.00  0.00     0.074 A 
ATOM     72  C   UNL A   1      43.556  31.252  35.453  1.00  0.00     0.031 C 
ATOM     73  C   UNL A   1      41.224  32.298  35.750  1.00  0.00     0.031 A 
BRANCH  60  74
ATOM     74  C   UNL A   1      36.263  33.938  32.606  1.00  0.00    -0.014 A 
ATOM     75  C   UNL A   1      35.351  33.708  31.556  1.00  0.00     0.010 A 
ATOM     76  C   UNL A   1      35.924  34.967  33.506  1.00  0.00     0.010 A 
ATOM     77  C   UNL A   1      34.232  34.529  31.346  1.00  0.00     0.020 A 
ATOM     78  C   UNL A   1      34.834  35.823  33.288  1.00  0.00     0.020 A 
ATOM     79  C   UNL A   1      34.000  35.608  32.197  1.00  0.00     0.054 A 
BRANCH  79  80
ATOM     80  S   UNL A   1      32.618  36.727  31.850  1.00  0.00     0.124 S 
ATOM     81  O   UNL A   1      31.500  36.061  32.514  1.00  0.00    -0.237 OA
ATOM     82  O   UNL A   1      33.063  37.974  32.462  1.00  0.00    -0.237 OA
ATOM     83  O   UNL A   1      32.543  36.742  30.390  1.00  0.00    -0.744 OA
ENDBRANCH  79  80
ENDBRANCH  60  74
BRANCH  61  84
ATOM     84  C   UNL A   1      43.912  28.052  32.373  1.00  0.00    -0.014 A 
ATOM     85  C   UNL A   1      44.381  26.719  32.363  1.00  0.00     0.010 A 
ATOM     86  C   UNL A   1      44.177  28.873  31.264  1.00  0.00     0.010 A 
ATOM     87  C   UNL A   1      44.937  26.170  31.206  1.00  0.00     0.020 A 
ATOM     88  C   UNL A   1      44.750  28.327  30.107  1.00  0.00     0.020 A 
ATOM     89  C   UNL A   1      45.059  26.964  30.066  1.00  0.00     0.054 A 
BRANCH  89  90
ATOM     90  S   UNL A   1      45.443  26.142  28.489  1.00  0.00     0.124 S 
ATOM     91  O   UNL A   1      44.698  24.894  28.597  1.00  0.00    -0.237 OA
ATOM     92  O   UNL A   1      44.928  27.101  27.511  1.00  0.00    -0.237 OA
ATOM     93  O   UNL A   1      46.897  26.014  28.527  1.00  0.00    -0.744 OA
ENDBRANCH  89  90
ENDBRANCH  61  84
BRANCH  73  94
ATOM     94  C   UNL A   1      41.609  33.490  36.579  1.00  0.00    -0.014 A 
ATOM     95  C   UNL A   1      41.036  33.736  37.837  1.00  0.00     0.010 A 
ATOM     96  C   UNL A   1      42.472  34.472  36.048  1.00  0.00     0.010 A 
ATOM     97  C   UNL A   1      41.359  34.893  38.561  1.00  0.00     0.020 A 
ATOM     98  C   UNL A   1      42.786  35.636  36.753  1.00  0.00     0.020 A 
ATOM     99  C   UNL A   1      42.241  35.831  38.017  1.00  0.00     0.054 A 
BRANCH  99 100
ATOM    100  S   UNL A   1      42.625  37.335  38.952  1.00  0.00     0.124 S 
ATOM    101  O   UNL A   1      43.409  36.825  40.075  1.00  0.00    -0.237 OA
ATOM    102  O   UNL A   1      43.371  38.117  37.969  1.00  0.00    -0.237 OA
ATOM    103  O   UNL A   1      41.311  37.866  39.308  1.00  0.00    -0.744 OA
ENDBRANCH  99 100
ENDBRANCH  73  94
ENDBRANCH  47  48
ENDBRANCH  39  42
ENDBRANCH  37  38
ENDBRANCH  36  37
ENDBRANCH  35  36
ENDBRANCH  34  35
ENDBRANCH   1  34
TORSDOF 22
ENDMDL
