MODEL 1
REMARK VINA RESULT:      -8.6      0.000      0.000
REMARK SMILES O=C(NCCCCCCNC(=O)[C@@H]1CCCC[C@H]1C(=O)Nc1ccc(NC(=O)c2ccco2)cc1)c1ccc(-c2c3nc(c(-c4ccc(S(=O)(=O)[O-])cc4)c4ccc([nH]4)c(-c4ccc(S(=O)(=O)[O-])cc4)c4nc(c(-c5ccc(S(=O)(=O)[O-])cc5)c5ccc2[nH]5)C=C4)C=C3)cc1
REMARK SMILES IDX 7 1 6 2 5 3 4 4 3 5 1 6 2 7 36 9 37 10 95 11 38 12 94 13
REMARK SMILES IDX 39 14 40 15 41 16 88 17 42 18 93 19 87 20 89 21 43 22 92 23
REMARK SMILES IDX 86 24 85 25 44 27 74 28 55 29 73 30 56 31 59 32 72 33 90 34
REMARK SMILES IDX 57 35 58 36 71 38 91 39 60 40 45 41 46 42 54 43 47 44 53 45
REMARK SMILES IDX 48 46 49 47 50 48 51 49 52 50 75 51 76 52 84 53 77 54 83 55
REMARK SMILES IDX 78 56 79 57 80 58 81 59 82 60 61 61 62 62 70 63 63 64 69 65
REMARK SMILES IDX 64 66 65 67 66 68 67 69 68 70 8 71 9 72 10 73 11 74 12 76
REMARK SMILES IDX 13 77 14 78 18 79 15 80 17 81 16 82 19 83 20 84 21 85 22 87
REMARK SMILES IDX 23 88 35 89 24 90 34 91 25 92 26 93 27 94 28 96 29 97 30 98
REMARK SMILES IDX 33 99 31 100 32 101
REMARK H PARENT 3 8 89 26 59 37 10 75 21 86 26 95
REMARK Flexibility Score: inf
ROOT
ATOM      1  C   UNL A   1      48.262  25.078  27.662  1.00  0.00     0.002 C 
ENDROOT
BRANCH   1   2
ATOM      2  C   UNL A   1      49.777  24.862  27.606  1.00  0.00     0.002 C 
BRANCH   2   3
ATOM      3  C   UNL A   1      50.442  25.358  26.321  1.00  0.00     0.021 C 
BRANCH   3   4
ATOM      4  C   UNL A   1      51.689  26.203  26.556  1.00  0.00     0.116 C 
BRANCH   4   5
ATOM      5  N   UNL A   1      51.789  27.284  25.591  1.00  0.00    -0.352 N 
ATOM      6  O   UNL A   1      51.004  29.005  24.359  1.00  0.00    -0.269 OA
ATOM      7  C   UNL A   1      50.907  28.311  25.367  1.00  0.00     0.251 C 
ATOM      8  H   UNL A   1      52.593  27.280  25.023  1.00  0.00     0.163 HD
BRANCH   7   9
ATOM      9  C   UNL A   1      49.834  28.567  26.351  1.00  0.00     0.039 A 
ATOM     10  C   UNL A   1      50.153  29.014  27.637  1.00  0.00     0.014 A 
ATOM     11  C   UNL A   1      48.502  28.366  25.983  1.00  0.00     0.014 A 
ATOM     12  C   UNL A   1      49.150  29.153  28.586  1.00  0.00     0.010 A 
ATOM     13  C   UNL A   1      47.487  28.585  26.918  1.00  0.00     0.010 A 
ATOM     14  C   UNL A   1      47.805  28.966  28.230  1.00  0.00    -0.014 A 
BRANCH  14  15
ATOM     15  C   UNL A   1      46.744  29.267  29.224  1.00  0.00     0.031 A 
ATOM     16  C   UNL A   1      46.381  28.285  30.301  1.00  0.00     0.074 A 
ATOM     17  C   UNL A   1      46.120  30.459  29.148  1.00  0.00     0.049 A 
ATOM     18  N   UNL A   1      45.487  28.404  31.249  1.00  0.00    -0.248 NA
ATOM     19  C   UNL A   1      47.106  27.005  30.316  1.00  0.00     0.031 C 
ATOM     20  C   UNL A   1      46.387  31.487  28.137  1.00  0.00     0.029 A 
ATOM     21  N   UNL A   1      45.148  31.016  29.936  1.00  0.00    -0.354 N 
ATOM     22  C   UNL A   1      45.527  27.212  31.963  1.00  0.00     0.074 A 
ATOM     23  C   UNL A   1      46.520  26.373  31.326  1.00  0.00     0.031 C 
ATOM     24  C   UNL A   1      45.633  32.565  28.394  1.00  0.00     0.029 A 
ATOM     25  C   UNL A   1      44.783  32.282  29.544  1.00  0.00     0.049 A 
ATOM     26  H   UNL A   1      44.749  30.556  30.709  1.00  0.00     0.167 HD
ATOM     27  C   UNL A   1      44.801  26.855  33.050  1.00  0.00     0.031 A 
ATOM     28  C   UNL A   1      43.852  33.120  30.038  1.00  0.00     0.031 A 
ATOM     29  C   UNL A   1      43.810  27.696  33.673  1.00  0.00     0.049 A 
ATOM     30  C   UNL A   1      43.043  32.685  31.224  1.00  0.00     0.074 A 
ATOM     31  C   UNL A   1      43.041  27.433  34.794  1.00  0.00     0.029 A 
ATOM     32  N   UNL A   1      43.448  28.958  33.227  1.00  0.00    -0.354 N 
ATOM     33  N   UNL A   1      43.118  31.565  31.903  1.00  0.00    -0.248 NA
ATOM     34  C   UNL A   1      42.026  33.624  31.711  1.00  0.00     0.031 C 
ATOM     35  C   UNL A   1      42.178  28.516  34.995  1.00  0.00     0.029 A 
ATOM     36  C   UNL A   1      42.451  29.478  34.035  1.00  0.00     0.049 A 
ATOM     37  H   UNL A   1      43.842  29.418  32.450  1.00  0.00     0.167 HD
ATOM     38  C   UNL A   1      42.168  31.672  32.910  1.00  0.00     0.074 A 
ATOM     39  C   UNL A   1      41.547  32.974  32.763  1.00  0.00     0.031 C 
ATOM     40  C   UNL A   1      41.840  30.773  33.870  1.00  0.00     0.031 A 
BRANCH  27  41
ATOM     41  C   UNL A   1      45.029  25.479  33.624  1.00  0.00    -0.014 A 
ATOM     42  C   UNL A   1      44.309  24.367  33.157  1.00  0.00     0.010 A 
ATOM     43  C   UNL A   1      46.019  25.291  34.606  1.00  0.00     0.010 A 
ATOM     44  C   UNL A   1      44.551  23.094  33.687  1.00  0.00     0.020 A 
ATOM     45  C   UNL A   1      46.280  24.017  35.120  1.00  0.00     0.020 A 
ATOM     46  C   UNL A   1      45.533  22.929  34.668  1.00  0.00     0.054 A 
BRANCH  46  47
ATOM     47  S   UNL A   1      45.841  21.264  35.319  1.00  0.00     0.124 S 
ATOM     48  O   UNL A   1      45.949  21.519  36.754  1.00  0.00    -0.237 OA
ATOM     49  O   UNL A   1      44.648  20.530  34.902  1.00  0.00    -0.237 OA
ATOM     50  O   UNL A   1      47.081  20.857  34.664  1.00  0.00    -0.744 OA
ENDBRANCH  46  47
ENDBRANCH  27  41
BRANCH  28  51
ATOM     51  C   UNL A   1      43.634  34.442  29.393  1.00  0.00    -0.014 A 
ATOM     52  C   UNL A   1      42.373  34.790  28.879  1.00  0.00     0.010 A 
ATOM     53  C   UNL A   1      44.686  35.374  29.319  1.00  0.00     0.010 A 
ATOM     54  C   UNL A   1      42.172  36.041  28.289  1.00  0.00     0.020 A 
ATOM     55  C   UNL A   1      44.480  36.636  28.759  1.00  0.00     0.020 A 
ATOM     56  C   UNL A   1      43.226  36.958  28.236  1.00  0.00     0.054 A 
BRANCH  56  57
ATOM     57  S   UNL A   1      42.930  38.595  27.516  1.00  0.00     0.124 S 
ATOM     58  O   UNL A   1      44.196  38.863  26.842  1.00  0.00    -0.237 OA
ATOM     59  O   UNL A   1      41.785  38.354  26.641  1.00  0.00    -0.237 OA
ATOM     60  O   UNL A   1      42.648  39.434  28.679  1.00  0.00    -0.744 OA
ENDBRANCH  56  57
ENDBRANCH  28  51
BRANCH  40  61
ATOM     61  C   UNL A   1      40.778  31.180  34.854  1.00  0.00    -0.014 A 
ATOM     62  C   UNL A   1      39.446  30.755  34.707  1.00  0.00     0.010 A 
ATOM     63  C   UNL A   1      41.129  31.969  35.965  1.00  0.00     0.010 A 
ATOM     64  C   UNL A   1      38.477  31.137  35.637  1.00  0.00     0.020 A 
ATOM     65  C   UNL A   1      40.167  32.331  36.911  1.00  0.00     0.020 A 
ATOM     66  C   UNL A   1      38.844  31.924  36.733  1.00  0.00     0.054 A 
BRANCH  66  67
ATOM     67  S   UNL A   1      37.577  32.375  37.950  1.00  0.00     0.124 S 
ATOM     68  O   UNL A   1      36.620  33.116  37.130  1.00  0.00    -0.237 OA
ATOM     69  O   UNL A   1      37.117  31.074  38.431  1.00  0.00    -0.237 OA
ATOM     70  O   UNL A   1      38.307  33.173  38.931  1.00  0.00    -0.744 OA
ENDBRANCH  66  67
ENDBRANCH  40  61
ENDBRANCH  14  15
ENDBRANCH   7   9
ENDBRANCH   4   5
ENDBRANCH   3   4
ENDBRANCH   2   3
ENDBRANCH   1   2
BRANCH   1  71
ATOM     71  C   UNL A   1      47.523  24.774  26.351  1.00  0.00     0.021 C 
BRANCH  71  72
ATOM     72  C   UNL A   1      46.000  24.839  26.484  1.00  0.00     0.116 C 
BRANCH  72  73
ATOM     73  N   UNL A   1      45.634  26.082  27.125  1.00  0.00    -0.356 N 
ATOM     74  C   UNL A   1      44.450  26.418  27.706  1.00  0.00     0.223 C 
ATOM     75  H   UNL A   1      46.332  26.775  27.145  1.00  0.00     0.163 HD
ATOM     76  O   UNL A   1      44.184  27.617  27.780  1.00  0.00    -0.275 OA
BRANCH  74  77
ATOM     77  C   UNL A   1      43.549  25.332  28.295  1.00  0.00     0.091 C 
ATOM     78  C   UNL A   1      44.286  24.275  29.131  1.00  0.00     0.014 C 
ATOM     79  C   UNL A   1      42.724  24.672  27.172  1.00  0.00     0.091 C 
ATOM     80  C   UNL A   1      43.302  23.241  29.677  1.00  0.00     0.001 C 
ATOM     81  C   UNL A   1      41.832  23.519  27.656  1.00  0.00     0.014 C 
ATOM     82  C   UNL A   1      42.588  22.529  28.540  1.00  0.00     0.001 C 
BRANCH  79  83
ATOM     83  C   UNL A   1      41.956  25.618  26.231  1.00  0.00     0.228 C 
ATOM     84  O   UNL A   1      42.056  25.457  25.005  1.00  0.00    -0.274 OA
ATOM     85  N   UNL A   1      41.026  26.541  26.615  1.00  0.00    -0.326 N 
ATOM     86  H   UNL A   1      40.688  27.103  25.880  1.00  0.00     0.169 HD
BRANCH  85  87
ATOM     87  C   UNL A   1      40.469  26.831  27.860  1.00  0.00     0.041 A 
ATOM     88  C   UNL A   1      40.886  27.995  28.495  1.00  0.00     0.028 A 
ATOM     89  C   UNL A   1      39.580  26.000  28.525  1.00  0.00     0.028 A 
ATOM     90  C   UNL A   1      40.250  28.423  29.664  1.00  0.00     0.028 A 
ATOM     91  C   UNL A   1      38.903  26.452  29.662  1.00  0.00     0.028 A 
ATOM     92  C   UNL A   1      39.174  27.716  30.193  1.00  0.00     0.041 A 
BRANCH  92  93
ATOM     93  N   UNL A   1      38.330  28.170  31.222  1.00  0.00    -0.319 N 
ATOM     94  C   UNL A   1      37.364  29.157  31.282  1.00  0.00     0.291 C 
ATOM     95  H   UNL A   1      38.453  27.688  32.072  1.00  0.00     0.170 HD
ATOM     96  O   UNL A   1      36.799  29.327  32.364  1.00  0.00    -0.265 OA
BRANCH  94  97
ATOM     97  C   UNL A   1      37.023  29.920  30.108  1.00  0.00     0.191 A 
ATOM     98  C   UNL A   1      36.271  29.620  28.984  1.00  0.00     0.056 A 
ATOM     99  O   UNL A   1      37.528  31.185  29.995  1.00  0.00    -0.459 OA
ATOM    100  C   UNL A   1      36.372  30.742  28.123  1.00  0.00     0.043 A 
ATOM    101  C   UNL A   1      37.136  31.669  28.790  1.00  0.00     0.196 A 
ENDBRANCH  94  97
ENDBRANCH  92  93
ENDBRANCH  85  87
ENDBRANCH  79  83
ENDBRANCH  74  77
ENDBRANCH  72  73
ENDBRANCH  71  72
ENDBRANCH   1  71
TORSDOF 20
ENDMDL
MODEL 2
REMARK VINA RESULT:      -8.6      3.873     10.653
REMARK SMILES O=C(NCCCCCCNC(=O)[C@@H]1CCCC[C@H]1C(=O)Nc1ccc(NC(=O)c2ccco2)cc1)c1ccc(-c2c3nc(c(-c4ccc(S(=O)(=O)[O-])cc4)c4ccc([nH]4)c(-c4ccc(S(=O)(=O)[O-])cc4)c4nc(c(-c5ccc(S(=O)(=O)[O-])cc5)c5ccc2[nH]5)C=C4)C=C3)cc1
REMARK SMILES IDX 7 1 6 2 5 3 4 4 3 5 1 6 2 7 36 9 37 10 95 11 38 12 94 13
REMARK SMILES IDX 39 14 40 15 41 16 88 17 42 18 93 19 87 20 89 21 43 22 92 23
REMARK SMILES IDX 86 24 85 25 44 27 74 28 55 29 73 30 56 31 59 32 72 33 90 34
REMARK SMILES IDX 57 35 58 36 71 38 91 39 60 40 45 41 46 42 54 43 47 44 53 45
REMARK SMILES IDX 48 46 49 47 50 48 51 49 52 50 75 51 76 52 84 53 77 54 83 55
REMARK SMILES IDX 78 56 79 57 80 58 81 59 82 60 61 61 62 62 70 63 63 64 69 65
REMARK SMILES IDX 64 66 65 67 66 68 67 69 68 70 8 71 9 72 10 73 11 74 12 76
REMARK SMILES IDX 13 77 14 78 18 79 15 80 17 81 16 82 19 83 20 84 21 85 22 87
REMARK SMILES IDX 23 88 35 89 24 90 34 91 25 92 26 93 27 94 28 96 29 97 30 98
REMARK SMILES IDX 33 99 31 100 32 101
REMARK H PARENT 3 8 89 26 59 37 10 75 21 86 26 95
REMARK Flexibility Score: inf
ROOT
ATOM      1  C   UNL A   1      45.068  25.036  33.124  1.00  0.00     0.002 C 
ENDROOT
BRANCH   1   2
ATOM      2  C   UNL A   1      45.114  25.374  34.617  1.00  0.00     0.002 C 
BRANCH   2   3
ATOM      3  C   UNL A   1      44.420  24.355  35.521  1.00  0.00     0.021 C 
BRANCH   3   4
ATOM      4  C   UNL A   1      44.043  24.900  36.894  1.00  0.00     0.116 C 
BRANCH   4   5
ATOM      5  N   UNL A   1      42.613  24.803  37.132  1.00  0.00    -0.352 N 
ATOM      6  O   UNL A   1      40.509  25.602  37.298  1.00  0.00    -0.269 OA
ATOM      7  C   UNL A   1      41.634  25.711  36.818  1.00  0.00     0.251 C 
ATOM      8  H   UNL A   1      42.307  23.979  37.574  1.00  0.00     0.163 HD
BRANCH   7   9
ATOM      9  C   UNL A   1      41.951  26.827  35.903  1.00  0.00     0.039 A 
ATOM     10  C   UNL A   1      42.336  28.069  36.418  1.00  0.00     0.014 A 
ATOM     11  C   UNL A   1      41.871  26.629  34.523  1.00  0.00     0.014 A 
ATOM     12  C   UNL A   1      42.534  29.141  35.558  1.00  0.00     0.010 A 
ATOM     13  C   UNL A   1      42.149  27.689  33.656  1.00  0.00     0.010 A 
ATOM     14  C   UNL A   1      42.468  28.956  34.168  1.00  0.00    -0.014 A 
BRANCH  14  15
ATOM     15  C   UNL A   1      42.829  30.081  33.270  1.00  0.00     0.031 A 
ATOM     16  C   UNL A   1      41.776  30.891  32.569  1.00  0.00     0.074 A 
ATOM     17  C   UNL A   1      44.135  30.375  33.111  1.00  0.00     0.049 A 
ATOM     18  N   UNL A   1      41.929  31.911  31.764  1.00  0.00    -0.248 NA
ATOM     19  C   UNL A   1      40.373  30.508  32.792  1.00  0.00     0.031 C 
ATOM     20  C   UNL A   1      45.244  29.649  33.738  1.00  0.00     0.029 A 
ATOM     21  N   UNL A   1      44.753  31.363  32.390  1.00  0.00    -0.354 N 
ATOM     22  C   UNL A   1      40.650  32.281  31.368  1.00  0.00     0.074 A 
ATOM     23  C   UNL A   1      39.730  31.363  32.008  1.00  0.00     0.031 C 
ATOM     24  C   UNL A   1      46.400  30.244  33.412  1.00  0.00     0.029 A 
ATOM     25  C   UNL A   1      46.122  31.349  32.503  1.00  0.00     0.049 A 
ATOM     26  H   UNL A   1      44.263  32.019  31.844  1.00  0.00     0.167 HD
ATOM     27  C   UNL A   1      40.279  33.294  30.549  1.00  0.00     0.031 A 
ATOM     28  C   UNL A   1      47.059  32.124  31.923  1.00  0.00     0.031 A 
ATOM     29  C   UNL A   1      41.203  34.199  29.914  1.00  0.00     0.049 A 
ATOM     30  C   UNL A   1      46.620  33.220  30.998  1.00  0.00     0.074 A 
ATOM     31  C   UNL A   1      40.924  35.274  29.087  1.00  0.00     0.029 A 
ATOM     32  N   UNL A   1      42.584  34.133  30.028  1.00  0.00    -0.354 N 
ATOM     33  N   UNL A   1      45.401  33.572  30.662  1.00  0.00    -0.248 NA
ATOM     34  C   UNL A   1      47.678  34.022  30.374  1.00  0.00     0.031 C 
ATOM     35  C   UNL A   1      42.137  35.827  28.662  1.00  0.00     0.029 A 
ATOM     36  C   UNL A   1      43.171  35.132  29.271  1.00  0.00     0.049 A 
ATOM     37  H   UNL A   1      43.075  33.473  30.569  1.00  0.00     0.167 HD
ATOM     38  C   UNL A   1      45.547  34.651  29.799  1.00  0.00     0.074 A 
ATOM     39  C   UNL A   1      46.970  34.904  29.682  1.00  0.00     0.031 C 
ATOM     40  C   UNL A   1      44.589  35.366  29.161  1.00  0.00     0.031 A 
BRANCH  27  41
ATOM     41  C   UNL A   1      38.808  33.467  30.266  1.00  0.00    -0.014 A 
ATOM     42  C   UNL A   1      38.229  32.964  29.089  1.00  0.00     0.010 A 
ATOM     43  C   UNL A   1      37.984  34.091  31.221  1.00  0.00     0.010 A 
ATOM     44  C   UNL A   1      36.857  33.113  28.855  1.00  0.00     0.020 A 
ATOM     45  C   UNL A   1      36.609  34.220  31.003  1.00  0.00     0.020 A 
ATOM     46  C   UNL A   1      36.057  33.744  29.812  1.00  0.00     0.054 A 
BRANCH  46  47
ATOM     47  S   UNL A   1      34.278  33.903  29.493  1.00  0.00     0.124 S 
ATOM     48  O   UNL A   1      33.755  34.157  30.834  1.00  0.00    -0.237 OA
ATOM     49  O   UNL A   1      34.218  35.035  28.572  1.00  0.00    -0.237 OA
ATOM     50  O   UNL A   1      33.912  32.612  28.916  1.00  0.00    -0.744 OA
ENDBRANCH  46  47
ENDBRANCH  27  41
BRANCH  28  51
ATOM     51  C   UNL A   1      48.498  31.869  32.197  1.00  0.00    -0.014 A 
ATOM     52  C   UNL A   1      49.183  32.608  33.177  1.00  0.00     0.010 A 
ATOM     53  C   UNL A   1      49.182  30.858  31.496  1.00  0.00     0.010 A 
ATOM     54  C   UNL A   1      50.532  32.351  33.440  1.00  0.00     0.020 A 
ATOM     55  C   UNL A   1      50.521  30.578  31.779  1.00  0.00     0.020 A 
ATOM     56  C   UNL A   1      51.191  31.336  32.741  1.00  0.00     0.054 A 
BRANCH  56  57
ATOM     57  S   UNL A   1      52.925  30.982  33.136  1.00  0.00     0.124 S 
ATOM     58  O   UNL A   1      53.280  30.015  32.102  1.00  0.00    -0.237 OA
ATOM     59  O   UNL A   1      53.551  32.296  33.017  1.00  0.00    -0.237 OA
ATOM     60  O   UNL A   1      52.864  30.451  34.497  1.00  0.00    -0.744 OA
ENDBRANCH  56  57
ENDBRANCH  28  51
BRANCH  40  61
ATOM     61  C   UNL A   1      45.049  36.510  28.301  1.00  0.00    -0.014 A 
ATOM     62  C   UNL A   1      44.983  37.838  28.759  1.00  0.00     0.010 A 
ATOM     63  C   UNL A   1      45.591  36.248  27.029  1.00  0.00     0.010 A 
ATOM     64  C   UNL A   1      45.422  38.886  27.947  1.00  0.00     0.020 A 
ATOM     65  C   UNL A   1      46.056  37.292  26.226  1.00  0.00     0.020 A 
ATOM     66  C   UNL A   1      45.955  38.606  26.685  1.00  0.00     0.054 A 
BRANCH  66  67
ATOM     67  S   UNL A   1      46.556  39.980  25.665  1.00  0.00     0.124 S 
ATOM     68  O   UNL A   1      47.759  40.389  26.387  1.00  0.00    -0.237 OA
ATOM     69  O   UNL A   1      46.786  39.342  24.371  1.00  0.00    -0.237 OA
ATOM     70  O   UNL A   1      45.456  40.940  25.694  1.00  0.00    -0.744 OA
ENDBRANCH  66  67
ENDBRANCH  40  61
ENDBRANCH  14  15
ENDBRANCH   7   9
ENDBRANCH   4   5
ENDBRANCH   3   4
ENDBRANCH   2   3
ENDBRANCH   1   2
BRANCH   1  71
ATOM     71  C   UNL A   1      45.414  26.205  32.192  1.00  0.00     0.021 C 
BRANCH  71  72
ATOM     72  C   UNL A   1      44.385  26.421  31.079  1.00  0.00     0.116 C 
BRANCH  72  73
ATOM     73  N   UNL A   1      44.312  25.227  30.266  1.00  0.00    -0.356 N 
ATOM     74  C   UNL A   1      43.354  24.873  29.367  1.00  0.00     0.223 C 
ATOM     75  H   UNL A   1      45.052  24.588  30.377  1.00  0.00     0.163 HD
ATOM     76  O   UNL A   1      43.226  23.673  29.129  1.00  0.00    -0.275 OA
BRANCH  74  77
ATOM     77  C   UNL A   1      42.541  25.951  28.649  1.00  0.00     0.091 C 
ATOM     78  C   UNL A   1      41.023  25.714  28.650  1.00  0.00     0.014 C 
ATOM     79  C   UNL A   1      43.070  26.134  27.212  1.00  0.00     0.091 C 
ATOM     80  C   UNL A   1      40.303  26.844  27.916  1.00  0.00     0.001 C 
ATOM     81  C   UNL A   1      42.274  27.154  26.385  1.00  0.00     0.014 C 
ATOM     82  C   UNL A   1      40.766  26.923  26.470  1.00  0.00     0.001 C 
BRANCH  79  83
ATOM     83  C   UNL A   1      44.587  26.348  27.056  1.00  0.00     0.228 C 
ATOM     84  O   UNL A   1      45.126  27.289  27.658  1.00  0.00    -0.274 OA
ATOM     85  N   UNL A   1      45.451  25.493  26.434  1.00  0.00    -0.326 N 
ATOM     86  H   UNL A   1      46.375  25.828  26.372  1.00  0.00     0.169 HD
BRANCH  85  87
ATOM     87  C   UNL A   1      45.261  24.232  25.870  1.00  0.00     0.041 A 
ATOM     88  C   UNL A   1      44.384  24.133  24.796  1.00  0.00     0.028 A 
ATOM     89  C   UNL A   1      45.840  23.070  26.357  1.00  0.00     0.028 A 
ATOM     90  C   UNL A   1      44.274  22.934  24.088  1.00  0.00     0.028 A 
ATOM     91  C   UNL A   1      45.776  21.883  25.618  1.00  0.00     0.028 A 
ATOM     92  C   UNL A   1      45.057  21.831  24.421  1.00  0.00     0.041 A 
BRANCH  92  93
ATOM     93  N   UNL A   1      45.188  20.664  23.648  1.00  0.00    -0.319 N 
ATOM     94  C   UNL A   1      44.742  19.367  23.816  1.00  0.00     0.291 C 
ATOM     95  H   UNL A   1      45.702  20.798  22.819  1.00  0.00     0.170 HD
ATOM     96  O   UNL A   1      45.046  18.549  22.946  1.00  0.00    -0.265 OA
BRANCH  94  97
ATOM     97  C   UNL A   1      43.926  19.015  24.951  1.00  0.00     0.191 A 
ATOM     98  C   UNL A   1      44.174  18.255  26.081  1.00  0.00     0.056 A 
ATOM     99  O   UNL A   1      42.632  19.457  24.973  1.00  0.00    -0.459 OA
ATOM    100  C   UNL A   1      42.951  18.189  26.797  1.00  0.00     0.043 A 
ATOM    101  C   UNL A   1      42.051  18.945  26.086  1.00  0.00     0.196 A 
ENDBRANCH  94  97
ENDBRANCH  92  93
ENDBRANCH  85  87
ENDBRANCH  79  83
ENDBRANCH  74  77
ENDBRANCH  72  73
ENDBRANCH  71  72
ENDBRANCH   1  71
TORSDOF 20
ENDMDL
MODEL 3
REMARK VINA RESULT:      -8.4      3.324     11.846
REMARK SMILES O=C(NCCCCCCNC(=O)[C@@H]1CCCC[C@H]1C(=O)Nc1ccc(NC(=O)c2ccco2)cc1)c1ccc(-c2c3nc(c(-c4ccc(S(=O)(=O)[O-])cc4)c4ccc([nH]4)c(-c4ccc(S(=O)(=O)[O-])cc4)c4nc(c(-c5ccc(S(=O)(=O)[O-])cc5)c5ccc2[nH]5)C=C4)C=C3)cc1
REMARK SMILES IDX 7 1 6 2 5 3 4 4 3 5 1 6 2 7 36 9 37 10 95 11 38 12 94 13
REMARK SMILES IDX 39 14 40 15 41 16 88 17 42 18 93 19 87 20 89 21 43 22 92 23
REMARK SMILES IDX 86 24 85 25 44 27 74 28 55 29 73 30 56 31 59 32 72 33 90 34
REMARK SMILES IDX 57 35 58 36 71 38 91 39 60 40 45 41 46 42 54 43 47 44 53 45
REMARK SMILES IDX 48 46 49 47 50 48 51 49 52 50 75 51 76 52 84 53 77 54 83 55
REMARK SMILES IDX 78 56 79 57 80 58 81 59 82 60 61 61 62 62 70 63 63 64 69 65
REMARK SMILES IDX 64 66 65 67 66 68 67 69 68 70 8 71 9 72 10 73 11 74 12 76
REMARK SMILES IDX 13 77 14 78 18 79 15 80 17 81 16 82 19 83 20 84 21 85 22 87
REMARK SMILES IDX 23 88 35 89 24 90 34 91 25 92 26 93 27 94 28 96 29 97 30 98
REMARK SMILES IDX 33 99 31 100 32 101
REMARK H PARENT 3 8 89 26 59 37 10 75 21 86 26 95
REMARK Flexibility Score: inf
ROOT
ATOM      1  C   UNL A   1      37.152  33.042  30.946  1.00  0.00     0.002 C 
ENDROOT
BRANCH   1   2
ATOM      2  C   UNL A   1      36.386  34.008  30.036  1.00  0.00     0.002 C 
BRANCH   2   3
ATOM      3  C   UNL A   1      35.427  33.331  29.055  1.00  0.00     0.021 C 
BRANCH   3   4
ATOM      4  C   UNL A   1      34.671  32.147  29.646  1.00  0.00     0.116 C 
BRANCH   4   5
ATOM      5  N   UNL A   1      34.135  31.285  28.606  1.00  0.00    -0.352 N 
ATOM      6  O   UNL A   1      34.264  29.927  26.808  1.00  0.00    -0.269 OA
ATOM      7  C   UNL A   1      34.809  30.402  27.800  1.00  0.00     0.251 C 
ATOM      8  H   UNL A   1      33.163  31.341  28.461  1.00  0.00     0.163 HD
BRANCH   7   9
ATOM      9  C   UNL A   1      36.201  30.037  28.136  1.00  0.00     0.039 A 
ATOM     10  C   UNL A   1      37.199  30.105  27.160  1.00  0.00     0.014 A 
ATOM     11  C   UNL A   1      36.511  29.632  29.436  1.00  0.00     0.014 A 
ATOM     12  C   UNL A   1      38.482  29.664  27.453  1.00  0.00     0.010 A 
ATOM     13  C   UNL A   1      37.822  29.265  29.751  1.00  0.00     0.010 A 
ATOM     14  C   UNL A   1      38.814  29.264  28.758  1.00  0.00    -0.014 A 
BRANCH  14  15
ATOM     15  C   UNL A   1      40.225  28.940  29.079  1.00  0.00     0.031 A 
ATOM     16  C   UNL A   1      41.122  29.936  29.756  1.00  0.00     0.074 A 
ATOM     17  C   UNL A   1      40.685  27.713  28.762  1.00  0.00     0.049 A 
ATOM     18  N   UNL A   1      42.374  29.800  30.114  1.00  0.00    -0.248 NA
ATOM     19  C   UNL A   1      40.548  31.255  30.068  1.00  0.00     0.031 C 
ATOM     20  C   UNL A   1      39.903  26.667  28.094  1.00  0.00     0.029 A 
ATOM     21  N   UNL A   1      41.907  27.129  28.968  1.00  0.00    -0.354 N 
ATOM     22  C   UNL A   1      42.745  31.016  30.675  1.00  0.00     0.074 A 
ATOM     23  C   UNL A   1      41.591  31.887  30.593  1.00  0.00     0.031 C 
ATOM     24  C   UNL A   1      40.648  25.558  27.989  1.00  0.00     0.029 A 
ATOM     25  C   UNL A   1      41.979  25.833  28.518  1.00  0.00     0.049 A 
ATOM     26  H   UNL A   1      42.661  27.594  29.397  1.00  0.00     0.167 HD
ATOM     27  C   UNL A   1      43.938  31.370  31.210  1.00  0.00     0.031 A 
ATOM     28  C   UNL A   1      43.005  24.962  28.510  1.00  0.00     0.031 A 
ATOM     29  C   UNL A   1      45.083  30.497  31.282  1.00  0.00     0.049 A 
ATOM     30  C   UNL A   1      44.323  25.391  29.083  1.00  0.00     0.074 A 
ATOM     31  C   UNL A   1      46.328  30.755  31.829  1.00  0.00     0.029 A 
ATOM     32  N   UNL A   1      45.125  29.202  30.787  1.00  0.00    -0.354 N 
ATOM     33  N   UNL A   1      44.644  26.537  29.637  1.00  0.00    -0.248 NA
ATOM     34  C   UNL A   1      45.417  24.415  29.031  1.00  0.00     0.031 C 
ATOM     35  C   UNL A   1      47.138  29.633  31.620  1.00  0.00     0.029 A 
ATOM     36  C   UNL A   1      46.380  28.655  30.995  1.00  0.00     0.049 A 
ATOM     37  H   UNL A   1      44.372  28.738  30.352  1.00  0.00     0.167 HD
ATOM     38  C   UNL A   1      45.974  26.411  30.016  1.00  0.00     0.074 A 
ATOM     39  C   UNL A   1      46.391  25.073  29.645  1.00  0.00     0.031 C 
ATOM     40  C   UNL A   1      46.778  27.323  30.614  1.00  0.00     0.031 A 
BRANCH  27  41
ATOM     41  C   UNL A   1      44.082  32.775  31.739  1.00  0.00    -0.014 A 
ATOM     42  C   UNL A   1      43.857  33.069  33.094  1.00  0.00     0.010 A 
ATOM     43  C   UNL A   1      44.505  33.803  30.877  1.00  0.00     0.010 A 
ATOM     44  C   UNL A   1      44.017  34.374  33.571  1.00  0.00     0.020 A 
ATOM     45  C   UNL A   1      44.690  35.104  31.354  1.00  0.00     0.020 A 
ATOM     46  C   UNL A   1      44.430  35.384  32.697  1.00  0.00     0.054 A 
BRANCH  46  47
ATOM     47  S   UNL A   1      44.652  37.063  33.348  1.00  0.00     0.124 S 
ATOM     48  O   UNL A   1      45.276  37.744  32.215  1.00  0.00    -0.237 OA
ATOM     49  O   UNL A   1      43.283  37.474  33.649  1.00  0.00    -0.237 OA
ATOM     50  O   UNL A   1      45.515  36.874  34.512  1.00  0.00    -0.744 OA
ENDBRANCH  46  47
ENDBRANCH  27  41
BRANCH  28  51
ATOM     51  C   UNL A   1      42.819  23.608  27.923  1.00  0.00    -0.014 A 
ATOM     52  C   UNL A   1      42.123  22.611  28.628  1.00  0.00     0.010 A 
ATOM     53  C   UNL A   1      43.312  23.322  26.637  1.00  0.00     0.010 A 
ATOM     54  C   UNL A   1      41.936  21.347  28.062  1.00  0.00     0.020 A 
ATOM     55  C   UNL A   1      43.101  22.069  26.057  1.00  0.00     0.020 A 
ATOM     56  C   UNL A   1      42.425  21.085  26.779  1.00  0.00     0.054 A 
BRANCH  56  57
ATOM     57  S   UNL A   1      42.125  19.455  26.041  1.00  0.00     0.124 S 
ATOM     58  O   UNL A   1      40.677  19.465  25.864  1.00  0.00    -0.237 OA
ATOM     59  O   UNL A   1      42.914  19.514  24.814  1.00  0.00    -0.237 OA
ATOM     60  O   UNL A   1      42.628  18.525  27.051  1.00  0.00    -0.744 OA
ENDBRANCH  56  57
ENDBRANCH  28  51
BRANCH  40  61
ATOM     61  C   UNL A   1      48.183  26.892  30.934  1.00  0.00    -0.014 A 
ATOM     62  C   UNL A   1      49.238  27.118  30.031  1.00  0.00     0.010 A 
ATOM     63  C   UNL A   1      48.457  26.285  32.173  1.00  0.00     0.010 A 
ATOM     64  C   UNL A   1      50.537  26.717  30.350  1.00  0.00     0.020 A 
ATOM     65  C   UNL A   1      49.760  25.907  32.506  1.00  0.00     0.020 A 
ATOM     66  C   UNL A   1      50.789  26.113  31.586  1.00  0.00     0.054 A 
BRANCH  66  67
ATOM     67  S   UNL A   1      52.491  25.637  31.995  1.00  0.00     0.124 S 
ATOM     68  O   UNL A   1      52.764  26.467  33.166  1.00  0.00    -0.237 OA
ATOM     69  O   UNL A   1      52.369  24.204  32.255  1.00  0.00    -0.237 OA
ATOM     70  O   UNL A   1      53.246  25.984  30.794  1.00  0.00    -0.744 OA
ENDBRANCH  66  67
ENDBRANCH  40  61
ENDBRANCH  14  15
ENDBRANCH   7   9
ENDBRANCH   4   5
ENDBRANCH   3   4
ENDBRANCH   2   3
ENDBRANCH   1   2
BRANCH   1  71
ATOM     71  C   UNL A   1      37.519  33.615  32.322  1.00  0.00     0.021 C 
BRANCH  71  72
ATOM     72  C   UNL A   1      38.983  33.385  32.704  1.00  0.00     0.116 C 
BRANCH  72  73
ATOM     73  N   UNL A   1      39.041  32.809  34.029  1.00  0.00    -0.356 N 
ATOM     74  C   UNL A   1      38.748  31.537  34.413  1.00  0.00     0.223 C 
ATOM     75  H   UNL A   1      39.329  33.417  34.747  1.00  0.00     0.163 HD
ATOM     76  O   UNL A   1      38.424  31.367  35.587  1.00  0.00    -0.275 OA
BRANCH  74  77
ATOM     77  C   UNL A   1      38.899  30.383  33.420  1.00  0.00     0.091 C 
ATOM     78  C   UNL A   1      37.645  29.513  33.256  1.00  0.00     0.014 C 
ATOM     79  C   UNL A   1      40.122  29.524  33.800  1.00  0.00     0.091 C 
ATOM     80  C   UNL A   1      37.894  28.396  32.244  1.00  0.00     0.001 C 
ATOM     81  C   UNL A   1      40.321  28.298  32.896  1.00  0.00     0.014 C 
ATOM     82  C   UNL A   1      39.032  27.500  32.705  1.00  0.00     0.001 C 
BRANCH  79  83
ATOM     83  C   UNL A   1      41.448  30.272  34.029  1.00  0.00     0.228 C 
ATOM     84  O   UNL A   1      41.424  31.501  34.198  1.00  0.00    -0.274 OA
ATOM     85  N   UNL A   1      42.666  29.688  34.231  1.00  0.00    -0.326 N 
ATOM     86  H   UNL A   1      43.414  30.327  34.293  1.00  0.00     0.169 HD
BRANCH  85  87
ATOM     87  C   UNL A   1      43.042  28.352  34.365  1.00  0.00     0.041 A 
ATOM     88  C   UNL A   1      42.751  27.721  35.568  1.00  0.00     0.028 A 
ATOM     89  C   UNL A   1      43.742  27.643  33.400  1.00  0.00     0.028 A 
ATOM     90  C   UNL A   1      42.955  26.345  35.706  1.00  0.00     0.028 A 
ATOM     91  C   UNL A   1      43.896  26.257  33.513  1.00  0.00     0.028 A 
ATOM     92  C   UNL A   1      43.420  25.580  34.639  1.00  0.00     0.041 A 
BRANCH  92  93
ATOM     93  N   UNL A   1      43.449  24.175  34.598  1.00  0.00    -0.319 N 
ATOM     94  C   UNL A   1      44.422  23.242  34.904  1.00  0.00     0.291 C 
ATOM     95  H   UNL A   1      42.605  23.774  34.287  1.00  0.00     0.170 HD
ATOM     96  O   UNL A   1      44.136  22.055  34.741  1.00  0.00    -0.265 OA
BRANCH  94  97
ATOM     97  C   UNL A   1      45.699  23.662  35.427  1.00  0.00     0.191 A 
ATOM     98  C   UNL A   1      46.151  23.896  36.714  1.00  0.00     0.056 A 
ATOM     99  O   UNL A   1      46.701  23.928  34.535  1.00  0.00    -0.459 OA
ATOM    100  C   UNL A   1      47.478  24.381  36.591  1.00  0.00     0.043 A 
ATOM    101  C   UNL A   1      47.767  24.370  35.248  1.00  0.00     0.196 A 
ENDBRANCH  94  97
ENDBRANCH  92  93
ENDBRANCH  85  87
ENDBRANCH  79  83
ENDBRANCH  74  77
ENDBRANCH  72  73
ENDBRANCH  71  72
ENDBRANCH   1  71
TORSDOF 20
ENDMDL
