MODEL 1
REMARK VINA RESULT:     -11.1      0.000      0.000
REMARK SMILES Cc1ccc(Cl)c(Nc2ccccc2C(=O)N[C@@H](C)C(=O)NCCCCCCNC(=O)c2ccc(-c3c4nc(c(-c5ccc(S(=O)(=O)[O-])cc5)c5ccc([nH]5)c(-c5ccc(S(=O)(=O)[O-])cc5)c5nc(c(-c6ccc(S(=O)(=O)[O-])cc6)c6ccc3[nH]6)C=C5)C=C4)cc2)c1Cl
REMARK SMILES IDX 25 1 24 2 23 3 22 4 20 5 21 6 18 8 19 9 17 10 15 11 16 12
REMARK SMILES IDX 14 14 9 15 10 16 11 17 13 18 12 19 8 20 7 22 1 23 2 24 3 25
REMARK SMILES IDX 92 26 4 27 93 28 5 29 6 30 26 31 27 32 28 33 29 34 30 35
REMARK SMILES IDX 31 37 32 38 33 39 91 40 34 41 90 42 35 43 36 44 37 45 84 46
REMARK SMILES IDX 38 47 89 48 83 49 85 50 39 51 88 52 82 53 81 54 40 56 70 57
REMARK SMILES IDX 51 58 69 59 52 60 55 61 68 62 86 63 53 64 54 65 67 67 87 68
REMARK SMILES IDX 56 69 41 70 42 71 50 72 43 73 49 74 44 75 45 76 46 77 47 78
REMARK SMILES IDX 48 79 71 80 72 81 80 82 73 83 79 84 74 85 75 86 76 87 77 88
REMARK SMILES IDX 78 89 57 90 58 91 66 92 59 93 65 94 60 95 61 96 62 97 63 98
REMARK SMILES IDX 64 99
REMARK H PARENT 22 7 17 13 8 21 29 36 85 55 55 66
REMARK Flexibility Score: inf
ROOT
ATOM      1  C   UNL A   1      34.181  32.766  28.315  1.00  0.00     0.002 C 
ENDROOT
BRANCH   1   2
ATOM      2  C   UNL A   1      35.094  31.682  27.726  1.00  0.00     0.021 C 
BRANCH   2   3
ATOM      3  C   UNL A   1      34.468  30.286  27.606  1.00  0.00     0.116 C 
BRANCH   3   4
ATOM      4  N   UNL A   1      33.153  30.312  27.002  1.00  0.00    -0.354 N 
ATOM      5  C   UNL A   1      32.943  29.406  26.003  1.00  0.00     0.242 C 
ATOM      6  O   UNL A   1      33.337  29.706  24.877  1.00  0.00    -0.273 OA
ATOM      7  H   UNL A   1      32.455  30.943  27.293  1.00  0.00     0.163 HD
BRANCH   5   8
ATOM      8  C   UNL A   1      32.273  28.056  26.340  1.00  0.00     0.168 C 
ATOM      9  C   UNL A   1      31.393  28.045  27.580  1.00  0.00     0.041 C 
BRANCH   8  10
ATOM     10  N   UNL A   1      33.396  27.140  26.436  1.00  0.00    -0.340 N 
ATOM     11  C   UNL A   1      33.599  26.011  25.672  1.00  0.00     0.254 C 
ATOM     12  O   UNL A   1      34.763  25.800  25.314  1.00  0.00    -0.269 OA
ATOM     13  H   UNL A   1      34.078  27.345  27.116  1.00  0.00     0.164 HD
BRANCH  11  14
ATOM     14  C   UNL A   1      32.590  24.913  25.522  1.00  0.00     0.063 A 
ATOM     15  C   UNL A   1      31.492  24.767  24.647  1.00  0.00     0.051 A 
ATOM     16  C   UNL A   1      30.624  23.666  24.854  1.00  0.00     0.027 A 
ATOM     17  C   UNL A   1      30.863  22.692  25.821  1.00  0.00     0.002 A 
ATOM     18  C   UNL A   1      32.824  23.893  26.481  1.00  0.00     0.016 A 
ATOM     19  C   UNL A   1      31.984  22.791  26.621  1.00  0.00     0.001 A 
BRANCH  15  20
ATOM     20  N   UNL A   1      31.177  25.522  23.499  1.00  0.00    -0.352 N 
ATOM     21  H   UNL A   1      31.300  25.017  22.664  1.00  0.00     0.167 HD
BRANCH  20  22
ATOM     22  C   UNL A   1      30.721  26.849  23.279  1.00  0.00     0.077 A 
ATOM     23  C   UNL A   1      27.519  28.915  22.870  1.00  0.00     0.046 C 
ATOM     24  C   UNL A   1      28.979  28.551  22.940  1.00  0.00    -0.030 A 
ATOM     25  C   UNL A   1      29.918  29.411  22.352  1.00  0.00     0.006 A 
ATOM     26  C   UNL A   1      29.397  27.301  23.462  1.00  0.00     0.069 A 
ATOM     27  C   UNL A   1      31.252  29.034  22.261  1.00  0.00     0.023 A 
ATOM     28  Cl  UNL A   1      28.249  26.381  24.389  1.00  0.00    -0.082 Cl
ATOM     29  C   UNL A   1      31.638  27.766  22.700  1.00  0.00     0.066 A 
ATOM     30  Cl  UNL A   1      33.297  27.315  22.446  1.00  0.00    -0.082 Cl
ENDBRANCH  20  22
ENDBRANCH  15  20
ENDBRANCH  11  14
ENDBRANCH   8  10
ENDBRANCH   5   8
ENDBRANCH   3   4
ENDBRANCH   2   3
ENDBRANCH   1   2
BRANCH   1  31
ATOM     31  C   UNL A   1      34.893  33.874  29.096  1.00  0.00     0.002 C 
BRANCH  31  32
ATOM     32  C   UNL A   1      36.415  33.759  29.145  1.00  0.00     0.021 C 
BRANCH  32  33
ATOM     33  C   UNL A   1      36.981  33.435  30.517  1.00  0.00     0.116 C 
BRANCH  33  34
ATOM     34  N   UNL A   1      36.318  32.300  31.124  1.00  0.00    -0.352 N 
ATOM     35  C   UNL A   1      36.701  30.980  31.080  1.00  0.00     0.251 C 
ATOM     36  H   UNL A   1      35.495  32.497  31.628  1.00  0.00     0.163 HD
ATOM     37  O   UNL A   1      35.944  30.101  31.464  1.00  0.00    -0.269 OA
BRANCH  35  38
ATOM     38  C   UNL A   1      38.033  30.644  30.527  1.00  0.00     0.039 A 
ATOM     39  C   UNL A   1      39.094  30.434  31.408  1.00  0.00     0.014 A 
ATOM     40  C   UNL A   1      38.219  30.500  29.147  1.00  0.00     0.014 A 
ATOM     41  C   UNL A   1      40.337  30.044  30.905  1.00  0.00     0.010 A 
ATOM     42  C   UNL A   1      39.432  30.025  28.658  1.00  0.00     0.010 A 
ATOM     43  C   UNL A   1      40.511  29.813  29.529  1.00  0.00    -0.014 A 
BRANCH  43  44
ATOM     44  C   UNL A   1      41.825  29.381  28.989  1.00  0.00     0.031 A 
ATOM     45  C   UNL A   1      42.955  30.371  28.876  1.00  0.00     0.074 A 
ATOM     46  C   UNL A   1      41.996  28.109  28.576  1.00  0.00     0.049 A 
ATOM     47  N   UNL A   1      44.173  30.185  28.435  1.00  0.00    -0.248 NA
ATOM     48  C   UNL A   1      42.676  31.757  29.290  1.00  0.00     0.031 C 
ATOM     49  C   UNL A   1      40.967  27.067  28.593  1.00  0.00     0.029 A 
ATOM     50  N   UNL A   1      43.101  27.474  28.065  1.00  0.00    -0.354 N 
ATOM     51  C   UNL A   1      44.796  31.426  28.507  1.00  0.00     0.074 A 
ATOM     52  C   UNL A   1      43.807  32.370  28.974  1.00  0.00     0.031 C 
ATOM     53  C   UNL A   1      41.498  25.916  28.152  1.00  0.00     0.029 A 
ATOM     54  C   UNL A   1      42.892  26.144  27.782  1.00  0.00     0.049 A 
ATOM     55  H   UNL A   1      43.962  27.928  27.915  1.00  0.00     0.167 HD
ATOM     56  C   UNL A   1      46.082  31.748  28.233  1.00  0.00     0.031 A 
ATOM     57  C   UNL A   1      43.727  25.214  27.281  1.00  0.00     0.031 A 
ATOM     58  C   UNL A   1      47.066  30.804  27.775  1.00  0.00     0.049 A 
ATOM     59  C   UNL A   1      45.149  25.597  26.971  1.00  0.00     0.074 A 
ATOM     60  C   UNL A   1      48.410  31.017  27.522  1.00  0.00     0.029 A 
ATOM     61  N   UNL A   1      46.814  29.468  27.499  1.00  0.00    -0.354 N 
ATOM     62  N   UNL A   1      45.738  26.761  27.117  1.00  0.00    -0.248 NA
ATOM     63  C   UNL A   1      46.022  24.540  26.445  1.00  0.00     0.031 C 
ATOM     64  C   UNL A   1      48.955  29.826  27.031  1.00  0.00     0.029 A 
ATOM     65  C   UNL A   1      47.969  28.852  27.049  1.00  0.00     0.049 A 
ATOM     66  H   UNL A   1      45.942  29.024  27.607  1.00  0.00     0.167 HD
ATOM     67  C   UNL A   1      47.059  26.567  26.727  1.00  0.00     0.074 A 
ATOM     68  C   UNL A   1      47.184  25.171  26.358  1.00  0.00     0.031 C 
ATOM     69  C   UNL A   1      48.077  27.463  26.682  1.00  0.00     0.031 A 
BRANCH  56  70
ATOM     70  C   UNL A   1      46.496  33.187  28.414  1.00  0.00    -0.014 A 
ATOM     71  C   UNL A   1      46.382  34.116  27.362  1.00  0.00     0.010 A 
ATOM     72  C   UNL A   1      46.970  33.626  29.663  1.00  0.00     0.010 A 
ATOM     73  C   UNL A   1      46.775  35.445  27.545  1.00  0.00     0.020 A 
ATOM     74  C   UNL A   1      47.333  34.961  29.860  1.00  0.00     0.020 A 
ATOM     75  C   UNL A   1      47.249  35.859  28.793  1.00  0.00     0.054 A 
BRANCH  75  76
ATOM     76  S   UNL A   1      47.726  37.595  29.008  1.00  0.00     0.124 S 
ATOM     77  O   UNL A   1      46.446  38.281  28.851  1.00  0.00    -0.237 OA
ATOM     78  O   UNL A   1      48.284  37.608  30.357  1.00  0.00    -0.237 OA
ATOM     79  O   UNL A   1      48.690  37.827  27.935  1.00  0.00    -0.744 OA
ENDBRANCH  75  76
ENDBRANCH  56  70
BRANCH  57  80
ATOM     80  C   UNL A   1      43.242  23.823  27.054  1.00  0.00    -0.014 A 
ATOM     81  C   UNL A   1      42.873  23.390  25.768  1.00  0.00     0.010 A 
ATOM     82  C   UNL A   1      43.158  22.917  28.129  1.00  0.00     0.010 A 
ATOM     83  C   UNL A   1      42.411  22.086  25.564  1.00  0.00     0.020 A 
ATOM     84  C   UNL A   1      42.727  21.604  27.922  1.00  0.00     0.020 A 
ATOM     85  C   UNL A   1      42.345  21.200  26.643  1.00  0.00     0.054 A 
BRANCH  85  86
ATOM     86  S   UNL A   1      41.791  19.498  26.343  1.00  0.00     0.124 S 
ATOM     87  O   UNL A   1      42.229  18.818  27.557  1.00  0.00    -0.237 OA
ATOM     88  O   UNL A   1      40.348  19.660  26.192  1.00  0.00    -0.237 OA
ATOM     89  O   UNL A   1      42.499  19.119  25.122  1.00  0.00    -0.744 OA
ENDBRANCH  85  86
ENDBRANCH  57  80
BRANCH  69  90
ATOM     90  C   UNL A   1      49.429  26.955  26.251  1.00  0.00    -0.014 A 
ATOM     91  C   UNL A   1      49.823  26.973  24.901  1.00  0.00     0.010 A 
ATOM     92  C   UNL A   1      50.339  26.500  27.224  1.00  0.00     0.010 A 
ATOM     93  C   UNL A   1      51.088  26.509  24.529  1.00  0.00     0.020 A 
ATOM     94  C   UNL A   1      51.615  26.067  26.859  1.00  0.00     0.020 A 
ATOM     95  C   UNL A   1      51.976  26.059  25.512  1.00  0.00     0.054 A 
BRANCH  95  96
ATOM     96  S   UNL A   1      53.625  25.497  25.006  1.00  0.00     0.124 S 
ATOM     97  O   UNL A   1      53.565  24.070  25.310  1.00  0.00    -0.237 OA
ATOM     98  O   UNL A   1      53.656  25.836  23.585  1.00  0.00    -0.237 OA
ATOM     99  O   UNL A   1      54.531  26.276  25.846  1.00  0.00    -0.744 OA
ENDBRANCH  95  96
ENDBRANCH  69  90
ENDBRANCH  43  44
ENDBRANCH  35  38
ENDBRANCH  33  34
ENDBRANCH  32  33
ENDBRANCH  31  32
ENDBRANCH   1  31
TORSDOF 20
ENDMDL
MODEL 2
REMARK VINA RESULT:     -11.0      4.589      7.383
REMARK SMILES Cc1ccc(Cl)c(Nc2ccccc2C(=O)N[C@@H](C)C(=O)NCCCCCCNC(=O)c2ccc(-c3c4nc(c(-c5ccc(S(=O)(=O)[O-])cc5)c5ccc([nH]5)c(-c5ccc(S(=O)(=O)[O-])cc5)c5nc(c(-c6ccc(S(=O)(=O)[O-])cc6)c6ccc3[nH]6)C=C5)C=C4)cc2)c1Cl
REMARK SMILES IDX 25 1 24 2 23 3 22 4 20 5 21 6 18 8 19 9 17 10 15 11 16 12
REMARK SMILES IDX 14 14 9 15 10 16 11 17 13 18 12 19 8 20 7 22 1 23 2 24 3 25
REMARK SMILES IDX 92 26 4 27 93 28 5 29 6 30 26 31 27 32 28 33 29 34 30 35
REMARK SMILES IDX 31 37 32 38 33 39 91 40 34 41 90 42 35 43 36 44 37 45 84 46
REMARK SMILES IDX 38 47 89 48 83 49 85 50 39 51 88 52 82 53 81 54 40 56 70 57
REMARK SMILES IDX 51 58 69 59 52 60 55 61 68 62 86 63 53 64 54 65 67 67 87 68
REMARK SMILES IDX 56 69 41 70 42 71 50 72 43 73 49 74 44 75 45 76 46 77 47 78
REMARK SMILES IDX 48 79 71 80 72 81 80 82 73 83 79 84 74 85 75 86 76 87 77 88
REMARK SMILES IDX 78 89 57 90 58 91 66 92 59 93 65 94 60 95 61 96 62 97 63 98
REMARK SMILES IDX 64 99
REMARK H PARENT 22 7 17 13 8 21 29 36 85 55 55 66
REMARK Flexibility Score: inf
ROOT
ATOM      1  C   UNL A   1      34.138  35.050  29.457  1.00  0.00     0.002 C 
ENDROOT
BRANCH   1   2
ATOM      2  C   UNL A   1      32.867  35.559  30.152  1.00  0.00     0.021 C 
BRANCH   2   3
ATOM      3  C   UNL A   1      33.093  36.297  31.479  1.00  0.00     0.116 C 
BRANCH   3   4
ATOM      4  N   UNL A   1      34.483  36.322  31.878  1.00  0.00    -0.354 N 
ATOM      5  C   UNL A   1      34.812  35.514  32.927  1.00  0.00     0.242 C 
ATOM      6  O   UNL A   1      34.601  35.945  34.059  1.00  0.00    -0.273 OA
ATOM      7  H   UNL A   1      35.149  36.886  31.422  1.00  0.00     0.163 HD
BRANCH   5   8
ATOM      8  C   UNL A   1      35.380  34.106  32.643  1.00  0.00     0.168 C 
ATOM      9  C   UNL A   1      34.405  32.952  32.812  1.00  0.00     0.041 C 
BRANCH   8  10
ATOM     10  N   UNL A   1      36.519  34.017  33.539  1.00  0.00    -0.340 N 
ATOM     11  C   UNL A   1      37.774  34.545  33.324  1.00  0.00     0.254 C 
ATOM     12  O   UNL A   1      38.326  35.052  34.306  1.00  0.00    -0.269 OA
ATOM     13  H   UNL A   1      36.382  33.531  34.384  1.00  0.00     0.164 HD
BRANCH  11  14
ATOM     14  C   UNL A   1      38.593  34.274  32.099  1.00  0.00     0.063 A 
ATOM     15  C   UNL A   1      39.969  34.003  31.936  1.00  0.00     0.051 A 
ATOM     16  C   UNL A   1      40.479  33.936  30.615  1.00  0.00     0.027 A 
ATOM     17  C   UNL A   1      39.664  34.042  29.489  1.00  0.00     0.002 A 
ATOM     18  C   UNL A   1      37.783  34.351  30.936  1.00  0.00     0.016 A 
ATOM     19  C   UNL A   1      38.304  34.223  29.650  1.00  0.00     0.001 A 
BRANCH  15  20
ATOM     20  N   UNL A   1      40.923  33.679  32.922  1.00  0.00    -0.352 N 
ATOM     21  H   UNL A   1      41.076  34.411  33.561  1.00  0.00     0.167 HD
BRANCH  20  22
ATOM     22  C   UNL A   1      41.712  32.531  33.199  1.00  0.00     0.077 A 
ATOM     23  C   UNL A   1      44.877  30.693  32.063  1.00  0.00     0.046 C 
ATOM     24  C   UNL A   1      43.611  31.018  32.812  1.00  0.00    -0.030 A 
ATOM     25  C   UNL A   1      42.941  29.986  33.484  1.00  0.00     0.006 A 
ATOM     26  C   UNL A   1      43.024  32.306  32.730  1.00  0.00     0.069 A 
ATOM     27  C   UNL A   1      41.694  30.215  34.054  1.00  0.00     0.023 A 
ATOM     28  Cl  UNL A   1      43.993  33.605  32.100  1.00  0.00    -0.082 Cl
ATOM     29  C   UNL A   1      41.086  31.462  33.894  1.00  0.00     0.066 A 
ATOM     30  Cl  UNL A   1      39.477  31.642  34.527  1.00  0.00    -0.082 Cl
ENDBRANCH  20  22
ENDBRANCH  15  20
ENDBRANCH  11  14
ENDBRANCH   8  10
ENDBRANCH   5   8
ENDBRANCH   3   4
ENDBRANCH   2   3
ENDBRANCH   1   2
BRANCH   1  31
ATOM     31  C   UNL A   1      34.116  33.577  29.043  1.00  0.00     0.002 C 
BRANCH  31  32
ATOM     32  C   UNL A   1      35.215  33.158  28.068  1.00  0.00     0.021 C 
BRANCH  32  33
ATOM     33  C   UNL A   1      35.865  31.822  28.383  1.00  0.00     0.116 C 
BRANCH  33  34
ATOM     34  N   UNL A   1      35.655  31.427  29.760  1.00  0.00    -0.352 N 
ATOM     35  C   UNL A   1      36.482  30.665  30.551  1.00  0.00     0.251 C 
ATOM     36  H   UNL A   1      34.822  31.744  30.180  1.00  0.00     0.163 HD
ATOM     37  O   UNL A   1      36.090  30.239  31.628  1.00  0.00    -0.269 OA
BRANCH  35  38
ATOM     38  C   UNL A   1      37.839  30.340  30.057  1.00  0.00     0.039 A 
ATOM     39  C   UNL A   1      38.924  30.488  30.922  1.00  0.00     0.014 A 
ATOM     40  C   UNL A   1      38.031  29.857  28.757  1.00  0.00     0.014 A 
ATOM     41  C   UNL A   1      40.199  30.116  30.492  1.00  0.00     0.010 A 
ATOM     42  C   UNL A   1      39.287  29.403  28.366  1.00  0.00     0.010 A 
ATOM     43  C   UNL A   1      40.389  29.548  29.221  1.00  0.00    -0.014 A 
BRANCH  43  44
ATOM     44  C   UNL A   1      41.740  29.134  28.764  1.00  0.00     0.031 A 
ATOM     45  C   UNL A   1      42.860  30.140  28.715  1.00  0.00     0.074 A 
ATOM     46  C   UNL A   1      41.955  27.863  28.370  1.00  0.00     0.049 A 
ATOM     47  N   UNL A   1      44.105  29.971  28.351  1.00  0.00    -0.248 NA
ATOM     48  C   UNL A   1      42.535  31.523  29.103  1.00  0.00     0.031 C 
ATOM     49  C   UNL A   1      40.942  26.805  28.329  1.00  0.00     0.029 A 
ATOM     50  N   UNL A   1      43.098  27.242  27.931  1.00  0.00    -0.354 N 
ATOM     51  C   UNL A   1      44.705  31.221  28.454  1.00  0.00     0.074 A 
ATOM     52  C   UNL A   1      43.674  32.152  28.854  1.00  0.00     0.031 C 
ATOM     53  C   UNL A   1      41.517  25.661  27.929  1.00  0.00     0.029 A 
ATOM     54  C   UNL A   1      42.927  25.908  27.643  1.00  0.00     0.049 A 
ATOM     55  H   UNL A   1      43.960  27.708  27.832  1.00  0.00     0.167 HD
ATOM     56  C   UNL A   1      46.000  31.562  28.257  1.00  0.00     0.031 A 
ATOM     57  C   UNL A   1      43.805  24.988  27.200  1.00  0.00     0.031 A 
ATOM     58  C   UNL A   1      47.024  30.630  27.866  1.00  0.00     0.049 A 
ATOM     59  C   UNL A   1      45.237  25.391  26.975  1.00  0.00     0.074 A 
ATOM     60  C   UNL A   1      48.377  30.862  27.694  1.00  0.00     0.029 A 
ATOM     61  N   UNL A   1      46.809  29.289  27.582  1.00  0.00    -0.354 N 
ATOM     62  N   UNL A   1      45.799  26.565  27.151  1.00  0.00    -0.248 NA
ATOM     63  C   UNL A   1      46.157  24.345  26.510  1.00  0.00     0.031 C 
ATOM     64  C   UNL A   1      48.969  29.677  27.244  1.00  0.00     0.029 A 
ATOM     65  C   UNL A   1      47.998  28.688  27.207  1.00  0.00     0.049 A 
ATOM     66  H   UNL A   1      45.938  28.833  27.639  1.00  0.00     0.167 HD
ATOM     67  C   UNL A   1      47.144  26.388  26.843  1.00  0.00     0.074 A 
ATOM     68  C   UNL A   1      47.312  24.993  26.491  1.00  0.00     0.031 C 
ATOM     69  C   UNL A   1      48.150  27.299  26.855  1.00  0.00     0.031 A 
BRANCH  56  70
ATOM     70  C   UNL A   1      46.380  33.007  28.454  1.00  0.00    -0.014 A 
ATOM     71  C   UNL A   1      46.267  33.940  27.407  1.00  0.00     0.010 A 
ATOM     72  C   UNL A   1      46.821  33.448  29.715  1.00  0.00     0.010 A 
ATOM     73  C   UNL A   1      46.629  35.277  27.605  1.00  0.00     0.020 A 
ATOM     74  C   UNL A   1      47.153  34.789  29.927  1.00  0.00     0.020 A 
ATOM     75  C   UNL A   1      47.071  35.692  28.864  1.00  0.00     0.054 A 
BRANCH  75  76
ATOM     76  S   UNL A   1      47.508  37.436  29.099  1.00  0.00     0.124 S 
ATOM     77  O   UNL A   1      47.486  37.559  30.554  1.00  0.00    -0.237 OA
ATOM     78  O   UNL A   1      48.829  37.520  28.482  1.00  0.00    -0.237 OA
ATOM     79  O   UNL A   1      46.449  38.158  28.398  1.00  0.00    -0.744 OA
ENDBRANCH  75  76
ENDBRANCH  56  70
BRANCH  57  80
ATOM     80  C   UNL A   1      43.355  23.589  26.952  1.00  0.00    -0.014 A 
ATOM     81  C   UNL A   1      43.195  22.685  28.018  1.00  0.00     0.010 A 
ATOM     82  C   UNL A   1      43.073  23.155  25.642  1.00  0.00     0.010 A 
ATOM     83  C   UNL A   1      42.781  21.371  27.777  1.00  0.00     0.020 A 
ATOM     84  C   UNL A   1      42.629  21.852  25.402  1.00  0.00     0.020 A 
ATOM     85  C   UNL A   1      42.496  20.965  26.470  1.00  0.00     0.054 A 
BRANCH  85  86
ATOM     86  S   UNL A   1      41.911  19.270  26.189  1.00  0.00     0.124 S 
ATOM     87  O   UNL A   1      42.718  18.855  25.047  1.00  0.00    -0.237 OA
ATOM     88  O   UNL A   1      42.222  18.617  27.458  1.00  0.00    -0.237 OA
ATOM     89  O   UNL A   1      40.485  19.442  25.920  1.00  0.00    -0.744 OA
ENDBRANCH  85  86
ENDBRANCH  57  80
BRANCH  69  90
ATOM     90  C   UNL A   1      49.533  26.811  26.511  1.00  0.00    -0.014 A 
ATOM     91  C   UNL A   1      50.386  26.272  27.491  1.00  0.00     0.010 A 
ATOM     92  C   UNL A   1      49.964  26.846  25.172  1.00  0.00     0.010 A 
ATOM     93  C   UNL A   1      51.659  25.813  27.143  1.00  0.00     0.020 A 
ATOM     94  C   UNL A   1      51.223  26.357  24.815  1.00  0.00     0.020 A 
ATOM     95  C   UNL A   1      52.069  25.859  25.806  1.00  0.00     0.054 A 
BRANCH  95  96
ATOM     96  S   UNL A   1      53.712  25.223  25.376  1.00  0.00     0.124 S 
ATOM     97  O   UNL A   1      53.951  25.850  24.079  1.00  0.00    -0.237 OA
ATOM     98  O   UNL A   1      54.543  25.713  26.473  1.00  0.00    -0.237 OA
ATOM     99  O   UNL A   1      53.526  23.774  25.342  1.00  0.00    -0.744 OA
ENDBRANCH  95  96
ENDBRANCH  69  90
ENDBRANCH  43  44
ENDBRANCH  35  38
ENDBRANCH  33  34
ENDBRANCH  32  33
ENDBRANCH  31  32
ENDBRANCH   1  31
TORSDOF 20
ENDMDL
MODEL 3
REMARK VINA RESULT:     -10.9      3.846      9.863
REMARK SMILES Cc1ccc(Cl)c(Nc2ccccc2C(=O)N[C@@H](C)C(=O)NCCCCCCNC(=O)c2ccc(-c3c4nc(c(-c5ccc(S(=O)(=O)[O-])cc5)c5ccc([nH]5)c(-c5ccc(S(=O)(=O)[O-])cc5)c5nc(c(-c6ccc(S(=O)(=O)[O-])cc6)c6ccc3[nH]6)C=C5)C=C4)cc2)c1Cl
REMARK SMILES IDX 25 1 24 2 23 3 22 4 20 5 21 6 18 8 19 9 17 10 15 11 16 12
REMARK SMILES IDX 14 14 9 15 10 16 11 17 13 18 12 19 8 20 7 22 1 23 2 24 3 25
REMARK SMILES IDX 92 26 4 27 93 28 5 29 6 30 26 31 27 32 28 33 29 34 30 35
REMARK SMILES IDX 31 37 32 38 33 39 91 40 34 41 90 42 35 43 36 44 37 45 84 46
REMARK SMILES IDX 38 47 89 48 83 49 85 50 39 51 88 52 82 53 81 54 40 56 70 57
REMARK SMILES IDX 51 58 69 59 52 60 55 61 68 62 86 63 53 64 54 65 67 67 87 68
REMARK SMILES IDX 56 69 41 70 42 71 50 72 43 73 49 74 44 75 45 76 46 77 47 78
REMARK SMILES IDX 48 79 71 80 72 81 80 82 73 83 79 84 74 85 75 86 76 87 77 88
REMARK SMILES IDX 78 89 57 90 58 91 66 92 59 93 65 94 60 95 61 96 62 97 63 98
REMARK SMILES IDX 64 99
REMARK H PARENT 22 7 17 13 8 21 29 36 85 55 55 66
REMARK Flexibility Score: inf
ROOT
ATOM      1  C   UNL A   1      34.154  22.140  24.543  1.00  0.00     0.002 C 
ENDROOT
BRANCH   1   2
ATOM      2  C   UNL A   1      32.862  22.053  23.720  1.00  0.00     0.021 C 
BRANCH   2   3
ATOM      3  C   UNL A   1      31.972  23.304  23.755  1.00  0.00     0.116 C 
BRANCH   3   4
ATOM      4  N   UNL A   1      31.309  23.483  25.028  1.00  0.00    -0.354 N 
ATOM      5  C   UNL A   1      31.436  24.719  25.592  1.00  0.00     0.242 C 
ATOM      6  O   UNL A   1      32.464  24.946  26.229  1.00  0.00    -0.273 OA
ATOM      7  H   UNL A   1      30.799  22.760  25.460  1.00  0.00     0.163 HD
BRANCH   5   8
ATOM      8  C   UNL A   1      30.324  25.767  25.369  1.00  0.00     0.168 C 
ATOM      9  C   UNL A   1      29.045  25.555  26.164  1.00  0.00     0.041 C 
BRANCH   8  10
ATOM     10  N   UNL A   1      30.108  25.725  23.933  1.00  0.00    -0.340 N 
ATOM     11  C   UNL A   1      30.380  26.735  23.035  1.00  0.00     0.254 C 
ATOM     12  O   UNL A   1      30.861  26.383  21.952  1.00  0.00    -0.269 OA
ATOM     13  H   UNL A   1      29.729  24.894  23.565  1.00  0.00     0.164 HD
BRANCH  11  14
ATOM     14  C   UNL A   1      29.860  28.134  23.171  1.00  0.00     0.063 A 
ATOM     15  C   UNL A   1      30.464  29.311  23.664  1.00  0.00     0.051 A 
ATOM     16  C   UNL A   1      29.650  30.463  23.803  1.00  0.00     0.027 A 
ATOM     17  C   UNL A   1      28.318  30.496  23.396  1.00  0.00     0.002 A 
ATOM     18  C   UNL A   1      28.509  28.203  22.740  1.00  0.00     0.016 A 
ATOM     19  C   UNL A   1      27.752  29.368  22.835  1.00  0.00     0.001 A 
BRANCH  15  20
ATOM     20  N   UNL A   1      31.824  29.546  23.953  1.00  0.00    -0.352 N 
ATOM     21  H   UNL A   1      32.305  29.971  23.207  1.00  0.00     0.167 HD
BRANCH  20  22
ATOM     22  C   UNL A   1      32.654  29.308  25.081  1.00  0.00     0.077 A 
ATOM     23  C   UNL A   1      34.113  31.030  28.178  1.00  0.00     0.046 C 
ATOM     24  C   UNL A   1      33.818  29.980  27.139  1.00  0.00    -0.030 A 
ATOM     25  C   UNL A   1      34.696  28.894  27.010  1.00  0.00     0.006 A 
ATOM     26  C   UNL A   1      32.758  30.144  26.212  1.00  0.00     0.069 A 
ATOM     27  C   UNL A   1      34.544  27.990  25.965  1.00  0.00     0.023 A 
ATOM     28  Cl  UNL A   1      31.562  31.359  26.551  1.00  0.00    -0.082 Cl
ATOM     29  C   UNL A   1      33.551  28.208  25.009  1.00  0.00     0.066 A 
ATOM     30  Cl  UNL A   1      33.494  27.108  23.665  1.00  0.00    -0.082 Cl
ENDBRANCH  20  22
ENDBRANCH  15  20
ENDBRANCH  11  14
ENDBRANCH   8  10
ENDBRANCH   5   8
ENDBRANCH   3   4
ENDBRANCH   2   3
ENDBRANCH   1   2
BRANCH   1  31
ATOM     31  C   UNL A   1      35.226  23.081  23.986  1.00  0.00     0.002 C 
BRANCH  31  32
ATOM     32  C   UNL A   1      35.500  24.326  24.827  1.00  0.00     0.021 C 
BRANCH  32  33
ATOM     33  C   UNL A   1      36.270  24.067  26.110  1.00  0.00     0.116 C 
BRANCH  33  34
ATOM     34  N   UNL A   1      37.227  22.990  25.960  1.00  0.00    -0.352 N 
ATOM     35  C   UNL A   1      38.576  23.022  26.221  1.00  0.00     0.251 C 
ATOM     36  H   UNL A   1      36.868  22.133  25.633  1.00  0.00     0.163 HD
ATOM     37  O   UNL A   1      39.300  22.106  25.861  1.00  0.00    -0.269 OA
BRANCH  35  38
ATOM     38  C   UNL A   1      39.139  24.204  26.915  1.00  0.00     0.039 A 
ATOM     39  C   UNL A   1      39.888  25.123  26.180  1.00  0.00     0.014 A 
ATOM     40  C   UNL A   1      38.893  24.419  28.276  1.00  0.00     0.014 A 
ATOM     41  C   UNL A   1      40.362  26.278  26.804  1.00  0.00     0.010 A 
ATOM     42  C   UNL A   1      39.289  25.613  28.871  1.00  0.00     0.010 A 
ATOM     43  C   UNL A   1      40.047  26.546  28.148  1.00  0.00    -0.014 A 
BRANCH  43  44
ATOM     44  C   UNL A   1      40.533  27.781  28.813  1.00  0.00     0.031 A 
ATOM     45  C   UNL A   1      41.942  27.847  29.344  1.00  0.00     0.074 A 
ATOM     46  C   UNL A   1      39.703  28.833  28.965  1.00  0.00     0.049 A 
ATOM     47  N   UNL A   1      42.549  28.834  29.950  1.00  0.00    -0.248 NA
ATOM     48  C   UNL A   1      42.770  26.637  29.197  1.00  0.00     0.031 C 
ATOM     49  C   UNL A   1      38.304  28.877  28.533  1.00  0.00     0.029 A 
ATOM     50  N   UNL A   1      39.918  30.070  29.520  1.00  0.00    -0.354 N 
ATOM     51  C   UNL A   1      43.818  28.363  30.265  1.00  0.00     0.074 A 
ATOM     52  C   UNL A   1      43.875  26.983  29.840  1.00  0.00     0.031 C 
ATOM     53  C   UNL A   1      37.798  30.090  28.804  1.00  0.00     0.029 A 
ATOM     54  C   UNL A   1      38.820  30.897  29.464  1.00  0.00     0.049 A 
ATOM     55  H   UNL A   1      40.776  30.339  29.920  1.00  0.00     0.167 HD
ATOM     56  C   UNL A   1      44.853  29.025  30.834  1.00  0.00     0.031 A 
ATOM     57  C   UNL A   1      38.654  32.163  29.896  1.00  0.00     0.031 A 
ATOM     58  C   UNL A   1      44.796  30.401  31.249  1.00  0.00     0.049 A 
ATOM     59  C   UNL A   1      39.815  32.874  30.537  1.00  0.00     0.074 A 
ATOM     60  C   UNL A   1      45.805  31.181  31.784  1.00  0.00     0.029 A 
ATOM     61  N   UNL A   1      43.666  31.203  31.178  1.00  0.00    -0.354 N 
ATOM     62  N   UNL A   1      41.031  32.433  30.759  1.00  0.00    -0.248 NA
ATOM     63  C   UNL A   1      39.586  34.258  30.973  1.00  0.00     0.031 C 
ATOM     64  C   UNL A   1      45.269  32.434  32.097  1.00  0.00     0.029 A 
ATOM     65  C   UNL A   1      43.945  32.459  31.687  1.00  0.00     0.049 A 
ATOM     66  H   UNL A   1      42.794  30.920  30.817  1.00  0.00     0.167 HD
ATOM     67  C   UNL A   1      41.720  33.497  31.333  1.00  0.00     0.074 A 
ATOM     68  C   UNL A   1      40.789  34.605  31.407  1.00  0.00     0.031 C 
ATOM     69  C   UNL A   1      43.007  33.551  31.758  1.00  0.00     0.031 A 
BRANCH  56  70
ATOM     70  C   UNL A   1      46.136  28.262  31.049  1.00  0.00    -0.014 A 
ATOM     71  C   UNL A   1      47.138  28.227  30.060  1.00  0.00     0.010 A 
ATOM     72  C   UNL A   1      46.362  27.604  32.271  1.00  0.00     0.010 A 
ATOM     73  C   UNL A   1      48.320  27.511  30.274  1.00  0.00     0.020 A 
ATOM     74  C   UNL A   1      47.555  26.914  32.501  1.00  0.00     0.020 A 
ATOM     75  C   UNL A   1      48.520  26.858  31.493  1.00  0.00     0.054 A 
BRANCH  75  76
ATOM     76  S   UNL A   1      50.074  25.959  31.751  1.00  0.00     0.124 S 
ATOM     77  O   UNL A   1      49.629  24.806  32.529  1.00  0.00    -0.237 OA
ATOM     78  O   UNL A   1      50.504  25.667  30.386  1.00  0.00    -0.237 OA
ATOM     79  O   UNL A   1      50.912  26.912  32.475  1.00  0.00    -0.744 OA
ENDBRANCH  75  76
ENDBRANCH  56  70
BRANCH  57  80
ATOM     80  C   UNL A   1      37.340  32.843  29.722  1.00  0.00    -0.014 A 
ATOM     81  C   UNL A   1      36.414  32.899  30.779  1.00  0.00     0.010 A 
ATOM     82  C   UNL A   1      37.012  33.450  28.495  1.00  0.00     0.010 A 
ATOM     83  C   UNL A   1      35.179  33.531  30.607  1.00  0.00     0.020 A 
ATOM     84  C   UNL A   1      35.791  34.110  28.330  1.00  0.00     0.020 A 
ATOM     85  C   UNL A   1      34.877  34.137  29.384  1.00  0.00     0.054 A 
BRANCH  85  86
ATOM     86  S   UNL A   1      33.289  34.996  29.201  1.00  0.00     0.124 S 
ATOM     87  O   UNL A   1      33.709  36.318  28.751  1.00  0.00    -0.237 OA
ATOM     88  O   UNL A   1      32.601  34.176  28.207  1.00  0.00    -0.237 OA
ATOM     89  O   UNL A   1      32.716  34.943  30.544  1.00  0.00    -0.744 OA
ENDBRANCH  85  86
ENDBRANCH  57  80
BRANCH  69  90
ATOM     90  C   UNL A   1      43.501  34.864  32.309  1.00  0.00    -0.014 A 
ATOM     91  C   UNL A   1      43.394  35.171  33.678  1.00  0.00     0.010 A 
ATOM     92  C   UNL A   1      44.129  35.783  31.448  1.00  0.00     0.010 A 
ATOM     93  C   UNL A   1      43.872  36.390  34.166  1.00  0.00     0.020 A 
ATOM     94  C   UNL A   1      44.637  36.987  31.939  1.00  0.00     0.020 A 
ATOM     95  C   UNL A   1      44.491  37.290  33.292  1.00  0.00     0.054 A 
BRANCH  95  96
ATOM     96  S   UNL A   1      45.135  38.850  33.959  1.00  0.00     0.124 S 
ATOM     97  O   UNL A   1      44.380  38.983  35.202  1.00  0.00    -0.237 OA
ATOM     98  O   UNL A   1      46.560  38.566  34.117  1.00  0.00    -0.237 OA
ATOM     99  O   UNL A   1      44.812  39.830  32.925  1.00  0.00    -0.744 OA
ENDBRANCH  95  96
ENDBRANCH  69  90
ENDBRANCH  43  44
ENDBRANCH  35  38
ENDBRANCH  33  34
ENDBRANCH  32  33
ENDBRANCH  31  32
ENDBRANCH   1  31
TORSDOF 20
ENDMDL
