MODEL 1
REMARK VINA RESULT:     -10.4      0.000      0.000
REMARK SMILES O=C(NCCCCCCNC(=O)[C@H]1CS[C@@H](c2cccc(OCc3ccc(Cl)cc3Cl)c2)[NH2+]1)c1ccc(-c2c3nc(c(-c4ccc(S(=O)(=O)[O-])cc4)c4ccc([nH]4)c(-c4ccc(S(=O)(=O)[O-])cc4)c4nc(c(-c5ccc(S(=O)(=O)[O-])cc5)c5ccc2[nH]5)C=C4)C=C3)cc1
REMARK SMILES IDX 7 1 6 2 5 3 4 4 3 5 1 6 2 7 34 9 35 10 93 11 36 12 92 13
REMARK SMILES IDX 37 14 38 15 39 16 86 17 40 18 91 19 85 20 87 21 41 22 90 23
REMARK SMILES IDX 84 24 83 25 42 27 72 28 53 29 71 30 54 31 57 32 70 33 88 34
REMARK SMILES IDX 55 35 56 36 69 38 89 39 58 40 43 41 44 42 52 43 45 44 51 45
REMARK SMILES IDX 46 46 47 47 48 48 49 49 50 50 73 51 74 52 82 53 75 54 81 55
REMARK SMILES IDX 76 56 77 57 78 58 79 59 80 60 59 61 60 62 68 63 61 64 67 65
REMARK SMILES IDX 62 66 63 67 64 68 65 69 66 70 8 71 9 72 10 73 11 74 12 76
REMARK SMILES IDX 13 77 14 78 33 79 15 80 16 81 17 84 18 85 32 86 19 87 21 88
REMARK SMILES IDX 20 89 22 90 23 91 24 92 25 93 30 94 26 95 29 96 31 97 27 98
REMARK SMILES IDX 28 99
REMARK H PARENT 3 8 87 26 57 37 10 75 33 82 33 83
REMARK Flexibility Score: inf
ROOT
ATOM      1  C   UNL A   1      33.690  29.118  26.034  1.00  0.00     0.002 C 
ENDROOT
BRANCH   1   2
ATOM      2  C   UNL A   1      32.764  29.667  27.129  1.00  0.00     0.002 C 
BRANCH   2   3
ATOM      3  C   UNL A   1      32.549  31.181  27.106  1.00  0.00     0.021 C 
BRANCH   3   4
ATOM      4  C   UNL A   1      33.714  31.989  27.663  1.00  0.00     0.116 C 
BRANCH   4   5
ATOM      5  N   UNL A   1      33.293  33.294  28.148  1.00  0.00    -0.352 N 
ATOM      6  O   UNL A   1      33.184  35.011  29.606  1.00  0.00    -0.269 OA
ATOM      7  C   UNL A   1      33.779  34.017  29.213  1.00  0.00     0.251 C 
ATOM      8  H   UNL A   1      32.561  33.718  27.646  1.00  0.00     0.163 HD
BRANCH   7   9
ATOM      9  C   UNL A   1      35.021  33.571  29.885  1.00  0.00     0.039 A 
ATOM     10  C   UNL A   1      34.972  32.579  30.865  1.00  0.00     0.014 A 
ATOM     11  C   UNL A   1      36.245  34.142  29.522  1.00  0.00     0.014 A 
ATOM     12  C   UNL A   1      36.121  32.251  31.572  1.00  0.00     0.010 A 
ATOM     13  C   UNL A   1      37.418  33.744  30.174  1.00  0.00     0.010 A 
ATOM     14  C   UNL A   1      37.361  32.808  31.218  1.00  0.00    -0.014 A 
BRANCH  14  15
ATOM     15  C   UNL A   1      38.583  32.304  31.895  1.00  0.00     0.031 A 
ATOM     16  C   UNL A   1      38.905  32.669  33.317  1.00  0.00     0.074 A 
ATOM     17  C   UNL A   1      39.376  31.453  31.213  1.00  0.00     0.049 A 
ATOM     18  N   UNL A   1      39.897  32.253  34.062  1.00  0.00    -0.248 NA
ATOM     19  C   UNL A   1      38.009  33.623  33.990  1.00  0.00     0.031 C 
ATOM     20  C   UNL A   1      39.168  31.044  29.819  1.00  0.00     0.029 A 
ATOM     21  N   UNL A   1      40.487  30.750  31.599  1.00  0.00    -0.354 N 
ATOM     22  C   UNL A   1      39.754  32.897  35.286  1.00  0.00     0.074 A 
ATOM     23  C   UNL A   1      38.593  33.754  35.175  1.00  0.00     0.031 C 
ATOM     24  C   UNL A   1      40.078  30.116  29.491  1.00  0.00     0.029 A 
ATOM     25  C   UNL A   1      40.973  29.914  30.623  1.00  0.00     0.049 A 
ATOM     26  H   UNL A   1      40.898  30.836  32.490  1.00  0.00     0.167 HD
ATOM     27  C   UNL A   1      40.519  32.775  36.399  1.00  0.00     0.031 A 
ATOM     28  C   UNL A   1      42.031  29.082  30.627  1.00  0.00     0.031 A 
ATOM     29  C   UNL A   1      41.676  31.920  36.498  1.00  0.00     0.049 A 
ATOM     30  C   UNL A   1      42.863  28.980  31.871  1.00  0.00     0.074 A 
ATOM     31  C   UNL A   1      42.511  31.725  37.584  1.00  0.00     0.029 A 
ATOM     32  N   UNL A   1      42.158  31.116  35.476  1.00  0.00    -0.354 N 
ATOM     33  N   UNL A   1      42.699  29.588  33.022  1.00  0.00    -0.248 NA
ATOM     34  C   UNL A   1      44.022  28.081  31.817  1.00  0.00     0.031 C 
ATOM     35  C   UNL A   1      43.523  30.835  37.206  1.00  0.00     0.029 A 
ATOM     36  C   UNL A   1      43.288  30.436  35.900  1.00  0.00     0.049 A 
ATOM     37  H   UNL A   1      41.756  31.039  34.580  1.00  0.00     0.167 HD
ATOM     38  C   UNL A   1      43.735  29.142  33.831  1.00  0.00     0.074 A 
ATOM     39  C   UNL A   1      44.494  28.185  33.050  1.00  0.00     0.031 C 
ATOM     40  C   UNL A   1      44.040  29.501  35.103  1.00  0.00     0.031 A 
BRANCH  27  41
ATOM     41  C   UNL A   1      40.143  33.597  37.605  1.00  0.00    -0.014 A 
ATOM     42  C   UNL A   1      40.808  34.802  37.897  1.00  0.00     0.010 A 
ATOM     43  C   UNL A   1      39.059  33.205  38.411  1.00  0.00     0.010 A 
ATOM     44  C   UNL A   1      40.409  35.588  38.982  1.00  0.00     0.020 A 
ATOM     45  C   UNL A   1      38.641  33.999  39.484  1.00  0.00     0.020 A 
ATOM     46  C   UNL A   1      39.326  35.181  39.769  1.00  0.00     0.054 A 
BRANCH  46  47
ATOM     47  S   UNL A   1      38.797  36.247  41.140  1.00  0.00     0.124 S 
ATOM     48  O   UNL A   1      38.430  37.476  40.441  1.00  0.00    -0.237 OA
ATOM     49  O   UNL A   1      37.684  35.498  41.719  1.00  0.00    -0.237 OA
ATOM     50  O   UNL A   1      39.985  36.343  41.984  1.00  0.00    -0.744 OA
ENDBRANCH  46  47
ENDBRANCH  27  41
BRANCH  28  51
ATOM     51  C   UNL A   1      42.374  28.312  29.402  1.00  0.00    -0.014 A 
ATOM     52  C   UNL A   1      43.188  28.868  28.401  1.00  0.00     0.010 A 
ATOM     53  C   UNL A   1      41.886  27.001  29.238  1.00  0.00     0.010 A 
ATOM     54  C   UNL A   1      43.485  28.139  27.245  1.00  0.00     0.020 A 
ATOM     55  C   UNL A   1      42.207  26.258  28.101  1.00  0.00     0.020 A 
ATOM     56  C   UNL A   1      42.990  26.838  27.102  1.00  0.00     0.054 A 
BRANCH  56  57
ATOM     57  S   UNL A   1      43.412  25.893  25.614  1.00  0.00     0.124 S 
ATOM     58  O   UNL A   1      42.243  26.120  24.771  1.00  0.00    -0.237 OA
ATOM     59  O   UNL A   1      44.648  26.534  25.168  1.00  0.00    -0.237 OA
ATOM     60  O   UNL A   1      43.573  24.528  26.112  1.00  0.00    -0.744 OA
ENDBRANCH  56  57
ENDBRANCH  28  51
BRANCH  40  61
ATOM     61  C   UNL A   1      45.241  28.840  35.721  1.00  0.00    -0.014 A 
ATOM     62  C   UNL A   1      46.542  29.296  35.439  1.00  0.00     0.010 A 
ATOM     63  C   UNL A   1      45.068  27.753  36.594  1.00  0.00     0.010 A 
ATOM     64  C   UNL A   1      47.651  28.643  35.981  1.00  0.00     0.020 A 
ATOM     65  C   UNL A   1      46.174  27.114  37.160  1.00  0.00     0.020 A 
ATOM     66  C   UNL A   1      47.460  27.550  36.832  1.00  0.00     0.054 A 
BRANCH  66  67
ATOM     67  S   UNL A   1      48.913  26.721  37.530  1.00  0.00     0.124 S 
ATOM     68  O   UNL A   1      49.923  27.773  37.463  1.00  0.00    -0.237 OA
ATOM     69  O   UNL A   1      48.467  26.363  38.874  1.00  0.00    -0.237 OA
ATOM     70  O   UNL A   1      49.131  25.589  36.631  1.00  0.00    -0.744 OA
ENDBRANCH  66  67
ENDBRANCH  40  61
ENDBRANCH  14  15
ENDBRANCH   7   9
ENDBRANCH   4   5
ENDBRANCH   3   4
ENDBRANCH   2   3
ENDBRANCH   1   2
BRANCH   1  71
ATOM     71  C   UNL A   1      33.055  28.968  24.645  1.00  0.00     0.021 C 
BRANCH  71  72
ATOM     72  C   UNL A   1      31.560  28.641  24.683  1.00  0.00     0.116 C 
BRANCH  72  73
ATOM     73  N   UNL A   1      31.232  27.517  23.818  1.00  0.00    -0.351 N 
ATOM     74  C   UNL A   1      31.232  26.167  23.995  1.00  0.00     0.279 C 
ATOM     75  H   UNL A   1      30.952  27.791  22.915  1.00  0.00     0.163 HD
ATOM     76  O   UNL A   1      30.892  25.490  23.014  1.00  0.00    -0.268 OA
BRANCH  74  77
ATOM     77  C   UNL A   1      31.599  25.445  25.307  1.00  0.00     0.283 C 
ATOM     78  C   UNL A   1      30.376  24.699  25.853  1.00  0.00     0.151 C 
ATOM     79  N   UNL A   1      32.697  24.484  25.175  1.00  0.00    -0.321 N 
ATOM     80  S   UNL A   1      31.021  23.188  26.649  1.00  0.00    -0.088 SA
ATOM     81  C   UNL A   1      32.732  23.656  26.378  1.00  0.00     0.274 C 
ATOM     82  H   UNL A   1      33.582  24.983  25.075  1.00  0.00     0.348 HD
ATOM     83  H   UNL A   1      32.555  23.900  24.351  1.00  0.00     0.348 HD
BRANCH  81  84
ATOM     84  C   UNL A   1      33.774  22.584  26.134  1.00  0.00     0.024 A 
ATOM     85  C   UNL A   1      33.507  21.317  25.603  1.00  0.00     0.011 A 
ATOM     86  C   UNL A   1      35.122  22.997  26.234  1.00  0.00     0.057 A 
ATOM     87  C   UNL A   1      34.558  20.506  25.168  1.00  0.00     0.004 A 
ATOM     88  C   UNL A   1      36.165  22.233  25.725  1.00  0.00     0.120 A 
ATOM     89  C   UNL A   1      35.875  20.969  25.215  1.00  0.00     0.046 A 
BRANCH  88  90
ATOM     90  O   UNL A   1      37.471  22.622  25.638  1.00  0.00    -0.489 OA
BRANCH  90  91
ATOM     91  C   UNL A   1      38.500  21.629  25.545  1.00  0.00     0.267 C 
BRANCH  91  92
ATOM     92  C   UNL A   1      39.660  21.869  26.496  1.00  0.00     0.008 A 
ATOM     93  C   UNL A   1      39.749  23.089  27.193  1.00  0.00     0.010 A 
ATOM     94  C   UNL A   1      40.664  20.911  26.713  1.00  0.00     0.049 A 
ATOM     95  C   UNL A   1      40.819  23.354  28.051  1.00  0.00     0.021 A 
ATOM     96  C   UNL A   1      41.732  21.172  27.581  1.00  0.00     0.041 A 
ATOM     97  Cl  UNL A   1      40.632  19.368  25.939  1.00  0.00    -0.084 Cl
ATOM     98  C   UNL A   1      41.810  22.397  28.234  1.00  0.00     0.042 A 
ATOM     99  Cl  UNL A   1      43.145  22.744  29.263  1.00  0.00    -0.084 Cl
ENDBRANCH  91  92
ENDBRANCH  90  91
ENDBRANCH  88  90
ENDBRANCH  81  84
ENDBRANCH  74  77
ENDBRANCH  72  73
ENDBRANCH  71  72
ENDBRANCH   1  71
TORSDOF 20
ENDMDL
MODEL 2
REMARK VINA RESULT:     -10.3      3.129      9.283
REMARK SMILES O=C(NCCCCCCNC(=O)[C@H]1CS[C@@H](c2cccc(OCc3ccc(Cl)cc3Cl)c2)[NH2+]1)c1ccc(-c2c3nc(c(-c4ccc(S(=O)(=O)[O-])cc4)c4ccc([nH]4)c(-c4ccc(S(=O)(=O)[O-])cc4)c4nc(c(-c5ccc(S(=O)(=O)[O-])cc5)c5ccc2[nH]5)C=C4)C=C3)cc1
REMARK SMILES IDX 7 1 6 2 5 3 4 4 3 5 1 6 2 7 34 9 35 10 93 11 36 12 92 13
REMARK SMILES IDX 37 14 38 15 39 16 86 17 40 18 91 19 85 20 87 21 41 22 90 23
REMARK SMILES IDX 84 24 83 25 42 27 72 28 53 29 71 30 54 31 57 32 70 33 88 34
REMARK SMILES IDX 55 35 56 36 69 38 89 39 58 40 43 41 44 42 52 43 45 44 51 45
REMARK SMILES IDX 46 46 47 47 48 48 49 49 50 50 73 51 74 52 82 53 75 54 81 55
REMARK SMILES IDX 76 56 77 57 78 58 79 59 80 60 59 61 60 62 68 63 61 64 67 65
REMARK SMILES IDX 62 66 63 67 64 68 65 69 66 70 8 71 9 72 10 73 11 74 12 76
REMARK SMILES IDX 13 77 14 78 33 79 15 80 16 81 17 84 18 85 32 86 19 87 21 88
REMARK SMILES IDX 20 89 22 90 23 91 24 92 25 93 30 94 26 95 29 96 31 97 27 98
REMARK SMILES IDX 28 99
REMARK H PARENT 3 8 87 26 57 37 10 75 33 82 33 83
REMARK Flexibility Score: inf
ROOT
ATOM      1  C   UNL A   1      40.788  26.501  27.630  1.00  0.00     0.002 C 
ENDROOT
BRANCH   1   2
ATOM      2  C   UNL A   1      41.219  27.001  26.245  1.00  0.00     0.002 C 
BRANCH   2   3
ATOM      3  C   UNL A   1      42.101  26.041  25.446  1.00  0.00     0.021 C 
BRANCH   3   4
ATOM      4  C   UNL A   1      42.559  24.815  26.224  1.00  0.00     0.116 C 
BRANCH   4   5
ATOM      5  N   UNL A   1      44.007  24.680  26.230  1.00  0.00    -0.352 N 
ATOM      6  O   UNL A   1      46.130  25.283  26.700  1.00  0.00    -0.269 OA
ATOM      7  C   UNL A   1      44.938  25.387  26.957  1.00  0.00     0.251 C 
ATOM      8  H   UNL A   1      44.372  23.988  25.633  1.00  0.00     0.163 HD
BRANCH   7   9
ATOM      9  C   UNL A   1      44.480  26.285  28.041  1.00  0.00     0.039 A 
ATOM     10  C   UNL A   1      43.970  25.751  29.226  1.00  0.00     0.014 A 
ATOM     11  C   UNL A   1      44.572  27.671  27.876  1.00  0.00     0.014 A 
ATOM     12  C   UNL A   1      43.433  26.596  30.188  1.00  0.00     0.010 A 
ATOM     13  C   UNL A   1      44.114  28.523  28.887  1.00  0.00     0.010 A 
ATOM     14  C   UNL A   1      43.524  27.991  30.044  1.00  0.00    -0.014 A 
BRANCH  14  15
ATOM     15  C   UNL A   1      43.083  28.850  31.173  1.00  0.00     0.031 A 
ATOM     16  C   UNL A   1      43.914  29.011  32.414  1.00  0.00     0.074 A 
ATOM     17  C   UNL A   1      41.931  29.537  31.028  1.00  0.00     0.049 A 
ATOM     18  N   UNL A   1      43.692  29.778  33.451  1.00  0.00    -0.248 NA
ATOM     19  C   UNL A   1      45.145  28.211  32.513  1.00  0.00     0.031 C 
ATOM     20  C   UNL A   1      41.035  29.441  29.870  1.00  0.00     0.029 A 
ATOM     21  N   UNL A   1      41.334  30.472  31.831  1.00  0.00    -0.354 N 
ATOM     22  C   UNL A   1      44.746  29.550  34.329  1.00  0.00     0.074 A 
ATOM     23  C   UNL A   1      45.594  28.551  33.715  1.00  0.00     0.031 C 
ATOM     24  C   UNL A   1      40.041  30.330  30.008  1.00  0.00     0.029 A 
ATOM     25  C   UNL A   1      40.189  31.008  31.289  1.00  0.00     0.049 A 
ATOM     26  H   UNL A   1      41.689  30.736  32.711  1.00  0.00     0.167 HD
ATOM     27  C   UNL A   1      44.983  30.128  35.533  1.00  0.00     0.031 A 
ATOM     28  C   UNL A   1      39.341  31.935  31.772  1.00  0.00     0.031 A 
ATOM     29  C   UNL A   1      44.129  31.120  36.137  1.00  0.00     0.049 A 
ATOM     30  C   UNL A   1      39.626  32.546  33.111  1.00  0.00     0.074 A 
ATOM     31  C   UNL A   1      44.288  31.769  37.350  1.00  0.00     0.029 A 
ATOM     32  N   UNL A   1      42.960  31.610  35.575  1.00  0.00    -0.354 N 
ATOM     33  N   UNL A   1      40.637  32.326  33.917  1.00  0.00    -0.248 NA
ATOM     34  C   UNL A   1      38.657  33.530  33.607  1.00  0.00     0.031 C 
ATOM     35  C   UNL A   1      43.193  32.620  37.539  1.00  0.00     0.029 A 
ATOM     36  C   UNL A   1      42.379  32.540  36.422  1.00  0.00     0.049 A 
ATOM     37  H   UNL A   1      42.596  31.338  34.701  1.00  0.00     0.167 HD
ATOM     38  C   UNL A   1      40.426  33.147  35.016  1.00  0.00     0.074 A 
ATOM     39  C   UNL A   1      39.214  33.896  34.752  1.00  0.00     0.031 C 
ATOM     40  C   UNL A   1      41.163  33.263  36.149  1.00  0.00     0.031 A 
BRANCH  27  41
ATOM     41  C   UNL A   1      46.211  29.695  36.293  1.00  0.00    -0.014 A 
ATOM     42  C   UNL A   1      47.428  30.386  36.156  1.00  0.00     0.010 A 
ATOM     43  C   UNL A   1      46.127  28.637  37.216  1.00  0.00     0.010 A 
ATOM     44  C   UNL A   1      48.543  30.015  36.915  1.00  0.00     0.020 A 
ATOM     45  C   UNL A   1      47.232  28.277  37.993  1.00  0.00     0.020 A 
ATOM     46  C   UNL A   1      48.438  28.962  37.830  1.00  0.00     0.054 A 
BRANCH  46  47
ATOM     47  S   UNL A   1      49.886  28.536  38.838  1.00  0.00     0.124 S 
ATOM     48  O   UNL A   1      50.959  28.557  37.847  1.00  0.00    -0.237 OA
ATOM     49  O   UNL A   1      49.921  29.615  39.822  1.00  0.00    -0.237 OA
ATOM     50  O   UNL A   1      49.560  27.217  39.373  1.00  0.00    -0.744 OA
ENDBRANCH  46  47
ENDBRANCH  27  41
BRANCH  28  51
ATOM     51  C   UNL A   1      38.130  32.309  30.994  1.00  0.00    -0.014 A 
ATOM     52  C   UNL A   1      38.176  33.329  30.029  1.00  0.00     0.010 A 
ATOM     53  C   UNL A   1      36.916  31.630  31.215  1.00  0.00     0.010 A 
ATOM     54  C   UNL A   1      37.023  33.683  29.320  1.00  0.00     0.020 A 
ATOM     55  C   UNL A   1      35.772  31.958  30.486  1.00  0.00     0.020 A 
ATOM     56  C   UNL A   1      35.828  32.996  29.555  1.00  0.00     0.054 A 
BRANCH  56  57
ATOM     57  S   UNL A   1      34.352  33.444  28.603  1.00  0.00     0.124 S 
ATOM     58  O   UNL A   1      34.914  34.281  27.549  1.00  0.00    -0.237 OA
ATOM     59  O   UNL A   1      33.842  32.143  28.173  1.00  0.00    -0.237 OA
ATOM     60  O   UNL A   1      33.516  34.139  29.580  1.00  0.00    -0.744 OA
ENDBRANCH  56  57
ENDBRANCH  28  51
BRANCH  40  61
ATOM     61  C   UNL A   1      40.672  34.247  37.175  1.00  0.00    -0.014 A 
ATOM     62  C   UNL A   1      39.902  33.823  38.273  1.00  0.00     0.010 A 
ATOM     63  C   UNL A   1      40.985  35.610  37.040  1.00  0.00     0.010 A 
ATOM     64  C   UNL A   1      39.412  34.753  39.192  1.00  0.00     0.020 A 
ATOM     65  C   UNL A   1      40.519  36.541  37.973  1.00  0.00     0.020 A 
ATOM     66  C   UNL A   1      39.716  36.107  39.031  1.00  0.00     0.054 A 
BRANCH  66  67
ATOM     67  S   UNL A   1      39.075  37.298  40.239  1.00  0.00     0.124 S 
ATOM     68  O   UNL A   1      38.218  36.455  41.069  1.00  0.00    -0.237 OA
ATOM     69  O   UNL A   1      40.289  37.788  40.886  1.00  0.00    -0.237 OA
ATOM     70  O   UNL A   1      38.373  38.282  39.417  1.00  0.00    -0.744 OA
ENDBRANCH  66  67
ENDBRANCH  40  61
ENDBRANCH  14  15
ENDBRANCH   7   9
ENDBRANCH   4   5
ENDBRANCH   3   4
ENDBRANCH   2   3
ENDBRANCH   1   2
BRANCH   1  71
ATOM     71  C   UNL A   1      39.300  26.153  27.775  1.00  0.00     0.021 C 
BRANCH  71  72
ATOM     72  C   UNL A   1      38.904  24.844  27.086  1.00  0.00     0.116 C 
BRANCH  72  73
ATOM     73  N   UNL A   1      39.635  23.708  27.628  1.00  0.00    -0.351 N 
ATOM     74  C   UNL A   1      39.851  22.437  27.190  1.00  0.00     0.279 C 
ATOM     75  H   UNL A   1      40.065  23.900  28.493  1.00  0.00     0.163 HD
ATOM     76  O   UNL A   1      40.537  21.716  27.929  1.00  0.00    -0.268 OA
BRANCH  74  77
ATOM     77  C   UNL A   1      39.327  21.856  25.861  1.00  0.00     0.283 C 
ATOM     78  C   UNL A   1      39.353  20.324  25.914  1.00  0.00     0.151 C 
ATOM     79  N   UNL A   1      37.967  22.277  25.518  1.00  0.00    -0.321 N 
ATOM     80  S   UNL A   1      37.914  19.762  24.941  1.00  0.00    -0.088 SA
ATOM     81  C   UNL A   1      37.481  21.427  24.433  1.00  0.00     0.274 C 
ATOM     82  H   UNL A   1      37.974  23.252  25.215  1.00  0.00     0.348 HD
ATOM     83  H   UNL A   1      37.357  22.191  26.331  1.00  0.00     0.348 HD
BRANCH  81  84
ATOM     84  C   UNL A   1      36.027  21.793  24.217  1.00  0.00     0.024 A 
ATOM     85  C   UNL A   1      34.954  21.264  24.944  1.00  0.00     0.011 A 
ATOM     86  C   UNL A   1      35.786  22.913  23.389  1.00  0.00     0.057 A 
ATOM     87  C   UNL A   1      33.691  21.855  24.857  1.00  0.00     0.004 A 
ATOM     88  C   UNL A   1      34.556  23.559  23.365  1.00  0.00     0.120 A 
ATOM     89  C   UNL A   1      33.500  23.004  24.084  1.00  0.00     0.046 A 
BRANCH  88  90
ATOM     90  O   UNL A   1      34.282  24.731  22.720  1.00  0.00    -0.489 OA
BRANCH  90  91
ATOM     91  C   UNL A   1      32.931  25.203  22.653  1.00  0.00     0.267 C 
BRANCH  91  92
ATOM     92  C   UNL A   1      32.686  26.454  23.478  1.00  0.00     0.008 A 
ATOM     93  C   UNL A   1      33.760  27.314  23.777  1.00  0.00     0.010 A 
ATOM     94  C   UNL A   1      31.412  26.795  23.964  1.00  0.00     0.049 A 
ATOM     95  C   UNL A   1      33.574  28.456  24.559  1.00  0.00     0.021 A 
ATOM     96  C   UNL A   1      31.224  27.945  24.740  1.00  0.00     0.041 A 
ATOM     97  Cl  UNL A   1      30.021  25.831  23.626  1.00  0.00    -0.084 Cl
ATOM     98  C   UNL A   1      32.308  28.761  25.045  1.00  0.00     0.042 A 
ATOM     99  Cl  UNL A   1      32.092  30.148  26.039  1.00  0.00    -0.084 Cl
ENDBRANCH  91  92
ENDBRANCH  90  91
ENDBRANCH  88  90
ENDBRANCH  81  84
ENDBRANCH  74  77
ENDBRANCH  72  73
ENDBRANCH  71  72
ENDBRANCH   1  71
TORSDOF 20
ENDMDL
MODEL 3
REMARK VINA RESULT:     -10.1      1.142      7.989
REMARK SMILES O=C(NCCCCCCNC(=O)[C@H]1CS[C@@H](c2cccc(OCc3ccc(Cl)cc3Cl)c2)[NH2+]1)c1ccc(-c2c3nc(c(-c4ccc(S(=O)(=O)[O-])cc4)c4ccc([nH]4)c(-c4ccc(S(=O)(=O)[O-])cc4)c4nc(c(-c5ccc(S(=O)(=O)[O-])cc5)c5ccc2[nH]5)C=C4)C=C3)cc1
REMARK SMILES IDX 7 1 6 2 5 3 4 4 3 5 1 6 2 7 34 9 35 10 93 11 36 12 92 13
REMARK SMILES IDX 37 14 38 15 39 16 86 17 40 18 91 19 85 20 87 21 41 22 90 23
REMARK SMILES IDX 84 24 83 25 42 27 72 28 53 29 71 30 54 31 57 32 70 33 88 34
REMARK SMILES IDX 55 35 56 36 69 38 89 39 58 40 43 41 44 42 52 43 45 44 51 45
REMARK SMILES IDX 46 46 47 47 48 48 49 49 50 50 73 51 74 52 82 53 75 54 81 55
REMARK SMILES IDX 76 56 77 57 78 58 79 59 80 60 59 61 60 62 68 63 61 64 67 65
REMARK SMILES IDX 62 66 63 67 64 68 65 69 66 70 8 71 9 72 10 73 11 74 12 76
REMARK SMILES IDX 13 77 14 78 33 79 15 80 16 81 17 84 18 85 32 86 19 87 21 88
REMARK SMILES IDX 20 89 22 90 23 91 24 92 25 93 30 94 26 95 29 96 31 97 27 98
REMARK SMILES IDX 28 99
REMARK H PARENT 3 8 87 26 57 37 10 75 33 82 33 83
REMARK Flexibility Score: inf
ROOT
ATOM      1  C   UNL A   1      33.412  28.934  25.526  1.00  0.00     0.002 C 
ENDROOT
BRANCH   1   2
ATOM      2  C   UNL A   1      32.742  29.405  26.823  1.00  0.00     0.002 C 
BRANCH   2   3
ATOM      3  C   UNL A   1      32.464  30.906  26.910  1.00  0.00     0.021 C 
BRANCH   3   4
ATOM      4  C   UNL A   1      33.618  31.727  27.468  1.00  0.00     0.116 C 
BRANCH   4   5
ATOM      5  N   UNL A   1      33.198  33.061  27.869  1.00  0.00    -0.352 N 
ATOM      6  O   UNL A   1      33.090  34.868  29.214  1.00  0.00    -0.269 OA
ATOM      7  C   UNL A   1      33.684  33.851  28.886  1.00  0.00     0.251 C 
ATOM      8  H   UNL A   1      32.466  33.453  27.340  1.00  0.00     0.163 HD
BRANCH   7   9
ATOM      9  C   UNL A   1      34.925  33.447  29.585  1.00  0.00     0.039 A 
ATOM     10  C   UNL A   1      34.884  32.469  30.580  1.00  0.00     0.014 A 
ATOM     11  C   UNL A   1      36.140  34.044  29.235  1.00  0.00     0.014 A 
ATOM     12  C   UNL A   1      36.029  32.181  31.312  1.00  0.00     0.010 A 
ATOM     13  C   UNL A   1      37.311  33.686  29.913  1.00  0.00     0.010 A 
ATOM     14  C   UNL A   1      37.261  32.765  30.970  1.00  0.00    -0.014 A 
BRANCH  14  15
ATOM     15  C   UNL A   1      38.483  32.304  31.676  1.00  0.00     0.031 A 
ATOM     16  C   UNL A   1      39.480  31.394  31.016  1.00  0.00     0.074 A 
ATOM     17  C   UNL A   1      38.708  32.776  32.919  1.00  0.00     0.049 A 
ATOM     18  N   UNL A   1      40.626  30.964  31.481  1.00  0.00    -0.248 NA
ATOM     19  C   UNL A   1      39.157  30.898  29.668  1.00  0.00     0.031 C 
ATOM     20  C   UNL A   1      37.795  33.651  33.664  1.00  0.00     0.029 A 
ATOM     21  N   UNL A   1      39.777  32.623  33.761  1.00  0.00    -0.354 N 
ATOM     22  C   UNL A   1      41.156  30.141  30.493  1.00  0.00     0.074 A 
ATOM     23  C   UNL A   1      40.194  30.111  29.412  1.00  0.00     0.031 C 
ATOM     24  C   UNL A   1      38.373  34.008  34.819  1.00  0.00     0.029 A 
ATOM     25  C   UNL A   1      39.661  33.337  34.929  1.00  0.00     0.049 A 
ATOM     26  H   UNL A   1      40.554  32.055  33.550  1.00  0.00     0.167 HD
ATOM     27  C   UNL A   1      42.340  29.481  30.490  1.00  0.00     0.031 A 
ATOM     28  C   UNL A   1      40.492  33.436  35.984  1.00  0.00     0.031 A 
ATOM     29  C   UNL A   1      43.290  29.515  31.575  1.00  0.00     0.049 A 
ATOM     30  C   UNL A   1      41.789  32.683  35.954  1.00  0.00     0.074 A 
ATOM     31  C   UNL A   1      44.520  28.884  31.662  1.00  0.00     0.029 A 
ATOM     32  N   UNL A   1      43.121  30.221  32.756  1.00  0.00    -0.354 N 
ATOM     33  N   UNL A   1      42.276  31.923  35.001  1.00  0.00    -0.248 NA
ATOM     34  C   UNL A   1      42.647  32.799  37.138  1.00  0.00     0.031 C 
ATOM     35  C   UNL A   1      45.074  29.175  32.914  1.00  0.00     0.029 A 
ATOM     36  C   UNL A   1      44.214  30.028  33.585  1.00  0.00     0.049 A 
ATOM     37  H   UNL A   1      42.339  30.778  32.974  1.00  0.00     0.167 HD
ATOM     38  C   UNL A   1      43.502  31.473  35.473  1.00  0.00     0.074 A 
ATOM     39  C   UNL A   1      43.696  32.076  36.776  1.00  0.00     0.031 C 
ATOM     40  C   UNL A   1      44.382  30.624  34.886  1.00  0.00     0.031 A 
BRANCH  27  41
ATOM     41  C   UNL A   1      42.678  28.646  29.281  1.00  0.00    -0.014 A 
ATOM     42  C   UNL A   1      43.111  29.246  28.085  1.00  0.00     0.010 A 
ATOM     43  C   UNL A   1      42.642  27.242  29.366  1.00  0.00     0.010 A 
ATOM     44  C   UNL A   1      43.483  28.457  26.991  1.00  0.00     0.020 A 
ATOM     45  C   UNL A   1      43.034  26.450  28.283  1.00  0.00     0.020 A 
ATOM     46  C   UNL A   1      43.443  27.063  27.097  1.00  0.00     0.054 A 
BRANCH  46  47
ATOM     47  S   UNL A   1      43.980  26.066  25.679  1.00  0.00     0.124 S 
ATOM     48  O   UNL A   1      45.107  26.845  25.172  1.00  0.00    -0.237 OA
ATOM     49  O   UNL A   1      44.328  24.789  26.298  1.00  0.00    -0.237 OA
ATOM     50  O   UNL A   1      42.806  26.034  24.812  1.00  0.00    -0.744 OA
ENDBRANCH  46  47
ENDBRANCH  27  41
BRANCH  28  51
ATOM     51  C   UNL A   1      40.100  34.253  37.163  1.00  0.00    -0.014 A 
ATOM     52  C   UNL A   1      39.405  33.681  38.242  1.00  0.00     0.010 A 
ATOM     53  C   UNL A   1      40.433  35.620  37.210  1.00  0.00     0.010 A 
ATOM     54  C   UNL A   1      39.026  34.467  39.335  1.00  0.00     0.020 A 
ATOM     55  C   UNL A   1      40.085  36.401  38.315  1.00  0.00     0.020 A 
ATOM     56  C   UNL A   1      39.367  35.823  39.362  1.00  0.00     0.054 A 
BRANCH  56  57
ATOM     57  S   UNL A   1      38.897  36.821  40.801  1.00  0.00     0.124 S 
ATOM     58  O   UNL A   1      40.170  36.957  41.502  1.00  0.00    -0.237 OA
ATOM     59  O   UNL A   1      38.378  38.042  40.188  1.00  0.00    -0.237 OA
ATOM     60  O   UNL A   1      37.894  35.997  41.473  1.00  0.00    -0.744 OA
ENDBRANCH  56  57
ENDBRANCH  28  51
BRANCH  40  61
ATOM     61  C   UNL A   1      45.638  30.317  35.655  1.00  0.00    -0.014 A 
ATOM     62  C   UNL A   1      46.763  31.157  35.567  1.00  0.00     0.010 A 
ATOM     63  C   UNL A   1      45.693  29.177  36.475  1.00  0.00     0.010 A 
ATOM     64  C   UNL A   1      47.938  30.835  36.248  1.00  0.00     0.020 A 
ATOM     65  C   UNL A   1      46.858  28.866  37.179  1.00  0.00     0.020 A 
ATOM     66  C   UNL A   1      47.981  29.686  37.043  1.00  0.00     0.054 A 
BRANCH  66  67
ATOM     67  S   UNL A   1      49.516  29.288  37.923  1.00  0.00     0.124 S 
ATOM     68  O   UNL A   1      49.313  29.962  39.204  1.00  0.00    -0.237 OA
ATOM     69  O   UNL A   1      49.492  27.828  37.972  1.00  0.00    -0.237 OA
ATOM     70  O   UNL A   1      50.560  29.861  37.076  1.00  0.00    -0.744 OA
ENDBRANCH  66  67
ENDBRANCH  40  61
ENDBRANCH  14  15
ENDBRANCH   7   9
ENDBRANCH   4   5
ENDBRANCH   3   4
ENDBRANCH   2   3
ENDBRANCH   1   2
BRANCH   1  71
ATOM     71  C   UNL A   1      32.592  29.142  24.244  1.00  0.00     0.021 C 
BRANCH  71  72
ATOM     72  C   UNL A   1      31.091  29.311  24.495  1.00  0.00     0.116 C 
BRANCH  72  73
ATOM     73  N   UNL A   1      30.323  28.217  23.918  1.00  0.00    -0.351 N 
ATOM     74  C   UNL A   1      30.268  26.879  24.164  1.00  0.00     0.279 C 
ATOM     75  H   UNL A   1      29.716  28.506  23.199  1.00  0.00     0.163 HD
ATOM     76  O   UNL A   1      29.482  26.229  23.460  1.00  0.00    -0.268 OA
BRANCH  74  77
ATOM     77  C   UNL A   1      31.083  26.142  25.246  1.00  0.00     0.283 C 
ATOM     78  C   UNL A   1      30.199  25.106  25.951  1.00  0.00     0.151 C 
ATOM     79  N   UNL A   1      32.272  25.455  24.736  1.00  0.00    -0.321 N 
ATOM     80  S   UNL A   1      31.296  23.706  26.364  1.00  0.00    -0.088 SA
ATOM     81  C   UNL A   1      32.764  24.552  25.774  1.00  0.00     0.274 C 
ATOM     82  H   UNL A   1      32.993  26.139  24.504  1.00  0.00     0.348 HD
ATOM     83  H   UNL A   1      32.038  24.927  23.895  1.00  0.00     0.348 HD
BRANCH  81  84
ATOM     84  C   UNL A   1      33.892  23.755  25.153  1.00  0.00     0.024 A 
ATOM     85  C   UNL A   1      34.096  23.599  23.778  1.00  0.00     0.011 A 
ATOM     86  C   UNL A   1      34.923  23.353  26.033  1.00  0.00     0.057 A 
ATOM     87  C   UNL A   1      35.303  23.077  23.305  1.00  0.00     0.004 A 
ATOM     88  C   UNL A   1      36.157  22.915  25.569  1.00  0.00     0.120 A 
ATOM     89  C   UNL A   1      36.331  22.754  24.196  1.00  0.00     0.046 A 
BRANCH  88  90
ATOM     90  O   UNL A   1      37.255  22.658  26.339  1.00  0.00    -0.489 OA
BRANCH  90  91
ATOM     91  C   UNL A   1      38.444  22.143  25.727  1.00  0.00     0.267 C 
BRANCH  91  92
ATOM     92  C   UNL A   1      39.681  22.286  26.595  1.00  0.00     0.008 A 
ATOM     93  C   UNL A   1      40.492  21.162  26.845  1.00  0.00     0.010 A 
ATOM     94  C   UNL A   1      40.058  23.512  27.170  1.00  0.00     0.049 A 
ATOM     95  C   UNL A   1      41.620  21.253  27.664  1.00  0.00     0.021 A 
ATOM     96  C   UNL A   1      41.194  23.605  27.983  1.00  0.00     0.041 A 
ATOM     97  Cl  UNL A   1      39.157  24.959  26.900  1.00  0.00    -0.084 Cl
ATOM     98  C   UNL A   1      41.960  22.473  28.237  1.00  0.00     0.042 A 
ATOM     99  Cl  UNL A   1      43.329  22.570  29.275  1.00  0.00    -0.084 Cl
ENDBRANCH  91  92
ENDBRANCH  90  91
ENDBRANCH  88  90
ENDBRANCH  81  84
ENDBRANCH  74  77
ENDBRANCH  72  73
ENDBRANCH  71  72
ENDBRANCH   1  71
TORSDOF 20
ENDMDL
