MODEL 1
REMARK VINA RESULT:     -12.1      0.000      0.000
REMARK SMILES O=C(NCCCCCCNC(=O)c1cc2c(c(S(=O)(=O)Nc3cc(C(F)(F)F)ccc3-n3cccn3)c1)CCC2)c1ccc(-c2c3nc(c(-c4ccc(S(=O)(=O)[O-])cc4)c4ccc([nH]4)c(-c4ccc(S(=O)(=O)[O-])cc4)c4nc(c(-c5ccc(S(=O)(=O)[O-])cc5)c5ccc2[nH]5)C=C4)C=C3)cc1
REMARK SMILES IDX 7 1 6 2 5 3 4 4 3 5 1 6 2 7 41 9 42 10 100 11 43 12 99 13
REMARK SMILES IDX 44 14 45 15 46 16 93 17 47 18 98 19 92 20 94 21 48 22 97 23
REMARK SMILES IDX 91 24 90 25 49 27 79 28 60 29 78 30 61 31 64 32 77 33 95 34
REMARK SMILES IDX 62 35 63 36 76 38 96 39 65 40 50 41 51 42 59 43 52 44 58 45
REMARK SMILES IDX 53 46 54 47 55 48 56 49 57 50 80 51 81 52 89 53 82 54 88 55
REMARK SMILES IDX 83 56 84 57 85 58 86 59 87 60 66 61 67 62 75 63 68 64 74 65
REMARK SMILES IDX 69 66 70 67 71 68 72 69 73 70 8 71 9 72 10 73 11 74 12 76
REMARK SMILES IDX 13 77 14 78 37 79 15 80 17 81 16 82 40 83 38 84 39 85 18 86
REMARK SMILES IDX 19 87 20 88 21 89 22 91 23 92 31 93 24 94 30 95 29 96 32 97
REMARK SMILES IDX 33 98 36 99 34 100 35 101 25 102 26 103 27 104 28 105
REMARK H PARENT 3 8 94 26 64 37 10 75 21 90
REMARK Flexibility Score: inf
ROOT
ATOM      1  C   UNL A   1      35.499  31.889  27.839  1.00  0.00     0.002 C 
ENDROOT
BRANCH   1   2
ATOM      2  C   UNL A   1      35.272  33.402  27.948  1.00  0.00     0.002 C 
BRANCH   2   3
ATOM      3  C   UNL A   1      33.867  33.850  28.372  1.00  0.00     0.021 C 
BRANCH   3   4
ATOM      4  C   UNL A   1      33.827  34.986  29.392  1.00  0.00     0.116 C 
BRANCH   4   5
ATOM      5  N   UNL A   1      33.529  34.572  30.745  1.00  0.00    -0.352 N 
ATOM      6  O   UNL A   1      33.677  33.866  32.831  1.00  0.00    -0.269 OA
ATOM      7  C   UNL A   1      34.225  33.926  31.728  1.00  0.00     0.251 C 
ATOM      8  H   UNL A   1      32.615  34.812  31.023  1.00  0.00     0.163 HD
BRANCH   7   9
ATOM      9  C   UNL A   1      35.532  33.242  31.538  1.00  0.00     0.039 A 
ATOM     10  C   UNL A   1      36.771  33.864  31.367  1.00  0.00     0.014 A 
ATOM     11  C   UNL A   1      35.480  31.834  31.531  1.00  0.00     0.014 A 
ATOM     12  C   UNL A   1      37.911  33.103  31.113  1.00  0.00     0.010 A 
ATOM     13  C   UNL A   1      36.615  31.070  31.286  1.00  0.00     0.010 A 
ATOM     14  C   UNL A   1      37.828  31.708  31.048  1.00  0.00    -0.014 A 
BRANCH  14  15
ATOM     15  C   UNL A   1      39.062  30.931  30.949  1.00  0.00     0.031 A 
ATOM     16  C   UNL A   1      39.748  30.731  32.258  1.00  0.00     0.074 A 
ATOM     17  C   UNL A   1      39.471  30.286  29.836  1.00  0.00     0.049 A 
ATOM     18  N   UNL A   1      40.898  31.188  32.633  1.00  0.00    -0.248 NA
ATOM     19  C   UNL A   1      38.996  30.057  33.331  1.00  0.00     0.031 C 
ATOM     20  C   UNL A   1      38.748  30.143  28.571  1.00  0.00     0.029 A 
ATOM     21  N   UNL A   1      40.581  29.514  29.639  1.00  0.00    -0.354 N 
ATOM     22  C   UNL A   1      41.116  30.666  33.908  1.00  0.00     0.074 A 
ATOM     23  C   UNL A   1      39.848  30.146  34.352  1.00  0.00     0.031 C 
ATOM     24  C   UNL A   1      39.316  29.156  27.838  1.00  0.00     0.029 A 
ATOM     25  C   UNL A   1      40.513  28.687  28.518  1.00  0.00     0.049 A 
ATOM     26  H   UNL A   1      41.361  29.538  30.238  1.00  0.00     0.167 HD
ATOM     27  C   UNL A   1      42.371  30.464  34.395  1.00  0.00     0.031 A 
ATOM     28  C   UNL A   1      41.343  27.657  28.204  1.00  0.00     0.031 A 
ATOM     29  C   UNL A   1      43.363  31.172  33.628  1.00  0.00     0.049 A 
ATOM     30  C   UNL A   1      42.597  27.848  28.970  1.00  0.00     0.074 A 
ATOM     31  C   UNL A   1      43.591  32.494  33.304  1.00  0.00     0.029 A 
ATOM     32  N   UNL A   1      44.111  30.430  32.746  1.00  0.00    -0.354 N 
ATOM     33  N   UNL A   1      43.428  28.827  28.755  1.00  0.00    -0.248 NA
ATOM     34  C   UNL A   1      42.709  27.206  30.270  1.00  0.00     0.031 C 
ATOM     35  C   UNL A   1      44.067  32.465  31.961  1.00  0.00     0.029 A 
ATOM     36  C   UNL A   1      44.175  31.129  31.571  1.00  0.00     0.049 A 
ATOM     37  H   UNL A   1      44.527  29.556  32.927  1.00  0.00     0.167 HD
ATOM     38  C   UNL A   1      43.847  29.216  30.019  1.00  0.00     0.074 A 
ATOM     39  C   UNL A   1      43.447  28.121  30.903  1.00  0.00     0.031 C 
ATOM     40  C   UNL A   1      44.224  30.504  30.267  1.00  0.00     0.031 A 
BRANCH  27  41
ATOM     41  C   UNL A   1      42.745  29.286  35.270  1.00  0.00    -0.014 A 
ATOM     42  C   UNL A   1      43.575  29.510  36.388  1.00  0.00     0.010 A 
ATOM     43  C   UNL A   1      42.565  27.945  34.869  1.00  0.00     0.010 A 
ATOM     44  C   UNL A   1      44.263  28.459  37.008  1.00  0.00     0.020 A 
ATOM     45  C   UNL A   1      43.208  26.884  35.510  1.00  0.00     0.020 A 
ATOM     46  C   UNL A   1      44.084  27.153  36.553  1.00  0.00     0.054 A 
BRANCH  46  47
ATOM     47  S   UNL A   1      45.053  25.816  37.290  1.00  0.00     0.124 S 
ATOM     48  O   UNL A   1      45.772  26.517  38.350  1.00  0.00    -0.237 OA
ATOM     49  O   UNL A   1      44.013  24.890  37.732  1.00  0.00    -0.237 OA
ATOM     50  O   UNL A   1      45.875  25.338  36.181  1.00  0.00    -0.744 OA
ENDBRANCH  46  47
ENDBRANCH  27  41
BRANCH  28  51
ATOM     51  C   UNL A   1      41.020  26.365  27.537  1.00  0.00    -0.014 A 
ATOM     52  C   UNL A   1      41.998  25.649  26.815  1.00  0.00     0.010 A 
ATOM     53  C   UNL A   1      39.829  25.687  27.861  1.00  0.00     0.010 A 
ATOM     54  C   UNL A   1      41.816  24.290  26.493  1.00  0.00     0.020 A 
ATOM     55  C   UNL A   1      39.638  24.337  27.538  1.00  0.00     0.020 A 
ATOM     56  C   UNL A   1      40.644  23.636  26.878  1.00  0.00     0.054 A 
BRANCH  56  57
ATOM     57  S   UNL A   1      40.491  21.839  26.633  1.00  0.00     0.124 S 
ATOM     58  O   UNL A   1      40.696  21.322  27.982  1.00  0.00    -0.237 OA
ATOM     59  O   UNL A   1      39.138  21.702  26.102  1.00  0.00    -0.237 OA
ATOM     60  O   UNL A   1      41.559  21.530  25.682  1.00  0.00    -0.744 OA
ENDBRANCH  56  57
ENDBRANCH  28  51
BRANCH  40  61
ATOM     61  C   UNL A   1      44.502  31.417  29.098  1.00  0.00    -0.014 A 
ATOM     62  C   UNL A   1      43.505  32.030  28.314  1.00  0.00     0.010 A 
ATOM     63  C   UNL A   1      45.844  31.779  28.881  1.00  0.00     0.010 A 
ATOM     64  C   UNL A   1      43.850  32.959  27.319  1.00  0.00     0.020 A 
ATOM     65  C   UNL A   1      46.192  32.717  27.908  1.00  0.00     0.020 A 
ATOM     66  C   UNL A   1      45.194  33.296  27.124  1.00  0.00     0.054 A 
BRANCH  66  67
ATOM     67  S   UNL A   1      45.636  34.528  25.869  1.00  0.00     0.124 S 
ATOM     68  O   UNL A   1      45.644  35.772  26.632  1.00  0.00    -0.237 OA
ATOM     69  O   UNL A   1      46.942  34.064  25.405  1.00  0.00    -0.237 OA
ATOM     70  O   UNL A   1      44.564  34.418  24.879  1.00  0.00    -0.744 OA
ENDBRANCH  66  67
ENDBRANCH  40  61
ENDBRANCH  14  15
ENDBRANCH   7   9
ENDBRANCH   4   5
ENDBRANCH   3   4
ENDBRANCH   2   3
ENDBRANCH   1   2
BRANCH   1  71
ATOM     71  C   UNL A   1      34.239  31.037  27.692  1.00  0.00     0.021 C 
BRANCH  71  72
ATOM     72  C   UNL A   1      34.480  29.583  27.298  1.00  0.00     0.116 C 
BRANCH  72  73
ATOM     73  N   UNL A   1      33.528  28.657  27.907  1.00  0.00    -0.352 N 
ATOM     74  C   UNL A   1      32.441  28.026  27.331  1.00  0.00     0.251 C 
ATOM     75  H   UNL A   1      33.681  28.454  28.857  1.00  0.00     0.163 HD
ATOM     76  O   UNL A   1      31.646  27.383  28.013  1.00  0.00    -0.269 OA
BRANCH  74  77
ATOM     77  C   UNL A   1      32.221  28.162  25.873  1.00  0.00     0.041 A 
ATOM     78  C   UNL A   1      31.391  29.183  25.420  1.00  0.00     0.018 A 
ATOM     79  C   UNL A   1      32.733  27.195  24.982  1.00  0.00     0.036 A 
ATOM     80  C   UNL A   1      30.872  29.054  24.152  1.00  0.00    -0.043 A 
ATOM     81  C   UNL A   1      32.269  27.128  23.648  1.00  0.00     0.092 A 
ATOM     82  C   UNL A   1      31.237  27.993  23.298  1.00  0.00    -0.024 A 
ATOM     83  C   UNL A   1      29.767  29.888  23.576  1.00  0.00     0.036 C 
ATOM     84  C   UNL A   1      30.242  27.963  22.181  1.00  0.00     0.037 C 
ATOM     85  C   UNL A   1      29.832  29.440  22.119  1.00  0.00     0.010 C 
BRANCH  81  86
ATOM     86  S   UNL A   1      32.857  25.797  22.622  1.00  0.00     0.262 S 
ATOM     87  O   UNL A   1      32.199  25.929  21.334  1.00  0.00    -0.201 OA
ATOM     88  O   UNL A   1      34.303  25.810  22.684  1.00  0.00    -0.201 OA
BRANCH  86  89
ATOM     89  N   UNL A   1      32.381  24.236  23.140  1.00  0.00    -0.277 N 
ATOM     90  H   UNL A   1      32.119  23.578  22.456  1.00  0.00     0.180 HD
BRANCH  89  91
ATOM     91  C   UNL A   1      32.345  23.835  24.519  1.00  0.00     0.075 A 
ATOM     92  C   UNL A   1      31.095  23.760  25.163  1.00  0.00     0.042 A 
ATOM     93  C   UNL A   1      33.495  23.420  25.208  1.00  0.00     0.089 A 
ATOM     94  C   UNL A   1      30.975  23.207  26.456  1.00  0.00     0.058 A 
ATOM     95  C   UNL A   1      33.384  22.899  26.507  1.00  0.00     0.031 A 
ATOM     96  C   UNL A   1      32.135  22.795  27.126  1.00  0.00     0.015 A 
BRANCH  93  97
ATOM     97  N   UNL A   1      34.773  23.445  24.600  1.00  0.00    -0.239 N 
ATOM     98  C   UNL A   1      35.217  22.721  23.516  1.00  0.00     0.115 A 
ATOM     99  N   UNL A   1      35.780  24.161  25.157  1.00  0.00    -0.177 NA
ATOM    100  C   UNL A   1      36.587  22.803  23.519  1.00  0.00     0.042 A 
ATOM    101  C   UNL A   1      36.881  23.672  24.581  1.00  0.00     0.135 A 
ENDBRANCH  93  97
BRANCH  94 102
ATOM    102  C   UNL A   1      29.610  22.987  27.069  1.00  0.00     0.416 C 
ATOM    103  F   UNL A   1      28.943  21.947  26.499  1.00  0.00    -0.166 F 
ATOM    104  F   UNL A   1      29.683  22.701  28.399  1.00  0.00    -0.166 F 
ATOM    105  F   UNL A   1      28.785  24.065  26.967  1.00  0.00    -0.166 F 
ENDBRANCH  94 102
ENDBRANCH  89  91
ENDBRANCH  86  89
ENDBRANCH  81  86
ENDBRANCH  74  77
ENDBRANCH  72  73
ENDBRANCH  71  72
ENDBRANCH   1  71
TORSDOF 21
ENDMDL
MODEL 2
REMARK VINA RESULT:     -12.0      2.696      9.145
REMARK SMILES O=C(NCCCCCCNC(=O)c1cc2c(c(S(=O)(=O)Nc3cc(C(F)(F)F)ccc3-n3cccn3)c1)CCC2)c1ccc(-c2c3nc(c(-c4ccc(S(=O)(=O)[O-])cc4)c4ccc([nH]4)c(-c4ccc(S(=O)(=O)[O-])cc4)c4nc(c(-c5ccc(S(=O)(=O)[O-])cc5)c5ccc2[nH]5)C=C4)C=C3)cc1
REMARK SMILES IDX 7 1 6 2 5 3 4 4 3 5 1 6 2 7 41 9 42 10 100 11 43 12 99 13
REMARK SMILES IDX 44 14 45 15 46 16 93 17 47 18 98 19 92 20 94 21 48 22 97 23
REMARK SMILES IDX 91 24 90 25 49 27 79 28 60 29 78 30 61 31 64 32 77 33 95 34
REMARK SMILES IDX 62 35 63 36 76 38 96 39 65 40 50 41 51 42 59 43 52 44 58 45
REMARK SMILES IDX 53 46 54 47 55 48 56 49 57 50 80 51 81 52 89 53 82 54 88 55
REMARK SMILES IDX 83 56 84 57 85 58 86 59 87 60 66 61 67 62 75 63 68 64 74 65
REMARK SMILES IDX 69 66 70 67 71 68 72 69 73 70 8 71 9 72 10 73 11 74 12 76
REMARK SMILES IDX 13 77 14 78 37 79 15 80 17 81 16 82 40 83 38 84 39 85 18 86
REMARK SMILES IDX 19 87 20 88 21 89 22 91 23 92 31 93 24 94 30 95 29 96 32 97
REMARK SMILES IDX 33 98 36 99 34 100 35 101 25 102 26 103 27 104 28 105
REMARK H PARENT 3 8 94 26 64 37 10 75 21 90
REMARK Flexibility Score: inf
ROOT
ATOM      1  C   UNL A   1      34.188  20.784  25.808  1.00  0.00     0.002 C 
ENDROOT
BRANCH   1   2
ATOM      2  C   UNL A   1      35.551  20.708  25.109  1.00  0.00     0.002 C 
BRANCH   2   3
ATOM      3  C   UNL A   1      35.912  21.886  24.194  1.00  0.00     0.021 C 
BRANCH   3   4
ATOM      4  C   UNL A   1      37.183  22.641  24.578  1.00  0.00     0.116 C 
BRANCH   4   5
ATOM      5  N   UNL A   1      38.202  21.828  25.205  1.00  0.00    -0.352 N 
ATOM      6  O   UNL A   1      39.753  21.041  26.562  1.00  0.00    -0.269 OA
ATOM      7  C   UNL A   1      39.127  22.035  26.188  1.00  0.00     0.251 C 
ATOM      8  H   UNL A   1      38.236  20.914  24.838  1.00  0.00     0.163 HD
BRANCH   7   9
ATOM      9  C   UNL A   1      39.473  23.361  26.768  1.00  0.00     0.039 A 
ATOM     10  C   UNL A   1      38.689  24.515  26.710  1.00  0.00     0.014 A 
ATOM     11  C   UNL A   1      40.717  23.425  27.427  1.00  0.00     0.014 A 
ATOM     12  C   UNL A   1      39.171  25.720  27.222  1.00  0.00     0.010 A 
ATOM     13  C   UNL A   1      41.198  24.620  27.946  1.00  0.00     0.010 A 
ATOM     14  C   UNL A   1      40.436  25.776  27.817  1.00  0.00    -0.014 A 
BRANCH  14  15
ATOM     15  C   UNL A   1      40.842  27.007  28.494  1.00  0.00     0.031 A 
ATOM     16  C   UNL A   1      42.061  27.636  27.910  1.00  0.00     0.074 A 
ATOM     17  C   UNL A   1      40.107  27.640  29.433  1.00  0.00     0.049 A 
ATOM     18  N   UNL A   1      43.222  27.785  28.459  1.00  0.00    -0.248 NA
ATOM     19  C   UNL A   1      42.022  28.016  26.487  1.00  0.00     0.031 C 
ATOM     20  C   UNL A   1      38.756  27.304  29.885  1.00  0.00     0.029 A 
ATOM     21  N   UNL A   1      40.371  28.799  30.106  1.00  0.00    -0.354 N 
ATOM     22  C   UNL A   1      43.993  28.486  27.532  1.00  0.00     0.074 A 
ATOM     23  C   UNL A   1      43.273  28.431  26.286  1.00  0.00     0.031 C 
ATOM     24  C   UNL A   1      38.236  28.353  30.564  1.00  0.00     0.029 A 
ATOM     25  C   UNL A   1      39.256  29.379  30.709  1.00  0.00     0.049 A 
ATOM     26  H   UNL A   1      41.272  29.192  30.159  1.00  0.00     0.167 HD
ATOM     27  C   UNL A   1      45.030  29.281  27.917  1.00  0.00     0.031 A 
ATOM     28  C   UNL A   1      39.161  30.630  31.234  1.00  0.00     0.031 A 
ATOM     29  C   UNL A   1      45.437  29.011  29.271  1.00  0.00     0.049 A 
ATOM     30  C   UNL A   1      40.540  31.105  31.498  1.00  0.00     0.074 A 
ATOM     31  C   UNL A   1      45.899  27.903  29.953  1.00  0.00     0.029 A 
ATOM     32  N   UNL A   1      45.031  29.907  30.231  1.00  0.00    -0.354 N 
ATOM     33  N   UNL A   1      41.318  30.584  32.403  1.00  0.00    -0.248 NA
ATOM     34  C   UNL A   1      41.211  31.869  30.460  1.00  0.00     0.031 C 
ATOM     35  C   UNL A   1      45.302  27.994  31.244  1.00  0.00     0.029 A 
ATOM     36  C   UNL A   1      44.576  29.185  31.301  1.00  0.00     0.049 A 
ATOM     37  H   UNL A   1      45.063  30.888  30.162  1.00  0.00     0.167 HD
ATOM     38  C   UNL A   1      42.574  30.565  31.816  1.00  0.00     0.074 A 
ATOM     39  C   UNL A   1      42.465  31.456  30.661  1.00  0.00     0.031 C 
ATOM     40  C   UNL A   1      43.495  29.618  32.160  1.00  0.00     0.031 A 
BRANCH  27  41
ATOM     41  C   UNL A   1      45.372  30.590  27.237  1.00  0.00    -0.014 A 
ATOM     42  C   UNL A   1      46.718  30.850  26.906  1.00  0.00     0.010 A 
ATOM     43  C   UNL A   1      44.483  31.684  27.188  1.00  0.00     0.010 A 
ATOM     44  C   UNL A   1      47.166  32.149  26.637  1.00  0.00     0.020 A 
ATOM     45  C   UNL A   1      44.909  32.976  26.875  1.00  0.00     0.020 A 
ATOM     46  C   UNL A   1      46.257  33.207  26.638  1.00  0.00     0.054 A 
BRANCH  46  47
ATOM     47  S   UNL A   1      46.859  34.894  26.392  1.00  0.00     0.124 S 
ATOM     48  O   UNL A   1      47.727  34.736  25.228  1.00  0.00    -0.237 OA
ATOM     49  O   UNL A   1      45.620  35.632  26.165  1.00  0.00    -0.237 OA
ATOM     50  O   UNL A   1      47.540  35.200  27.648  1.00  0.00    -0.744 OA
ENDBRANCH  46  47
ENDBRANCH  27  41
BRANCH  28  51
ATOM     51  C   UNL A   1      37.997  31.559  31.234  1.00  0.00    -0.014 A 
ATOM     52  C   UNL A   1      36.691  31.096  30.970  1.00  0.00     0.010 A 
ATOM     53  C   UNL A   1      38.128  32.847  31.788  1.00  0.00     0.010 A 
ATOM     54  C   UNL A   1      35.562  31.865  31.311  1.00  0.00     0.020 A 
ATOM     55  C   UNL A   1      37.009  33.621  32.125  1.00  0.00     0.020 A 
ATOM     56  C   UNL A   1      35.729  33.116  31.909  1.00  0.00     0.054 A 
BRANCH  56  57
ATOM     57  S   UNL A   1      34.277  34.024  32.524  1.00  0.00     0.124 S 
ATOM     58  O   UNL A   1      33.548  32.990  33.251  1.00  0.00    -0.237 OA
ATOM     59  O   UNL A   1      34.878  35.071  33.345  1.00  0.00    -0.237 OA
ATOM     60  O   UNL A   1      33.626  34.498  31.303  1.00  0.00    -0.744 OA
ENDBRANCH  56  57
ENDBRANCH  28  51
BRANCH  40  61
ATOM     61  C   UNL A   1      43.266  28.803  33.409  1.00  0.00    -0.014 A 
ATOM     62  C   UNL A   1      43.659  29.202  34.702  1.00  0.00     0.010 A 
ATOM     63  C   UNL A   1      42.487  27.640  33.274  1.00  0.00     0.010 A 
ATOM     64  C   UNL A   1      43.302  28.437  35.824  1.00  0.00     0.020 A 
ATOM     65  C   UNL A   1      42.110  26.888  34.387  1.00  0.00     0.020 A 
ATOM     66  C   UNL A   1      42.528  27.284  35.657  1.00  0.00     0.054 A 
BRANCH  66  67
ATOM     67  S   UNL A   1      42.030  26.321  37.111  1.00  0.00     0.124 S 
ATOM     68  O   UNL A   1      42.017  24.954  36.597  1.00  0.00    -0.237 OA
ATOM     69  O   UNL A   1      43.085  26.622  38.076  1.00  0.00    -0.237 OA
ATOM     70  O   UNL A   1      40.715  26.863  37.456  1.00  0.00    -0.744 OA
ENDBRANCH  66  67
ENDBRANCH  40  61
ENDBRANCH  14  15
ENDBRANCH   7   9
ENDBRANCH   4   5
ENDBRANCH   3   4
ENDBRANCH   2   3
ENDBRANCH   1   2
BRANCH   1  71
ATOM     71  C   UNL A   1      34.169  21.514  27.150  1.00  0.00     0.021 C 
BRANCH  71  72
ATOM     72  C   UNL A   1      33.676  22.957  27.098  1.00  0.00     0.116 C 
BRANCH  72  73
ATOM     73  N   UNL A   1      32.305  23.113  27.578  1.00  0.00    -0.352 N 
ATOM     74  C   UNL A   1      31.150  23.335  26.852  1.00  0.00     0.251 C 
ATOM     75  H   UNL A   1      32.186  23.050  28.553  1.00  0.00     0.163 HD
ATOM     76  O   UNL A   1      30.086  23.587  27.412  1.00  0.00    -0.269 OA
BRANCH  74  77
ATOM     77  C   UNL A   1      31.214  23.300  25.373  1.00  0.00     0.041 A 
ATOM     78  C   UNL A   1      31.292  22.062  24.742  1.00  0.00     0.018 A 
ATOM     79  C   UNL A   1      31.332  24.497  24.636  1.00  0.00     0.036 A 
ATOM     80  C   UNL A   1      31.758  22.045  23.447  1.00  0.00    -0.043 A 
ATOM     81  C   UNL A   1      31.715  24.470  23.275  1.00  0.00     0.092 A 
ATOM     82  C   UNL A   1      32.051  23.231  22.741  1.00  0.00    -0.024 A 
ATOM     83  C   UNL A   1      32.165  20.820  22.685  1.00  0.00     0.036 C 
ATOM     84  C   UNL A   1      32.851  22.842  21.539  1.00  0.00     0.037 C 
ATOM     85  C   UNL A   1      32.334  21.420  21.293  1.00  0.00     0.010 C 
BRANCH  81  86
ATOM     86  S   UNL A   1      31.977  26.025  22.448  1.00  0.00     0.262 S 
ATOM     87  O   UNL A   1      33.284  26.511  22.857  1.00  0.00    -0.201 OA
ATOM     88  O   UNL A   1      31.706  25.818  21.042  1.00  0.00    -0.201 OA
BRANCH  86  89
ATOM     89  N   UNL A   1      30.926  27.282  22.947  1.00  0.00    -0.277 N 
ATOM     90  H   UNL A   1      30.060  27.374  22.488  1.00  0.00     0.180 HD
BRANCH  89  91
ATOM     91  C   UNL A   1      31.240  28.207  23.999  1.00  0.00     0.075 A 
ATOM     92  C   UNL A   1      32.294  27.891  24.878  1.00  0.00     0.042 A 
ATOM     93  C   UNL A   1      30.603  29.452  24.115  1.00  0.00     0.089 A 
ATOM     94  C   UNL A   1      32.765  28.833  25.818  1.00  0.00     0.058 A 
ATOM     95  C   UNL A   1      31.048  30.380  25.071  1.00  0.00     0.031 A 
ATOM     96  C   UNL A   1      32.118  30.072  25.915  1.00  0.00     0.015 A 
BRANCH  93  97
ATOM     97  N   UNL A   1      29.559  29.836  23.240  1.00  0.00    -0.239 N 
ATOM     98  C   UNL A   1      28.224  29.507  23.309  1.00  0.00     0.115 A 
ATOM     99  N   UNL A   1      29.837  30.525  22.107  1.00  0.00    -0.177 NA
ATOM    100  C   UNL A   1      27.682  29.797  22.081  1.00  0.00     0.042 A 
ATOM    101  C   UNL A   1      28.735  30.385  21.365  1.00  0.00     0.135 A 
ENDBRANCH  93  97
BRANCH  94 102
ATOM    102  C   UNL A   1      33.997  28.538  26.642  1.00  0.00     0.416 C 
ATOM    103  F   UNL A   1      33.757  28.597  27.981  1.00  0.00    -0.166 F 
ATOM    104  F   UNL A   1      34.488  27.289  26.406  1.00  0.00    -0.166 F 
ATOM    105  F   UNL A   1      35.031  29.391  26.406  1.00  0.00    -0.166 F 
ENDBRANCH  94 102
ENDBRANCH  89  91
ENDBRANCH  86  89
ENDBRANCH  81  86
ENDBRANCH  74  77
ENDBRANCH  72  73
ENDBRANCH  71  72
ENDBRANCH   1  71
TORSDOF 21
ENDMDL
MODEL 3
REMARK VINA RESULT:     -11.7      2.817      9.166
REMARK SMILES O=C(NCCCCCCNC(=O)c1cc2c(c(S(=O)(=O)Nc3cc(C(F)(F)F)ccc3-n3cccn3)c1)CCC2)c1ccc(-c2c3nc(c(-c4ccc(S(=O)(=O)[O-])cc4)c4ccc([nH]4)c(-c4ccc(S(=O)(=O)[O-])cc4)c4nc(c(-c5ccc(S(=O)(=O)[O-])cc5)c5ccc2[nH]5)C=C4)C=C3)cc1
REMARK SMILES IDX 7 1 6 2 5 3 4 4 3 5 1 6 2 7 41 9 42 10 100 11 43 12 99 13
REMARK SMILES IDX 44 14 45 15 46 16 93 17 47 18 98 19 92 20 94 21 48 22 97 23
REMARK SMILES IDX 91 24 90 25 49 27 79 28 60 29 78 30 61 31 64 32 77 33 95 34
REMARK SMILES IDX 62 35 63 36 76 38 96 39 65 40 50 41 51 42 59 43 52 44 58 45
REMARK SMILES IDX 53 46 54 47 55 48 56 49 57 50 80 51 81 52 89 53 82 54 88 55
REMARK SMILES IDX 83 56 84 57 85 58 86 59 87 60 66 61 67 62 75 63 68 64 74 65
REMARK SMILES IDX 69 66 70 67 71 68 72 69 73 70 8 71 9 72 10 73 11 74 12 76
REMARK SMILES IDX 13 77 14 78 37 79 15 80 17 81 16 82 40 83 38 84 39 85 18 86
REMARK SMILES IDX 19 87 20 88 21 89 22 91 23 92 31 93 24 94 30 95 29 96 32 97
REMARK SMILES IDX 33 98 36 99 34 100 35 101 25 102 26 103 27 104 28 105
REMARK H PARENT 3 8 94 26 64 37 10 75 21 90
REMARK Flexibility Score: inf
ROOT
ATOM      1  C   UNL A   1      36.865  23.612  25.461  1.00  0.00     0.002 C 
ENDROOT
BRANCH   1   2
ATOM      2  C   UNL A   1      38.051  22.965  26.187  1.00  0.00     0.002 C 
BRANCH   2   3
ATOM      3  C   UNL A   1      38.557  21.636  25.611  1.00  0.00     0.021 C 
BRANCH   3   4
ATOM      4  C   UNL A   1      39.772  21.040  26.319  1.00  0.00     0.116 C 
BRANCH   4   5
ATOM      5  N   UNL A   1      41.022  21.198  25.609  1.00  0.00    -0.352 N 
ATOM      6  O   UNL A   1      43.026  21.853  24.956  1.00  0.00    -0.269 OA
ATOM      7  C   UNL A   1      42.021  22.129  25.617  1.00  0.00     0.251 C 
ATOM      8  H   UNL A   1      41.192  20.464  24.974  1.00  0.00     0.163 HD
BRANCH   7   9
ATOM      9  C   UNL A   1      41.947  23.453  26.291  1.00  0.00     0.039 A 
ATOM     10  C   UNL A   1      41.274  24.582  25.818  1.00  0.00     0.014 A 
ATOM     11  C   UNL A   1      42.634  23.545  27.518  1.00  0.00     0.014 A 
ATOM     12  C   UNL A   1      41.355  25.790  26.509  1.00  0.00     0.010 A 
ATOM     13  C   UNL A   1      42.712  24.745  28.214  1.00  0.00     0.010 A 
ATOM     14  C   UNL A   1      42.095  25.877  27.693  1.00  0.00    -0.014 A 
BRANCH  14  15
ATOM     15  C   UNL A   1      42.022  27.107  28.481  1.00  0.00     0.031 A 
ATOM     16  C   UNL A   1      43.191  28.012  28.285  1.00  0.00     0.074 A 
ATOM     17  C   UNL A   1      40.937  27.502  29.180  1.00  0.00     0.049 A 
ATOM     18  N   UNL A   1      44.093  28.347  29.149  1.00  0.00    -0.248 NA
ATOM     19  C   UNL A   1      43.468  28.488  26.919  1.00  0.00     0.031 C 
ATOM     20  C   UNL A   1      39.618  26.867  29.216  1.00  0.00     0.029 A 
ATOM     21  N   UNL A   1      40.748  28.634  29.922  1.00  0.00    -0.354 N 
ATOM     22  C   UNL A   1      44.921  29.259  28.497  1.00  0.00     0.074 A 
ATOM     23  C   UNL A   1      44.606  29.160  27.095  1.00  0.00     0.031 C 
ATOM     24  C   UNL A   1      38.717  27.733  29.736  1.00  0.00     0.029 A 
ATOM     25  C   UNL A   1      39.412  28.928  30.189  1.00  0.00     0.049 A 
ATOM     26  H   UNL A   1      41.492  29.194  30.240  1.00  0.00     0.167 HD
ATOM     27  C   UNL A   1      45.614  30.213  29.180  1.00  0.00     0.031 A 
ATOM     28  C   UNL A   1      38.908  30.089  30.687  1.00  0.00     0.031 A 
ATOM     29  C   UNL A   1      45.677  29.923  30.588  1.00  0.00     0.049 A 
ATOM     30  C   UNL A   1      40.023  30.808  31.347  1.00  0.00     0.074 A 
ATOM     31  C   UNL A   1      46.158  28.880  31.354  1.00  0.00     0.029 A 
ATOM     32  N   UNL A   1      44.838  30.640  31.407  1.00  0.00    -0.354 N 
ATOM     33  N   UNL A   1      40.611  30.384  32.428  1.00  0.00    -0.248 NA
ATOM     34  C   UNL A   1      40.776  31.772  30.561  1.00  0.00     0.031 C 
ATOM     35  C   UNL A   1      45.221  28.746  32.419  1.00  0.00     0.029 A 
ATOM     36  C   UNL A   1      44.269  29.759  32.286  1.00  0.00     0.049 A 
ATOM     37  H   UNL A   1      44.676  31.610  31.368  1.00  0.00     0.167 HD
ATOM     38  C   UNL A   1      41.955  30.664  32.228  1.00  0.00     0.074 A 
ATOM     39  C   UNL A   1      41.983  31.604  31.108  1.00  0.00     0.031 C 
ATOM     40  C   UNL A   1      42.926  29.896  32.805  1.00  0.00     0.031 A 
BRANCH  27  41
ATOM     41  C   UNL A   1      45.842  31.614  28.652  1.00  0.00    -0.014 A 
ATOM     42  C   UNL A   1      44.724  32.448  28.443  1.00  0.00     0.010 A 
ATOM     43  C   UNL A   1      47.060  32.028  28.075  1.00  0.00     0.010 A 
ATOM     44  C   UNL A   1      44.802  33.581  27.623  1.00  0.00     0.020 A 
ATOM     45  C   UNL A   1      47.161  33.181  27.294  1.00  0.00     0.020 A 
ATOM     46  C   UNL A   1      46.020  33.930  27.042  1.00  0.00     0.054 A 
BRANCH  46  47
ATOM     47  S   UNL A   1      46.090  35.332  25.902  1.00  0.00     0.124 S 
ATOM     48  O   UNL A   1      47.455  35.812  26.103  1.00  0.00    -0.237 OA
ATOM     49  O   UNL A   1      45.824  34.696  24.615  1.00  0.00    -0.237 OA
ATOM     50  O   UNL A   1      45.034  36.218  26.384  1.00  0.00    -0.744 OA
ENDBRANCH  46  47
ENDBRANCH  27  41
BRANCH  28  51
ATOM     51  C   UNL A   1      37.618  30.762  30.369  1.00  0.00    -0.014 A 
ATOM     52  C   UNL A   1      36.955  31.561  31.323  1.00  0.00     0.010 A 
ATOM     53  C   UNL A   1      37.190  30.862  29.031  1.00  0.00     0.010 A 
ATOM     54  C   UNL A   1      35.952  32.473  30.940  1.00  0.00     0.020 A 
ATOM     55  C   UNL A   1      36.189  31.762  28.643  1.00  0.00     0.020 A 
ATOM     56  C   UNL A   1      35.591  32.583  29.596  1.00  0.00     0.054 A 
BRANCH  56  57
ATOM     57  S   UNL A   1      34.438  33.891  29.075  1.00  0.00     0.124 S 
ATOM     58  O   UNL A   1      33.685  33.237  28.010  1.00  0.00    -0.237 OA
ATOM     59  O   UNL A   1      33.691  34.166  30.300  1.00  0.00    -0.237 OA
ATOM     60  O   UNL A   1      35.319  34.972  28.637  1.00  0.00    -0.744 OA
ENDBRANCH  56  57
ENDBRANCH  28  51
BRANCH  40  61
ATOM     61  C   UNL A   1      42.540  28.955  33.919  1.00  0.00    -0.014 A 
ATOM     62  C   UNL A   1      41.865  27.733  33.729  1.00  0.00     0.010 A 
ATOM     63  C   UNL A   1      43.014  29.266  35.206  1.00  0.00     0.010 A 
ATOM     64  C   UNL A   1      41.649  26.861  34.808  1.00  0.00     0.020 A 
ATOM     65  C   UNL A   1      42.822  28.395  36.278  1.00  0.00     0.020 A 
ATOM     66  C   UNL A   1      42.131  27.199  36.077  1.00  0.00     0.054 A 
BRANCH  66  67
ATOM     67  S   UNL A   1      41.889  26.054  37.463  1.00  0.00     0.124 S 
ATOM     68  O   UNL A   1      40.504  26.309  37.849  1.00  0.00    -0.237 OA
ATOM     69  O   UNL A   1      42.144  24.750  36.854  1.00  0.00    -0.237 OA
ATOM     70  O   UNL A   1      42.891  26.475  38.443  1.00  0.00    -0.744 OA
ENDBRANCH  66  67
ENDBRANCH  40  61
ENDBRANCH  14  15
ENDBRANCH   7   9
ENDBRANCH   4   5
ENDBRANCH   3   4
ENDBRANCH   2   3
ENDBRANCH   1   2
BRANCH   1  71
ATOM     71  C   UNL A   1      35.712  22.676  25.105  1.00  0.00     0.021 C 
BRANCH  71  72
ATOM     72  C   UNL A   1      34.496  22.764  26.022  1.00  0.00     0.116 C 
BRANCH  72  73
ATOM     73  N   UNL A   1      33.602  21.614  25.903  1.00  0.00    -0.352 N 
ATOM     74  C   UNL A   1      32.477  21.466  25.114  1.00  0.00     0.251 C 
ATOM     75  H   UNL A   1      33.833  20.837  26.461  1.00  0.00     0.163 HD
ATOM     76  O   UNL A   1      31.744  20.487  25.230  1.00  0.00    -0.269 OA
BRANCH  74  77
ATOM     77  C   UNL A   1      32.139  22.529  24.140  1.00  0.00     0.041 A 
ATOM     78  C   UNL A   1      32.582  22.391  22.828  1.00  0.00     0.018 A 
ATOM     79  C   UNL A   1      31.503  23.713  24.568  1.00  0.00     0.036 A 
ATOM     80  C   UNL A   1      32.629  23.530  22.057  1.00  0.00    -0.043 A 
ATOM     81  C   UNL A   1      31.466  24.854  23.733  1.00  0.00     0.092 A 
ATOM     82  C   UNL A   1      32.156  24.773  22.528  1.00  0.00    -0.024 A 
ATOM     83  C   UNL A   1      33.310  23.653  20.727  1.00  0.00     0.036 C 
ATOM     84  C   UNL A   1      32.679  25.824  21.601  1.00  0.00     0.037 C 
ATOM     85  C   UNL A   1      32.803  25.026  20.298  1.00  0.00     0.010 C 
BRANCH  81  86
ATOM     86  S   UNL A   1      30.769  26.353  24.394  1.00  0.00     0.262 S 
ATOM     87  O   UNL A   1      29.409  26.448  23.891  1.00  0.00    -0.201 OA
ATOM     88  O   UNL A   1      30.997  26.344  25.822  1.00  0.00    -0.201 OA
BRANCH  86  89
ATOM     89  N   UNL A   1      31.495  27.791  23.814  1.00  0.00    -0.277 N 
ATOM     90  H   UNL A   1      32.309  27.713  23.265  1.00  0.00     0.180 HD
BRANCH  89  91
ATOM     91  C   UNL A   1      30.980  29.104  24.084  1.00  0.00     0.075 A 
ATOM     92  C   UNL A   1      29.907  29.577  23.304  1.00  0.00     0.042 A 
ATOM     93  C   UNL A   1      31.440  29.882  25.158  1.00  0.00     0.089 A 
ATOM     94  C   UNL A   1      29.244  30.779  23.632  1.00  0.00     0.058 A 
ATOM     95  C   UNL A   1      30.803  31.094  25.467  1.00  0.00     0.031 A 
ATOM     96  C   UNL A   1      29.716  31.539  24.710  1.00  0.00     0.015 A 
BRANCH  93  97
ATOM     97  N   UNL A   1      32.494  29.443  25.994  1.00  0.00    -0.239 N 
ATOM     98  C   UNL A   1      32.618  29.587  27.358  1.00  0.00     0.115 A 
ATOM     99  N   UNL A   1      33.612  28.899  25.454  1.00  0.00    -0.177 NA
ATOM    100  C   UNL A   1      33.933  29.338  27.664  1.00  0.00     0.042 A 
ATOM    101  C   UNL A   1      34.509  28.958  26.443  1.00  0.00     0.135 A 
ENDBRANCH  93  97
BRANCH  94 102
ATOM    102  C   UNL A   1      27.997  31.191  22.884  1.00  0.00     0.416 C 
ATOM    103  F   UNL A   1      27.448  30.165  22.178  1.00  0.00    -0.166 F 
ATOM    104  F   UNL A   1      27.018  31.636  23.720  1.00  0.00    -0.166 F 
ATOM    105  F   UNL A   1      28.202  32.197  21.989  1.00  0.00    -0.166 F 
ENDBRANCH  94 102
ENDBRANCH  89  91
ENDBRANCH  86  89
ENDBRANCH  81  86
ENDBRANCH  74  77
ENDBRANCH  72  73
ENDBRANCH  71  72
ENDBRANCH   1  71
TORSDOF 21
ENDMDL
