MODEL 1
REMARK VINA RESULT:     -11.0      0.000      0.000
REMARK SMILES CCc1cc(S(F)(F)(F)(F)F)cc2c1O[C@@H](C(F)(F)F)C(C(=O)NCCCCCCNC(=O)c1ccc(-c3c4nc(c(-c5ccc(S(=O)(=O)[O-])cc5)c5ccc([nH]5)c(-c5ccc(S(=O)(=O)[O-])cc5)c5nc(c(-c6ccc(S(=O)(=O)[O-])cc6)c6ccc3[nH]6)C=C5)C=C4)cc1)=C2
REMARK SMILES IDX 28 1 27 2 26 3 25 4 24 5 22 6 23 7 21 9 3 10 4 11 14 12 5 13
REMARK SMILES IDX 13 14 15 15 12 16 94 17 16 18 2 19 1 20 6 21 7 22 8 23 9 24
REMARK SMILES IDX 10 25 11 26 17 27 18 28 19 29 20 30 29 31 30 32 31 33 32 34
REMARK SMILES IDX 33 36 34 37 35 38 93 39 36 40 92 41 37 42 38 43 39 44 86 45
REMARK SMILES IDX 40 46 91 47 85 48 87 49 41 50 90 51 84 52 83 53 42 55 72 56
REMARK SMILES IDX 53 57 71 58 54 59 57 60 70 61 88 62 55 63 56 64 69 66 89 67
REMARK SMILES IDX 58 68 43 69 44 70 52 71 45 72 51 73 46 74 47 75 48 76 49 77
REMARK SMILES IDX 50 78 73 79 74 80 82 81 75 82 81 83 76 84 77 85 78 86 79 87
REMARK SMILES IDX 80 88 59 89 60 90 68 91 61 92 67 93 62 94 63 95 64 96 65 97
REMARK SMILES IDX 66 98
REMARK H PARENT 24 8 31 35 87 54 57 65
REMARK Flexibility Score: inf
ROOT
ATOM      1  C   UNL A   1      34.825  33.275  28.577  1.00  0.00     0.002 C 
ENDROOT
BRANCH   1   2
ATOM      2  C   UNL A   1      34.442  31.808  28.682  1.00  0.00     0.002 C 
BRANCH   2   3
ATOM      3  C   UNL A   1      35.408  30.972  27.860  1.00  0.00     0.021 C 
BRANCH   3   4
ATOM      4  C   UNL A   1      34.634  29.922  27.080  1.00  0.00     0.116 C 
BRANCH   4   5
ATOM      5  N   UNL A   1      33.388  29.603  27.792  1.00  0.00    -0.352 N 
ATOM      6  C   UNL A   1      32.551  28.481  27.343  1.00  0.00     0.251 C 
ATOM      7  O   UNL A   1      31.474  28.205  27.960  1.00  0.00    -0.270 OA
ATOM      8  H   UNL A   1      33.114  30.140  28.570  1.00  0.00     0.163 HD
BRANCH   6   9
ATOM      9  C   UNL A   1      32.972  27.652  26.141  1.00  0.00     0.067 C 
ATOM     10  C   UNL A   1      33.645  25.212  22.818  1.00  0.00    -0.004 A 
ATOM     11  C   UNL A   1      34.447  24.091  22.936  1.00  0.00     0.032 A 
ATOM     12  C   UNL A   1      33.397  25.966  23.939  1.00  0.00     0.131 A 
ATOM     13  C   UNL A   1      34.982  23.732  24.144  1.00  0.00     0.108 A 
ATOM     14  C   UNL A   1      33.936  25.646  25.171  1.00  0.00     0.019 A 
ATOM     15  O   UNL A   1      32.510  27.010  23.830  1.00  0.00    -0.475 OA
ATOM     16  C   UNL A   1      34.734  24.510  25.255  1.00  0.00     0.036 A 
ATOM     17  C   UNL A   1      33.583  26.484  26.304  1.00  0.00     0.025 C 
ATOM     18  C   UNL A   1      32.703  28.141  24.725  1.00  0.00     0.314 C 
BRANCH  10  19
ATOM     19  C   UNL A   1      32.934  25.463  21.498  1.00  0.00     0.036 C 
ATOM     20  C   UNL A   1      33.013  24.214  20.635  1.00  0.00     0.009 C 
ENDBRANCH  10  19
BRANCH  13  21
ATOM     21  S   UNL A   1      36.010  22.248  24.281  1.00  0.00     0.310 S 
ATOM     22  F   UNL A   1      36.338  22.542  25.804  1.00  0.00    -0.094 F 
ATOM     23  F   UNL A   1      37.264  23.128  23.912  1.00  0.00    -0.094 F 
ATOM     24  F   UNL A   1      36.901  20.979  24.398  1.00  0.00    -0.094 F 
ATOM     25  F   UNL A   1      34.767  21.413  24.785  1.00  0.00    -0.094 F 
ATOM     26  F   UNL A   1      35.113  23.551  24.276  1.00  0.00    -0.094 F 
ENDBRANCH  13  21
BRANCH  18  27
ATOM     27  C   UNL A   1      31.445  28.994  24.725  1.00  0.00     0.429 C 
ATOM     28  F   UNL A   1      31.648  30.082  25.463  1.00  0.00    -0.167 F 
ATOM     29  F   UNL A   1      31.152  29.352  23.478  1.00  0.00    -0.167 F 
ATOM     30  F   UNL A   1      30.435  28.295  25.235  1.00  0.00    -0.167 F 
ENDBRANCH  18  27
ENDBRANCH   6   9
ENDBRANCH   4   5
ENDBRANCH   3   4
ENDBRANCH   2   3
ENDBRANCH   1   2
BRANCH   1  31
ATOM     31  C   UNL A   1      33.566  34.125  28.523  1.00  0.00     0.021 C 
BRANCH  31  32
ATOM     32  C   UNL A   1      33.815  35.445  29.234  1.00  0.00     0.116 C 
BRANCH  32  33
ATOM     33  N   UNL A   1      32.718  35.708  30.177  1.00  0.00    -0.352 N 
ATOM     34  C   UNL A   1      32.837  35.284  31.580  1.00  0.00     0.251 C 
ATOM     35  H   UNL A   1      31.905  36.168  29.869  1.00  0.00     0.163 HD
ATOM     36  O   UNL A   1      31.889  35.513  32.396  1.00  0.00    -0.269 OA
BRANCH  34  37
ATOM     37  C   UNL A   1      34.094  34.574  32.056  1.00  0.00     0.039 A 
ATOM     38  C   UNL A   1      35.299  35.254  32.000  1.00  0.00     0.014 A 
ATOM     39  C   UNL A   1      34.025  33.330  32.516  1.00  0.00     0.014 A 
ATOM     40  C   UNL A   1      36.433  34.428  32.185  1.00  0.00     0.010 A 
ATOM     41  C   UNL A   1      35.170  32.628  32.806  1.00  0.00     0.010 A 
ATOM     42  C   UNL A   1      36.400  33.220  32.715  1.00  0.00    -0.014 A 
BRANCH  42  43
ATOM     43  C   UNL A   1      37.661  32.523  33.200  1.00  0.00     0.031 A 
ATOM     44  C   UNL A   1      38.222  32.958  34.402  1.00  0.00     0.074 A 
ATOM     45  C   UNL A   1      38.184  31.501  32.427  1.00  0.00     0.049 A 
ATOM     46  N   UNL A   1      39.298  32.469  35.021  1.00  0.00    -0.248 NA
ATOM     47  C   UNL A   1      37.689  34.066  35.207  1.00  0.00     0.031 C 
ATOM     48  C   UNL A   1      37.618  31.051  31.217  1.00  0.00     0.029 A 
ATOM     49  N   UNL A   1      39.311  30.748  32.670  1.00  0.00    -0.354 N 
ATOM     50  C   UNL A   1      39.516  33.132  36.158  1.00  0.00     0.074 A 
ATOM     51  C   UNL A   1      38.487  34.173  36.292  1.00  0.00     0.031 C 
ATOM     52  C   UNL A   1      38.400  30.051  30.732  1.00  0.00     0.029 A 
ATOM     53  C   UNL A   1      39.467  29.857  31.631  1.00  0.00     0.049 A 
ATOM     54  H   UNL A   1      39.905  30.834  33.451  1.00  0.00     0.167 HD
ATOM     55  C   UNL A   1      40.530  32.908  37.092  1.00  0.00     0.031 A 
ATOM     56  C   UNL A   1      40.475  28.924  31.458  1.00  0.00     0.031 A 
ATOM     57  C   UNL A   1      41.515  31.944  36.939  1.00  0.00     0.049 A 
ATOM     58  C   UNL A   1      41.525  28.739  32.362  1.00  0.00     0.074 A 
ATOM     59  C   UNL A   1      42.540  31.700  37.873  1.00  0.00     0.029 A 
ATOM     60  N   UNL A   1      41.684  31.069  35.888  1.00  0.00    -0.354 N 
ATOM     61  N   UNL A   1      41.720  29.375  33.518  1.00  0.00    -0.248 NA
ATOM     62  C   UNL A   1      42.617  27.774  32.173  1.00  0.00     0.031 C 
ATOM     63  C   UNL A   1      43.322  30.700  37.388  1.00  0.00     0.029 A 
ATOM     64  C   UNL A   1      42.799  30.303  36.142  1.00  0.00     0.049 A 
ATOM     65  H   UNL A   1      41.107  31.005  35.093  1.00  0.00     0.167 HD
ATOM     66  C   UNL A   1      42.819  28.913  34.117  1.00  0.00     0.074 A 
ATOM     67  C   UNL A   1      43.416  27.883  33.257  1.00  0.00     0.031 C 
ATOM     68  C   UNL A   1      43.348  29.308  35.347  1.00  0.00     0.031 A 
BRANCH  55  69
ATOM     69  C   UNL A   1      40.558  33.770  38.343  1.00  0.00    -0.014 A 
ATOM     70  C   UNL A   1      41.276  34.954  38.337  1.00  0.00     0.010 A 
ATOM     71  C   UNL A   1      39.893  33.373  39.421  1.00  0.00     0.010 A 
ATOM     72  C   UNL A   1      41.469  35.514  39.621  1.00  0.00     0.020 A 
ATOM     73  C   UNL A   1      40.022  34.049  40.611  1.00  0.00     0.020 A 
ATOM     74  C   UNL A   1      40.764  35.194  40.691  1.00  0.00     0.054 A 
BRANCH  74  75
ATOM     75  S   UNL A   1      40.780  36.217  42.185  1.00  0.00     0.124 S 
ATOM     76  O   UNL A   1      42.027  37.104  42.182  1.00  0.00    -0.237 OA
ATOM     77  O   UNL A   1      39.528  37.097  42.214  1.00  0.00    -0.237 OA
ATOM     78  O   UNL A   1      40.801  35.208  43.566  1.00  0.00    -0.744 OA
ENDBRANCH  74  75
ENDBRANCH  55  69
BRANCH  56  79
ATOM     79  C   UNL A   1      40.439  28.051  30.213  1.00  0.00    -0.014 A 
ATOM     80  C   UNL A   1      39.489  27.048  30.114  1.00  0.00     0.010 A 
ATOM     81  C   UNL A   1      41.319  28.264  29.243  1.00  0.00     0.010 A 
ATOM     82  C   UNL A   1      39.734  26.129  29.067  1.00  0.00     0.020 A 
ATOM     83  C   UNL A   1      41.413  27.399  28.180  1.00  0.00     0.020 A 
ATOM     84  C   UNL A   1      40.544  26.352  28.048  1.00  0.00     0.054 A 
BRANCH  84  85
ATOM     85  S   UNL A   1      40.505  25.326  26.557  1.00  0.00     0.124 S 
ATOM     86  O   UNL A   1      39.077  24.834  26.313  1.00  0.00    -0.237 OA
ATOM     87  O   UNL A   1      40.974  26.152  25.357  1.00  0.00    -0.237 OA
ATOM     88  O   UNL A   1      41.542  23.982  26.763  1.00  0.00    -0.744 OA
ENDBRANCH  84  85
ENDBRANCH  56  79
BRANCH  68  89
ATOM     89  C   UNL A   1      44.600  28.605  35.845  1.00  0.00    -0.014 A 
ATOM     90  C   UNL A   1      44.452  27.471  36.626  1.00  0.00     0.010 A 
ATOM     91  C   UNL A   1      45.802  29.071  35.528  1.00  0.00     0.010 A 
ATOM     92  C   UNL A   1      45.643  27.060  37.272  1.00  0.00     0.020 A 
ATOM     93  C   UNL A   1      46.933  28.534  36.094  1.00  0.00     0.020 A 
ATOM     94  C   UNL A   1      46.855  27.448  36.922  1.00  0.00     0.054 A 
BRANCH  94  95
ATOM     95  S   UNL A   1      48.337  26.590  37.509  1.00  0.00     0.124 S 
ATOM     96  O   UNL A   1      49.584  27.305  36.983  1.00  0.00    -0.237 OA
ATOM     97  O   UNL A   1      48.356  26.593  39.040  1.00  0.00    -0.237 OA
ATOM     98  O   UNL A   1      48.324  24.977  36.943  1.00  0.00    -0.744 OA
ENDBRANCH  94  95
ENDBRANCH  68  89
ENDBRANCH  42  43
ENDBRANCH  34  37
ENDBRANCH  32  33
ENDBRANCH  31  32
ENDBRANCH   1  31
TORSDOF 19
ENDMDL
MODEL 2
REMARK VINA RESULT:     -10.9      5.372     11.348
REMARK SMILES CCc1cc(S(F)(F)(F)(F)F)cc2c1O[C@@H](C(F)(F)F)C(C(=O)NCCCCCCNC(=O)c1ccc(-c3c4nc(c(-c5ccc(S(=O)(=O)[O-])cc5)c5ccc([nH]5)c(-c5ccc(S(=O)(=O)[O-])cc5)c5nc(c(-c6ccc(S(=O)(=O)[O-])cc6)c6ccc3[nH]6)C=C5)C=C4)cc1)=C2
REMARK SMILES IDX 28 1 27 2 26 3 25 4 24 5 22 6 23 7 21 9 3 10 4 11 14 12 5 13
REMARK SMILES IDX 13 14 15 15 12 16 94 17 16 18 2 19 1 20 6 21 7 22 8 23 9 24
REMARK SMILES IDX 10 25 11 26 17 27 18 28 19 29 20 30 29 31 30 32 31 33 32 34
REMARK SMILES IDX 33 36 34 37 35 38 93 39 36 40 92 41 37 42 38 43 39 44 86 45
REMARK SMILES IDX 40 46 91 47 85 48 87 49 41 50 90 51 84 52 83 53 42 55 72 56
REMARK SMILES IDX 53 57 71 58 54 59 57 60 70 61 88 62 55 63 56 64 69 66 89 67
REMARK SMILES IDX 58 68 43 69 44 70 52 71 45 72 51 73 46 74 47 75 48 76 49 77
REMARK SMILES IDX 50 78 73 79 74 80 82 81 75 82 81 83 76 84 77 85 78 86 79 87
REMARK SMILES IDX 80 88 59 89 60 90 68 91 61 92 67 93 62 94 63 95 64 96 65 97
REMARK SMILES IDX 66 98
REMARK H PARENT 24 8 31 35 87 54 57 65
REMARK Flexibility Score: inf
ROOT
ATOM      1  C   UNL A   1      36.343  34.203  28.707  1.00  0.00     0.002 C 
ENDROOT
BRANCH   1   2
ATOM      2  C   UNL A   1      37.459  33.290  29.188  1.00  0.00     0.002 C 
BRANCH   2   3
ATOM      3  C   UNL A   1      38.502  34.112  29.927  1.00  0.00     0.021 C 
BRANCH   3   4
ATOM      4  C   UNL A   1      38.364  33.878  31.423  1.00  0.00     0.116 C 
BRANCH   4   5
ATOM      5  N   UNL A   1      36.972  33.529  31.738  1.00  0.00    -0.352 N 
ATOM      6  C   UNL A   1      36.673  32.648  32.876  1.00  0.00     0.251 C 
ATOM      7  O   UNL A   1      35.469  32.347  33.148  1.00  0.00    -0.270 OA
ATOM      8  H   UNL A   1      36.238  33.885  31.186  1.00  0.00     0.163 HD
BRANCH   6   9
ATOM      9  C   UNL A   1      37.805  32.097  33.728  1.00  0.00     0.067 C 
ATOM     10  C   UNL A   1      41.189  30.986  35.909  1.00  0.00    -0.004 A 
ATOM     11  C   UNL A   1      41.889  29.843  35.564  1.00  0.00     0.032 A 
ATOM     12  C   UNL A   1      40.112  31.357  35.142  1.00  0.00     0.131 A 
ATOM     13  C   UNL A   1      41.522  29.095  34.477  1.00  0.00     0.108 A 
ATOM     14  C   UNL A   1      39.701  30.616  34.049  1.00  0.00     0.019 A 
ATOM     15  O   UNL A   1      39.498  32.552  35.429  1.00  0.00    -0.475 OA
ATOM     16  C   UNL A   1      40.429  29.475  33.728  1.00  0.00     0.036 A 
ATOM     17  C   UNL A   1      38.574  31.113  33.279  1.00  0.00     0.025 C 
ATOM     18  C   UNL A   1      38.082  32.662  35.114  1.00  0.00     0.314 C 
BRANCH  10  19
ATOM     19  C   UNL A   1      41.744  31.874  37.011  1.00  0.00     0.036 C 
ATOM     20  C   UNL A   1      43.262  31.900  36.925  1.00  0.00     0.009 C 
ENDBRANCH  10  19
BRANCH  13  21
ATOM     21  S   UNL A   1      42.465  27.616  34.029  1.00  0.00     0.310 S 
ATOM     22  F   UNL A   1      41.984  27.692  32.520  1.00  0.00    -0.094 F 
ATOM     23  F   UNL A   1      41.179  26.754  34.323  1.00  0.00    -0.094 F 
ATOM     24  F   UNL A   1      43.266  26.340  33.645  1.00  0.00    -0.094 F 
ATOM     25  F   UNL A   1      43.697  28.508  33.606  1.00  0.00    -0.094 F 
ATOM     26  F   UNL A   1      41.629  28.929  34.308  1.00  0.00    -0.094 F 
ENDBRANCH  13  21
BRANCH  18  27
ATOM     27  C   UNL A   1      37.680  34.128  35.142  1.00  0.00     0.429 C 
ATOM     28  F   UNL A   1      38.068  34.673  36.292  1.00  0.00    -0.167 F 
ATOM     29  F   UNL A   1      38.260  34.767  34.130  1.00  0.00    -0.167 F 
ATOM     30  F   UNL A   1      36.358  34.228  35.029  1.00  0.00    -0.167 F 
ENDBRANCH  18  27
ENDBRANCH   6   9
ENDBRANCH   4   5
ENDBRANCH   3   4
ENDBRANCH   2   3
ENDBRANCH   1   2
BRANCH   1  31
ATOM     31  C   UNL A   1      35.241  33.366  28.077  1.00  0.00     0.021 C 
BRANCH  31  32
ATOM     32  C   UNL A   1      34.849  32.246  29.027  1.00  0.00     0.116 C 
BRANCH  32  33
ATOM     33  N   UNL A   1      34.017  31.266  28.314  1.00  0.00    -0.352 N 
ATOM     34  C   UNL A   1      34.584  29.968  27.922  1.00  0.00     0.251 C 
ATOM     35  H   UNL A   1      33.081  31.480  28.099  1.00  0.00     0.163 HD
ATOM     36  O   UNL A   1      33.864  29.120  27.306  1.00  0.00    -0.269 OA
BRANCH  34  37
ATOM     37  C   UNL A   1      36.030  29.638  28.254  1.00  0.00     0.039 A 
ATOM     38  C   UNL A   1      36.338  29.238  29.543  1.00  0.00     0.014 A 
ATOM     39  C   UNL A   1      36.969  29.732  27.319  1.00  0.00     0.014 A 
ATOM     40  C   UNL A   1      37.724  29.235  29.828  1.00  0.00     0.010 A 
ATOM     41  C   UNL A   1      38.295  29.583  27.643  1.00  0.00     0.010 A 
ATOM     42  C   UNL A   1      38.675  29.246  28.912  1.00  0.00    -0.014 A 
BRANCH  42  43
ATOM     43  C   UNL A   1      40.117  28.902  29.252  1.00  0.00     0.031 A 
ATOM     44  C   UNL A   1      40.580  27.631  28.907  1.00  0.00     0.074 A 
ATOM     45  C   UNL A   1      40.889  29.862  29.882  1.00  0.00     0.049 A 
ATOM     46  N   UNL A   1      41.807  27.137  29.081  1.00  0.00    -0.248 NA
ATOM     47  C   UNL A   1      39.752  26.597  28.269  1.00  0.00     0.031 C 
ATOM     48  C   UNL A   1      40.431  31.149  30.225  1.00  0.00     0.029 A 
ATOM     49  N   UNL A   1      42.202  29.761  30.285  1.00  0.00    -0.354 N 
ATOM     50  C   UNL A   1      41.874  25.892  28.607  1.00  0.00     0.074 A 
ATOM     51  C   UNL A   1      40.551  25.524  28.083  1.00  0.00     0.031 C 
ATOM     52  C   UNL A   1      41.450  31.810  30.837  1.00  0.00     0.029 A 
ATOM     53  C   UNL A   1      42.562  30.948  30.885  1.00  0.00     0.049 A 
ATOM     54  H   UNL A   1      42.784  28.975  30.165  1.00  0.00     0.167 HD
ATOM     55  C   UNL A   1      42.987  25.049  28.588  1.00  0.00     0.031 A 
ATOM     56  C   UNL A   1      43.783  31.277  31.450  1.00  0.00     0.031 A 
ATOM     57  C   UNL A   1      44.221  25.394  29.115  1.00  0.00     0.049 A 
ATOM     58  C   UNL A   1      44.880  30.412  31.484  1.00  0.00     0.074 A 
ATOM     59  C   UNL A   1      45.356  24.560  29.098  1.00  0.00     0.029 A 
ATOM     60  N   UNL A   1      44.574  26.572  29.737  1.00  0.00    -0.354 N 
ATOM     61  N   UNL A   1      44.958  29.181  30.975  1.00  0.00    -0.248 NA
ATOM     62  C   UNL A   1      46.169  30.738  32.109  1.00  0.00     0.031 C 
ATOM     63  C   UNL A   1      46.374  25.220  29.709  1.00  0.00     0.029 A 
ATOM     64  C   UNL A   1      45.893  26.479  30.119  1.00  0.00     0.049 A 
ATOM     65  H   UNL A   1      43.983  27.347  29.882  1.00  0.00     0.167 HD
ATOM     66  C   UNL A   1      46.174  28.674  31.186  1.00  0.00     0.074 A 
ATOM     67  C   UNL A   1      46.968  29.665  31.924  1.00  0.00     0.031 C 
ATOM     68  C   UNL A   1      46.654  27.424  30.789  1.00  0.00     0.031 A 
BRANCH  55  69
ATOM     69  C   UNL A   1      42.836  23.674  27.957  1.00  0.00    -0.014 A 
ATOM     70  C   UNL A   1      43.156  23.502  26.620  1.00  0.00     0.010 A 
ATOM     71  C   UNL A   1      42.400  22.662  28.696  1.00  0.00     0.010 A 
ATOM     72  C   UNL A   1      42.705  22.277  26.076  1.00  0.00     0.020 A 
ATOM     73  C   UNL A   1      42.107  21.450  28.121  1.00  0.00     0.020 A 
ATOM     74  C   UNL A   1      42.343  21.227  26.793  1.00  0.00     0.054 A 
BRANCH  74  75
ATOM     75  S   UNL A   1      42.169  19.583  26.055  1.00  0.00     0.124 S 
ATOM     76  O   UNL A   1      42.646  18.524  27.051  1.00  0.00    -0.237 OA
ATOM     77  O   UNL A   1      40.699  19.332  25.710  1.00  0.00    -0.237 OA
ATOM     78  O   UNL A   1      43.112  19.494  24.632  1.00  0.00    -0.744 OA
ENDBRANCH  74  75
ENDBRANCH  55  69
BRANCH  56  79
ATOM     79  C   UNL A   1      43.939  32.658  32.067  1.00  0.00    -0.014 A 
ATOM     80  C   UNL A   1      43.507  32.875  33.364  1.00  0.00     0.010 A 
ATOM     81  C   UNL A   1      44.487  33.632  31.351  1.00  0.00     0.010 A 
ATOM     82  C   UNL A   1      43.433  34.242  33.722  1.00  0.00     0.020 A 
ATOM     83  C   UNL A   1      44.501  34.923  31.821  1.00  0.00     0.020 A 
ATOM     84  C   UNL A   1      44.036  35.220  33.072  1.00  0.00     0.054 A 
BRANCH  84  85
ATOM     85  S   UNL A   1      44.236  36.866  33.798  1.00  0.00     0.124 S 
ATOM     86  O   UNL A   1      45.090  37.733  32.870  1.00  0.00    -0.237 OA
ATOM     87  O   UNL A   1      42.862  37.514  33.982  1.00  0.00    -0.237 OA
ATOM     88  O   UNL A   1      45.009  36.728  35.318  1.00  0.00    -0.744 OA
ENDBRANCH  84  85
ENDBRANCH  56  79
BRANCH  68  89
ATOM     89  C   UNL A   1      48.099  27.080  31.112  1.00  0.00    -0.014 A 
ATOM     90  C   UNL A   1      49.068  27.342  30.158  1.00  0.00     0.010 A 
ATOM     91  C   UNL A   1      48.416  26.546  32.286  1.00  0.00     0.010 A 
ATOM     92  C   UNL A   1      50.317  26.734  30.426  1.00  0.00     0.020 A 
ATOM     93  C   UNL A   1      49.691  26.094  32.528  1.00  0.00     0.020 A 
ATOM     94  C   UNL A   1      50.685  26.268  31.605  1.00  0.00     0.054 A 
BRANCH  94  95
ATOM     95  S   UNL A   1      52.412  25.879  31.980  1.00  0.00     0.124 S 
ATOM     96  O   UNL A   1      52.550  24.378  32.251  1.00  0.00    -0.237 OA
ATOM     97  O   UNL A   1      53.293  26.265  30.789  1.00  0.00    -0.237 OA
ATOM     98  O   UNL A   1      52.907  26.755  33.363  1.00  0.00    -0.744 OA
ENDBRANCH  94  95
ENDBRANCH  68  89
ENDBRANCH  42  43
ENDBRANCH  34  37
ENDBRANCH  32  33
ENDBRANCH  31  32
ENDBRANCH   1  31
TORSDOF 19
ENDMDL
MODEL 3
REMARK VINA RESULT:     -10.8      6.790     11.081
REMARK SMILES CCc1cc(S(F)(F)(F)(F)F)cc2c1O[C@@H](C(F)(F)F)C(C(=O)NCCCCCCNC(=O)c1ccc(-c3c4nc(c(-c5ccc(S(=O)(=O)[O-])cc5)c5ccc([nH]5)c(-c5ccc(S(=O)(=O)[O-])cc5)c5nc(c(-c6ccc(S(=O)(=O)[O-])cc6)c6ccc3[nH]6)C=C5)C=C4)cc1)=C2
REMARK SMILES IDX 28 1 27 2 26 3 25 4 24 5 22 6 23 7 21 9 3 10 4 11 14 12 5 13
REMARK SMILES IDX 13 14 15 15 12 16 94 17 16 18 2 19 1 20 6 21 7 22 8 23 9 24
REMARK SMILES IDX 10 25 11 26 17 27 18 28 19 29 20 30 29 31 30 32 31 33 32 34
REMARK SMILES IDX 33 36 34 37 35 38 93 39 36 40 92 41 37 42 38 43 39 44 86 45
REMARK SMILES IDX 40 46 91 47 85 48 87 49 41 50 90 51 84 52 83 53 42 55 72 56
REMARK SMILES IDX 53 57 71 58 54 59 57 60 70 61 88 62 55 63 56 64 69 66 89 67
REMARK SMILES IDX 58 68 43 69 44 70 52 71 45 72 51 73 46 74 47 75 48 76 49 77
REMARK SMILES IDX 50 78 73 79 74 80 82 81 75 82 81 83 76 84 77 85 78 86 79 87
REMARK SMILES IDX 80 88 59 89 60 90 68 91 61 92 67 93 62 94 63 95 64 96 65 97
REMARK SMILES IDX 66 98
REMARK H PARENT 24 8 31 35 87 54 57 65
REMARK Flexibility Score: inf
ROOT
ATOM      1  C   UNL A   1      39.745  22.520  26.847  1.00  0.00     0.002 C 
ENDROOT
BRANCH   1   2
ATOM      2  C   UNL A   1      39.020  23.528  25.970  1.00  0.00     0.002 C 
BRANCH   2   3
ATOM      3  C   UNL A   1      37.615  23.747  26.504  1.00  0.00     0.021 C 
BRANCH   3   4
ATOM      4  C   UNL A   1      36.625  22.958  25.663  1.00  0.00     0.116 C 
BRANCH   4   5
ATOM      5  N   UNL A   1      35.940  21.972  26.510  1.00  0.00    -0.352 N 
ATOM      6  C   UNL A   1      34.480  22.032  26.677  1.00  0.00     0.251 C 
ATOM      7  O   UNL A   1      33.888  21.179  27.409  1.00  0.00    -0.270 OA
ATOM      8  H   UNL A   1      36.458  21.270  26.967  1.00  0.00     0.163 HD
BRANCH   6   9
ATOM      9  C   UNL A   1      33.679  23.115  25.972  1.00  0.00     0.067 C 
ATOM     10  C   UNL A   1      31.840  26.078  23.674  1.00  0.00    -0.004 A 
ATOM     11  C   UNL A   1      31.770  27.376  24.148  1.00  0.00     0.032 A 
ATOM     12  C   UNL A   1      32.498  25.136  24.426  1.00  0.00     0.131 A 
ATOM     13  C   UNL A   1      32.347  27.721  25.341  1.00  0.00     0.108 A 
ATOM     14  C   UNL A   1      33.075  25.443  25.644  1.00  0.00     0.019 A 
ATOM     15  O   UNL A   1      32.656  23.880  23.890  1.00  0.00    -0.475 OA
ATOM     16  C   UNL A   1      32.990  26.758  26.089  1.00  0.00     0.036 A 
ATOM     17  C   UNL A   1      33.781  24.385  26.345  1.00  0.00     0.025 C 
ATOM     18  C   UNL A   1      32.743  22.767  24.823  1.00  0.00     0.314 C 
BRANCH  10  19
ATOM     19  C   UNL A   1      31.342  25.790  22.267  1.00  0.00     0.036 C 
ATOM     20  C   UNL A   1      32.499  25.897  21.288  1.00  0.00     0.009 C 
ENDBRANCH  10  19
BRANCH  13  21
ATOM     21  S   UNL A   1      32.264  29.430  25.934  1.00  0.00     0.310 S 
ATOM     22  F   UNL A   1      30.966  29.730  25.073  1.00  0.00    -0.094 F 
ATOM     23  F   UNL A   1      33.113  29.866  24.680  1.00  0.00    -0.094 F 
ATOM     24  F   UNL A   1      32.197  30.901  26.435  1.00  0.00    -0.094 F 
ATOM     25  F   UNL A   1      31.298  28.995  27.105  1.00  0.00    -0.094 F 
ATOM     26  F   UNL A   1      32.229  27.951  25.376  1.00  0.00    -0.094 F 
ENDBRANCH  13  21
BRANCH  18  27
ATOM     27  C   UNL A   1      33.284  21.549  24.093  1.00  0.00     0.429 C 
ATOM     28  F   UNL A   1      32.638  21.400  22.940  1.00  0.00    -0.167 F 
ATOM     29  F   UNL A   1      34.583  21.713  23.857  1.00  0.00    -0.167 F 
ATOM     30  F   UNL A   1      33.104  20.466  24.844  1.00  0.00    -0.167 F 
ENDBRANCH  18  27
ENDBRANCH   6   9
ENDBRANCH   4   5
ENDBRANCH   3   4
ENDBRANCH   2   3
ENDBRANCH   1   2
BRANCH   1  31
ATOM     31  C   UNL A   1      39.762  21.167  26.155  1.00  0.00     0.021 C 
BRANCH  31  32
ATOM     32  C   UNL A   1      40.543  20.175  27.003  1.00  0.00     0.116 C 
BRANCH  32  33
ATOM     33  N   UNL A   1      41.370  19.329  26.129  1.00  0.00    -0.352 N 
ATOM     34  C   UNL A   1      42.627  19.853  25.576  1.00  0.00     0.251 C 
ATOM     35  H   UNL A   1      41.082  18.413  25.916  1.00  0.00     0.163 HD
ATOM     36  O   UNL A   1      43.343  19.122  24.821  1.00  0.00    -0.269 OA
BRANCH  34  37
ATOM     37  C   UNL A   1      43.072  21.269  25.905  1.00  0.00     0.039 A 
ATOM     38  C   UNL A   1      43.083  22.211  24.892  1.00  0.00     0.014 A 
ATOM     39  C   UNL A   1      43.437  21.583  27.143  1.00  0.00     0.014 A 
ATOM     40  C   UNL A   1      43.776  23.400  25.220  1.00  0.00     0.010 A 
ATOM     41  C   UNL A   1      43.983  22.814  27.419  1.00  0.00     0.010 A 
ATOM     42  C   UNL A   1      44.079  23.774  26.450  1.00  0.00    -0.014 A 
BRANCH  42  43
ATOM     43  C   UNL A   1      44.511  25.195  26.771  1.00  0.00     0.031 A 
ATOM     44  C   UNL A   1      43.533  26.086  27.220  1.00  0.00     0.074 A 
ATOM     45  C   UNL A   1      45.843  25.530  26.602  1.00  0.00     0.049 A 
ATOM     46  N   UNL A   1      43.698  27.358  27.587  1.00  0.00    -0.248 NA
ATOM     47  C   UNL A   1      42.111  25.742  27.368  1.00  0.00     0.031 C 
ATOM     48  C   UNL A   1      46.836  24.635  26.158  1.00  0.00     0.029 A 
ATOM     49  N   UNL A   1      46.443  26.750  26.823  1.00  0.00    -0.354 N 
ATOM     50  C   UNL A   1      42.533  27.880  27.975  1.00  0.00     0.074 A 
ATOM     51  C   UNL A   1      41.494  26.850  27.835  1.00  0.00     0.031 C 
ATOM     52  C   UNL A   1      48.015  25.309  26.100  1.00  0.00     0.029 A 
ATOM     53  C   UNL A   1      47.779  26.636  26.508  1.00  0.00     0.049 A 
ATOM     54  H   UNL A   1      45.994  27.564  27.148  1.00  0.00     0.167 HD
ATOM     55  C   UNL A   1      42.296  29.174  28.445  1.00  0.00     0.031 A 
ATOM     56  C   UNL A   1      48.752  27.621  26.565  1.00  0.00     0.031 A 
ATOM     57  C   UNL A   1      43.278  30.147  28.542  1.00  0.00     0.049 A 
ATOM     58  C   UNL A   1      48.503  28.933  26.978  1.00  0.00     0.074 A 
ATOM     59  C   UNL A   1      43.058  31.453  29.020  1.00  0.00     0.029 A 
ATOM     60  N   UNL A   1      44.610  30.040  28.205  1.00  0.00    -0.354 N 
ATOM     61  N   UNL A   1      47.347  29.443  27.404  1.00  0.00    -0.248 NA
ATOM     62  C   UNL A   1      49.519  29.994  27.012  1.00  0.00     0.031 C 
ATOM     63  C   UNL A   1      44.237  32.127  28.962  1.00  0.00     0.029 A 
ATOM     64  C   UNL A   1      45.214  31.253  28.446  1.00  0.00     0.049 A 
ATOM     65  H   UNL A   1      45.052  29.234  27.851  1.00  0.00     0.167 HD
ATOM     66  C   UNL A   1      47.504  30.727  27.732  1.00  0.00     0.074 A 
ATOM     67  C   UNL A   1      48.902  31.101  27.477  1.00  0.00     0.031 C 
ATOM     68  C   UNL A   1      46.539  31.601  28.236  1.00  0.00     0.031 A 
BRANCH  55  69
ATOM     69  C   UNL A   1      40.883  29.535  28.871  1.00  0.00    -0.014 A 
ATOM     70  C   UNL A   1      40.607  29.731  30.214  1.00  0.00     0.010 A 
ATOM     71  C   UNL A   1      39.936  29.657  27.949  1.00  0.00     0.010 A 
ATOM     72  C   UNL A   1      39.226  29.771  30.516  1.00  0.00     0.020 A 
ATOM     73  C   UNL A   1      38.623  29.831  28.312  1.00  0.00     0.020 A 
ATOM     74  C   UNL A   1      38.271  29.973  29.625  1.00  0.00     0.054 A 
BRANCH  74  75
ATOM     75  S   UNL A   1      36.585  30.413  30.119  1.00  0.00     0.124 S 
ATOM     76  O   UNL A   1      36.181  29.590  31.344  1.00  0.00    -0.237 OA
ATOM     77  O   UNL A   1      36.527  31.903  30.464  1.00  0.00    -0.237 OA
ATOM     78  O   UNL A   1      35.510  30.083  28.830  1.00  0.00    -0.744 OA
ENDBRANCH  74  75
ENDBRANCH  55  69
BRANCH  56  79
ATOM     79  C   UNL A   1      50.169  27.255  26.154  1.00  0.00    -0.014 A 
ATOM     80  C   UNL A   1      50.534  27.341  24.821  1.00  0.00     0.010 A 
ATOM     81  C   UNL A   1      51.033  26.858  27.081  1.00  0.00     0.010 A 
ATOM     82  C   UNL A   1      51.763  26.706  24.522  1.00  0.00     0.020 A 
ATOM     83  C   UNL A   1      52.268  26.374  26.725  1.00  0.00     0.020 A 
ATOM     84  C   UNL A   1      52.673  26.375  25.419  1.00  0.00     0.054 A 
BRANCH  84  85
ATOM     85  S   UNL A   1      54.366  25.946  24.945  1.00  0.00     0.124 S 
ATOM     86  O   UNL A   1      54.542  24.426  24.999  1.00  0.00    -0.237 OA
ATOM     87  O   UNL A   1      54.640  26.441  23.523  1.00  0.00    -0.237 OA
ATOM     88  O   UNL A   1      55.465  26.684  26.027  1.00  0.00    -0.744 OA
ENDBRANCH  84  85
ENDBRANCH  56  79
BRANCH  68  89
ATOM     89  C   UNL A   1      46.968  33.019  28.574  1.00  0.00    -0.014 A 
ATOM     90  C   UNL A   1      46.832  33.998  27.605  1.00  0.00     0.010 A 
ATOM     91  C   UNL A   1      47.455  33.303  29.776  1.00  0.00     0.010 A 
ATOM     92  C   UNL A   1      47.513  35.202  27.905  1.00  0.00     0.020 A 
ATOM     93  C   UNL A   1      47.984  34.544  30.042  1.00  0.00     0.020 A 
ATOM     94  C   UNL A   1      47.936  35.542  29.108  1.00  0.00     0.054 A 
BRANCH  94  95
ATOM     95  S   UNL A   1      48.428  37.239  29.502  1.00  0.00     0.124 S 
ATOM     96  O   UNL A   1      47.179  38.094  29.725  1.00  0.00    -0.237 OA
ATOM     97  O   UNL A   1      49.281  37.241  30.773  1.00  0.00    -0.237 OA
ATOM     98  O   UNL A   1      49.336  37.885  28.205  1.00  0.00    -0.744 OA
ENDBRANCH  94  95
ENDBRANCH  68  89
ENDBRANCH  42  43
ENDBRANCH  34  37
ENDBRANCH  32  33
ENDBRANCH  31  32
ENDBRANCH   1  31
TORSDOF 19
ENDMDL
