MODEL 1
REMARK VINA RESULT:     -13.9      0.000      0.000
REMARK SMILES Cc1ccc([C@@H]2[C@H](C(=O)NCCCCCCNC(=O)c3ccc(-c4c5nc(c(-c6ccc(S(=O)(=O)[O-])cc6)c6ccc([nH]6)c(-c6ccc(S(=O)(=O)[O-])cc6)c6nc(c(-c7ccc(S(=O)(=O)[O-])cc7)c7ccc4[nH]7)C=C6)C=C5)cc3)c3ccccc3C(=O)N2c2ccccc2)cc1
REMARK SMILES IDX 14 1 13 2 12 3 11 4 10 5 8 6 9 7 7 9 6 10 88 11 80 12 86 13
REMARK SMILES IDX 81 14 85 15 87 16 82 17 84 18 83 19 5 20 1 21 2 22 3 23
REMARK SMILES IDX 96 24 4 25 95 26 89 27 90 28 94 29 91 30 93 31 92 32 15 33
REMARK SMILES IDX 16 34 17 35 18 36 19 38 20 39 21 40 79 41 22 42 78 43 23 44
REMARK SMILES IDX 24 45 25 46 72 47 26 48 77 49 71 50 73 51 27 52 76 53 70 54
REMARK SMILES IDX 69 55 28 57 58 58 39 59 57 60 40 61 43 62 56 63 74 64 41 65
REMARK SMILES IDX 42 66 55 68 75 69 44 70 29 71 30 72 38 73 31 74 37 75 32 76
REMARK SMILES IDX 33 77 34 78 35 79 36 80 59 81 60 82 68 83 61 84 67 85 62 86
REMARK SMILES IDX 63 87 64 88 65 89 66 90 45 91 46 92 54 93 47 94 53 95 48 96
REMARK SMILES IDX 49 97 50 98 51 99 52 100
REMARK H PARENT 10 8 17 37 73 56 43 67
REMARK Flexibility Score: inf
ROOT
ATOM      1  C   UNL A   1      33.619  27.677  25.282  1.00  0.00     0.002 C 
ENDROOT
BRANCH   1   2
ATOM      2  C   UNL A   1      33.028  27.250  23.926  1.00  0.00     0.002 C 
BRANCH   2   3
ATOM      3  C   UNL A   1      34.011  26.714  22.879  1.00  0.00     0.021 C 
BRANCH   3   4
ATOM      4  C   UNL A   1      33.545  25.457  22.141  1.00  0.00     0.116 C 
BRANCH   4   5
ATOM      5  N   UNL A   1      33.531  24.304  23.014  1.00  0.00    -0.355 N 
ATOM      6  C   UNL A   1      32.802  23.182  22.695  1.00  0.00     0.230 C 
ATOM      7  O   UNL A   1      32.935  22.624  21.607  1.00  0.00    -0.274 OA
ATOM      8  H   UNL A   1      34.051  24.322  23.850  1.00  0.00     0.163 HD
BRANCH   6   9
ATOM      9  C   UNL A   1      31.758  22.716  23.718  1.00  0.00     0.137 C 
ATOM     10  C   UNL A   1      32.270  21.644  24.719  1.00  0.00     0.138 C 
ATOM     11  N   UNL A   1      32.957  22.312  25.835  1.00  0.00    -0.300 N 
ATOM     12  C   UNL A   1      31.058  23.845  24.487  1.00  0.00    -0.020 A 
ATOM     13  C   UNL A   1      32.027  22.976  26.658  1.00  0.00     0.259 C 
ATOM     14  C   UNL A   1      30.310  24.816  23.801  1.00  0.00     0.005 A 
ATOM     15  C   UNL A   1      31.145  23.925  25.894  1.00  0.00     0.044 A 
ATOM     16  O   UNL A   1      31.990  22.897  27.879  1.00  0.00    -0.269 OA
ATOM     17  C   UNL A   1      29.704  25.863  24.498  1.00  0.00     0.000 A 
ATOM     18  C   UNL A   1      30.502  24.953  26.590  1.00  0.00     0.014 A 
ATOM     19  C   UNL A   1      29.795  25.929  25.888  1.00  0.00     0.001 A 
BRANCH  10  20
ATOM     20  C   UNL A   1      32.716  20.287  24.183  1.00  0.00    -0.024 A 
ATOM     21  C   UNL A   1      33.940  16.273  23.107  1.00  0.00     0.044 C 
ATOM     22  C   UNL A   1      33.592  17.702  23.394  1.00  0.00    -0.051 A 
ATOM     23  C   UNL A   1      32.563  18.353  22.708  1.00  0.00     0.004 A 
ATOM     24  C   UNL A   1      34.249  18.386  24.415  1.00  0.00     0.004 A 
ATOM     25  C   UNL A   1      32.169  19.650  23.065  1.00  0.00     0.006 A 
ATOM     26  C   UNL A   1      33.816  19.655  24.802  1.00  0.00     0.006 A 
ENDBRANCH  10  20
BRANCH  11  27
ATOM     27  C   UNL A   1      34.262  22.934  25.719  1.00  0.00     0.045 A 
ATOM     28  C   UNL A   1      35.384  22.139  25.404  1.00  0.00     0.026 A 
ATOM     29  C   UNL A   1      34.509  24.276  26.030  1.00  0.00     0.026 A 
ATOM     30  C   UNL A   1      36.688  22.636  25.476  1.00  0.00     0.002 A 
ATOM     31  C   UNL A   1      35.813  24.790  26.059  1.00  0.00     0.002 A 
ATOM     32  C   UNL A   1      36.903  23.966  25.805  1.00  0.00     0.000 A 
ENDBRANCH  11  27
ENDBRANCH   6   9
ENDBRANCH   4   5
ENDBRANCH   3   4
ENDBRANCH   2   3
ENDBRANCH   1   2
BRANCH   1  33
ATOM     33  C   UNL A   1      33.552  29.168  25.630  1.00  0.00     0.021 C 
BRANCH  33  34
ATOM     34  C   UNL A   1      34.133  29.527  26.990  1.00  0.00     0.116 C 
BRANCH  34  35
ATOM     35  N   UNL A   1      35.095  30.619  26.977  1.00  0.00    -0.352 N 
ATOM     36  C   UNL A   1      35.962  30.794  28.058  1.00  0.00     0.251 C 
ATOM     37  H   UNL A   1      35.135  31.232  26.207  1.00  0.00     0.163 HD
ATOM     38  O   UNL A   1      35.930  31.733  28.833  1.00  0.00    -0.269 OA
BRANCH  36  39
ATOM     39  C   UNL A   1      36.900  29.669  28.257  1.00  0.00     0.039 A 
ATOM     40  C   UNL A   1      37.003  29.041  29.500  1.00  0.00     0.014 A 
ATOM     41  C   UNL A   1      37.827  29.422  27.245  1.00  0.00     0.014 A 
ATOM     42  C   UNL A   1      38.133  28.271  29.780  1.00  0.00     0.010 A 
ATOM     43  C   UNL A   1      38.985  28.746  27.555  1.00  0.00     0.010 A 
ATOM     44  C   UNL A   1      39.156  28.198  28.831  1.00  0.00    -0.014 A 
BRANCH  44  45
ATOM     45  C   UNL A   1      40.481  27.642  29.079  1.00  0.00     0.031 A 
ATOM     46  C   UNL A   1      40.805  26.264  28.644  1.00  0.00     0.074 A 
ATOM     47  C   UNL A   1      41.461  28.445  29.550  1.00  0.00     0.049 A 
ATOM     48  N   UNL A   1      41.784  25.564  29.111  1.00  0.00    -0.248 NA
ATOM     49  C   UNL A   1      40.007  25.544  27.657  1.00  0.00     0.031 C 
ATOM     50  C   UNL A   1      42.898  28.190  29.504  1.00  0.00     0.029 A 
ATOM     51  N   UNL A   1      41.345  29.575  30.361  1.00  0.00    -0.354 N 
ATOM     52  C   UNL A   1      41.933  24.464  28.294  1.00  0.00     0.074 A 
ATOM     53  C   UNL A   1      40.751  24.452  27.463  1.00  0.00     0.031 C 
ATOM     54  C   UNL A   1      43.491  28.913  30.468  1.00  0.00     0.029 A 
ATOM     55  C   UNL A   1      42.432  29.532  31.248  1.00  0.00     0.049 A 
ATOM     56  H   UNL A   1      40.645  30.264  30.319  1.00  0.00     0.167 HD
ATOM     57  C   UNL A   1      43.105  23.768  28.300  1.00  0.00     0.031 A 
ATOM     58  C   UNL A   1      42.312  29.458  32.607  1.00  0.00     0.031 A 
ATOM     59  C   UNL A   1      44.040  24.291  29.293  1.00  0.00     0.049 A 
ATOM     60  C   UNL A   1      43.015  28.254  33.193  1.00  0.00     0.074 A 
ATOM     61  C   UNL A   1      45.142  25.126  29.197  1.00  0.00     0.029 A 
ATOM     62  N   UNL A   1      43.733  24.195  30.645  1.00  0.00    -0.354 N 
ATOM     63  N   UNL A   1      43.379  27.215  32.494  1.00  0.00    -0.248 NA
ATOM     64  C   UNL A   1      43.332  28.107  34.610  1.00  0.00     0.031 C 
ATOM     65  C   UNL A   1      45.455  25.589  30.499  1.00  0.00     0.029 A 
ATOM     66  C   UNL A   1      44.561  25.015  31.387  1.00  0.00     0.049 A 
ATOM     67  H   UNL A   1      43.024  23.625  31.020  1.00  0.00     0.167 HD
ATOM     68  C   UNL A   1      43.960  26.285  33.314  1.00  0.00     0.074 A 
ATOM     69  C   UNL A   1      43.912  26.893  34.631  1.00  0.00     0.031 C 
ATOM     70  C   UNL A   1      44.425  25.093  32.836  1.00  0.00     0.031 A 
BRANCH  57  71
ATOM     71  C   UNL A   1      43.519  22.806  27.205  1.00  0.00    -0.014 A 
ATOM     72  C   UNL A   1      42.762  21.633  26.989  1.00  0.00     0.010 A 
ATOM     73  C   UNL A   1      44.658  22.961  26.393  1.00  0.00     0.010 A 
ATOM     74  C   UNL A   1      43.175  20.629  26.100  1.00  0.00     0.020 A 
ATOM     75  C   UNL A   1      45.104  21.951  25.525  1.00  0.00     0.020 A 
ATOM     76  C   UNL A   1      44.364  20.781  25.395  1.00  0.00     0.054 A 
BRANCH  76  77
ATOM     77  S   UNL A   1      44.930  19.438  24.318  1.00  0.00     0.124 S 
ATOM     78  O   UNL A   1      44.252  18.275  24.884  1.00  0.00    -0.237 OA
ATOM     79  O   UNL A   1      44.456  19.867  23.005  1.00  0.00    -0.237 OA
ATOM     80  O   UNL A   1      46.382  19.446  24.487  1.00  0.00    -0.744 OA
ENDBRANCH  76  77
ENDBRANCH  57  71
BRANCH  58  81
ATOM     81  C   UNL A   1      41.061  30.062  33.145  1.00  0.00    -0.014 A 
ATOM     82  C   UNL A   1      41.128  31.407  33.570  1.00  0.00     0.010 A 
ATOM     83  C   UNL A   1      39.811  29.516  32.803  1.00  0.00     0.010 A 
ATOM     84  C   UNL A   1      40.012  32.241  33.456  1.00  0.00     0.020 A 
ATOM     85  C   UNL A   1      38.690  30.351  32.696  1.00  0.00     0.020 A 
ATOM     86  C   UNL A   1      38.825  31.722  32.942  1.00  0.00     0.054 A 
BRANCH  86  87
ATOM     87  S   UNL A   1      37.533  32.892  32.417  1.00  0.00     0.124 S 
ATOM     88  O   UNL A   1      36.310  32.222  32.845  1.00  0.00    -0.237 OA
ATOM     89  O   UNL A   1      37.889  34.100  33.166  1.00  0.00    -0.237 OA
ATOM     90  O   UNL A   1      37.730  32.983  30.974  1.00  0.00    -0.744 OA
ENDBRANCH  86  87
ENDBRANCH  58  81
BRANCH  70  91
ATOM     91  C   UNL A   1      44.887  23.914  33.661  1.00  0.00    -0.014 A 
ATOM     92  C   UNL A   1      44.059  22.856  34.063  1.00  0.00     0.010 A 
ATOM     93  C   UNL A   1      46.268  23.788  33.956  1.00  0.00     0.010 A 
ATOM     94  C   UNL A   1      44.566  21.762  34.781  1.00  0.00     0.020 A 
ATOM     95  C   UNL A   1      46.792  22.681  34.630  1.00  0.00     0.020 A 
ATOM     96  C   UNL A   1      45.930  21.684  35.064  1.00  0.00     0.054 A 
BRANCH  96  97
ATOM     97  S   UNL A   1      46.584  20.239  35.935  1.00  0.00     0.124 S 
ATOM     98  O   UNL A   1      46.420  19.186  34.937  1.00  0.00    -0.237 OA
ATOM     99  O   UNL A   1      47.966  20.622  36.218  1.00  0.00    -0.237 OA
ATOM    100  O   UNL A   1      45.724  20.131  37.111  1.00  0.00    -0.744 OA
ENDBRANCH  96  97
ENDBRANCH  70  91
ENDBRANCH  44  45
ENDBRANCH  36  39
ENDBRANCH  34  35
ENDBRANCH  33  34
ENDBRANCH   1  33
TORSDOF 18
ENDMDL
MODEL 2
REMARK VINA RESULT:     -13.3      1.572      2.117
REMARK SMILES Cc1ccc([C@@H]2[C@H](C(=O)NCCCCCCNC(=O)c3ccc(-c4c5nc(c(-c6ccc(S(=O)(=O)[O-])cc6)c6ccc([nH]6)c(-c6ccc(S(=O)(=O)[O-])cc6)c6nc(c(-c7ccc(S(=O)(=O)[O-])cc7)c7ccc4[nH]7)C=C6)C=C5)cc3)c3ccccc3C(=O)N2c2ccccc2)cc1
REMARK SMILES IDX 14 1 13 2 12 3 11 4 10 5 8 6 9 7 7 9 6 10 88 11 80 12 86 13
REMARK SMILES IDX 81 14 85 15 87 16 82 17 84 18 83 19 5 20 1 21 2 22 3 23
REMARK SMILES IDX 96 24 4 25 95 26 89 27 90 28 94 29 91 30 93 31 92 32 15 33
REMARK SMILES IDX 16 34 17 35 18 36 19 38 20 39 21 40 79 41 22 42 78 43 23 44
REMARK SMILES IDX 24 45 25 46 72 47 26 48 77 49 71 50 73 51 27 52 76 53 70 54
REMARK SMILES IDX 69 55 28 57 58 58 39 59 57 60 40 61 43 62 56 63 74 64 41 65
REMARK SMILES IDX 42 66 55 68 75 69 44 70 29 71 30 72 38 73 31 74 37 75 32 76
REMARK SMILES IDX 33 77 34 78 35 79 36 80 59 81 60 82 68 83 61 84 67 85 62 86
REMARK SMILES IDX 63 87 64 88 65 89 66 90 45 91 46 92 54 93 47 94 53 95 48 96
REMARK SMILES IDX 49 97 50 98 51 99 52 100
REMARK H PARENT 10 8 17 37 73 56 43 67
REMARK Flexibility Score: inf
ROOT
ATOM      1  C   UNL A   1      33.163  27.194  25.129  1.00  0.00     0.002 C 
ENDROOT
BRANCH   1   2
ATOM      2  C   UNL A   1      32.906  26.995  23.623  1.00  0.00     0.002 C 
BRANCH   2   3
ATOM      3  C   UNL A   1      34.019  26.321  22.813  1.00  0.00     0.021 C 
BRANCH   3   4
ATOM      4  C   UNL A   1      33.595  25.053  22.067  1.00  0.00     0.116 C 
BRANCH   4   5
ATOM      5  N   UNL A   1      33.489  23.922  22.962  1.00  0.00    -0.355 N 
ATOM      6  C   UNL A   1      32.650  22.870  22.677  1.00  0.00     0.230 C 
ATOM      7  O   UNL A   1      32.708  22.283  21.598  1.00  0.00    -0.274 OA
ATOM      8  H   UNL A   1      34.024  23.905  23.788  1.00  0.00     0.163 HD
BRANCH   6   9
ATOM      9  C   UNL A   1      31.587  22.523  23.728  1.00  0.00     0.137 C 
ATOM     10  C   UNL A   1      32.066  21.537  24.829  1.00  0.00     0.138 C 
ATOM     11  N   UNL A   1      32.758  22.290  25.886  1.00  0.00    -0.300 N 
ATOM     12  C   UNL A   1      30.906  23.733  24.381  1.00  0.00    -0.020 A 
ATOM     13  C   UNL A   1      31.836  23.048  26.634  1.00  0.00     0.259 C 
ATOM     14  C   UNL A   1      30.187  24.653  23.601  1.00  0.00     0.005 A 
ATOM     15  C   UNL A   1      30.982  23.941  25.776  1.00  0.00     0.044 A 
ATOM     16  O   UNL A   1      31.786  23.083  27.857  1.00  0.00    -0.269 OA
ATOM     17  C   UNL A   1      29.598  25.773  24.192  1.00  0.00     0.000 A 
ATOM     18  C   UNL A   1      30.357  25.042  26.367  1.00  0.00     0.014 A 
ATOM     19  C   UNL A   1      29.678  25.964  25.571  1.00  0.00     0.001 A 
BRANCH  10  20
ATOM     20  C   UNL A   1      32.486  20.127  24.425  1.00  0.00    -0.024 A 
ATOM     21  C   UNL A   1      33.945  16.328  22.940  1.00  0.00     0.044 C 
ATOM     22  C   UNL A   1      33.336  17.587  23.479  1.00  0.00    -0.051 A 
ATOM     23  C   UNL A   1      33.422  17.915  24.835  1.00  0.00     0.004 A 
ATOM     24  C   UNL A   1      32.734  18.495  22.610  1.00  0.00     0.004 A 
ATOM     25  C   UNL A   1      32.952  19.148  25.308  1.00  0.00     0.006 A 
ATOM     26  C   UNL A   1      32.318  19.743  23.077  1.00  0.00     0.006 A 
ENDBRANCH  10  20
BRANCH  11  27
ATOM     27  C   UNL A   1      34.077  22.870  25.727  1.00  0.00     0.045 A 
ATOM     28  C   UNL A   1      35.173  22.031  25.436  1.00  0.00     0.026 A 
ATOM     29  C   UNL A   1      34.364  24.217  25.975  1.00  0.00     0.026 A 
ATOM     30  C   UNL A   1      36.491  22.495  25.470  1.00  0.00     0.002 A 
ATOM     31  C   UNL A   1      35.683  24.696  25.966  1.00  0.00     0.002 A 
ATOM     32  C   UNL A   1      36.747  23.832  25.737  1.00  0.00     0.000 A 
ENDBRANCH  11  27
ENDBRANCH   6   9
ENDBRANCH   4   5
ENDBRANCH   3   4
ENDBRANCH   2   3
ENDBRANCH   1   2
BRANCH   1  33
ATOM     33  C   UNL A   1      34.027  28.393  25.533  1.00  0.00     0.021 C 
BRANCH  33  34
ATOM     34  C   UNL A   1      33.340  29.383  26.463  1.00  0.00     0.116 C 
BRANCH  34  35
ATOM     35  N   UNL A   1      34.008  30.670  26.590  1.00  0.00    -0.352 N 
ATOM     36  C   UNL A   1      34.628  31.016  27.793  1.00  0.00     0.251 C 
ATOM     37  H   UNL A   1      34.022  31.295  25.829  1.00  0.00     0.163 HD
ATOM     38  O   UNL A   1      34.254  31.901  28.541  1.00  0.00    -0.269 OA
BRANCH  36  39
ATOM     39  C   UNL A   1      35.761  30.138  28.151  1.00  0.00     0.039 A 
ATOM     40  C   UNL A   1      35.851  29.580  29.429  1.00  0.00     0.014 A 
ATOM     41  C   UNL A   1      36.834  30.082  27.263  1.00  0.00     0.014 A 
ATOM     42  C   UNL A   1      37.082  29.093  29.871  1.00  0.00     0.010 A 
ATOM     43  C   UNL A   1      38.068  29.693  27.733  1.00  0.00     0.010 A 
ATOM     44  C   UNL A   1      38.202  29.230  29.047  1.00  0.00    -0.014 A 
BRANCH  44  45
ATOM     45  C   UNL A   1      39.578  28.995  29.469  1.00  0.00     0.031 A 
ATOM     46  C   UNL A   1      40.284  27.760  29.055  1.00  0.00     0.074 A 
ATOM     47  C   UNL A   1      40.261  29.982  30.090  1.00  0.00     0.049 A 
ATOM     48  N   UNL A   1      41.334  27.291  29.642  1.00  0.00    -0.248 NA
ATOM     49  C   UNL A   1      39.824  26.925  27.951  1.00  0.00     0.031 C 
ATOM     50  C   UNL A   1      41.709  30.082  30.243  1.00  0.00     0.029 A 
ATOM     51  N   UNL A   1      39.765  31.006  30.899  1.00  0.00    -0.354 N 
ATOM     52  C   UNL A   1      41.853  26.304  28.832  1.00  0.00     0.074 A 
ATOM     53  C   UNL A   1      40.832  26.055  27.842  1.00  0.00     0.031 C 
ATOM     54  C   UNL A   1      41.975  30.872  31.296  1.00  0.00     0.029 A 
ATOM     55  C   UNL A   1      40.703  31.175  31.931  1.00  0.00     0.049 A 
ATOM     56  H   UNL A   1      38.929  31.508  30.772  1.00  0.00     0.167 HD
ATOM     57  C   UNL A   1      43.150  25.910  28.990  1.00  0.00     0.031 A 
ATOM     58  C   UNL A   1      40.425  31.001  33.257  1.00  0.00     0.031 A 
ATOM     59  C   UNL A   1      43.788  26.587  30.116  1.00  0.00     0.049 A 
ATOM     60  C   UNL A   1      41.318  29.971  33.912  1.00  0.00     0.074 A 
ATOM     61  C   UNL A   1      44.654  27.665  30.194  1.00  0.00     0.029 A 
ATOM     62  N   UNL A   1      43.337  26.347  31.408  1.00  0.00    -0.354 N 
ATOM     63  N   UNL A   1      42.014  29.089  33.250  1.00  0.00    -0.248 NA
ATOM     64  C   UNL A   1      41.470  29.827  35.356  1.00  0.00     0.031 C 
ATOM     65  C   UNL A   1      44.670  28.117  31.536  1.00  0.00     0.029 A 
ATOM     66  C   UNL A   1      43.834  27.299  32.277  1.00  0.00     0.049 A 
ATOM     67  H   UNL A   1      42.746  25.603  31.668  1.00  0.00     0.167 HD
ATOM     68  C   UNL A   1      42.691  28.281  34.125  1.00  0.00     0.074 A 
ATOM     69  C   UNL A   1      42.322  28.788  35.435  1.00  0.00     0.031 C 
ATOM     70  C   UNL A   1      43.493  27.264  33.693  1.00  0.00     0.031 A 
BRANCH  57  71
ATOM     71  C   UNL A   1      43.927  25.135  27.945  1.00  0.00    -0.014 A 
ATOM     72  C   UNL A   1      44.266  25.761  26.725  1.00  0.00     0.010 A 
ATOM     73  C   UNL A   1      44.309  23.786  28.071  1.00  0.00     0.010 A 
ATOM     74  C   UNL A   1      44.847  25.058  25.659  1.00  0.00     0.020 A 
ATOM     75  C   UNL A   1      44.859  23.060  27.002  1.00  0.00     0.020 A 
ATOM     76  C   UNL A   1      45.112  23.700  25.794  1.00  0.00     0.054 A 
BRANCH  76  77
ATOM     77  S   UNL A   1      45.780  22.785  24.380  1.00  0.00     0.124 S 
ATOM     78  O   UNL A   1      44.583  22.517  23.586  1.00  0.00    -0.237 OA
ATOM     79  O   UNL A   1      46.719  23.742  23.802  1.00  0.00    -0.237 OA
ATOM     80  O   UNL A   1      46.391  21.604  24.988  1.00  0.00    -0.744 OA
ENDBRANCH  76  77
ENDBRANCH  57  71
BRANCH  58  81
ATOM     81  C   UNL A   1      39.005  31.258  33.625  1.00  0.00    -0.014 A 
ATOM     82  C   UNL A   1      38.703  32.520  34.183  1.00  0.00     0.010 A 
ATOM     83  C   UNL A   1      37.975  30.516  33.019  1.00  0.00     0.010 A 
ATOM     84  C   UNL A   1      37.459  33.114  33.957  1.00  0.00     0.020 A 
ATOM     85  C   UNL A   1      36.723  31.109  32.799  1.00  0.00     0.020 A 
ATOM     86  C   UNL A   1      36.508  32.434  33.197  1.00  0.00     0.054 A 
BRANCH  86  87
ATOM     87  S   UNL A   1      35.080  33.372  32.570  1.00  0.00     0.124 S 
ATOM     88  O   UNL A   1      34.260  32.328  31.965  1.00  0.00    -0.237 OA
ATOM     89  O   UNL A   1      34.542  33.969  33.796  1.00  0.00    -0.237 OA
ATOM     90  O   UNL A   1      35.683  34.319  31.639  1.00  0.00    -0.744 OA
ENDBRANCH  86  87
ENDBRANCH  58  81
BRANCH  70  91
ATOM     91  C   UNL A   1      44.116  26.186  34.551  1.00  0.00    -0.014 A 
ATOM     92  C   UNL A   1      43.390  25.304  35.365  1.00  0.00     0.010 A 
ATOM     93  C   UNL A   1      45.511  25.956  34.449  1.00  0.00     0.010 A 
ATOM     94  C   UNL A   1      44.028  24.288  36.094  1.00  0.00     0.020 A 
ATOM     95  C   UNL A   1      46.151  24.918  35.133  1.00  0.00     0.020 A 
ATOM     96  C   UNL A   1      45.406  24.105  35.976  1.00  0.00     0.054 A 
BRANCH  96  97
ATOM     97  S   UNL A   1      46.211  22.752  36.870  1.00  0.00     0.124 S 
ATOM     98  O   UNL A   1      45.635  21.578  36.221  1.00  0.00    -0.237 OA
ATOM     99  O   UNL A   1      47.630  22.980  36.605  1.00  0.00    -0.237 OA
ATOM    100  O   UNL A   1      45.803  22.969  38.256  1.00  0.00    -0.744 OA
ENDBRANCH  96  97
ENDBRANCH  70  91
ENDBRANCH  44  45
ENDBRANCH  36  39
ENDBRANCH  34  35
ENDBRANCH  33  34
ENDBRANCH   1  33
TORSDOF 18
ENDMDL
MODEL 3
REMARK VINA RESULT:     -12.6      1.483      2.865
REMARK SMILES Cc1ccc([C@@H]2[C@H](C(=O)NCCCCCCNC(=O)c3ccc(-c4c5nc(c(-c6ccc(S(=O)(=O)[O-])cc6)c6ccc([nH]6)c(-c6ccc(S(=O)(=O)[O-])cc6)c6nc(c(-c7ccc(S(=O)(=O)[O-])cc7)c7ccc4[nH]7)C=C6)C=C5)cc3)c3ccccc3C(=O)N2c2ccccc2)cc1
REMARK SMILES IDX 14 1 13 2 12 3 11 4 10 5 8 6 9 7 7 9 6 10 88 11 80 12 86 13
REMARK SMILES IDX 81 14 85 15 87 16 82 17 84 18 83 19 5 20 1 21 2 22 3 23
REMARK SMILES IDX 96 24 4 25 95 26 89 27 90 28 94 29 91 30 93 31 92 32 15 33
REMARK SMILES IDX 16 34 17 35 18 36 19 38 20 39 21 40 79 41 22 42 78 43 23 44
REMARK SMILES IDX 24 45 25 46 72 47 26 48 77 49 71 50 73 51 27 52 76 53 70 54
REMARK SMILES IDX 69 55 28 57 58 58 39 59 57 60 40 61 43 62 56 63 74 64 41 65
REMARK SMILES IDX 42 66 55 68 75 69 44 70 29 71 30 72 38 73 31 74 37 75 32 76
REMARK SMILES IDX 33 77 34 78 35 79 36 80 59 81 60 82 68 83 61 84 67 85 62 86
REMARK SMILES IDX 63 87 64 88 65 89 66 90 45 91 46 92 54 93 47 94 53 95 48 96
REMARK SMILES IDX 49 97 50 98 51 99 52 100
REMARK H PARENT 10 8 17 37 73 56 43 67
REMARK Flexibility Score: inf
ROOT
ATOM      1  C   UNL A   1      32.037  29.367  26.236  1.00  0.00     0.002 C 
ENDROOT
BRANCH   1   2
ATOM      2  C   UNL A   1      31.226  28.388  25.366  1.00  0.00     0.002 C 
BRANCH   2   3
ATOM      3  C   UNL A   1      31.231  26.915  25.791  1.00  0.00     0.021 C 
BRANCH   3   4
ATOM      4  C   UNL A   1      32.396  26.510  26.697  1.00  0.00     0.116 C 
BRANCH   4   5
ATOM      5  N   UNL A   1      33.131  25.393  26.148  1.00  0.00    -0.355 N 
ATOM      6  C   UNL A   1      34.413  25.552  25.675  1.00  0.00     0.230 C 
ATOM      7  O   UNL A   1      35.290  26.063  26.369  1.00  0.00    -0.274 OA
ATOM      8  H   UNL A   1      32.708  24.505  26.112  1.00  0.00     0.163 HD
BRANCH   6   9
ATOM      9  C   UNL A   1      34.673  25.145  24.218  1.00  0.00     0.137 C 
ATOM     10  C   UNL A   1      34.936  23.628  24.009  1.00  0.00     0.138 C 
ATOM     11  N   UNL A   1      33.649  22.924  23.899  1.00  0.00    -0.300 N 
ATOM     12  C   UNL A   1      33.617  25.627  23.215  1.00  0.00    -0.020 A 
ATOM     13  C   UNL A   1      33.028  23.226  22.672  1.00  0.00     0.259 C 
ATOM     14  C   UNL A   1      33.370  26.999  23.045  1.00  0.00     0.005 A 
ATOM     15  C   UNL A   1      32.880  24.704  22.440  1.00  0.00     0.044 A 
ATOM     16  O   UNL A   1      32.548  22.399  21.907  1.00  0.00    -0.269 OA
ATOM     17  C   UNL A   1      32.383  27.435  22.158  1.00  0.00     0.000 A 
ATOM     18  C   UNL A   1      31.921  25.149  21.525  1.00  0.00     0.014 A 
ATOM     19  C   UNL A   1      31.665  26.513  21.397  1.00  0.00     0.001 A 
BRANCH  10  20
ATOM     20  C   UNL A   1      36.158  22.994  24.667  1.00  0.00    -0.024 A 
ATOM     21  C   UNL A   1      39.737  21.020  26.102  1.00  0.00     0.044 C 
ATOM     22  C   UNL A   1      38.449  21.680  25.713  1.00  0.00    -0.051 A 
ATOM     23  C   UNL A   1      38.221  23.035  25.964  1.00  0.00     0.004 A 
ATOM     24  C   UNL A   1      37.480  20.958  25.019  1.00  0.00     0.004 A 
ATOM     25  C   UNL A   1      37.062  23.669  25.492  1.00  0.00     0.006 A 
ATOM     26  C   UNL A   1      36.356  21.606  24.505  1.00  0.00     0.006 A 
ENDBRANCH  10  20
BRANCH  11  27
ATOM     27  C   UNL A   1      32.762  22.691  25.021  1.00  0.00     0.045 A 
ATOM     28  C   UNL A   1      31.395  23.020  24.905  1.00  0.00     0.026 A 
ATOM     29  C   UNL A   1      33.203  22.272  26.281  1.00  0.00     0.026 A 
ATOM     30  C   UNL A   1      30.534  23.010  26.007  1.00  0.00     0.002 A 
ATOM     31  C   UNL A   1      32.332  22.216  27.379  1.00  0.00     0.002 A 
ATOM     32  C   UNL A   1      31.005  22.608  27.248  1.00  0.00     0.000 A 
ENDBRANCH  11  27
ENDBRANCH   6   9
ENDBRANCH   4   5
ENDBRANCH   3   4
ENDBRANCH   2   3
ENDBRANCH   1   2
BRANCH   1  33
ATOM     33  C   UNL A   1      33.495  29.609  25.834  1.00  0.00     0.021 C 
BRANCH  33  34
ATOM     34  C   UNL A   1      34.495  29.488  26.976  1.00  0.00     0.116 C 
BRANCH  34  35
ATOM     35  N   UNL A   1      35.415  30.609  27.106  1.00  0.00    -0.352 N 
ATOM     36  C   UNL A   1      36.228  30.713  28.238  1.00  0.00     0.251 C 
ATOM     37  H   UNL A   1      35.464  31.291  26.398  1.00  0.00     0.163 HD
ATOM     38  O   UNL A   1      36.127  31.575  29.092  1.00  0.00    -0.269 OA
BRANCH  36  39
ATOM     39  C   UNL A   1      37.198  29.607  28.376  1.00  0.00     0.039 A 
ATOM     40  C   UNL A   1      37.286  28.885  29.568  1.00  0.00     0.014 A 
ATOM     41  C   UNL A   1      38.163  29.473  27.379  1.00  0.00     0.014 A 
ATOM     42  C   UNL A   1      38.434  28.132  29.822  1.00  0.00     0.010 A 
ATOM     43  C   UNL A   1      39.335  28.812  27.671  1.00  0.00     0.010 A 
ATOM     44  C   UNL A   1      39.487  28.170  28.905  1.00  0.00    -0.014 A 
BRANCH  44  45
ATOM     45  C   UNL A   1      40.822  27.639  29.151  1.00  0.00     0.031 A 
ATOM     46  C   UNL A   1      41.180  26.277  28.692  1.00  0.00     0.074 A 
ATOM     47  C   UNL A   1      41.781  28.455  29.643  1.00  0.00     0.049 A 
ATOM     48  N   UNL A   1      42.173  25.591  29.152  1.00  0.00    -0.248 NA
ATOM     49  C   UNL A   1      40.405  25.558  27.687  1.00  0.00     0.031 C 
ATOM     50  C   UNL A   1      43.224  28.234  29.601  1.00  0.00     0.029 A 
ATOM     51  N   UNL A   1      41.635  29.566  30.474  1.00  0.00    -0.354 N 
ATOM     52  C   UNL A   1      42.351  24.510  28.316  1.00  0.00     0.074 A 
ATOM     53  C   UNL A   1      41.175  24.486  27.477  1.00  0.00     0.031 C 
ATOM     54  C   UNL A   1      43.795  28.951  30.582  1.00  0.00     0.029 A 
ATOM     55  C   UNL A   1      42.717  29.531  31.367  1.00  0.00     0.049 A 
ATOM     56  H   UNL A   1      40.919  30.240  30.440  1.00  0.00     0.167 HD
ATOM     57  C   UNL A   1      43.539  23.841  28.316  1.00  0.00     0.031 A 
ATOM     58  C   UNL A   1      42.590  29.429  32.724  1.00  0.00     0.031 A 
ATOM     59  C   UNL A   1      44.456  24.366  29.325  1.00  0.00     0.049 A 
ATOM     60  C   UNL A   1      43.318  28.231  33.291  1.00  0.00     0.074 A 
ATOM     61  C   UNL A   1      45.538  25.228  29.251  1.00  0.00     0.029 A 
ATOM     62  N   UNL A   1      44.142  24.238  30.673  1.00  0.00    -0.354 N 
ATOM     63  N   UNL A   1      43.709  27.213  32.575  1.00  0.00    -0.248 NA
ATOM     64  C   UNL A   1      43.629  28.064  34.707  1.00  0.00     0.031 C 
ATOM     65  C   UNL A   1      45.833  25.672  30.564  1.00  0.00     0.029 A 
ATOM     66  C   UNL A   1      44.948  25.062  31.435  1.00  0.00     0.049 A 
ATOM     67  H   UNL A   1      43.444  23.644  31.033  1.00  0.00     0.167 HD
ATOM     68  C   UNL A   1      44.307  26.281  33.382  1.00  0.00     0.074 A 
ATOM     69  C   UNL A   1      44.237  26.863  34.710  1.00  0.00     0.031 C 
ATOM     70  C   UNL A   1      44.802  25.110  32.884  1.00  0.00     0.031 A 
BRANCH  57  71
ATOM     71  C   UNL A   1      43.981  22.909  27.206  1.00  0.00    -0.014 A 
ATOM     72  C   UNL A   1      43.058  21.988  26.663  1.00  0.00     0.010 A 
ATOM     73  C   UNL A   1      45.288  22.846  26.689  1.00  0.00     0.010 A 
ATOM     74  C   UNL A   1      43.439  20.997  25.745  1.00  0.00     0.020 A 
ATOM     75  C   UNL A   1      45.695  21.840  25.797  1.00  0.00     0.020 A 
ATOM     76  C   UNL A   1      44.767  20.909  25.341  1.00  0.00     0.054 A 
BRANCH  76  77
ATOM     77  S   UNL A   1      45.264  19.571  24.226  1.00  0.00     0.124 S 
ATOM     78  O   UNL A   1      44.414  19.803  23.060  1.00  0.00    -0.237 OA
ATOM     79  O   UNL A   1      46.686  19.835  24.031  1.00  0.00    -0.237 OA
ATOM     80  O   UNL A   1      44.954  18.358  24.980  1.00  0.00    -0.744 OA
ENDBRANCH  76  77
ENDBRANCH  57  71
BRANCH  58  81
ATOM     81  C   UNL A   1      41.323  29.994  33.265  1.00  0.00    -0.014 A 
ATOM     82  C   UNL A   1      41.346  31.344  33.679  1.00  0.00     0.010 A 
ATOM     83  C   UNL A   1      40.091  29.403  32.935  1.00  0.00     0.010 A 
ATOM     84  C   UNL A   1      40.202  32.138  33.565  1.00  0.00     0.020 A 
ATOM     85  C   UNL A   1      38.940  30.198  32.829  1.00  0.00     0.020 A 
ATOM     86  C   UNL A   1      39.030  31.575  33.063  1.00  0.00     0.054 A 
BRANCH  86  87
ATOM     87  S   UNL A   1      37.696  32.696  32.537  1.00  0.00     0.124 S 
ATOM     88  O   UNL A   1      37.809  33.790  33.496  1.00  0.00    -0.237 OA
ATOM     89  O   UNL A   1      38.086  33.015  31.162  1.00  0.00    -0.237 OA
ATOM     90  O   UNL A   1      36.497  31.872  32.661  1.00  0.00    -0.744 OA
ENDBRANCH  86  87
ENDBRANCH  58  81
BRANCH  70  91
ATOM     91  C   UNL A   1      45.285  23.926  33.690  1.00  0.00    -0.014 A 
ATOM     92  C   UNL A   1      46.549  23.841  34.292  1.00  0.00     0.010 A 
ATOM     93  C   UNL A   1      44.377  22.873  33.967  1.00  0.00     0.010 A 
ATOM     94  C   UNL A   1      46.914  22.735  35.075  1.00  0.00     0.020 A 
ATOM     95  C   UNL A   1      44.713  21.789  34.784  1.00  0.00     0.020 A 
ATOM     96  C   UNL A   1      45.995  21.713  35.312  1.00  0.00     0.054 A 
BRANCH  96  97
ATOM     97  S   UNL A   1      46.454  20.321  36.374  1.00  0.00     0.124 S 
ATOM     98  O   UNL A   1      45.837  20.696  37.644  1.00  0.00    -0.237 OA
ATOM     99  O   UNL A   1      45.846  19.177  35.697  1.00  0.00    -0.237 OA
ATOM    100  O   UNL A   1      47.914  20.343  36.353  1.00  0.00    -0.744 OA
ENDBRANCH  96  97
ENDBRANCH  70  91
ENDBRANCH  44  45
ENDBRANCH  36  39
ENDBRANCH  34  35
ENDBRANCH  33  34
ENDBRANCH   1  33
TORSDOF 18
ENDMDL
