MODEL 1
REMARK VINA RESULT:      -9.8      0.000      0.000
REMARK SMILES C=CCN(CC(=O)NCCCCCCNC(=O)c1ccc(-c2c3nc(c(-c4ccc(S(=O)(=O)[O-])cc4)c4ccc([nH]4)c(-c4ccc(S(=O)(=O)[O-])cc4)c4nc(c(-c5ccc(S(=O)(=O)[O-])cc5)c5ccc2[nH]5)C=C4)C=C3)cc1)S(=O)(=O)c1ccccc1OC
REMARK SMILES IDX 11 1 10 2 9 3 8 4 6 5 7 6 5 8 4 9 3 10 2 11 1 12 78 13 79 14
REMARK SMILES IDX 80 15 81 16 82 17 86 18 83 19 85 20 84 21 87 22 88 23 12 24
REMARK SMILES IDX 13 25 14 26 15 27 16 28 17 30 18 31 19 32 77 33 20 34 76 35
REMARK SMILES IDX 21 36 22 37 23 38 70 39 24 40 75 41 69 42 71 43 25 44 74 45
REMARK SMILES IDX 68 46 67 47 26 49 56 50 37 51 55 52 38 53 41 54 54 55 72 56
REMARK SMILES IDX 39 57 40 58 53 60 73 61 42 62 27 63 28 64 36 65 29 66 35 67
REMARK SMILES IDX 30 68 31 69 32 70 33 71 34 72 57 73 58 74 66 75 59 76 65 77
REMARK SMILES IDX 60 78 61 79 62 80 63 81 64 82 43 83 44 84 52 85 45 86 51 87
REMARK SMILES IDX 46 88 47 89 48 90 49 91 50 92
REMARK H PARENT 8 7 15 29 71 48 41 59
REMARK Flexibility Score: inf
ROOT
ATOM      1  C   UNL A   1      33.289  27.072  26.272  1.00  0.00     0.002 C 
ENDROOT
BRANCH   1   2
ATOM      2  C   UNL A   1      31.776  27.291  26.332  1.00  0.00     0.021 C 
BRANCH   2   3
ATOM      3  C   UNL A   1      31.116  27.642  24.996  1.00  0.00     0.116 C 
BRANCH   3   4
ATOM      4  N   UNL A   1      30.258  26.577  24.512  1.00  0.00    -0.355 N 
ATOM      5  C   UNL A   1      30.446  25.673  23.506  1.00  0.00     0.235 C 
ATOM      6  O   UNL A   1      29.588  24.797  23.356  1.00  0.00    -0.274 OA
ATOM      7  H   UNL A   1      29.399  26.493  24.986  1.00  0.00     0.163 HD
BRANCH   5   8
ATOM      8  C   UNL A   1      31.696  25.677  22.640  1.00  0.00     0.202 C 
BRANCH   8   9
ATOM      9  N   UNL A   1      33.022  25.219  23.181  1.00  0.00    -0.185 NA
BRANCH   9  10
ATOM     10  C   UNL A   1      34.098  26.145  22.760  1.00  0.00     0.130 C 
BRANCH  10  11
ATOM     11  C   UNL A   1      33.625  27.466  22.265  1.00  0.00    -0.018 C 
ATOM     12  C   UNL A   1      34.028  28.633  22.789  1.00  0.00     0.005 C 
ENDBRANCH  10  11
ENDBRANCH   9  10
BRANCH   9  13
ATOM     13  S   UNL A   1      33.344  23.526  23.094  1.00  0.00     0.247 S 
ATOM     14  O   UNL A   1      32.117  22.911  22.639  1.00  0.00    -0.207 OA
ATOM     15  O   UNL A   1      34.590  23.311  22.391  1.00  0.00    -0.207 OA
BRANCH  13  16
ATOM     16  C   UNL A   1      33.713  23.083  24.774  1.00  0.00     0.124 A 
ATOM     17  C   UNL A   1      34.837  22.255  24.966  1.00  0.00     0.026 A 
ATOM     18  C   UNL A   1      32.875  23.377  25.852  1.00  0.00     0.138 A 
ATOM     19  C   UNL A   1      35.147  21.754  26.229  1.00  0.00     0.002 A 
ATOM     20  C   UNL A   1      33.208  22.882  27.123  1.00  0.00     0.048 A 
ATOM     21  C   UNL A   1      34.340  22.081  27.313  1.00  0.00     0.004 A 
BRANCH  18  22
ATOM     22  O   UNL A   1      31.611  23.883  25.733  1.00  0.00    -0.495 OA
ATOM     23  C   UNL A   1      30.689  23.416  26.715  1.00  0.00     0.278 C 
ENDBRANCH  18  22
ENDBRANCH  13  16
ENDBRANCH   9  13
ENDBRANCH   8   9
ENDBRANCH   5   8
ENDBRANCH   3   4
ENDBRANCH   2   3
ENDBRANCH   1   2
BRANCH   1  24
ATOM     24  C   UNL A   1      34.145  28.343  26.336  1.00  0.00     0.002 C 
BRANCH  24  25
ATOM     25  C   UNL A   1      34.133  29.100  27.669  1.00  0.00     0.021 C 
BRANCH  25  26
ATOM     26  C   UNL A   1      35.291  30.074  27.887  1.00  0.00     0.116 C 
BRANCH  26  27
ATOM     27  N   UNL A   1      35.322  30.601  29.240  1.00  0.00    -0.352 N 
ATOM     28  C   UNL A   1      36.319  30.551  30.183  1.00  0.00     0.251 C 
ATOM     29  H   UNL A   1      34.502  31.066  29.525  1.00  0.00     0.163 HD
ATOM     30  O   UNL A   1      36.077  30.890  31.340  1.00  0.00    -0.269 OA
BRANCH  28  31
ATOM     31  C   UNL A   1      37.675  30.077  29.826  1.00  0.00     0.039 A 
ATOM     32  C   UNL A   1      38.036  30.023  28.476  1.00  0.00     0.014 A 
ATOM     33  C   UNL A   1      38.576  29.647  30.804  1.00  0.00     0.014 A 
ATOM     34  C   UNL A   1      39.316  29.593  28.111  1.00  0.00     0.010 A 
ATOM     35  C   UNL A   1      39.870  29.270  30.444  1.00  0.00     0.010 A 
ATOM     36  C   UNL A   1      40.253  29.238  29.094  1.00  0.00    -0.014 A 
BRANCH  36  37
ATOM     37  C   UNL A   1      41.636  28.835  28.728  1.00  0.00     0.031 A 
ATOM     38  C   UNL A   1      42.741  29.857  28.686  1.00  0.00     0.074 A 
ATOM     39  C   UNL A   1      41.888  27.560  28.371  1.00  0.00     0.049 A 
ATOM     40  N   UNL A   1      43.990  29.705  28.325  1.00  0.00    -0.248 NA
ATOM     41  C   UNL A   1      42.390  31.230  29.082  1.00  0.00     0.031 C 
ATOM     42  C   UNL A   1      40.900  26.480  28.336  1.00  0.00     0.029 A 
ATOM     43  N   UNL A   1      43.052  26.959  27.960  1.00  0.00    -0.354 N 
ATOM     44  C   UNL A   1      44.569  30.965  28.430  1.00  0.00     0.074 A 
ATOM     45  C   UNL A   1      43.527  31.875  28.855  1.00  0.00     0.031 C 
ATOM     46  C   UNL A   1      41.503  25.346  27.941  1.00  0.00     0.029 A 
ATOM     47  C   UNL A   1      42.909  25.624  27.665  1.00  0.00     0.049 A 
ATOM     48  H   UNL A   1      43.908  27.439  27.885  1.00  0.00     0.167 HD
ATOM     49  C   UNL A   1      45.855  31.330  28.206  1.00  0.00     0.031 A 
ATOM     50  C   UNL A   1      43.805  24.724  27.217  1.00  0.00     0.031 A 
ATOM     51  C   UNL A   1      46.897  30.426  27.800  1.00  0.00     0.049 A 
ATOM     52  C   UNL A   1      45.228  25.150  26.984  1.00  0.00     0.074 A 
ATOM     53  C   UNL A   1      48.241  30.693  27.598  1.00  0.00     0.029 A 
ATOM     54  N   UNL A   1      46.715  29.078  27.533  1.00  0.00    -0.354 N 
ATOM     55  N   UNL A   1      45.767  26.336  27.138  1.00  0.00    -0.248 NA
ATOM     56  C   UNL A   1      46.164  24.114  26.527  1.00  0.00     0.031 C 
ATOM     57  C   UNL A   1      48.863  29.514  27.176  1.00  0.00     0.029 A 
ATOM     58  C   UNL A   1      47.916  28.503  27.155  1.00  0.00     0.049 A 
ATOM     59  H   UNL A   1      45.857  28.599  27.602  1.00  0.00     0.167 HD
ATOM     60  C   UNL A   1      47.111  26.183  26.817  1.00  0.00     0.074 A 
ATOM     61  C   UNL A   1      47.305  24.789  26.473  1.00  0.00     0.031 C 
ATOM     62  C   UNL A   1      48.094  27.115  26.812  1.00  0.00     0.031 A 
BRANCH  49  63
ATOM     63  C   UNL A   1      46.203  32.784  28.394  1.00  0.00    -0.014 A 
ATOM     64  C   UNL A   1      46.107  33.695  27.327  1.00  0.00     0.010 A 
ATOM     65  C   UNL A   1      46.605  33.249  29.659  1.00  0.00     0.010 A 
ATOM     66  C   UNL A   1      46.452  35.036  27.509  1.00  0.00     0.020 A 
ATOM     67  C   UNL A   1      46.928  34.595  29.850  1.00  0.00     0.020 A 
ATOM     68  C   UNL A   1      46.868  35.476  28.769  1.00  0.00     0.054 A 
BRANCH  68  69
ATOM     69  S   UNL A   1      47.305  37.225  28.982  1.00  0.00     0.124 S 
ATOM     70  O   UNL A   1      48.642  37.273  28.395  1.00  0.00    -0.237 OA
ATOM     71  O   UNL A   1      46.262  37.913  28.225  1.00  0.00    -0.237 OA
ATOM     72  O   UNL A   1      47.251  37.420  30.429  1.00  0.00    -0.744 OA
ENDBRANCH  68  69
ENDBRANCH  49  63
BRANCH  50  73
ATOM     73  C   UNL A   1      43.382  23.318  26.976  1.00  0.00    -0.014 A 
ATOM     74  C   UNL A   1      43.207  22.845  25.664  1.00  0.00     0.010 A 
ATOM     75  C   UNL A   1      43.175  22.442  28.056  1.00  0.00     0.010 A 
ATOM     76  C   UNL A   1      42.823  21.521  25.436  1.00  0.00     0.020 A 
ATOM     77  C   UNL A   1      42.813  21.111  27.830  1.00  0.00     0.020 A 
ATOM     78  C   UNL A   1      42.631  20.661  26.521  1.00  0.00     0.054 A 
BRANCH  78  79
ATOM     79  S   UNL A   1      42.198  18.927  26.203  1.00  0.00     0.124 S 
ATOM     80  O   UNL A   1      42.321  18.336  27.530  1.00  0.00    -0.237 OA
ATOM     81  O   UNL A   1      40.839  19.030  25.677  1.00  0.00    -0.237 OA
ATOM     82  O   UNL A   1      43.201  18.501  25.230  1.00  0.00    -0.744 OA
ENDBRANCH  78  79
ENDBRANCH  50  73
BRANCH  62  83
ATOM     83  C   UNL A   1      49.479  26.654  26.447  1.00  0.00    -0.014 A 
ATOM     84  C   UNL A   1      50.314  26.043  27.399  1.00  0.00     0.010 A 
ATOM     85  C   UNL A   1      49.930  26.789  25.121  1.00  0.00     0.010 A 
ATOM     86  C   UNL A   1      51.588  25.598  27.036  1.00  0.00     0.020 A 
ATOM     87  C   UNL A   1      51.195  26.327  24.751  1.00  0.00     0.020 A 
ATOM     88  C   UNL A   1      52.022  25.746  25.715  1.00  0.00     0.054 A 
BRANCH  88  89
ATOM     89  S   UNL A   1      53.662  25.121  25.255  1.00  0.00     0.124 S 
ATOM     90  O   UNL A   1      53.804  25.618  23.890  1.00  0.00    -0.237 OA
ATOM     91  O   UNL A   1      54.535  25.747  26.246  1.00  0.00    -0.237 OA
ATOM     92  O   UNL A   1      53.527  23.672  25.381  1.00  0.00    -0.744 OA
ENDBRANCH  88  89
ENDBRANCH  62  83
ENDBRANCH  36  37
ENDBRANCH  28  31
ENDBRANCH  26  27
ENDBRANCH  25  26
ENDBRANCH  24  25
ENDBRANCH   1  24
TORSDOF 22
ENDMDL
MODEL 2
REMARK VINA RESULT:      -9.7      2.379      8.886
REMARK SMILES C=CCN(CC(=O)NCCCCCCNC(=O)c1ccc(-c2c3nc(c(-c4ccc(S(=O)(=O)[O-])cc4)c4ccc([nH]4)c(-c4ccc(S(=O)(=O)[O-])cc4)c4nc(c(-c5ccc(S(=O)(=O)[O-])cc5)c5ccc2[nH]5)C=C4)C=C3)cc1)S(=O)(=O)c1ccccc1OC
REMARK SMILES IDX 11 1 10 2 9 3 8 4 6 5 7 6 5 8 4 9 3 10 2 11 1 12 78 13 79 14
REMARK SMILES IDX 80 15 81 16 82 17 86 18 83 19 85 20 84 21 87 22 88 23 12 24
REMARK SMILES IDX 13 25 14 26 15 27 16 28 17 30 18 31 19 32 77 33 20 34 76 35
REMARK SMILES IDX 21 36 22 37 23 38 70 39 24 40 75 41 69 42 71 43 25 44 74 45
REMARK SMILES IDX 68 46 67 47 26 49 56 50 37 51 55 52 38 53 41 54 54 55 72 56
REMARK SMILES IDX 39 57 40 58 53 60 73 61 42 62 27 63 28 64 36 65 29 66 35 67
REMARK SMILES IDX 30 68 31 69 32 70 33 71 34 72 57 73 58 74 66 75 59 76 65 77
REMARK SMILES IDX 60 78 61 79 62 80 63 81 64 82 43 83 44 84 52 85 45 86 51 87
REMARK SMILES IDX 46 88 47 89 48 90 49 91 50 92
REMARK H PARENT 8 7 15 29 71 48 41 59
REMARK Flexibility Score: inf
ROOT
ATOM      1  C   UNL A   1      39.230  21.681  26.021  1.00  0.00     0.002 C 
ENDROOT
BRANCH   1   2
ATOM      2  C   UNL A   1      38.877  23.090  26.505  1.00  0.00     0.021 C 
BRANCH   2   3
ATOM      3  C   UNL A   1      37.566  23.658  25.955  1.00  0.00     0.116 C 
BRANCH   3   4
ATOM      4  N   UNL A   1      37.424  23.427  24.530  1.00  0.00    -0.355 N 
ATOM      5  C   UNL A   1      36.382  22.911  23.813  1.00  0.00     0.235 C 
ATOM      6  O   UNL A   1      36.481  22.909  22.582  1.00  0.00    -0.274 OA
ATOM      7  H   UNL A   1      38.207  23.684  23.991  1.00  0.00     0.163 HD
BRANCH   5   8
ATOM      8  C   UNL A   1      35.106  22.424  24.481  1.00  0.00     0.202 C 
BRANCH   8   9
ATOM      9  N   UNL A   1      33.779  23.073  24.196  1.00  0.00    -0.185 NA
BRANCH   9  10
ATOM     10  C   UNL A   1      32.994  22.246  23.252  1.00  0.00     0.130 C 
BRANCH  10  11
ATOM     11  C   UNL A   1      32.492  20.964  23.815  1.00  0.00    -0.018 C 
ATOM     12  C   UNL A   1      32.276  19.869  23.068  1.00  0.00     0.005 C 
ENDBRANCH  10  11
ENDBRANCH   9  10
BRANCH   9  13
ATOM     13  S   UNL A   1      33.797  24.779  23.941  1.00  0.00     0.247 S 
ATOM     14  O   UNL A   1      34.680  25.322  24.949  1.00  0.00    -0.207 OA
ATOM     15  O   UNL A   1      34.014  25.052  22.537  1.00  0.00    -0.207 OA
BRANCH  13  16
ATOM     16  C   UNL A   1      32.112  25.263  24.221  1.00  0.00     0.124 A 
ATOM     17  C   UNL A   1      31.527  26.081  23.234  1.00  0.00     0.026 A 
ATOM     18  C   UNL A   1      31.422  25.009  25.409  1.00  0.00     0.138 A 
ATOM     19  C   UNL A   1      30.251  26.611  23.409  1.00  0.00     0.002 A 
ATOM     20  C   UNL A   1      30.130  25.534  25.568  1.00  0.00     0.048 A 
ATOM     21  C   UNL A   1      29.544  26.324  24.572  1.00  0.00     0.004 A 
BRANCH  18  22
ATOM     22  O   UNL A   1      31.998  24.517  26.547  1.00  0.00    -0.495 OA
ATOM     23  C   UNL A   1      31.593  23.195  26.894  1.00  0.00     0.278 C 
ENDBRANCH  18  22
ENDBRANCH  13  16
ENDBRANCH   9  13
ENDBRANCH   8   9
ENDBRANCH   5   8
ENDBRANCH   3   4
ENDBRANCH   2   3
ENDBRANCH   1   2
BRANCH   1  24
ATOM     24  C   UNL A   1      40.674  21.235  26.279  1.00  0.00     0.002 C 
BRANCH  24  25
ATOM     25  C   UNL A   1      40.952  19.733  26.145  1.00  0.00     0.021 C 
BRANCH  25  26
ATOM     26  C   UNL A   1      42.334  19.273  26.608  1.00  0.00     0.116 C 
BRANCH  26  27
ATOM     27  N   UNL A   1      43.219  18.973  25.495  1.00  0.00    -0.352 N 
ATOM     28  C   UNL A   1      43.993  19.814  24.734  1.00  0.00     0.251 C 
ATOM     29  H   UNL A   1      43.272  18.021  25.250  1.00  0.00     0.163 HD
ATOM     30  O   UNL A   1      44.524  19.388  23.710  1.00  0.00    -0.269 OA
BRANCH  28  31
ATOM     31  C   UNL A   1      44.178  21.231  25.122  1.00  0.00     0.039 A 
ATOM     32  C   UNL A   1      44.657  21.521  26.403  1.00  0.00     0.014 A 
ATOM     33  C   UNL A   1      43.846  22.273  24.251  1.00  0.00     0.014 A 
ATOM     34  C   UNL A   1      44.855  22.850  26.791  1.00  0.00     0.010 A 
ATOM     35  C   UNL A   1      44.095  23.595  24.618  1.00  0.00     0.010 A 
ATOM     36  C   UNL A   1      44.602  23.898  25.892  1.00  0.00    -0.014 A 
BRANCH  36  37
ATOM     37  C   UNL A   1      44.862  25.312  26.266  1.00  0.00     0.031 A 
ATOM     38  C   UNL A   1      46.256  25.876  26.189  1.00  0.00     0.074 A 
ATOM     39  C   UNL A   1      43.855  26.076  26.735  1.00  0.00     0.049 A 
ATOM     40  N   UNL A   1      46.686  27.062  26.537  1.00  0.00    -0.248 NA
ATOM     41  C   UNL A   1      47.306  24.982  25.673  1.00  0.00     0.031 C 
ATOM     42  C   UNL A   1      42.466  25.641  26.892  1.00  0.00     0.029 A 
ATOM     43  N   UNL A   1      43.849  27.376  27.177  1.00  0.00    -0.354 N 
ATOM     44  C   UNL A   1      48.056  27.052  26.303  1.00  0.00     0.074 A 
ATOM     45  C   UNL A   1      48.391  25.730  25.816  1.00  0.00     0.031 C 
ATOM     46  C   UNL A   1      41.739  26.661  27.379  1.00  0.00     0.029 A 
ATOM     47  C   UNL A   1      42.614  27.808  27.599  1.00  0.00     0.049 A 
ATOM     48  H   UNL A   1      44.652  27.944  27.190  1.00  0.00     0.167 HD
ATOM     49  C   UNL A   1      48.954  28.054  26.465  1.00  0.00     0.031 A 
ATOM     50  C   UNL A   1      42.228  28.993  28.111  1.00  0.00     0.031 A 
ATOM     51  C   UNL A   1      48.621  29.373  26.934  1.00  0.00     0.049 A 
ATOM     52  C   UNL A   1      43.239  30.093  28.274  1.00  0.00     0.074 A 
ATOM     53  C   UNL A   1      49.453  30.470  27.082  1.00  0.00     0.029 A 
ATOM     54  N   UNL A   1      47.356  29.777  27.329  1.00  0.00    -0.354 N 
ATOM     55  N   UNL A   1      44.521  30.079  27.999  1.00  0.00    -0.248 NA
ATOM     56  C   UNL A   1      42.748  31.371  28.807  1.00  0.00     0.031 C 
ATOM     57  C   UNL A   1      48.697  31.527  27.600  1.00  0.00     0.029 A 
ATOM     58  C   UNL A   1      47.386  31.100  27.735  1.00  0.00     0.049 A 
ATOM     59  H   UNL A   1      46.553  29.206  27.323  1.00  0.00     0.167 HD
ATOM     60  C   UNL A   1      44.987  31.352  28.305  1.00  0.00     0.074 A 
ATOM     61  C   UNL A   1      43.847  32.114  28.775  1.00  0.00     0.031 C 
ATOM     62  C   UNL A   1      46.244  31.845  28.203  1.00  0.00     0.031 A 
BRANCH  49  63
ATOM     63  C   UNL A   1      50.392  27.754  26.135  1.00  0.00    -0.014 A 
ATOM     64  C   UNL A   1      50.883  27.912  24.828  1.00  0.00     0.010 A 
ATOM     65  C   UNL A   1      51.269  27.332  27.152  1.00  0.00     0.010 A 
ATOM     66  C   UNL A   1      52.215  27.610  24.531  1.00  0.00     0.020 A 
ATOM     67  C   UNL A   1      52.608  27.053  26.863  1.00  0.00     0.020 A 
ATOM     68  C   UNL A   1      53.067  27.174  25.550  1.00  0.00     0.054 A 
BRANCH  68  69
ATOM     69  S   UNL A   1      54.794  26.795  25.141  1.00  0.00     0.124 S 
ATOM     70  O   UNL A   1      55.150  25.850  26.197  1.00  0.00    -0.237 OA
ATOM     71  O   UNL A   1      54.692  26.228  23.799  1.00  0.00    -0.237 OA
ATOM     72  O   UNL A   1      55.459  28.094  25.216  1.00  0.00    -0.744 OA
ENDBRANCH  68  69
ENDBRANCH  49  63
BRANCH  50  73
ATOM     73  C   UNL A   1      40.805  29.203  28.492  1.00  0.00    -0.014 A 
ATOM     74  C   UNL A   1      40.428  29.222  29.846  1.00  0.00     0.010 A 
ATOM     75  C   UNL A   1      39.827  29.409  27.503  1.00  0.00     0.010 A 
ATOM     76  C   UNL A   1      39.094  29.434  30.205  1.00  0.00     0.020 A 
ATOM     77  C   UNL A   1      38.496  29.644  27.860  1.00  0.00     0.020 A 
ATOM     78  C   UNL A   1      38.137  29.646  29.209  1.00  0.00     0.054 A 
BRANCH  78  79
ATOM     79  S   UNL A   1      36.422  29.986  29.697  1.00  0.00     0.124 S 
ATOM     80  O   UNL A   1      36.335  29.317  30.989  1.00  0.00    -0.237 OA
ATOM     81  O   UNL A   1      36.385  31.446  29.735  1.00  0.00    -0.237 OA
ATOM     82  O   UNL A   1      35.638  29.382  28.621  1.00  0.00    -0.744 OA
ENDBRANCH  78  79
ENDBRANCH  50  73
BRANCH  62  83
ATOM     83  C   UNL A   1      46.454  33.286  28.581  1.00  0.00    -0.014 A 
ATOM     84  C   UNL A   1      46.705  33.657  29.914  1.00  0.00     0.010 A 
ATOM     85  C   UNL A   1      46.450  34.275  27.580  1.00  0.00     0.010 A 
ATOM     86  C   UNL A   1      46.922  34.997  30.243  1.00  0.00     0.020 A 
ATOM     87  C   UNL A   1      46.687  35.612  27.903  1.00  0.00     0.020 A 
ATOM     88  C   UNL A   1      46.909  35.967  29.236  1.00  0.00     0.054 A 
BRANCH  88  89
ATOM     89  S   UNL A   1      47.237  37.696  29.679  1.00  0.00     0.124 S 
ATOM     90  O   UNL A   1      46.995  37.691  31.119  1.00  0.00    -0.237 OA
ATOM     91  O   UNL A   1      48.630  37.875  29.275  1.00  0.00    -0.237 OA
ATOM     92  O   UNL A   1      46.265  38.445  28.886  1.00  0.00    -0.744 OA
ENDBRANCH  88  89
ENDBRANCH  62  83
ENDBRANCH  36  37
ENDBRANCH  28  31
ENDBRANCH  26  27
ENDBRANCH  25  26
ENDBRANCH  24  25
ENDBRANCH   1  24
TORSDOF 22
ENDMDL
MODEL 3
REMARK VINA RESULT:      -9.6      6.721      8.965
REMARK SMILES C=CCN(CC(=O)NCCCCCCNC(=O)c1ccc(-c2c3nc(c(-c4ccc(S(=O)(=O)[O-])cc4)c4ccc([nH]4)c(-c4ccc(S(=O)(=O)[O-])cc4)c4nc(c(-c5ccc(S(=O)(=O)[O-])cc5)c5ccc2[nH]5)C=C4)C=C3)cc1)S(=O)(=O)c1ccccc1OC
REMARK SMILES IDX 11 1 10 2 9 3 8 4 6 5 7 6 5 8 4 9 3 10 2 11 1 12 78 13 79 14
REMARK SMILES IDX 80 15 81 16 82 17 86 18 83 19 85 20 84 21 87 22 88 23 12 24
REMARK SMILES IDX 13 25 14 26 15 27 16 28 17 30 18 31 19 32 77 33 20 34 76 35
REMARK SMILES IDX 21 36 22 37 23 38 70 39 24 40 75 41 69 42 71 43 25 44 74 45
REMARK SMILES IDX 68 46 67 47 26 49 56 50 37 51 55 52 38 53 41 54 54 55 72 56
REMARK SMILES IDX 39 57 40 58 53 60 73 61 42 62 27 63 28 64 36 65 29 66 35 67
REMARK SMILES IDX 30 68 31 69 32 70 33 71 34 72 57 73 58 74 66 75 59 76 65 77
REMARK SMILES IDX 60 78 61 79 62 80 63 81 64 82 43 83 44 84 52 85 45 86 51 87
REMARK SMILES IDX 46 88 47 89 48 90 49 91 50 92
REMARK H PARENT 8 7 15 29 71 48 41 59
REMARK Flexibility Score: inf
ROOT
ATOM      1  C   UNL A   1      35.368  32.477  28.923  1.00  0.00     0.002 C 
ENDROOT
BRANCH   1   2
ATOM      2  C   UNL A   1      35.259  31.023  28.458  1.00  0.00     0.021 C 
BRANCH   2   3
ATOM      3  C   UNL A   1      34.130  30.741  27.464  1.00  0.00     0.116 C 
BRANCH   3   4
ATOM      4  N   UNL A   1      33.287  29.639  27.888  1.00  0.00    -0.355 N 
ATOM      5  C   UNL A   1      32.245  29.023  27.256  1.00  0.00     0.235 C 
ATOM      6  O   UNL A   1      31.749  28.032  27.803  1.00  0.00    -0.274 OA
ATOM      7  H   UNL A   1      33.502  29.276  28.778  1.00  0.00     0.163 HD
BRANCH   5   8
ATOM      8  C   UNL A   1      31.748  29.474  25.892  1.00  0.00     0.202 C 
BRANCH   8   9
ATOM      9  N   UNL A   1      31.935  28.617  24.670  1.00  0.00    -0.185 NA
BRANCH   9  10
ATOM     10  C   UNL A   1      31.020  27.454  24.713  1.00  0.00     0.130 C 
BRANCH  10  11
ATOM     11  C   UNL A   1      29.943  27.470  23.686  1.00  0.00    -0.018 C 
ATOM     12  C   UNL A   1      30.149  27.836  22.412  1.00  0.00     0.005 C 
ENDBRANCH  10  11
ENDBRANCH   9  10
BRANCH   9  13
ATOM     13  S   UNL A   1      33.562  28.336  24.170  1.00  0.00     0.247 S 
ATOM     14  O   UNL A   1      33.665  28.879  22.834  1.00  0.00    -0.207 OA
ATOM     15  O   UNL A   1      34.466  28.760  25.217  1.00  0.00    -0.207 OA
BRANCH  13  16
ATOM     16  C   UNL A   1      33.701  26.566  24.167  1.00  0.00     0.124 A 
ATOM     17  C   UNL A   1      34.080  25.970  25.387  1.00  0.00     0.026 A 
ATOM     18  C   UNL A   1      33.610  25.785  23.013  1.00  0.00     0.138 A 
ATOM     19  C   UNL A   1      34.329  24.602  25.466  1.00  0.00     0.002 A 
ATOM     20  C   UNL A   1      33.846  24.405  23.108  1.00  0.00     0.048 A 
ATOM     21  C   UNL A   1      34.197  23.815  24.327  1.00  0.00     0.004 A 
BRANCH  18  22
ATOM     22  O   UNL A   1      33.573  26.287  21.741  1.00  0.00    -0.495 OA
ATOM     23  C   UNL A   1      32.684  25.606  20.860  1.00  0.00     0.278 C 
ENDBRANCH  18  22
ENDBRANCH  13  16
ENDBRANCH   9  13
ENDBRANCH   8   9
ENDBRANCH   5   8
ENDBRANCH   3   4
ENDBRANCH   2   3
ENDBRANCH   1   2
BRANCH   1  24
ATOM     24  C   UNL A   1      34.760  33.521  27.979  1.00  0.00     0.002 C 
BRANCH  24  25
ATOM     25  C   UNL A   1      33.469  34.195  28.458  1.00  0.00     0.021 C 
BRANCH  25  26
ATOM     26  C   UNL A   1      33.646  35.550  29.144  1.00  0.00     0.116 C 
BRANCH  26  27
ATOM     27  N   UNL A   1      32.811  35.685  30.324  1.00  0.00    -0.352 N 
ATOM     28  C   UNL A   1      32.977  35.167  31.585  1.00  0.00     0.251 C 
ATOM     29  H   UNL A   1      32.001  36.232  30.201  1.00  0.00     0.163 HD
ATOM     30  O   UNL A   1      32.055  35.238  32.396  1.00  0.00    -0.269 OA
BRANCH  28  31
ATOM     31  C   UNL A   1      34.246  34.510  31.972  1.00  0.00     0.039 A 
ATOM     32  C   UNL A   1      35.420  35.270  31.989  1.00  0.00     0.014 A 
ATOM     33  C   UNL A   1      34.295  33.146  32.277  1.00  0.00     0.014 A 
ATOM     34  C   UNL A   1      36.630  34.678  32.365  1.00  0.00     0.010 A 
ATOM     35  C   UNL A   1      35.491  32.570  32.703  1.00  0.00     0.010 A 
ATOM     36  C   UNL A   1      36.671  33.329  32.752  1.00  0.00    -0.014 A 
BRANCH  36  37
ATOM     37  C   UNL A   1      37.937  32.698  33.210  1.00  0.00     0.031 A 
ATOM     38  C   UNL A   1      38.455  32.955  34.600  1.00  0.00     0.074 A 
ATOM     39  C   UNL A   1      38.654  31.942  32.355  1.00  0.00     0.049 A 
ATOM     40  N   UNL A   1      39.571  32.549  35.151  1.00  0.00    -0.248 NA
ATOM     41  C   UNL A   1      37.622  33.795  35.474  1.00  0.00     0.031 C 
ATOM     42  C   UNL A   1      38.281  31.644  30.971  1.00  0.00     0.029 A 
ATOM     43  N   UNL A   1      39.854  31.296  32.523  1.00  0.00    -0.354 N 
ATOM     44  C   UNL A   1      39.584  33.098  36.428  1.00  0.00     0.074 A 
ATOM     45  C   UNL A   1      38.382  33.896  36.556  1.00  0.00     0.031 C 
ATOM     46  C   UNL A   1      39.223  30.860  30.422  1.00  0.00     0.029 A 
ATOM     47  C   UNL A   1      40.281  30.628  31.400  1.00  0.00     0.049 A 
ATOM     48  H   UNL A   1      40.359  31.310  33.367  1.00  0.00     0.167 HD
ATOM     49  C   UNL A   1      40.504  32.945  37.410  1.00  0.00     0.031 A 
ATOM     50  C   UNL A   1      41.401  29.913  31.179  1.00  0.00     0.031 A 
ATOM     51  C   UNL A   1      41.691  32.141  37.291  1.00  0.00     0.049 A 
ATOM     52  C   UNL A   1      42.405  29.748  32.286  1.00  0.00     0.074 A 
ATOM     53  C   UNL A   1      42.657  31.882  38.249  1.00  0.00     0.029 A 
ATOM     54  N   UNL A   1      42.076  31.463  36.145  1.00  0.00    -0.354 N 
ATOM     55  N   UNL A   1      42.373  30.235  33.503  1.00  0.00    -0.248 NA
ATOM     56  C   UNL A   1      43.589  28.930  31.992  1.00  0.00     0.031 C 
ATOM     57  C   UNL A   1      43.643  31.076  37.671  1.00  0.00     0.029 A 
ATOM     58  C   UNL A   1      43.271  30.799  36.366  1.00  0.00     0.049 A 
ATOM     59  H   UNL A   1      41.574  31.454  35.298  1.00  0.00     0.167 HD
ATOM     60  C   UNL A   1      43.522  29.764  34.128  1.00  0.00     0.074 A 
ATOM     61  C   UNL A   1      44.221  28.944  33.158  1.00  0.00     0.031 C 
ATOM     62  C   UNL A   1      43.956  29.989  35.391  1.00  0.00     0.031 A 
BRANCH  49  63
ATOM     63  C   UNL A   1      40.261  33.673  38.705  1.00  0.00    -0.014 A 
ATOM     64  C   UNL A   1      39.504  33.087  39.735  1.00  0.00     0.010 A 
ATOM     65  C   UNL A   1      40.818  34.950  38.905  1.00  0.00     0.010 A 
ATOM     66  C   UNL A   1      39.269  33.781  40.924  1.00  0.00     0.020 A 
ATOM     67  C   UNL A   1      40.605  35.637  40.103  1.00  0.00     0.020 A 
ATOM     68  C   UNL A   1      39.814  35.057  41.097  1.00  0.00     0.054 A 
BRANCH  68  69
ATOM     69  S   UNL A   1      39.500  35.937  42.653  1.00  0.00     0.124 S 
ATOM     70  O   UNL A   1      38.149  35.487  42.982  1.00  0.00    -0.237 OA
ATOM     71  O   UNL A   1      40.559  35.437  43.526  1.00  0.00    -0.237 OA
ATOM     72  O   UNL A   1      39.616  37.345  42.282  1.00  0.00    -0.744 OA
ENDBRANCH  68  69
ENDBRANCH  49  63
BRANCH  50  73
ATOM     73  C   UNL A   1      41.623  29.281  29.850  1.00  0.00    -0.014 A 
ATOM     74  C   UNL A   1      41.181  27.969  29.605  1.00  0.00     0.010 A 
ATOM     75  C   UNL A   1      42.255  29.997  28.818  1.00  0.00     0.010 A 
ATOM     76  C   UNL A   1      41.376  27.380  28.353  1.00  0.00     0.020 A 
ATOM     77  C   UNL A   1      42.431  29.419  27.558  1.00  0.00     0.020 A 
ATOM     78  C   UNL A   1      41.998  28.110  27.336  1.00  0.00     0.054 A 
BRANCH  78  79
ATOM     79  S   UNL A   1      42.182  27.352  25.697  1.00  0.00     0.124 S 
ATOM     80  O   UNL A   1      42.134  28.515  24.819  1.00  0.00    -0.237 OA
ATOM     81  O   UNL A   1      43.479  26.687  25.798  1.00  0.00    -0.237 OA
ATOM     82  O   UNL A   1      41.036  26.451  25.610  1.00  0.00    -0.744 OA
ENDBRANCH  78  79
ENDBRANCH  50  73
BRANCH  62  83
ATOM     83  C   UNL A   1      45.236  29.318  35.811  1.00  0.00    -0.014 A 
ATOM     84  C   UNL A   1      46.476  29.964  35.665  1.00  0.00     0.010 A 
ATOM     85  C   UNL A   1      45.189  28.043  36.406  1.00  0.00     0.010 A 
ATOM     86  C   UNL A   1      47.651  29.335  36.084  1.00  0.00     0.020 A 
ATOM     87  C   UNL A   1      46.360  27.421  36.844  1.00  0.00     0.020 A 
ATOM     88  C   UNL A   1      47.586  28.067  36.668  1.00  0.00     0.054 A 
BRANCH  88  89
ATOM     89  S   UNL A   1      49.120  27.288  37.245  1.00  0.00     0.124 S 
ATOM     90  O   UNL A   1      49.454  28.101  38.410  1.00  0.00    -0.237 OA
ATOM     91  O   UNL A   1      48.699  25.919  37.533  1.00  0.00    -0.237 OA
ATOM     92  O   UNL A   1      50.026  27.426  36.107  1.00  0.00    -0.744 OA
ENDBRANCH  88  89
ENDBRANCH  62  83
ENDBRANCH  36  37
ENDBRANCH  28  31
ENDBRANCH  26  27
ENDBRANCH  25  26
ENDBRANCH  24  25
ENDBRANCH   1  24
TORSDOF 22
ENDMDL
