MODEL 1
REMARK VINA RESULT:     -12.9      0.000      0.000
REMARK SMILES Cc1ccc(Oc2cc(C(=O)NCCCCCCNC(=O)c3ccc(-c4c5nc(c(-c6ccc(S(=O)(=O)[O-])cc6)c6ccc([nH]6)c(-c6ccc(S(=O)(=O)[O-])cc6)c6nc(c(-c7ccc(S(=O)(=O)[O-])cc7)c7ccc4[nH]7)C=C6)C=C5)cc3)nc3ccccc23)cc1
REMARK SMILES IDX 16 1 15 2 14 3 13 4 12 5 10 6 11 7 9 9 7 10 8 11 88 12 83 13
REMARK SMILES IDX 87 14 82 15 84 16 86 17 85 18 6 19 5 20 1 21 2 22 3 23 90 24
REMARK SMILES IDX 4 25 89 26 17 27 18 28 19 29 20 30 21 32 22 33 23 34 81 35
REMARK SMILES IDX 24 36 80 37 25 38 26 39 27 40 74 41 28 42 79 43 73 44 75 45
REMARK SMILES IDX 29 46 78 47 72 48 71 49 30 51 60 52 41 53 59 54 42 55 45 56
REMARK SMILES IDX 58 57 76 58 43 59 44 60 57 62 77 63 46 64 31 65 32 66 40 67
REMARK SMILES IDX 33 68 39 69 34 70 35 71 36 72 37 73 38 74 61 75 62 76 70 77
REMARK SMILES IDX 63 78 69 79 64 80 65 81 66 82 67 83 68 84 47 85 48 86 56 87
REMARK SMILES IDX 49 88 55 89 50 90 51 91 52 92 53 93 54 94
REMARK H PARENT 12 8 19 31 75 50 45 61
REMARK Flexibility Score: inf
ROOT
ATOM      1  C   UNL A   1      32.392  29.716  26.669  1.00  0.00     0.002 C 
ENDROOT
BRANCH   1   2
ATOM      2  C   UNL A   1      33.008  28.727  25.665  1.00  0.00     0.002 C 
BRANCH   2   3
ATOM      3  C   UNL A   1      32.834  29.055  24.175  1.00  0.00     0.021 C 
BRANCH   3   4
ATOM      4  C   UNL A   1      33.767  28.299  23.226  1.00  0.00     0.116 C 
BRANCH   4   5
ATOM      5  N   UNL A   1      33.066  27.757  22.073  1.00  0.00    -0.351 N 
ATOM      6  C   UNL A   1      32.371  26.581  21.886  1.00  0.00     0.270 C 
ATOM      7  O   UNL A   1      31.808  26.419  20.800  1.00  0.00    -0.268 OA
ATOM      8  H   UNL A   1      33.092  28.338  21.279  1.00  0.00     0.163 HD
BRANCH   6   9
ATOM      9  C   UNL A   1      32.252  25.505  22.930  1.00  0.00     0.132 A 
ATOM     10  C   UNL A   1      32.945  23.399  23.799  1.00  0.00     0.139 A 
ATOM     11  C   UNL A   1      33.081  24.399  22.841  1.00  0.00     0.082 A 
ATOM     12  C   UNL A   1      32.033  23.537  24.869  1.00  0.00     0.043 A 
ATOM     13  C   UNL A   1      31.222  24.687  24.848  1.00  0.00     0.075 A 
ATOM     14  C   UNL A   1      31.873  22.607  25.926  1.00  0.00     0.014 A 
ATOM     15  N   UNL A   1      31.332  25.637  23.910  1.00  0.00    -0.242 NA
ATOM     16  C   UNL A   1      30.254  24.844  25.829  1.00  0.00     0.029 A 
ATOM     17  C   UNL A   1      30.892  22.786  26.899  1.00  0.00     0.001 A 
ATOM     18  C   UNL A   1      30.072  23.903  26.845  1.00  0.00     0.002 A 
BRANCH  10  19
ATOM     19  O   UNL A   1      33.778  22.310  23.657  1.00  0.00    -0.457 OA
BRANCH  19  20
ATOM     20  C   UNL A   1      35.001  22.325  24.298  1.00  0.00     0.127 A 
ATOM     21  C   UNL A   1      38.929  21.972  26.039  1.00  0.00     0.044 C 
ATOM     22  C   UNL A   1      37.552  22.101  25.457  1.00  0.00    -0.051 A 
ATOM     23  C   UNL A   1      36.809  20.954  25.153  1.00  0.00     0.007 A 
ATOM     24  C   UNL A   1      36.986  23.358  25.226  1.00  0.00     0.007 A 
ATOM     25  C   UNL A   1      35.542  21.067  24.573  1.00  0.00     0.047 A 
ATOM     26  C   UNL A   1      35.712  23.472  24.662  1.00  0.00     0.047 A 
ENDBRANCH  19  20
ENDBRANCH  10  19
ENDBRANCH   6   9
ENDBRANCH   4   5
ENDBRANCH   3   4
ENDBRANCH   2   3
ENDBRANCH   1   2
BRANCH   1  27
ATOM     27  C   UNL A   1      33.338  30.761  27.266  1.00  0.00     0.021 C 
BRANCH  27  28
ATOM     28  C   UNL A   1      34.711  30.211  27.641  1.00  0.00     0.116 C 
BRANCH  28  29
ATOM     29  N   UNL A   1      35.491  31.141  28.465  1.00  0.00    -0.352 N 
ATOM     30  C   UNL A   1      36.713  30.926  29.075  1.00  0.00     0.251 C 
ATOM     31  H   UNL A   1      35.095  32.032  28.601  1.00  0.00     0.163 HD
ATOM     32  O   UNL A   1      37.274  31.735  29.806  1.00  0.00    -0.269 OA
BRANCH  30  33
ATOM     33  C   UNL A   1      37.406  29.681  28.710  1.00  0.00     0.039 A 
ATOM     34  C   UNL A   1      37.710  28.810  29.762  1.00  0.00     0.014 A 
ATOM     35  C   UNL A   1      38.071  29.629  27.487  1.00  0.00     0.014 A 
ATOM     36  C   UNL A   1      38.856  28.038  29.670  1.00  0.00     0.010 A 
ATOM     37  C   UNL A   1      39.258  28.928  27.433  1.00  0.00     0.010 A 
ATOM     38  C   UNL A   1      39.682  28.203  28.553  1.00  0.00    -0.014 A 
BRANCH  38  39
ATOM     39  C   UNL A   1      41.062  27.743  28.568  1.00  0.00     0.031 A 
ATOM     40  C   UNL A   1      41.348  26.364  28.148  1.00  0.00     0.074 A 
ATOM     41  C   UNL A   1      42.041  28.527  29.073  1.00  0.00     0.049 A 
ATOM     42  N   UNL A   1      42.182  25.580  28.744  1.00  0.00    -0.248 NA
ATOM     43  C   UNL A   1      40.626  25.736  27.048  1.00  0.00     0.031 C 
ATOM     44  C   UNL A   1      43.467  28.220  29.117  1.00  0.00     0.029 A 
ATOM     45  N   UNL A   1      41.907  29.658  29.883  1.00  0.00    -0.354 N 
ATOM     46  C   UNL A   1      42.313  24.464  27.949  1.00  0.00     0.074 A 
ATOM     47  C   UNL A   1      41.253  24.561  26.970  1.00  0.00     0.031 C 
ATOM     48  C   UNL A   1      44.011  28.904  30.138  1.00  0.00     0.029 A 
ATOM     49  C   UNL A   1      42.934  29.594  30.832  1.00  0.00     0.049 A 
ATOM     50  H   UNL A   1      41.223  30.362  29.803  1.00  0.00     0.167 HD
ATOM     51  C   UNL A   1      43.403  23.657  28.069  1.00  0.00     0.031 A 
ATOM     52  C   UNL A   1      42.720  29.583  32.176  1.00  0.00     0.031 A 
ATOM     53  C   UNL A   1      44.306  24.121  29.118  1.00  0.00     0.049 A 
ATOM     54  C   UNL A   1      43.266  28.332  32.834  1.00  0.00     0.074 A 
ATOM     55  C   UNL A   1      45.459  24.890  29.075  1.00  0.00     0.029 A 
ATOM     56  N   UNL A   1      43.896  24.104  30.447  1.00  0.00    -0.354 N 
ATOM     57  N   UNL A   1      43.591  27.247  32.182  1.00  0.00    -0.248 NA
ATOM     58  C   UNL A   1      43.465  28.195  34.274  1.00  0.00     0.031 C 
ATOM     59  C   UNL A   1      45.692  25.408  30.375  1.00  0.00     0.029 A 
ATOM     60  C   UNL A   1      44.704  24.925  31.215  1.00  0.00     0.049 A 
ATOM     61  H   UNL A   1      43.137  23.582  30.794  1.00  0.00     0.167 HD
ATOM     62  C   UNL A   1      44.050  26.299  33.062  1.00  0.00     0.074 A 
ATOM     63  C   UNL A   1      43.953  26.944  34.361  1.00  0.00     0.031 C 
ATOM     64  C   UNL A   1      44.481  25.069  32.649  1.00  0.00     0.031 A 
BRANCH  51  65
ATOM     65  C   UNL A   1      43.785  22.716  26.948  1.00  0.00    -0.014 A 
ATOM     66  C   UNL A   1      43.008  21.568  26.700  1.00  0.00     0.010 A 
ATOM     67  C   UNL A   1      44.957  22.858  26.179  1.00  0.00     0.010 A 
ATOM     68  C   UNL A   1      43.450  20.547  25.847  1.00  0.00     0.020 A 
ATOM     69  C   UNL A   1      45.437  21.823  25.362  1.00  0.00     0.020 A 
ATOM     70  C   UNL A   1      44.686  20.661  25.216  1.00  0.00     0.054 A 
BRANCH  70  71
ATOM     71  S   UNL A   1      45.310  19.266  24.241  1.00  0.00     0.124 S 
ATOM     72  O   UNL A   1      44.849  18.110  25.007  1.00  0.00    -0.237 OA
ATOM     73  O   UNL A   1      44.654  19.470  22.953  1.00  0.00    -0.237 OA
ATOM     74  O   UNL A   1      46.758  19.463  24.242  1.00  0.00    -0.744 OA
ENDBRANCH  70  71
ENDBRANCH  51  65
BRANCH  52  75
ATOM     75  C   UNL A   1      41.555  30.382  32.649  1.00  0.00    -0.014 A 
ATOM     76  C   UNL A   1      40.388  29.681  33.024  1.00  0.00     0.010 A 
ATOM     77  C   UNL A   1      41.682  31.725  33.039  1.00  0.00     0.010 A 
ATOM     78  C   UNL A   1      39.424  30.269  33.850  1.00  0.00     0.020 A 
ATOM     79  C   UNL A   1      40.719  32.316  33.877  1.00  0.00     0.020 A 
ATOM     80  C   UNL A   1      39.621  31.569  34.313  1.00  0.00     0.054 A 
BRANCH  80  81
ATOM     81  S   UNL A   1      38.443  32.248  35.526  1.00  0.00     0.124 S 
ATOM     82  O   UNL A   1      38.845  31.583  36.763  1.00  0.00    -0.237 OA
ATOM     83  O   UNL A   1      38.728  33.680  35.469  1.00  0.00    -0.237 OA
ATOM     84  O   UNL A   1      37.147  31.843  34.994  1.00  0.00    -0.744 OA
ENDBRANCH  80  81
ENDBRANCH  52  75
BRANCH  64  85
ATOM     85  C   UNL A   1      44.846  23.897  33.538  1.00  0.00    -0.014 A 
ATOM     86  C   UNL A   1      43.924  22.996  34.088  1.00  0.00     0.010 A 
ATOM     87  C   UNL A   1      46.219  23.606  33.744  1.00  0.00     0.010 A 
ATOM     88  C   UNL A   1      44.346  21.891  34.847  1.00  0.00     0.020 A 
ATOM     89  C   UNL A   1      46.652  22.484  34.456  1.00  0.00     0.020 A 
ATOM     90  C   UNL A   1      45.707  21.642  35.025  1.00  0.00     0.054 A 
BRANCH  90  91
ATOM     91  S   UNL A   1      46.246  20.168  35.929  1.00  0.00     0.124 S 
ATOM     92  O   UNL A   1      45.680  19.093  35.119  1.00  0.00    -0.237 OA
ATOM     93  O   UNL A   1      47.703  20.277  35.896  1.00  0.00    -0.237 OA
ATOM     94  O   UNL A   1      45.648  20.341  37.250  1.00  0.00    -0.744 OA
ENDBRANCH  90  91
ENDBRANCH  64  85
ENDBRANCH  38  39
ENDBRANCH  30  33
ENDBRANCH  28  29
ENDBRANCH  27  28
ENDBRANCH   1  27
TORSDOF 18
ENDMDL
MODEL 2
REMARK VINA RESULT:     -12.8      4.440     11.353
REMARK SMILES Cc1ccc(Oc2cc(C(=O)NCCCCCCNC(=O)c3ccc(-c4c5nc(c(-c6ccc(S(=O)(=O)[O-])cc6)c6ccc([nH]6)c(-c6ccc(S(=O)(=O)[O-])cc6)c6nc(c(-c7ccc(S(=O)(=O)[O-])cc7)c7ccc4[nH]7)C=C6)C=C5)cc3)nc3ccccc23)cc1
REMARK SMILES IDX 16 1 15 2 14 3 13 4 12 5 10 6 11 7 9 9 7 10 8 11 88 12 83 13
REMARK SMILES IDX 87 14 82 15 84 16 86 17 85 18 6 19 5 20 1 21 2 22 3 23 90 24
REMARK SMILES IDX 4 25 89 26 17 27 18 28 19 29 20 30 21 32 22 33 23 34 81 35
REMARK SMILES IDX 24 36 80 37 25 38 26 39 27 40 74 41 28 42 79 43 73 44 75 45
REMARK SMILES IDX 29 46 78 47 72 48 71 49 30 51 60 52 41 53 59 54 42 55 45 56
REMARK SMILES IDX 58 57 76 58 43 59 44 60 57 62 77 63 46 64 31 65 32 66 40 67
REMARK SMILES IDX 33 68 39 69 34 70 35 71 36 72 37 73 38 74 61 75 62 76 70 77
REMARK SMILES IDX 63 78 69 79 64 80 65 81 66 82 67 83 68 84 47 85 48 86 56 87
REMARK SMILES IDX 49 88 55 89 50 90 51 91 52 92 53 93 54 94
REMARK H PARENT 12 8 19 31 75 50 45 61
REMARK Flexibility Score: inf
ROOT
ATOM      1  C   UNL A   1      36.666  21.602  25.771  1.00  0.00     0.002 C 
ENDROOT
BRANCH   1   2
ATOM      2  C   UNL A   1      35.834  21.522  24.480  1.00  0.00     0.002 C 
BRANCH   2   3
ATOM      3  C   UNL A   1      35.129  22.810  24.031  1.00  0.00     0.021 C 
BRANCH   3   4
ATOM      4  C   UNL A   1      33.752  22.614  23.393  1.00  0.00     0.116 C 
BRANCH   4   5
ATOM      5  N   UNL A   1      33.604  23.355  22.151  1.00  0.00    -0.351 N 
ATOM      6  C   UNL A   1      33.133  24.622  21.885  1.00  0.00     0.270 C 
ATOM      7  O   UNL A   1      33.194  25.020  20.717  1.00  0.00    -0.268 OA
ATOM      8  H   UNL A   1      33.897  22.860  21.352  1.00  0.00     0.163 HD
BRANCH   6   9
ATOM      9  C   UNL A   1      32.567  25.542  22.932  1.00  0.00     0.132 A 
ATOM     10  C   UNL A   1      30.724  26.760  23.819  1.00  0.00     0.139 A 
ATOM     11  C   UNL A   1      31.229  25.890  22.858  1.00  0.00     0.082 A 
ATOM     12  C   UNL A   1      31.536  27.225  24.877  1.00  0.00     0.043 A 
ATOM     13  C   UNL A   1      32.886  26.831  24.841  1.00  0.00     0.075 A 
ATOM     14  C   UNL A   1      31.094  28.056  25.936  1.00  0.00     0.014 A 
ATOM     15  N   UNL A   1      33.381  26.016  23.900  1.00  0.00    -0.242 NA
ATOM     16  C   UNL A   1      33.754  27.315  25.810  1.00  0.00     0.029 A 
ATOM     17  C   UNL A   1      31.985  28.531  26.897  1.00  0.00     0.001 A 
ATOM     18  C   UNL A   1      33.322  28.168  26.828  1.00  0.00     0.002 A 
BRANCH  10  19
ATOM     19  O   UNL A   1      29.392  27.091  23.692  1.00  0.00    -0.457 OA
BRANCH  19  20
ATOM     20  C   UNL A   1      29.064  28.320  23.154  1.00  0.00     0.127 A 
ATOM     21  C   UNL A   1      28.282  32.012  21.071  1.00  0.00     0.044 C 
ATOM     22  C   UNL A   1      28.559  30.741  21.818  1.00  0.00    -0.051 A 
ATOM     23  C   UNL A   1      29.784  30.082  21.653  1.00  0.00     0.007 A 
ATOM     24  C   UNL A   1      27.613  30.205  22.697  1.00  0.00     0.007 A 
ATOM     25  C   UNL A   1      30.031  28.877  22.315  1.00  0.00     0.047 A 
ATOM     26  C   UNL A   1      27.868  29.008  23.373  1.00  0.00     0.047 A 
ENDBRANCH  19  20
ENDBRANCH  10  19
ENDBRANCH   6   9
ENDBRANCH   4   5
ENDBRANCH   3   4
ENDBRANCH   2   3
ENDBRANCH   1   2
BRANCH   1  27
ATOM     27  C   UNL A   1      38.172  21.816  25.600  1.00  0.00     0.021 C 
BRANCH  27  28
ATOM     28  C   UNL A   1      38.648  23.213  25.989  1.00  0.00     0.116 C 
BRANCH  28  29
ATOM     29  N   UNL A   1      40.019  23.224  26.508  1.00  0.00    -0.352 N 
ATOM     30  C   UNL A   1      40.699  24.267  27.109  1.00  0.00     0.251 C 
ATOM     31  H   UNL A   1      40.520  22.381  26.418  1.00  0.00     0.163 HD
ATOM     32  O   UNL A   1      41.872  24.218  27.460  1.00  0.00    -0.269 OA
BRANCH  30  33
ATOM     33  C   UNL A   1      39.897  25.456  27.434  1.00  0.00     0.039 A 
ATOM     34  C   UNL A   1      40.288  26.653  26.823  1.00  0.00     0.014 A 
ATOM     35  C   UNL A   1      39.117  25.433  28.588  1.00  0.00     0.014 A 
ATOM     36  C   UNL A   1      40.096  27.840  27.510  1.00  0.00     0.010 A 
ATOM     37  C   UNL A   1      39.008  26.604  29.311  1.00  0.00     0.010 A 
ATOM     38  C   UNL A   1      39.568  27.782  28.803  1.00  0.00    -0.014 A 
BRANCH  38  39
ATOM     39  C   UNL A   1      39.706  28.904  29.719  1.00  0.00     0.031 A 
ATOM     40  C   UNL A   1      38.699  29.975  29.673  1.00  0.00     0.074 A 
ATOM     41  C   UNL A   1      40.797  29.018  30.507  1.00  0.00     0.049 A 
ATOM     42  N   UNL A   1      38.973  31.234  29.750  1.00  0.00    -0.248 NA
ATOM     43  C   UNL A   1      37.288  29.688  29.446  1.00  0.00     0.031 C 
ATOM     44  C   UNL A   1      41.053  30.059  31.498  1.00  0.00     0.029 A 
ATOM     45  N   UNL A   1      42.020  28.350  30.386  1.00  0.00    -0.354 N 
ATOM     46  C   UNL A   1      37.771  31.893  29.866  1.00  0.00     0.074 A 
ATOM     47  C   UNL A   1      36.757  30.906  29.565  1.00  0.00     0.031 C 
ATOM     48  C   UNL A   1      42.383  30.179  31.646  1.00  0.00     0.029 A 
ATOM     49  C   UNL A   1      43.017  29.284  30.688  1.00  0.00     0.049 A 
ATOM     50  H   UNL A   1      42.153  27.407  30.137  1.00  0.00     0.167 HD
ATOM     51  C   UNL A   1      37.723  33.155  30.377  1.00  0.00     0.031 A 
ATOM     52  C   UNL A   1      44.021  29.620  29.832  1.00  0.00     0.031 A 
ATOM     53  C   UNL A   1      39.054  33.650  30.716  1.00  0.00     0.049 A 
ATOM     54  C   UNL A   1      44.012  31.095  29.487  1.00  0.00     0.074 A 
ATOM     55  C   UNL A   1      39.750  33.691  31.914  1.00  0.00     0.029 A 
ATOM     56  N   UNL A   1      39.989  33.876  29.712  1.00  0.00    -0.354 N 
ATOM     57  N   UNL A   1      42.993  31.886  29.693  1.00  0.00    -0.248 NA
ATOM     58  C   UNL A   1      45.134  31.788  28.862  1.00  0.00     0.031 C 
ATOM     59  C   UNL A   1      41.128  33.856  31.617  1.00  0.00     0.029 A 
ATOM     60  C   UNL A   1      41.264  33.955  30.244  1.00  0.00     0.049 A 
ATOM     61  H   UNL A   1      39.774  33.968  28.755  1.00  0.00     0.167 HD
ATOM     62  C   UNL A   1      43.301  33.156  29.273  1.00  0.00     0.074 A 
ATOM     63  C   UNL A   1      44.656  33.041  28.762  1.00  0.00     0.031 C 
ATOM     64  C   UNL A   1      42.421  34.197  29.389  1.00  0.00     0.031 A 
BRANCH  51  65
ATOM     65  C   UNL A   1      36.424  33.712  30.917  1.00  0.00    -0.014 A 
ATOM     66  C   UNL A   1      35.355  33.975  30.040  1.00  0.00     0.010 A 
ATOM     67  C   UNL A   1      36.243  34.095  32.261  1.00  0.00     0.010 A 
ATOM     68  C   UNL A   1      34.233  34.712  30.443  1.00  0.00     0.020 A 
ATOM     69  C   UNL A   1      35.150  34.877  32.668  1.00  0.00     0.020 A 
ATOM     70  C   UNL A   1      34.158  35.198  31.747  1.00  0.00     0.054 A 
BRANCH  70  71
ATOM     71  S   UNL A   1      32.776  36.278  32.206  1.00  0.00     0.124 S 
ATOM     72  O   UNL A   1      31.700  35.324  32.468  1.00  0.00    -0.237 OA
ATOM     73  O   UNL A   1      33.302  36.972  33.378  1.00  0.00    -0.237 OA
ATOM     74  O   UNL A   1      32.580  37.111  31.022  1.00  0.00    -0.744 OA
ENDBRANCH  70  71
ENDBRANCH  51  65
BRANCH  52  75
ATOM     75  C   UNL A   1      44.515  28.521  28.956  1.00  0.00    -0.014 A 
ATOM     76  C   UNL A   1      45.736  27.904  29.304  1.00  0.00     0.010 A 
ATOM     77  C   UNL A   1      43.680  27.876  28.028  1.00  0.00     0.010 A 
ATOM     78  C   UNL A   1      46.068  26.633  28.822  1.00  0.00     0.020 A 
ATOM     79  C   UNL A   1      44.008  26.595  27.548  1.00  0.00     0.020 A 
ATOM     80  C   UNL A   1      45.177  25.964  27.985  1.00  0.00     0.054 A 
BRANCH  80  81
ATOM     81  S   UNL A   1      45.550  24.245  27.513  1.00  0.00     0.124 S 
ATOM     82  O   UNL A   1      44.923  24.135  26.198  1.00  0.00    -0.237 OA
ATOM     83  O   UNL A   1      47.012  24.233  27.507  1.00  0.00    -0.237 OA
ATOM     84  O   UNL A   1      44.920  23.464  28.572  1.00  0.00    -0.744 OA
ENDBRANCH  80  81
ENDBRANCH  52  75
BRANCH  64  85
ATOM     85  C   UNL A   1      42.589  35.588  28.812  1.00  0.00    -0.014 A 
ATOM     86  C   UNL A   1      41.797  36.128  27.789  1.00  0.00     0.010 A 
ATOM     87  C   UNL A   1      43.530  36.461  29.415  1.00  0.00     0.010 A 
ATOM     88  C   UNL A   1      41.968  37.452  27.354  1.00  0.00     0.020 A 
ATOM     89  C   UNL A   1      43.678  37.795  29.023  1.00  0.00     0.020 A 
ATOM     90  C   UNL A   1      42.907  38.278  27.975  1.00  0.00     0.054 A 
BRANCH  90  91
ATOM     91  S   UNL A   1      43.063  40.010  27.469  1.00  0.00     0.124 S 
ATOM     92  O   UNL A   1      43.878  39.900  26.263  1.00  0.00    -0.237 OA
ATOM     93  O   UNL A   1      41.675  40.414  27.253  1.00  0.00    -0.237 OA
ATOM     94  O   UNL A   1      43.715  40.642  28.613  1.00  0.00    -0.744 OA
ENDBRANCH  90  91
ENDBRANCH  64  85
ENDBRANCH  38  39
ENDBRANCH  30  33
ENDBRANCH  28  29
ENDBRANCH  27  28
ENDBRANCH   1  27
TORSDOF 18
ENDMDL
MODEL 3
REMARK VINA RESULT:     -12.6      1.267      3.321
REMARK SMILES Cc1ccc(Oc2cc(C(=O)NCCCCCCNC(=O)c3ccc(-c4c5nc(c(-c6ccc(S(=O)(=O)[O-])cc6)c6ccc([nH]6)c(-c6ccc(S(=O)(=O)[O-])cc6)c6nc(c(-c7ccc(S(=O)(=O)[O-])cc7)c7ccc4[nH]7)C=C6)C=C5)cc3)nc3ccccc23)cc1
REMARK SMILES IDX 16 1 15 2 14 3 13 4 12 5 10 6 11 7 9 9 7 10 8 11 88 12 83 13
REMARK SMILES IDX 87 14 82 15 84 16 86 17 85 18 6 19 5 20 1 21 2 22 3 23 90 24
REMARK SMILES IDX 4 25 89 26 17 27 18 28 19 29 20 30 21 32 22 33 23 34 81 35
REMARK SMILES IDX 24 36 80 37 25 38 26 39 27 40 74 41 28 42 79 43 73 44 75 45
REMARK SMILES IDX 29 46 78 47 72 48 71 49 30 51 60 52 41 53 59 54 42 55 45 56
REMARK SMILES IDX 58 57 76 58 43 59 44 60 57 62 77 63 46 64 31 65 32 66 40 67
REMARK SMILES IDX 33 68 39 69 34 70 35 71 36 72 37 73 38 74 61 75 62 76 70 77
REMARK SMILES IDX 63 78 69 79 64 80 65 81 66 82 67 83 68 84 47 85 48 86 56 87
REMARK SMILES IDX 49 88 55 89 50 90 51 91 52 92 53 93 54 94
REMARK H PARENT 12 8 19 31 75 50 45 61
REMARK Flexibility Score: inf
ROOT
ATOM      1  C   UNL A   1      33.295  28.164  27.002  1.00  0.00     0.002 C 
ENDROOT
BRANCH   1   2
ATOM      2  C   UNL A   1      31.894  27.545  27.125  1.00  0.00     0.002 C 
BRANCH   2   3
ATOM      3  C   UNL A   1      31.043  27.497  25.847  1.00  0.00     0.021 C 
BRANCH   3   4
ATOM      4  C   UNL A   1      30.591  26.101  25.415  1.00  0.00     0.116 C 
BRANCH   4   5
ATOM      5  N   UNL A   1      30.751  25.113  26.470  1.00  0.00    -0.351 N 
ATOM      6  C   UNL A   1      31.721  24.162  26.703  1.00  0.00     0.270 C 
ATOM      7  O   UNL A   1      31.631  23.498  27.741  1.00  0.00    -0.268 OA
ATOM      8  H   UNL A   1      30.034  25.128  27.145  1.00  0.00     0.163 HD
BRANCH   6   9
ATOM      9  C   UNL A   1      32.878  23.902  25.778  1.00  0.00     0.132 A 
ATOM     10  C   UNL A   1      34.031  24.368  23.748  1.00  0.00     0.139 A 
ATOM     11  C   UNL A   1      32.969  24.634  24.606  1.00  0.00     0.082 A 
ATOM     12  C   UNL A   1      35.024  23.424  24.091  1.00  0.00     0.043 A 
ATOM     13  C   UNL A   1      34.819  22.718  25.290  1.00  0.00     0.075 A 
ATOM     14  C   UNL A   1      36.174  23.135  23.315  1.00  0.00     0.014 A 
ATOM     15  N   UNL A   1      33.782  22.953  26.105  1.00  0.00    -0.242 NA
ATOM     16  C   UNL A   1      35.718  21.723  25.646  1.00  0.00     0.029 A 
ATOM     17  C   UNL A   1      37.062  22.130  23.692  1.00  0.00     0.001 A 
ATOM     18  C   UNL A   1      36.828  21.414  24.857  1.00  0.00     0.002 A 
BRANCH  10  19
ATOM     19  O   UNL A   1      34.068  25.110  22.586  1.00  0.00    -0.457 OA
BRANCH  19  20
ATOM     20  C   UNL A   1      33.256  26.223  22.485  1.00  0.00     0.127 A 
ATOM     21  C   UNL A   1      30.351  29.401  22.295  1.00  0.00     0.044 C 
ATOM     22  C   UNL A   1      31.373  28.304  22.339  1.00  0.00    -0.051 A 
ATOM     23  C   UNL A   1      31.032  27.010  21.928  1.00  0.00     0.007 A 
ATOM     24  C   UNL A   1      32.678  28.557  22.773  1.00  0.00     0.007 A 
ATOM     25  C   UNL A   1      31.969  25.976  22.004  1.00  0.00     0.047 A 
ATOM     26  C   UNL A   1      33.620  27.526  22.834  1.00  0.00     0.047 A 
ENDBRANCH  19  20
ENDBRANCH  10  19
ENDBRANCH   6   9
ENDBRANCH   4   5
ENDBRANCH   3   4
ENDBRANCH   2   3
ENDBRANCH   1   2
BRANCH   1  27
ATOM     27  C   UNL A   1      33.522  29.492  27.731  1.00  0.00     0.021 C 
BRANCH  27  28
ATOM     28  C   UNL A   1      34.810  30.205  27.333  1.00  0.00     0.116 C 
BRANCH  28  29
ATOM     29  N   UNL A   1      35.366  31.024  28.416  1.00  0.00    -0.352 N 
ATOM     30  C   UNL A   1      36.367  30.694  29.310  1.00  0.00     0.251 C 
ATOM     31  H   UNL A   1      34.977  31.922  28.519  1.00  0.00     0.163 HD
ATOM     32  O   UNL A   1      36.734  31.411  30.234  1.00  0.00    -0.269 OA
BRANCH  30  33
ATOM     33  C   UNL A   1      37.092  29.444  29.035  1.00  0.00     0.039 A 
ATOM     34  C   UNL A   1      37.542  28.730  30.151  1.00  0.00     0.014 A 
ATOM     35  C   UNL A   1      37.641  29.264  27.767  1.00  0.00     0.014 A 
ATOM     36  C   UNL A   1      38.716  28.004  30.041  1.00  0.00     0.010 A 
ATOM     37  C   UNL A   1      38.856  28.615  27.683  1.00  0.00     0.010 A 
ATOM     38  C   UNL A   1      39.423  28.059  28.836  1.00  0.00    -0.014 A 
BRANCH  38  39
ATOM     39  C   UNL A   1      40.822  27.667  28.770  1.00  0.00     0.031 A 
ATOM     40  C   UNL A   1      41.149  26.303  28.330  1.00  0.00     0.074 A 
ATOM     41  C   UNL A   1      41.790  28.497  29.219  1.00  0.00     0.049 A 
ATOM     42  N   UNL A   1      42.053  25.559  28.874  1.00  0.00    -0.248 NA
ATOM     43  C   UNL A   1      40.397  25.641  27.271  1.00  0.00     0.031 C 
ATOM     44  C   UNL A   1      43.230  28.259  29.181  1.00  0.00     0.029 A 
ATOM     45  N   UNL A   1      41.649  29.620  30.040  1.00  0.00    -0.354 N 
ATOM     46  C   UNL A   1      42.192  24.452  28.069  1.00  0.00     0.074 A 
ATOM     47  C   UNL A   1      41.073  24.498  27.153  1.00  0.00     0.031 C 
ATOM     48  C   UNL A   1      43.798  28.968  30.170  1.00  0.00     0.029 A 
ATOM     49  C   UNL A   1      42.731  29.605  30.927  1.00  0.00     0.049 A 
ATOM     50  H   UNL A   1      40.928  30.290  30.001  1.00  0.00     0.167 HD
ATOM     51  C   UNL A   1      43.325  23.698  28.124  1.00  0.00     0.031 A 
ATOM     52  C   UNL A   1      42.596  29.583  32.282  1.00  0.00     0.031 A 
ATOM     53  C   UNL A   1      44.264  24.205  29.121  1.00  0.00     0.049 A 
ATOM     54  C   UNL A   1      43.238  28.360  32.903  1.00  0.00     0.074 A 
ATOM     55  C   UNL A   1      45.373  25.029  29.013  1.00  0.00     0.029 A 
ATOM     56  N   UNL A   1      43.932  24.168  30.471  1.00  0.00    -0.354 N 
ATOM     57  N   UNL A   1      43.577  27.292  32.231  1.00  0.00    -0.248 NA
ATOM     58  C   UNL A   1      43.526  28.232  34.329  1.00  0.00     0.031 C 
ATOM     59  C   UNL A   1      45.656  25.557  30.299  1.00  0.00     0.029 A 
ATOM     60  C   UNL A   1      44.743  25.026  31.194  1.00  0.00     0.049 A 
ATOM     61  H   UNL A   1      43.220  23.609  30.859  1.00  0.00     0.167 HD
ATOM     62  C   UNL A   1      44.131  26.367  33.080  1.00  0.00     0.074 A 
ATOM     63  C   UNL A   1      44.078  27.006  34.383  1.00  0.00     0.031 C 
ATOM     64  C   UNL A   1      44.596  25.159  32.639  1.00  0.00     0.031 A 
BRANCH  51  65
ATOM     65  C   UNL A   1      43.686  22.777  26.979  1.00  0.00    -0.014 A 
ATOM     66  C   UNL A   1      42.851  21.686  26.667  1.00  0.00     0.010 A 
ATOM     67  C   UNL A   1      44.887  22.877  26.251  1.00  0.00     0.010 A 
ATOM     68  C   UNL A   1      43.260  20.672  25.790  1.00  0.00     0.020 A 
ATOM     69  C   UNL A   1      45.332  21.846  25.409  1.00  0.00     0.020 A 
ATOM     70  C   UNL A   1      44.520  20.735  25.199  1.00  0.00     0.054 A 
BRANCH  70  71
ATOM     71  S   UNL A   1      45.092  19.342  24.190  1.00  0.00     0.124 S 
ATOM     72  O   UNL A   1      46.545  19.467  24.269  1.00  0.00    -0.237 OA
ATOM     73  O   UNL A   1      44.519  18.197  24.892  1.00  0.00    -0.237 OA
ATOM     74  O   UNL A   1      44.524  19.614  22.872  1.00  0.00    -0.744 OA
ENDBRANCH  70  71
ENDBRANCH  51  65
BRANCH  52  75
ATOM     75  C   UNL A   1      41.423  30.325  32.824  1.00  0.00    -0.014 A 
ATOM     76  C   UNL A   1      41.617  31.670  33.204  1.00  0.00     0.010 A 
ATOM     77  C   UNL A   1      40.108  29.858  32.665  1.00  0.00     0.010 A 
ATOM     78  C   UNL A   1      40.537  32.553  33.320  1.00  0.00     0.020 A 
ATOM     79  C   UNL A   1      39.021  30.745  32.772  1.00  0.00     0.020 A 
ATOM     80  C   UNL A   1      39.248  32.095  33.053  1.00  0.00     0.054 A 
BRANCH  80  81
ATOM     81  S   UNL A   1      37.883  33.301  33.039  1.00  0.00     0.124 S 
ATOM     82  O   UNL A   1      38.035  33.935  31.732  1.00  0.00    -0.237 OA
ATOM     83  O   UNL A   1      36.707  32.444  33.180  1.00  0.00    -0.237 OA
ATOM     84  O   UNL A   1      38.179  34.154  34.184  1.00  0.00    -0.744 OA
ENDBRANCH  80  81
ENDBRANCH  52  75
BRANCH  64  85
ATOM     85  C   UNL A   1      45.068  24.006  33.501  1.00  0.00    -0.014 A 
ATOM     86  C   UNL A   1      46.365  23.876  34.019  1.00  0.00     0.010 A 
ATOM     87  C   UNL A   1      44.118  23.042  33.922  1.00  0.00     0.010 A 
ATOM     88  C   UNL A   1      46.709  22.813  34.869  1.00  0.00     0.020 A 
ATOM     89  C   UNL A   1      44.436  22.006  34.805  1.00  0.00     0.020 A 
ATOM     90  C   UNL A   1      45.742  21.885  35.258  1.00  0.00     0.054 A 
BRANCH  90  91
ATOM     91  S   UNL A   1      46.170  20.567  36.424  1.00  0.00     0.124 S 
ATOM     92  O   UNL A   1      47.621  20.495  36.279  1.00  0.00    -0.237 OA
ATOM     93  O   UNL A   1      45.693  21.092  37.702  1.00  0.00    -0.237 OA
ATOM     94  O   UNL A   1      45.430  19.413  35.921  1.00  0.00    -0.744 OA
ENDBRANCH  90  91
ENDBRANCH  64  85
ENDBRANCH  38  39
ENDBRANCH  30  33
ENDBRANCH  28  29
ENDBRANCH  27  28
ENDBRANCH   1  27
TORSDOF 18
ENDMDL
