MODEL 1
REMARK VINA RESULT:     -10.5      0.000      0.000
REMARK SMILES NNC(=O)c1cccc([N+](=O)[O-])c1C(=O)NCCCCCCNC(=O)c1ccc(-c2c3nc(c(-c4ccc(S(=O)(=O)[O-])cc4)c4ccc([nH]4)c(-c4ccc(S(=O)(=O)[O-])cc4)c4nc(c(-c5ccc(S(=O)(=O)[O-])cc5)c5ccc2[nH]5)C=C4)C=C3)cc1
REMARK SMILES IDX 20 1 19 2 18 3 17 4 16 5 14 6 15 7 13 9 5 10 6 11 7 12 9 13
REMARK SMILES IDX 8 14 3 15 2 16 4 18 1 19 10 22 11 23 12 24 21 25 22 26 23 27
REMARK SMILES IDX 24 28 25 30 26 31 27 32 85 33 28 34 84 35 29 36 30 37 31 38
REMARK SMILES IDX 78 39 32 40 83 41 77 42 79 43 33 44 82 45 76 46 75 47 34 49
REMARK SMILES IDX 64 50 45 51 63 52 46 53 49 54 62 55 80 56 47 57 48 58 61 60
REMARK SMILES IDX 81 61 50 62 35 63 36 64 44 65 37 66 43 67 38 68 39 69 40 70
REMARK SMILES IDX 41 71 42 72 65 73 66 74 74 75 67 76 73 77 68 78 69 79 70 80
REMARK SMILES IDX 71 81 72 82 51 83 52 84 60 85 53 86 59 87 54 88 55 89 56 90
REMARK SMILES IDX 57 91 58 92
REMARK H PARENT 16 8 2 17 1 20 1 21 23 29 79 48 49 59
REMARK Flexibility Score: inf
ROOT
ATOM      1  C   UNL A   1      31.762  27.941  25.210  1.00  0.00     0.002 C 
ENDROOT
BRANCH   1   2
ATOM      2  C   UNL A   1      30.765  26.951  25.822  1.00  0.00     0.002 C 
BRANCH   2   3
ATOM      3  C   UNL A   1      29.797  26.211  24.888  1.00  0.00     0.021 C 
BRANCH   3   4
ATOM      4  C   UNL A   1      30.245  26.002  23.446  1.00  0.00     0.116 C 
BRANCH   4   5
ATOM      5  N   UNL A   1      30.389  24.620  23.035  1.00  0.00    -0.352 N 
ATOM      6  C   UNL A   1      31.284  23.664  23.442  1.00  0.00     0.259 C 
ATOM      7  O   UNL A   1      31.071  22.493  23.130  1.00  0.00    -0.269 OA
ATOM      8  H   UNL A   1      29.741  24.321  22.356  1.00  0.00     0.163 HD
BRANCH   6   9
ATOM      9  C   UNL A   1      32.505  23.942  24.231  1.00  0.00     0.130 A 
ATOM     10  C   UNL A   1      32.632  23.723  25.610  1.00  0.00     0.060 A 
ATOM     11  C   UNL A   1      33.858  23.966  26.271  1.00  0.00     0.015 A 
ATOM     12  C   UNL A   1      34.993  24.353  25.564  1.00  0.00     0.008 A 
ATOM     13  C   UNL A   1      33.677  24.311  23.542  1.00  0.00     0.282 A 
ATOM     14  C   UNL A   1      34.911  24.514  24.188  1.00  0.00     0.086 A 
BRANCH  10  15
ATOM     15  C   UNL A   1      31.551  23.266  26.498  1.00  0.00     0.266 C 
ATOM     16  N   UNL A   1      31.084  21.969  26.435  1.00  0.00    -0.290 N 
ATOM     17  H   UNL A   1      30.303  21.735  26.987  1.00  0.00     0.184 HD
ATOM     18  O   UNL A   1      31.081  24.071  27.301  1.00  0.00    -0.268 OA
BRANCH  16  19
ATOM     19  N   UNL A   1      31.646  20.962  25.639  1.00  0.00    -0.248 NA
ATOM     20  H   UNL A   1      31.463  20.053  26.063  1.00  0.00     0.143 HD
ATOM     21  H   UNL A   1      32.653  21.108  25.568  1.00  0.00     0.143 HD
ENDBRANCH  16  19
ENDBRANCH  10  15
BRANCH  13  22
ATOM     22  N   UNL A   1      33.659  24.546  22.108  1.00  0.00     0.063 N 
ATOM     23  O   UNL A   1      33.436  25.706  21.732  1.00  0.00    -0.258 OA
ATOM     24  O   UNL A   1      33.751  23.552  21.375  1.00  0.00    -0.258 OA
ENDBRANCH  13  22
ENDBRANCH   6   9
ENDBRANCH   4   5
ENDBRANCH   3   4
ENDBRANCH   2   3
ENDBRANCH   1   2
BRANCH   1  25
ATOM     25  C   UNL A   1      33.228  27.853  25.636  1.00  0.00     0.021 C 
BRANCH  25  26
ATOM     26  C   UNL A   1      33.554  28.143  27.099  1.00  0.00     0.116 C 
BRANCH  26  27
ATOM     27  N   UNL A   1      33.428  29.541  27.457  1.00  0.00    -0.352 N 
ATOM     28  C   UNL A   1      34.334  30.408  28.021  1.00  0.00     0.251 C 
ATOM     29  H   UNL A   1      32.546  29.936  27.267  1.00  0.00     0.163 HD
ATOM     30  O   UNL A   1      33.963  31.547  28.297  1.00  0.00    -0.269 OA
BRANCH  28  31
ATOM     31  C   UNL A   1      35.728  29.998  28.332  1.00  0.00     0.039 A 
ATOM     32  C   UNL A   1      36.671  30.041  27.298  1.00  0.00     0.014 A 
ATOM     33  C   UNL A   1      36.117  29.528  29.591  1.00  0.00     0.014 A 
ATOM     34  C   UNL A   1      37.998  29.670  27.535  1.00  0.00     0.010 A 
ATOM     35  C   UNL A   1      37.458  29.221  29.844  1.00  0.00     0.010 A 
ATOM     36  C   UNL A   1      38.413  29.285  28.820  1.00  0.00    -0.014 A 
BRANCH  36  37
ATOM     37  C   UNL A   1      39.842  28.967  29.091  1.00  0.00     0.031 A 
ATOM     38  C   UNL A   1      40.757  29.988  29.715  1.00  0.00     0.074 A 
ATOM     39  C   UNL A   1      40.329  27.757  28.747  1.00  0.00     0.049 A 
ATOM     40  N   UNL A   1      42.022  29.874  30.035  1.00  0.00    -0.248 NA
ATOM     41  C   UNL A   1      40.187  31.314  29.996  1.00  0.00     0.031 C 
ATOM     42  C   UNL A   1      39.564  26.694  28.088  1.00  0.00     0.029 A 
ATOM     43  N   UNL A   1      41.582  27.216  28.901  1.00  0.00    -0.354 N 
ATOM     44  C   UNL A   1      42.401  31.112  30.543  1.00  0.00     0.074 A 
ATOM     45  C   UNL A   1      41.244  31.976  30.447  1.00  0.00     0.031 C 
ATOM     46  C   UNL A   1      40.354  25.621  27.923  1.00  0.00     0.029 A 
ATOM     47  C   UNL A   1      41.687  25.926  28.435  1.00  0.00     0.049 A 
ATOM     48  H   UNL A   1      42.333  27.705  29.307  1.00  0.00     0.167 HD
ATOM     49  C   UNL A   1      43.597  31.492  31.057  1.00  0.00     0.031 A 
ATOM     50  C   UNL A   1      42.734  25.078  28.423  1.00  0.00     0.031 A 
ATOM     51  C   UNL A   1      44.745  30.631  31.165  1.00  0.00     0.049 A 
ATOM     52  C   UNL A   1      44.043  25.516  29.019  1.00  0.00     0.074 A 
ATOM     53  C   UNL A   1      45.979  30.907  31.730  1.00  0.00     0.029 A 
ATOM     54  N   UNL A   1      44.804  29.327  30.697  1.00  0.00    -0.354 N 
ATOM     55  N   UNL A   1      44.355  26.667  29.564  1.00  0.00    -0.248 NA
ATOM     56  C   UNL A   1      45.135  24.533  29.015  1.00  0.00     0.031 C 
ATOM     57  C   UNL A   1      46.799  29.785  31.562  1.00  0.00     0.029 A 
ATOM     58  C   UNL A   1      46.060  28.793  30.941  1.00  0.00     0.049 A 
ATOM     59  H   UNL A   1      44.064  28.850  30.256  1.00  0.00     0.167 HD
ATOM     60  C   UNL A   1      45.674  26.539  29.985  1.00  0.00     0.074 A 
ATOM     61  C   UNL A   1      46.092  25.192  29.653  1.00  0.00     0.031 C 
ATOM     62  C   UNL A   1      46.468  27.455  30.593  1.00  0.00     0.031 A 
BRANCH  49  63
ATOM     63  C   UNL A   1      43.726  32.912  31.545  1.00  0.00    -0.014 A 
ATOM     64  C   UNL A   1      43.544  33.233  32.903  1.00  0.00     0.010 A 
ATOM     65  C   UNL A   1      44.083  33.933  30.645  1.00  0.00     0.010 A 
ATOM     66  C   UNL A   1      43.678  34.553  33.343  1.00  0.00     0.020 A 
ATOM     67  C   UNL A   1      44.243  35.251  31.086  1.00  0.00     0.020 A 
ATOM     68  C   UNL A   1      44.022  35.555  32.430  1.00  0.00     0.054 A 
BRANCH  68  69
ATOM     69  S   UNL A   1      44.212  37.255  33.034  1.00  0.00     0.124 S 
ATOM     70  O   UNL A   1      44.444  37.990  31.793  1.00  0.00    -0.237 OA
ATOM     71  O   UNL A   1      42.929  37.512  33.683  1.00  0.00    -0.237 OA
ATOM     72  O   UNL A   1      45.359  37.177  33.935  1.00  0.00    -0.744 OA
ENDBRANCH  68  69
ENDBRANCH  49  63
BRANCH  50  73
ATOM     73  C   UNL A   1      42.579  23.716  27.844  1.00  0.00    -0.014 A 
ATOM     74  C   UNL A   1      42.156  22.641  28.645  1.00  0.00     0.010 A 
ATOM     75  C   UNL A   1      42.840  23.491  26.480  1.00  0.00     0.010 A 
ATOM     76  C   UNL A   1      42.016  21.361  28.099  1.00  0.00     0.020 A 
ATOM     77  C   UNL A   1      42.675  22.219  25.924  1.00  0.00     0.020 A 
ATOM     78  C   UNL A   1      42.274  21.159  26.741  1.00  0.00     0.054 A 
BRANCH  78  79
ATOM     79  S   UNL A   1      42.033  19.504  26.038  1.00  0.00     0.124 S 
ATOM     80  O   UNL A   1      42.854  19.563  24.833  1.00  0.00    -0.237 OA
ATOM     81  O   UNL A   1      42.528  18.632  27.101  1.00  0.00    -0.237 OA
ATOM     82  O   UNL A   1      40.590  19.439  25.812  1.00  0.00    -0.744 OA
ENDBRANCH  78  79
ENDBRANCH  50  73
BRANCH  62  83
ATOM     83  C   UNL A   1      47.864  27.022  30.956  1.00  0.00    -0.014 A 
ATOM     84  C   UNL A   1      48.118  26.307  32.140  1.00  0.00     0.010 A 
ATOM     85  C   UNL A   1      48.931  27.312  30.087  1.00  0.00     0.010 A 
ATOM     86  C   UNL A   1      49.423  25.929  32.469  1.00  0.00     0.020 A 
ATOM     87  C   UNL A   1      50.232  26.913  30.400  1.00  0.00     0.020 A 
ATOM     88  C   UNL A   1      50.473  26.240  31.599  1.00  0.00     0.054 A 
BRANCH  88  89
ATOM     89  S   UNL A   1      52.155  25.723  32.038  1.00  0.00     0.124 S 
ATOM     90  O   UNL A   1      52.514  26.700  33.063  1.00  0.00    -0.237 OA
ATOM     91  O   UNL A   1      51.960  24.356  32.514  1.00  0.00    -0.237 OA
ATOM     92  O   UNL A   1      52.892  25.839  30.782  1.00  0.00    -0.744 OA
ENDBRANCH  88  89
ENDBRANCH  62  83
ENDBRANCH  36  37
ENDBRANCH  28  31
ENDBRANCH  26  27
ENDBRANCH  25  26
ENDBRANCH   1  25
TORSDOF 19
ENDMDL
MODEL 2
REMARK VINA RESULT:     -10.4      2.745      3.364
REMARK SMILES NNC(=O)c1cccc([N+](=O)[O-])c1C(=O)NCCCCCCNC(=O)c1ccc(-c2c3nc(c(-c4ccc(S(=O)(=O)[O-])cc4)c4ccc([nH]4)c(-c4ccc(S(=O)(=O)[O-])cc4)c4nc(c(-c5ccc(S(=O)(=O)[O-])cc5)c5ccc2[nH]5)C=C4)C=C3)cc1
REMARK SMILES IDX 20 1 19 2 18 3 17 4 16 5 14 6 15 7 13 9 5 10 6 11 7 12 9 13
REMARK SMILES IDX 8 14 3 15 2 16 4 18 1 19 10 22 11 23 12 24 21 25 22 26 23 27
REMARK SMILES IDX 24 28 25 30 26 31 27 32 85 33 28 34 84 35 29 36 30 37 31 38
REMARK SMILES IDX 78 39 32 40 83 41 77 42 79 43 33 44 82 45 76 46 75 47 34 49
REMARK SMILES IDX 64 50 45 51 63 52 46 53 49 54 62 55 80 56 47 57 48 58 61 60
REMARK SMILES IDX 81 61 50 62 35 63 36 64 44 65 37 66 43 67 38 68 39 69 40 70
REMARK SMILES IDX 41 71 42 72 65 73 66 74 74 75 67 76 73 77 68 78 69 79 70 80
REMARK SMILES IDX 71 81 72 82 51 83 52 84 60 85 53 86 59 87 54 88 55 89 56 90
REMARK SMILES IDX 57 91 58 92
REMARK H PARENT 16 8 2 17 1 20 1 21 23 29 79 48 49 59
REMARK Flexibility Score: inf
ROOT
ATOM      1  C   UNL A   1      31.887  27.594  26.004  1.00  0.00     0.002 C 
ENDROOT
BRANCH   1   2
ATOM      2  C   UNL A   1      31.520  28.152  24.625  1.00  0.00     0.002 C 
BRANCH   2   3
ATOM      3  C   UNL A   1      30.365  27.500  23.851  1.00  0.00     0.021 C 
BRANCH   3   4
ATOM      4  C   UNL A   1      29.764  26.228  24.440  1.00  0.00     0.116 C 
BRANCH   4   5
ATOM      5  N   UNL A   1      29.925  25.035  23.636  1.00  0.00    -0.352 N 
ATOM      6  C   UNL A   1      30.922  24.093  23.640  1.00  0.00     0.259 C 
ATOM      7  O   UNL A   1      30.733  23.038  23.033  1.00  0.00    -0.269 OA
ATOM      8  H   UNL A   1      29.205  24.876  22.983  1.00  0.00     0.163 HD
BRANCH   6   9
ATOM      9  C   UNL A   1      32.226  24.255  24.323  1.00  0.00     0.130 A 
ATOM     10  C   UNL A   1      32.492  23.859  25.641  1.00  0.00     0.060 A 
ATOM     11  C   UNL A   1      33.786  24.003  26.191  1.00  0.00     0.015 A 
ATOM     12  C   UNL A   1      34.848  24.468  25.422  1.00  0.00     0.008 A 
ATOM     13  C   UNL A   1      33.326  24.700  23.564  1.00  0.00     0.282 A 
ATOM     14  C   UNL A   1      34.626  24.807  24.095  1.00  0.00     0.086 A 
BRANCH  10  15
ATOM     15  C   UNL A   1      31.500  23.299  26.574  1.00  0.00     0.266 C 
ATOM     16  N   UNL A   1      31.075  21.992  26.455  1.00  0.00    -0.290 N 
ATOM     17  H   UNL A   1      30.349  21.690  27.047  1.00  0.00     0.184 HD
ATOM     18  O   UNL A   1      31.067  24.030  27.464  1.00  0.00    -0.268 OA
BRANCH  16  19
ATOM     19  N   UNL A   1      31.607  21.064  25.552  1.00  0.00    -0.248 NA
ATOM     20  H   UNL A   1      32.071  20.316  26.066  1.00  0.00     0.143 HD
ATOM     21  H   UNL A   1      32.283  21.530  24.945  1.00  0.00     0.143 HD
ENDBRANCH  16  19
ENDBRANCH  10  15
BRANCH  13  22
ATOM     22  N   UNL A   1      33.163  25.119  22.183  1.00  0.00     0.063 N 
ATOM     23  O   UNL A   1      32.780  26.282  21.990  1.00  0.00    -0.258 OA
ATOM     24  O   UNL A   1      33.304  24.249  21.312  1.00  0.00    -0.258 OA
ENDBRANCH  13  22
ENDBRANCH   6   9
ENDBRANCH   4   5
ENDBRANCH   3   4
ENDBRANCH   2   3
ENDBRANCH   1   2
BRANCH   1  25
ATOM     25  C   UNL A   1      33.343  27.693  26.463  1.00  0.00     0.021 C 
BRANCH  25  26
ATOM     26  C   UNL A   1      34.157  28.885  25.970  1.00  0.00     0.116 C 
BRANCH  26  27
ATOM     27  N   UNL A   1      33.673  30.162  26.457  1.00  0.00    -0.352 N 
ATOM     28  C   UNL A   1      34.178  31.004  27.418  1.00  0.00     0.251 C 
ATOM     29  H   UNL A   1      32.844  30.478  26.028  1.00  0.00     0.163 HD
ATOM     30  O   UNL A   1      33.541  32.016  27.707  1.00  0.00    -0.269 OA
BRANCH  28  31
ATOM     31  C   UNL A   1      35.446  30.711  28.135  1.00  0.00     0.039 A 
ATOM     32  C   UNL A   1      35.453  29.651  29.050  1.00  0.00     0.014 A 
ATOM     33  C   UNL A   1      36.605  31.476  27.970  1.00  0.00     0.014 A 
ATOM     34  C   UNL A   1      36.619  29.328  29.750  1.00  0.00     0.010 A 
ATOM     35  C   UNL A   1      37.789  31.111  28.620  1.00  0.00     0.010 A 
ATOM     36  C   UNL A   1      37.809  30.036  29.520  1.00  0.00    -0.014 A 
BRANCH  36  37
ATOM     37  C   UNL A   1      39.070  29.642  30.206  1.00  0.00     0.031 A 
ATOM     38  C   UNL A   1      39.513  30.333  31.469  1.00  0.00     0.074 A 
ATOM     39  C   UNL A   1      39.839  28.671  29.672  1.00  0.00     0.049 A 
ATOM     40  N   UNL A   1      40.572  30.105  32.205  1.00  0.00    -0.248 NA
ATOM     41  C   UNL A   1      38.671  31.435  31.959  1.00  0.00     0.031 C 
ATOM     42  C   UNL A   1      39.554  27.956  28.425  1.00  0.00     0.029 A 
ATOM     43  N   UNL A   1      41.018  28.117  30.108  1.00  0.00    -0.354 N 
ATOM     44  C   UNL A   1      40.532  31.040  33.234  1.00  0.00     0.074 A 
ATOM     45  C   UNL A   1      39.366  31.866  33.003  1.00  0.00     0.031 C 
ATOM     46  C   UNL A   1      40.513  27.040  28.214  1.00  0.00     0.029 A 
ATOM     47  C   UNL A   1      41.496  27.120  29.290  1.00  0.00     0.049 A 
ATOM     48  H   UNL A   1      41.478  28.407  30.929  1.00  0.00     0.167 HD
ATOM     49  C   UNL A   1      41.375  31.188  34.285  1.00  0.00     0.031 A 
ATOM     50  C   UNL A   1      42.597  26.351  29.392  1.00  0.00     0.031 A 
ATOM     51  C   UNL A   1      42.528  30.358  34.524  1.00  0.00     0.049 A 
ATOM     52  C   UNL A   1      43.506  26.519  30.578  1.00  0.00     0.074 A 
ATOM     53  C   UNL A   1      43.405  30.391  35.595  1.00  0.00     0.029 A 
ATOM     54  N   UNL A   1      42.966  29.350  33.680  1.00  0.00    -0.354 N 
ATOM     55  N   UNL A   1      43.404  27.359  31.580  1.00  0.00    -0.248 NA
ATOM     56  C   UNL A   1      44.668  25.623  30.656  1.00  0.00     0.031 C 
ATOM     57  C   UNL A   1      44.401  29.431  35.375  1.00  0.00     0.029 A 
ATOM     58  C   UNL A   1      44.114  28.767  34.195  1.00  0.00     0.049 A 
ATOM     59  H   UNL A   1      42.528  29.085  32.838  1.00  0.00     0.167 HD
ATOM     60  C   UNL A   1      44.478  27.079  32.417  1.00  0.00     0.074 A 
ATOM     61  C   UNL A   1      45.203  25.977  31.816  1.00  0.00     0.031 C 
ATOM     62  C   UNL A   1      44.833  27.680  33.580  1.00  0.00     0.031 A 
BRANCH  49  63
ATOM     63  C   UNL A   1      41.083  32.296  35.263  1.00  0.00    -0.014 A 
ATOM     64  C   UNL A   1      40.314  32.062  36.417  1.00  0.00     0.010 A 
ATOM     65  C   UNL A   1      41.626  33.577  35.053  1.00  0.00     0.010 A 
ATOM     66  C   UNL A   1      40.059  33.097  37.322  1.00  0.00     0.020 A 
ATOM     67  C   UNL A   1      41.396  34.609  35.969  1.00  0.00     0.020 A 
ATOM     68  C   UNL A   1      40.599  34.366  37.089  1.00  0.00     0.054 A 
BRANCH  68  69
ATOM     69  S   UNL A   1      40.273  35.684  38.292  1.00  0.00     0.124 S 
ATOM     70  O   UNL A   1      41.518  35.709  39.056  1.00  0.00    -0.237 OA
ATOM     71  O   UNL A   1      40.039  36.847  37.439  1.00  0.00    -0.237 OA
ATOM     72  O   UNL A   1      39.103  35.206  39.023  1.00  0.00    -0.744 OA
ENDBRANCH  68  69
ENDBRANCH  49  63
BRANCH  50  73
ATOM     73  C   UNL A   1      42.889  25.331  28.348  1.00  0.00    -0.014 A 
ATOM     74  C   UNL A   1      43.750  25.629  27.278  1.00  0.00     0.010 A 
ATOM     75  C   UNL A   1      42.317  24.048  28.429  1.00  0.00     0.010 A 
ATOM     76  C   UNL A   1      44.020  24.671  26.296  1.00  0.00     0.020 A 
ATOM     77  C   UNL A   1      42.605  23.078  27.464  1.00  0.00     0.020 A 
ATOM     78  C   UNL A   1      43.446  23.400  26.397  1.00  0.00     0.054 A 
BRANCH  78  79
ATOM     79  S   UNL A   1      43.851  22.152  25.145  1.00  0.00     0.124 S 
ATOM     80  O   UNL A   1      42.967  21.052  25.515  1.00  0.00    -0.237 OA
ATOM     81  O   UNL A   1      43.523  22.837  23.896  1.00  0.00    -0.237 OA
ATOM     82  O   UNL A   1      45.277  21.910  25.355  1.00  0.00    -0.744 OA
ENDBRANCH  78  79
ENDBRANCH  50  73
BRANCH  62  83
ATOM     83  C   UNL A   1      46.048  27.143  34.288  1.00  0.00    -0.014 A 
ATOM     84  C   UNL A   1      45.942  26.105  35.231  1.00  0.00     0.010 A 
ATOM     85  C   UNL A   1      47.319  27.666  33.986  1.00  0.00     0.010 A 
ATOM     86  C   UNL A   1      47.079  25.631  35.892  1.00  0.00     0.020 A 
ATOM     87  C   UNL A   1      48.460  27.178  34.625  1.00  0.00     0.020 A 
ATOM     88  C   UNL A   1      48.331  26.176  35.589  1.00  0.00     0.054 A 
BRANCH  88  89
ATOM     89  S   UNL A   1      49.794  25.533  36.445  1.00  0.00     0.124 S 
ATOM     90  O   UNL A   1      50.318  24.576  35.474  1.00  0.00    -0.237 OA
ATOM     91  O   UNL A   1      50.605  26.732  36.646  1.00  0.00    -0.237 OA
ATOM     92  O   UNL A   1      49.250  24.946  37.667  1.00  0.00    -0.744 OA
ENDBRANCH  88  89
ENDBRANCH  62  83
ENDBRANCH  36  37
ENDBRANCH  28  31
ENDBRANCH  26  27
ENDBRANCH  25  26
ENDBRANCH   1  25
TORSDOF 19
ENDMDL
MODEL 3
REMARK VINA RESULT:     -10.2      2.882      8.730
REMARK SMILES NNC(=O)c1cccc([N+](=O)[O-])c1C(=O)NCCCCCCNC(=O)c1ccc(-c2c3nc(c(-c4ccc(S(=O)(=O)[O-])cc4)c4ccc([nH]4)c(-c4ccc(S(=O)(=O)[O-])cc4)c4nc(c(-c5ccc(S(=O)(=O)[O-])cc5)c5ccc2[nH]5)C=C4)C=C3)cc1
REMARK SMILES IDX 20 1 19 2 18 3 17 4 16 5 14 6 15 7 13 9 5 10 6 11 7 12 9 13
REMARK SMILES IDX 8 14 3 15 2 16 4 18 1 19 10 22 11 23 12 24 21 25 22 26 23 27
REMARK SMILES IDX 24 28 25 30 26 31 27 32 85 33 28 34 84 35 29 36 30 37 31 38
REMARK SMILES IDX 78 39 32 40 83 41 77 42 79 43 33 44 82 45 76 46 75 47 34 49
REMARK SMILES IDX 64 50 45 51 63 52 46 53 49 54 62 55 80 56 47 57 48 58 61 60
REMARK SMILES IDX 81 61 50 62 35 63 36 64 44 65 37 66 43 67 38 68 39 69 40 70
REMARK SMILES IDX 41 71 42 72 65 73 66 74 74 75 67 76 73 77 68 78 69 79 70 80
REMARK SMILES IDX 71 81 72 82 51 83 52 84 60 85 53 86 59 87 54 88 55 89 56 90
REMARK SMILES IDX 57 91 58 92
REMARK H PARENT 16 8 2 17 1 20 1 21 23 29 79 48 49 59
REMARK Flexibility Score: inf
ROOT
ATOM      1  C   UNL A   1      35.338  22.740  23.936  1.00  0.00     0.002 C 
ENDROOT
BRANCH   1   2
ATOM      2  C   UNL A   1      34.366  21.755  24.595  1.00  0.00     0.002 C 
BRANCH   2   3
ATOM      3  C   UNL A   1      33.055  21.419  23.870  1.00  0.00     0.021 C 
BRANCH   3   4
ATOM      4  C   UNL A   1      32.660  22.313  22.700  1.00  0.00     0.116 C 
BRANCH   4   5
ATOM      5  N   UNL A   1      31.365  22.952  22.817  1.00  0.00    -0.352 N 
ATOM      6  C   UNL A   1      31.019  24.156  23.376  1.00  0.00     0.259 C 
ATOM      7  O   UNL A   1      29.894  24.602  23.153  1.00  0.00    -0.269 OA
ATOM      8  H   UNL A   1      30.615  22.440  22.435  1.00  0.00     0.163 HD
BRANCH   6   9
ATOM      9  C   UNL A   1      31.908  24.964  24.242  1.00  0.00     0.130 A 
ATOM     10  C   UNL A   1      32.041  24.795  25.628  1.00  0.00     0.060 A 
ATOM     11  C   UNL A   1      32.958  25.578  26.366  1.00  0.00     0.015 A 
ATOM     12  C   UNL A   1      33.807  26.481  25.733  1.00  0.00     0.008 A 
ATOM     13  C   UNL A   1      32.797  25.868  23.629  1.00  0.00     0.282 A 
ATOM     14  C   UNL A   1      33.740  26.621  24.354  1.00  0.00     0.086 A 
BRANCH  10  15
ATOM     15  C   UNL A   1      31.262  23.851  26.445  1.00  0.00     0.266 C 
ATOM     16  N   UNL A   1      29.946  24.111  26.766  1.00  0.00    -0.290 N 
ATOM     17  H   UNL A   1      29.494  23.493  27.385  1.00  0.00     0.184 HD
ATOM     18  O   UNL A   1      31.818  22.821  26.827  1.00  0.00    -0.268 OA
BRANCH  16  19
ATOM     19  N   UNL A   1      29.208  25.193  26.270  1.00  0.00    -0.248 NA
ATOM     20  H   UNL A   1      28.578  24.868  25.538  1.00  0.00     0.143 HD
ATOM     21  H   UNL A   1      29.845  25.891  25.886  1.00  0.00     0.143 HD
ENDBRANCH  16  19
ENDBRANCH  10  15
BRANCH  13  22
ATOM     22  N   UNL A   1      32.753  26.105  22.196  1.00  0.00     0.063 N 
ATOM     23  O   UNL A   1      31.805  26.778  21.767  1.00  0.00    -0.258 OA
ATOM     24  O   UNL A   1      33.598  25.520  21.505  1.00  0.00    -0.258 OA
ENDBRANCH  13  22
ENDBRANCH   6   9
ENDBRANCH   4   5
ENDBRANCH   3   4
ENDBRANCH   2   3
ENDBRANCH   1   2
BRANCH   1  25
ATOM     25  C   UNL A   1      35.953  23.843  24.801  1.00  0.00     0.021 C 
BRANCH  25  26
ATOM     26  C   UNL A   1      36.564  23.431  26.137  1.00  0.00     0.116 C 
BRANCH  26  27
ATOM     27  N   UNL A   1      37.546  22.370  26.026  1.00  0.00    -0.352 N 
ATOM     28  C   UNL A   1      38.900  22.375  26.258  1.00  0.00     0.251 C 
ATOM     29  H   UNL A   1      37.182  21.502  25.736  1.00  0.00     0.163 HD
ATOM     30  O   UNL A   1      39.540  21.351  26.024  1.00  0.00    -0.269 OA
BRANCH  28  31
ATOM     31  C   UNL A   1      39.612  23.584  26.746  1.00  0.00     0.039 A 
ATOM     32  C   UNL A   1      39.780  24.651  25.855  1.00  0.00     0.014 A 
ATOM     33  C   UNL A   1      40.157  23.676  28.031  1.00  0.00     0.014 A 
ATOM     34  C   UNL A   1      40.438  25.816  26.262  1.00  0.00     0.010 A 
ATOM     35  C   UNL A   1      40.757  24.866  28.458  1.00  0.00     0.010 A 
ATOM     36  C   UNL A   1      40.908  25.948  27.579  1.00  0.00    -0.014 A 
BRANCH  36  37
ATOM     37  C   UNL A   1      41.538  27.217  28.035  1.00  0.00     0.031 A 
ATOM     38  C   UNL A   1      43.030  27.412  27.957  1.00  0.00     0.074 A 
ATOM     39  C   UNL A   1      40.763  28.194  28.550  1.00  0.00     0.049 A 
ATOM     40  N   UNL A   1      43.742  28.458  28.294  1.00  0.00    -0.248 NA
ATOM     41  C   UNL A   1      43.827  26.281  27.458  1.00  0.00     0.031 C 
ATOM     42  C   UNL A   1      39.311  28.115  28.731  1.00  0.00     0.029 A 
ATOM     43  N   UNL A   1      41.087  29.444  29.017  1.00  0.00    -0.354 N 
ATOM     44  C   UNL A   1      45.068  28.109  28.060  1.00  0.00     0.074 A 
ATOM     45  C   UNL A   1      45.064  26.739  27.594  1.00  0.00     0.031 C 
ATOM     46  C   UNL A   1      38.867  29.275  29.239  1.00  0.00     0.029 A 
ATOM     47  C   UNL A   1      40.001  30.170  29.450  1.00  0.00     0.049 A 
ATOM     48  H   UNL A   1      42.008  29.789  29.040  1.00  0.00     0.167 HD
ATOM     49  C   UNL A   1      46.186  28.863  28.203  1.00  0.00     0.031 A 
ATOM     50  C   UNL A   1      39.921  31.415  29.956  1.00  0.00     0.031 A 
ATOM     51  C   UNL A   1      46.190  30.231  28.653  1.00  0.00     0.049 A 
ATOM     52  C   UNL A   1      41.172  32.239  30.085  1.00  0.00     0.074 A 
ATOM     53  C   UNL A   1      47.266  31.096  28.769  1.00  0.00     0.029 A 
ATOM     54  N   UNL A   1      45.068  30.933  29.066  1.00  0.00    -0.354 N 
ATOM     55  N   UNL A   1      42.407  31.915  29.784  1.00  0.00    -0.248 NA
ATOM     56  C   UNL A   1      41.016  33.606  30.603  1.00  0.00     0.031 C 
ATOM     57  C   UNL A   1      46.799  32.307  29.295  1.00  0.00     0.029 A 
ATOM     58  C   UNL A   1      45.428  32.213  29.457  1.00  0.00     0.049 A 
ATOM     59  H   UNL A   1      44.151  30.575  29.080  1.00  0.00     0.167 HD
ATOM     60  C   UNL A   1      43.172  33.043  30.059  1.00  0.00     0.074 A 
ATOM     61  C   UNL A   1      42.258  34.065  30.528  1.00  0.00     0.031 C 
ATOM     62  C   UNL A   1      44.510  33.217  29.934  1.00  0.00     0.031 A 
BRANCH  49  63
ATOM     63  C   UNL A   1      47.507  28.222  27.868  1.00  0.00    -0.014 A 
ATOM     64  C   UNL A   1      48.060  28.330  26.579  1.00  0.00     0.010 A 
ATOM     65  C   UNL A   1      48.231  27.545  28.866  1.00  0.00     0.010 A 
ATOM     66  C   UNL A   1      49.292  27.738  26.284  1.00  0.00     0.020 A 
ATOM     67  C   UNL A   1      49.476  26.974  28.583  1.00  0.00     0.020 A 
ATOM     68  C   UNL A   1      49.991  27.060  27.288  1.00  0.00     0.054 A 
BRANCH  68  69
ATOM     69  S   UNL A   1      51.599  26.324  26.885  1.00  0.00     0.124 S 
ATOM     70  O   UNL A   1      51.308  24.895  26.983  1.00  0.00    -0.237 OA
ATOM     71  O   UNL A   1      51.851  26.820  25.534  1.00  0.00    -0.237 OA
ATOM     72  O   UNL A   1      52.490  26.850  27.915  1.00  0.00    -0.744 OA
ENDBRANCH  68  69
ENDBRANCH  49  63
BRANCH  50  73
ATOM     73  C   UNL A   1      38.600  31.969  30.360  1.00  0.00    -0.014 A 
ATOM     74  C   UNL A   1      38.068  31.697  31.631  1.00  0.00     0.010 A 
ATOM     75  C   UNL A   1      37.874  32.787  29.474  1.00  0.00     0.010 A 
ATOM     76  C   UNL A   1      36.824  32.215  32.006  1.00  0.00     0.020 A 
ATOM     77  C   UNL A   1      36.643  33.329  29.854  1.00  0.00     0.020 A 
ATOM     78  C   UNL A   1      36.120  33.030  31.115  1.00  0.00     0.054 A 
BRANCH  78  79
ATOM     79  S   UNL A   1      34.535  33.740  31.638  1.00  0.00     0.124 S 
ATOM     80  O   UNL A   1      33.854  33.937  30.363  1.00  0.00    -0.237 OA
ATOM     81  O   UNL A   1      33.985  32.690  32.495  1.00  0.00    -0.237 OA
ATOM     82  O   UNL A   1      34.924  34.962  32.338  1.00  0.00    -0.744 OA
ENDBRANCH  78  79
ENDBRANCH  50  73
BRANCH  62  83
ATOM     83  C   UNL A   1      45.063  34.571  30.291  1.00  0.00    -0.014 A 
ATOM     84  C   UNL A   1      45.152  35.596  29.333  1.00  0.00     0.010 A 
ATOM     85  C   UNL A   1      45.475  34.829  31.612  1.00  0.00     0.010 A 
ATOM     86  C   UNL A   1      45.686  36.841  29.678  1.00  0.00     0.020 A 
ATOM     87  C   UNL A   1      45.983  36.080  31.967  1.00  0.00     0.020 A 
ATOM     88  C   UNL A   1      46.104  37.073  30.993  1.00  0.00     0.054 A 
BRANCH  88  89
ATOM     89  S   UNL A   1      46.775  38.702  31.423  1.00  0.00     0.124 S 
ATOM     90  O   UNL A   1      46.004  39.587  30.553  1.00  0.00    -0.237 OA
ATOM     91  O   UNL A   1      46.478  38.809  32.849  1.00  0.00    -0.237 OA
ATOM     92  O   UNL A   1      48.194  38.589  31.096  1.00  0.00    -0.744 OA
ENDBRANCH  88  89
ENDBRANCH  62  83
ENDBRANCH  36  37
ENDBRANCH  28  31
ENDBRANCH  26  27
ENDBRANCH  25  26
ENDBRANCH   1  25
TORSDOF 19
ENDMDL
