MODEL 1
REMARK VINA RESULT:     -11.3      0.000      0.000
REMARK SMILES CC[N@@H+](C)Cc1cc2c(cc1Cl)C=C(C(=O)NCCCCCCNC(=O)c1ccc(-c3c4nc(c(-c5ccc(S(=O)(=O)[O-])cc5)c5ccc([nH]5)c(-c5ccc(S(=O)(=O)[O-])cc5)c5nc(c(-c6ccc(S(=O)(=O)[O-])cc6)c6ccc3[nH]6)C=C5)C=C4)cc1)[C@@H](C(F)(F)F)O2
REMARK SMILES IDX 20 1 19 2 18 3 17 4 15 5 16 6 14 8 6 9 7 10 11 11 8 12 10 13
REMARK SMILES IDX 12 14 9 15 92 16 13 17 87 18 5 19 3 20 4 21 2 23 1 24 88 25
REMARK SMILES IDX 89 26 90 27 91 28 21 29 22 30 23 31 24 32 25 33 26 35 27 36
REMARK SMILES IDX 28 37 86 38 29 39 85 40 30 41 31 42 32 43 79 44 33 45 84 46
REMARK SMILES IDX 78 47 80 48 34 49 83 50 77 51 76 52 35 54 65 55 46 56 64 57
REMARK SMILES IDX 47 58 50 59 63 60 81 61 48 62 49 63 62 65 82 66 51 67 36 68
REMARK SMILES IDX 37 69 45 70 38 71 44 72 39 73 40 74 41 75 42 76 43 77 66 78
REMARK SMILES IDX 67 79 75 80 68 81 74 82 69 83 70 84 71 85 72 86 73 87 52 88
REMARK SMILES IDX 53 89 61 90 54 91 60 92 55 93 56 94 57 95 58 96 59 97
REMARK H PARENT 17 7 3 22 24 34 80 53 50 64
REMARK Flexibility Score: inf
ROOT
ATOM      1  C   UNL A   1      31.055  28.333  24.032  1.00  0.00     0.002 C 
ENDROOT
BRANCH   1   2
ATOM      2  C   UNL A   1      30.150  27.168  23.616  1.00  0.00     0.021 C 
BRANCH   2   3
ATOM      3  C   UNL A   1      30.871  26.057  22.859  1.00  0.00     0.116 C 
BRANCH   3   4
ATOM      4  N   UNL A   1      32.300  26.076  23.112  1.00  0.00    -0.352 N 
ATOM      5  C   UNL A   1      33.227  25.247  23.641  1.00  0.00     0.251 C 
ATOM      6  O   UNL A   1      34.382  25.688  23.643  1.00  0.00    -0.270 OA
ATOM      7  H   UNL A   1      32.705  26.924  22.820  1.00  0.00     0.163 HD
BRANCH   5   8
ATOM      8  C   UNL A   1      32.958  23.891  24.209  1.00  0.00     0.067 C 
ATOM      9  C   UNL A   1      32.431  18.881  24.741  1.00  0.00     0.029 A 
ATOM     10  C   UNL A   1      32.570  19.968  25.622  1.00  0.00     0.058 A 
ATOM     11  C   UNL A   1      32.348  19.163  23.367  1.00  0.00     0.050 A 
ATOM     12  C   UNL A   1      32.707  21.268  25.146  1.00  0.00     0.128 A 
ATOM     13  C   UNL A   1      32.490  20.474  22.891  1.00  0.00     0.033 A 
ATOM     14  Cl  UNL A   1      32.071  17.940  22.179  1.00  0.00    -0.084 Cl
ATOM     15  C   UNL A   1      32.693  21.529  23.781  1.00  0.00     0.019 A 
ATOM     16  O   UNL A   1      32.920  22.235  26.081  1.00  0.00    -0.475 OA
ATOM     17  C   UNL A   1      32.944  22.885  23.313  1.00  0.00     0.025 C 
ATOM     18  C   UNL A   1      32.681  23.606  25.661  1.00  0.00     0.314 C 
BRANCH   9  19
ATOM     19  C   UNL A   1      32.412  17.481  25.324  1.00  0.00     0.300 C 
BRANCH  19  20
ATOM     20  N   UNL A   1      33.408  16.526  24.791  1.00  0.00    -0.334 N 
ATOM     21  C   UNL A   1      33.201  15.153  25.249  1.00  0.00     0.333 C 
ATOM     22  H   UNL A   1      33.235  16.543  23.787  1.00  0.00     0.348 HD
BRANCH  20  23
ATOM     23  C   UNL A   1      34.805  16.934  24.972  1.00  0.00     0.258 C 
ATOM     24  C   UNL A   1      35.709  15.752  25.296  1.00  0.00     0.071 C 
ENDBRANCH  20  23
ENDBRANCH  19  20
ENDBRANCH   9  19
BRANCH  18  25
ATOM     25  C   UNL A   1      31.260  24.021  26.080  1.00  0.00     0.429 C 
ATOM     26  F   UNL A   1      30.397  23.870  25.048  1.00  0.00    -0.167 F 
ATOM     27  F   UNL A   1      30.783  23.267  27.097  1.00  0.00    -0.167 F 
ATOM     28  F   UNL A   1      31.199  25.312  26.481  1.00  0.00    -0.167 F 
ENDBRANCH  18  25
ENDBRANCH   5   8
ENDBRANCH   3   4
ENDBRANCH   2   3
ENDBRANCH   1   2
BRANCH   1  29
ATOM     29  C   UNL A   1      31.425  28.390  25.520  1.00  0.00     0.002 C 
BRANCH  29  30
ATOM     30  C   UNL A   1      32.921  28.329  25.834  1.00  0.00     0.021 C 
BRANCH  30  31
ATOM     31  C   UNL A   1      33.294  28.713  27.262  1.00  0.00     0.116 C 
BRANCH  31  32
ATOM     32  N   UNL A   1      33.371  30.153  27.450  1.00  0.00    -0.352 N 
ATOM     33  C   UNL A   1      34.411  30.897  27.957  1.00  0.00     0.251 C 
ATOM     34  H   UNL A   1      32.575  30.663  27.177  1.00  0.00     0.163 HD
ATOM     35  O   UNL A   1      34.269  32.093  28.187  1.00  0.00    -0.269 OA
BRANCH  33  36
ATOM     36  C   UNL A   1      35.691  30.222  28.258  1.00  0.00     0.039 A 
ATOM     37  C   UNL A   1      35.913  29.669  29.523  1.00  0.00     0.014 A 
ATOM     38  C   UNL A   1      36.696  30.205  27.289  1.00  0.00     0.014 A 
ATOM     39  C   UNL A   1      37.191  29.242  29.868  1.00  0.00     0.010 A 
ATOM     40  C   UNL A   1      37.960  29.709  27.618  1.00  0.00     0.010 A 
ATOM     41  C   UNL A   1      38.231  29.269  28.924  1.00  0.00    -0.014 A 
BRANCH  41  42
ATOM     42  C   UNL A   1      39.599  28.852  29.322  1.00  0.00     0.031 A 
ATOM     43  C   UNL A   1      40.432  29.724  30.223  1.00  0.00     0.074 A 
ATOM     44  C   UNL A   1      40.070  27.658  28.914  1.00  0.00     0.049 A 
ATOM     45  N   UNL A   1      41.647  29.522  30.664  1.00  0.00    -0.248 NA
ATOM     46  C   UNL A   1      39.826  30.980  30.696  1.00  0.00     0.031 C 
ATOM     47  C   UNL A   1      39.336  26.708  28.075  1.00  0.00     0.029 A 
ATOM     48  N   UNL A   1      41.260  27.025  29.170  1.00  0.00    -0.354 N 
ATOM     49  C   UNL A   1      41.957  30.627  31.449  1.00  0.00     0.074 A 
ATOM     50  C   UNL A   1      40.812  31.510  31.408  1.00  0.00     0.031 C 
ATOM     51  C   UNL A   1      40.068  25.594  27.931  1.00  0.00     0.029 A 
ATOM     52  C   UNL A   1      41.350  25.774  28.607  1.00  0.00     0.049 A 
ATOM     53  H   UNL A   1      41.981  27.428  29.705  1.00  0.00     0.167 HD
ATOM     54  C   UNL A   1      43.089  30.876  32.148  1.00  0.00     0.031 A 
ATOM     55  C   UNL A   1      42.352  24.874  28.616  1.00  0.00     0.031 A 
ATOM     56  C   UNL A   1      44.221  29.987  32.193  1.00  0.00     0.049 A 
ATOM     57  C   UNL A   1      43.623  25.199  29.345  1.00  0.00     0.074 A 
ATOM     58  C   UNL A   1      45.414  30.157  32.871  1.00  0.00     0.029 A 
ATOM     59  N   UNL A   1      44.298  28.763  31.545  1.00  0.00    -0.354 N 
ATOM     60  N   UNL A   1      43.907  26.262  30.059  1.00  0.00    -0.248 NA
ATOM     61  C   UNL A   1      44.712  24.215  29.267  1.00  0.00     0.031 C 
ATOM     62  C   UNL A   1      46.234  29.060  32.594  1.00  0.00     0.029 A 
ATOM     63  C   UNL A   1      45.528  28.177  31.792  1.00  0.00     0.049 A 
ATOM     64  H   UNL A   1      43.584  28.370  30.993  1.00  0.00     0.167 HD
ATOM     65  C   UNL A   1      45.203  26.074  30.520  1.00  0.00     0.074 A 
ATOM     66  C   UNL A   1      45.644  24.787  30.020  1.00  0.00     0.031 C 
ATOM     67  C   UNL A   1      45.957  26.897  31.287  1.00  0.00     0.031 A 
BRANCH  54  68
ATOM     68  C   UNL A   1      43.184  32.161  32.925  1.00  0.00    -0.014 A 
ATOM     69  C   UNL A   1      42.644  32.234  34.223  1.00  0.00     0.010 A 
ATOM     70  C   UNL A   1      43.698  33.328  32.331  1.00  0.00     0.010 A 
ATOM     71  C   UNL A   1      42.591  33.453  34.903  1.00  0.00     0.020 A 
ATOM     72  C   UNL A   1      43.669  34.546  33.019  1.00  0.00     0.020 A 
ATOM     73  C   UNL A   1      43.095  34.604  34.293  1.00  0.00     0.054 A 
BRANCH  73  74
ATOM     74  S   UNL A   1      43.006  36.183  35.182  1.00  0.00     0.124 S 
ATOM     75  O   UNL A   1      41.957  35.925  36.163  1.00  0.00    -0.237 OA
ATOM     76  O   UNL A   1      44.357  36.323  35.722  1.00  0.00    -0.237 OA
ATOM     77  O   UNL A   1      42.664  37.143  34.135  1.00  0.00    -0.744 OA
ENDBRANCH  73  74
ENDBRANCH  54  68
BRANCH  55  78
ATOM     78  C   UNL A   1      42.163  23.578  27.910  1.00  0.00    -0.014 A 
ATOM     79  C   UNL A   1      41.547  22.495  28.566  1.00  0.00     0.010 A 
ATOM     80  C   UNL A   1      42.693  23.387  26.623  1.00  0.00     0.010 A 
ATOM     81  C   UNL A   1      41.523  21.229  27.977  1.00  0.00     0.020 A 
ATOM     82  C   UNL A   1      42.645  22.126  26.017  1.00  0.00     0.020 A 
ATOM     83  C   UNL A   1      42.090  21.049  26.714  1.00  0.00     0.054 A 
BRANCH  83  84
ATOM     84  S   UNL A   1      42.112  19.384  25.993  1.00  0.00     0.124 S 
ATOM     85  O   UNL A   1      40.699  19.174  25.687  1.00  0.00    -0.237 OA
ATOM     86  O   UNL A   1      42.988  19.547  24.835  1.00  0.00    -0.237 OA
ATOM     87  O   UNL A   1      42.651  18.556  27.066  1.00  0.00    -0.744 OA
ENDBRANCH  83  84
ENDBRANCH  55  78
BRANCH  67  88
ATOM     88  C   UNL A   1      47.349  26.456  31.650  1.00  0.00    -0.014 A 
ATOM     89  C   UNL A   1      48.403  26.670  30.742  1.00  0.00     0.010 A 
ATOM     90  C   UNL A   1      47.580  25.699  32.810  1.00  0.00     0.010 A 
ATOM     91  C   UNL A   1      49.656  26.097  30.968  1.00  0.00     0.020 A 
ATOM     92  C   UNL A   1      48.841  25.144  33.051  1.00  0.00     0.020 A 
ATOM     93  C   UNL A   1      49.862  25.323  32.114  1.00  0.00     0.054 A 
BRANCH  93  94
ATOM     94  S   UNL A   1      51.480  24.542  32.364  1.00  0.00     0.124 S 
ATOM     95  O   UNL A   1      51.190  23.140  32.081  1.00  0.00    -0.237 OA
ATOM     96  O   UNL A   1      52.323  25.223  31.384  1.00  0.00    -0.237 OA
ATOM     97  O   UNL A   1      51.793  24.845  33.759  1.00  0.00    -0.744 OA
ENDBRANCH  93  94
ENDBRANCH  67  88
ENDBRANCH  41  42
ENDBRANCH  33  36
ENDBRANCH  31  32
ENDBRANCH  30  31
ENDBRANCH  29  30
ENDBRANCH   1  29
TORSDOF 20
ENDMDL
MODEL 2
REMARK VINA RESULT:     -10.6      3.948      4.926
REMARK SMILES CC[N@@H+](C)Cc1cc2c(cc1Cl)C=C(C(=O)NCCCCCCNC(=O)c1ccc(-c3c4nc(c(-c5ccc(S(=O)(=O)[O-])cc5)c5ccc([nH]5)c(-c5ccc(S(=O)(=O)[O-])cc5)c5nc(c(-c6ccc(S(=O)(=O)[O-])cc6)c6ccc3[nH]6)C=C5)C=C4)cc1)[C@@H](C(F)(F)F)O2
REMARK SMILES IDX 20 1 19 2 18 3 17 4 15 5 16 6 14 8 6 9 7 10 11 11 8 12 10 13
REMARK SMILES IDX 12 14 9 15 92 16 13 17 87 18 5 19 3 20 4 21 2 23 1 24 88 25
REMARK SMILES IDX 89 26 90 27 91 28 21 29 22 30 23 31 24 32 25 33 26 35 27 36
REMARK SMILES IDX 28 37 86 38 29 39 85 40 30 41 31 42 32 43 79 44 33 45 84 46
REMARK SMILES IDX 78 47 80 48 34 49 83 50 77 51 76 52 35 54 65 55 46 56 64 57
REMARK SMILES IDX 47 58 50 59 63 60 81 61 48 62 49 63 62 65 82 66 51 67 36 68
REMARK SMILES IDX 37 69 45 70 38 71 44 72 39 73 40 74 41 75 42 76 43 77 66 78
REMARK SMILES IDX 67 79 75 80 68 81 74 82 69 83 70 84 71 85 72 86 73 87 52 88
REMARK SMILES IDX 53 89 61 90 54 91 60 92 55 93 56 94 57 95 58 96 59 97
REMARK H PARENT 17 7 3 22 24 34 80 53 50 64
REMARK Flexibility Score: inf
ROOT
ATOM      1  C   UNL A   1      33.051  30.802  27.440  1.00  0.00     0.002 C 
ENDROOT
BRANCH   1   2
ATOM      2  C   UNL A   1      32.326  29.515  27.032  1.00  0.00     0.021 C 
BRANCH   2   3
ATOM      3  C   UNL A   1      32.378  29.215  25.537  1.00  0.00     0.116 C 
BRANCH   3   4
ATOM      4  N   UNL A   1      31.136  28.631  25.064  1.00  0.00    -0.352 N 
ATOM      5  C   UNL A   1      30.719  27.441  24.578  1.00  0.00     0.251 C 
ATOM      6  O   UNL A   1      29.515  27.383  24.305  1.00  0.00    -0.270 OA
ATOM      7  H   UNL A   1      30.396  29.279  25.108  1.00  0.00     0.163 HD
BRANCH   5   8
ATOM      8  C   UNL A   1      31.583  26.243  24.352  1.00  0.00     0.067 C 
ATOM      9  C   UNL A   1      34.026  21.849  24.967  1.00  0.00     0.029 A 
ATOM     10  C   UNL A   1      33.682  22.652  23.865  1.00  0.00     0.058 A 
ATOM     11  C   UNL A   1      33.710  22.330  26.248  1.00  0.00     0.050 A 
ATOM     12  C   UNL A   1      32.977  23.841  24.033  1.00  0.00     0.128 A 
ATOM     13  C   UNL A   1      32.997  23.526  26.413  1.00  0.00     0.033 A 
ATOM     14  Cl  UNL A   1      34.167  21.502  27.694  1.00  0.00    -0.084 Cl
ATOM     15  C   UNL A   1      32.608  24.273  25.301  1.00  0.00     0.019 A 
ATOM     16  O   UNL A   1      32.621  24.498  22.895  1.00  0.00    -0.475 OA
ATOM     17  C   UNL A   1      31.781  25.465  25.433  1.00  0.00     0.025 C 
ATOM     18  C   UNL A   1      32.242  25.893  23.045  1.00  0.00     0.314 C 
BRANCH   9  19
ATOM     19  C   UNL A   1      34.684  20.507  24.700  1.00  0.00     0.300 C 
BRANCH  19  20
ATOM     20  N   UNL A   1      33.836  19.307  24.868  1.00  0.00    -0.334 N 
ATOM     21  C   UNL A   1      34.520  18.060  24.532  1.00  0.00     0.333 C 
ATOM     22  H   UNL A   1      33.646  19.293  25.870  1.00  0.00     0.348 HD
BRANCH  20  23
ATOM     23  C   UNL A   1      32.530  19.383  24.206  1.00  0.00     0.258 C 
ATOM     24  C   UNL A   1      32.398  18.365  23.081  1.00  0.00     0.071 C 
ENDBRANCH  20  23
ENDBRANCH  19  20
ENDBRANCH   9  19
BRANCH  18  25
ATOM     25  C   UNL A   1      33.463  26.782  22.746  1.00  0.00     0.429 C 
ATOM     26  F   UNL A   1      34.244  26.213  21.798  1.00  0.00    -0.167 F 
ATOM     27  F   UNL A   1      33.108  28.000  22.276  1.00  0.00    -0.167 F 
ATOM     28  F   UNL A   1      34.228  26.988  23.842  1.00  0.00    -0.167 F 
ENDBRANCH  18  25
ENDBRANCH   5   8
ENDBRANCH   3   4
ENDBRANCH   2   3
ENDBRANCH   1   2
BRANCH   1  29
ATOM     29  C   UNL A   1      34.565  30.671  27.657  1.00  0.00     0.002 C 
BRANCH  29  30
ATOM     30  C   UNL A   1      35.341  31.988  27.729  1.00  0.00     0.021 C 
BRANCH  30  31
ATOM     31  C   UNL A   1      36.099  32.216  29.032  1.00  0.00     0.116 C 
BRANCH  31  32
ATOM     32  N   UNL A   1      35.794  31.211  30.038  1.00  0.00    -0.352 N 
ATOM     33  C   UNL A   1      36.558  30.142  30.441  1.00  0.00     0.251 C 
ATOM     34  H   UNL A   1      34.926  31.311  30.491  1.00  0.00     0.163 HD
ATOM     35  O   UNL A   1      36.098  29.297  31.202  1.00  0.00    -0.269 OA
BRANCH  33  36
ATOM     36  C   UNL A   1      37.930  30.004  29.909  1.00  0.00     0.039 A 
ATOM     37  C   UNL A   1      38.136  29.764  28.547  1.00  0.00     0.014 A 
ATOM     38  C   UNL A   1      39.011  30.049  30.793  1.00  0.00     0.014 A 
ATOM     39  C   UNL A   1      39.404  29.414  28.098  1.00  0.00     0.010 A 
ATOM     40  C   UNL A   1      40.295  29.765  30.323  1.00  0.00     0.010 A 
ATOM     41  C   UNL A   1      40.494  29.397  28.983  1.00  0.00    -0.014 A 
BRANCH  41  42
ATOM     42  C   UNL A   1      41.833  28.976  28.496  1.00  0.00     0.031 A 
ATOM     43  C   UNL A   1      42.987  29.942  28.503  1.00  0.00     0.074 A 
ATOM     44  C   UNL A   1      42.020  27.703  28.097  1.00  0.00     0.049 A 
ATOM     45  N   UNL A   1      44.219  29.750  28.106  1.00  0.00    -0.248 NA
ATOM     46  C   UNL A   1      42.732  31.296  29.024  1.00  0.00     0.031 C 
ATOM     47  C   UNL A   1      40.986  26.665  28.089  1.00  0.00     0.029 A 
ATOM     48  N   UNL A   1      43.144  27.057  27.651  1.00  0.00    -0.354 N 
ATOM     49  C   UNL A   1      44.879  30.956  28.315  1.00  0.00     0.074 A 
ATOM     50  C   UNL A   1      43.908  31.884  28.851  1.00  0.00     0.031 C 
ATOM     51  C   UNL A   1      41.537  25.503  27.712  1.00  0.00     0.029 A 
ATOM     52  C   UNL A   1      42.943  25.723  27.385  1.00  0.00     0.049 A 
ATOM     53  H   UNL A   1      44.013  27.504  27.533  1.00  0.00     0.167 HD
ATOM     54  C   UNL A   1      46.179  31.256  28.087  1.00  0.00     0.031 A 
ATOM     55  C   UNL A   1      43.785  24.781  26.917  1.00  0.00     0.031 A 
ATOM     56  C   UNL A   1      47.143  30.324  27.563  1.00  0.00     0.049 A 
ATOM     57  C   UNL A   1      45.206  25.153  26.613  1.00  0.00     0.074 A 
ATOM     58  C   UNL A   1      48.484  30.540  27.296  1.00  0.00     0.029 A 
ATOM     59  N   UNL A   1      46.877  29.003  27.236  1.00  0.00    -0.354 N 
ATOM     60  N   UNL A   1      45.804  26.307  26.791  1.00  0.00    -0.248 NA
ATOM     61  C   UNL A   1      46.066  24.109  26.039  1.00  0.00     0.031 C 
ATOM     62  C   UNL A   1      49.017  29.365  26.760  1.00  0.00     0.029 A 
ATOM     63  C   UNL A   1      48.023  28.398  26.751  1.00  0.00     0.049 A 
ATOM     64  H   UNL A   1      46.002  28.561  27.335  1.00  0.00     0.167 HD
ATOM     65  C   UNL A   1      47.111  26.127  26.357  1.00  0.00     0.074 A 
ATOM     66  C   UNL A   1      47.224  24.749  25.924  1.00  0.00     0.031 C 
ATOM     67  C   UNL A   1      48.123  27.026  26.320  1.00  0.00     0.031 A 
BRANCH  54  68
ATOM     68  C   UNL A   1      46.657  32.651  28.394  1.00  0.00    -0.014 A 
ATOM     69  C   UNL A   1      46.740  33.603  27.361  1.00  0.00     0.010 A 
ATOM     70  C   UNL A   1      47.134  32.986  29.674  1.00  0.00     0.010 A 
ATOM     71  C   UNL A   1      47.315  34.855  27.593  1.00  0.00     0.020 A 
ATOM     72  C   UNL A   1      47.689  34.246  29.915  1.00  0.00     0.020 A 
ATOM     73  C   UNL A   1      47.796  35.165  28.866  1.00  0.00     0.054 A 
BRANCH  73  74
ATOM     74  S   UNL A   1      48.555  36.789  29.149  1.00  0.00     0.124 S 
ATOM     75  O   UNL A   1      47.850  37.255  30.338  1.00  0.00    -0.237 OA
ATOM     76  O   UNL A   1      49.965  36.455  29.340  1.00  0.00    -0.237 OA
ATOM     77  O   UNL A   1      48.261  37.519  27.918  1.00  0.00    -0.744 OA
ENDBRANCH  73  74
ENDBRANCH  54  68
BRANCH  55  78
ATOM     78  C   UNL A   1      43.279  23.394  26.727  1.00  0.00    -0.014 A 
ATOM     79  C   UNL A   1      43.026  22.571  27.841  1.00  0.00     0.010 A 
ATOM     80  C   UNL A   1      43.155  22.856  25.435  1.00  0.00     0.010 A 
ATOM     81  C   UNL A   1      42.722  21.219  27.669  1.00  0.00     0.020 A 
ATOM     82  C   UNL A   1      42.822  21.508  25.259  1.00  0.00     0.020 A 
ATOM     83  C   UNL A   1      42.641  20.692  26.379  1.00  0.00     0.054 A 
BRANCH  83  84
ATOM     84  S   UNL A   1      42.313  18.919  26.176  1.00  0.00     0.124 S 
ATOM     85  O   UNL A   1      42.519  18.421  27.533  1.00  0.00    -0.237 OA
ATOM     86  O   UNL A   1      40.931  18.900  25.702  1.00  0.00    -0.237 OA
ATOM     87  O   UNL A   1      43.310  18.499  25.196  1.00  0.00    -0.744 OA
ENDBRANCH  83  84
ENDBRANCH  55  78
BRANCH  67  88
ATOM     88  C   UNL A   1      49.458  26.575  25.795  1.00  0.00    -0.014 A 
ATOM     89  C   UNL A   1      50.339  25.879  26.644  1.00  0.00     0.010 A 
ATOM     90  C   UNL A   1      49.898  26.973  24.522  1.00  0.00     0.010 A 
ATOM     91  C   UNL A   1      51.653  25.627  26.244  1.00  0.00     0.020 A 
ATOM     92  C   UNL A   1      51.206  26.701  24.110  1.00  0.00     0.020 A 
ATOM     93  C   UNL A   1      52.083  26.054  24.985  1.00  0.00     0.054 A 
BRANCH  93  94
ATOM     94  S   UNL A   1      53.808  25.766  24.504  1.00  0.00     0.124 S 
ATOM     95  O   UNL A   1      53.751  25.914  23.053  1.00  0.00    -0.237 OA
ATOM     96  O   UNL A   1      54.523  26.821  25.219  1.00  0.00    -0.237 OA
ATOM     97  O   UNL A   1      54.074  24.411  24.983  1.00  0.00    -0.744 OA
ENDBRANCH  93  94
ENDBRANCH  67  88
ENDBRANCH  41  42
ENDBRANCH  33  36
ENDBRANCH  31  32
ENDBRANCH  30  31
ENDBRANCH  29  30
ENDBRANCH   1  29
TORSDOF 20
ENDMDL
MODEL 3
REMARK VINA RESULT:     -10.6      1.812      2.398
REMARK SMILES CC[N@@H+](C)Cc1cc2c(cc1Cl)C=C(C(=O)NCCCCCCNC(=O)c1ccc(-c3c4nc(c(-c5ccc(S(=O)(=O)[O-])cc5)c5ccc([nH]5)c(-c5ccc(S(=O)(=O)[O-])cc5)c5nc(c(-c6ccc(S(=O)(=O)[O-])cc6)c6ccc3[nH]6)C=C5)C=C4)cc1)[C@@H](C(F)(F)F)O2
REMARK SMILES IDX 20 1 19 2 18 3 17 4 15 5 16 6 14 8 6 9 7 10 11 11 8 12 10 13
REMARK SMILES IDX 12 14 9 15 92 16 13 17 87 18 5 19 3 20 4 21 2 23 1 24 88 25
REMARK SMILES IDX 89 26 90 27 91 28 21 29 22 30 23 31 24 32 25 33 26 35 27 36
REMARK SMILES IDX 28 37 86 38 29 39 85 40 30 41 31 42 32 43 79 44 33 45 84 46
REMARK SMILES IDX 78 47 80 48 34 49 83 50 77 51 76 52 35 54 65 55 46 56 64 57
REMARK SMILES IDX 47 58 50 59 63 60 81 61 48 62 49 63 62 65 82 66 51 67 36 68
REMARK SMILES IDX 37 69 45 70 38 71 44 72 39 73 40 74 41 75 42 76 43 77 66 78
REMARK SMILES IDX 67 79 75 80 68 81 74 82 69 83 70 84 71 85 72 86 73 87 52 88
REMARK SMILES IDX 53 89 61 90 54 91 60 92 55 93 56 94 57 95 58 96 59 97
REMARK H PARENT 17 7 3 22 24 34 80 53 50 64
REMARK Flexibility Score: inf
ROOT
ATOM      1  C   UNL A   1      30.832  28.768  24.064  1.00  0.00     0.002 C 
ENDROOT
BRANCH   1   2
ATOM      2  C   UNL A   1      29.961  27.530  23.822  1.00  0.00     0.021 C 
BRANCH   2   3
ATOM      3  C   UNL A   1      30.651  26.427  23.025  1.00  0.00     0.116 C 
BRANCH   3   4
ATOM      4  N   UNL A   1      32.092  26.467  23.192  1.00  0.00    -0.352 N 
ATOM      5  C   UNL A   1      33.065  25.638  23.631  1.00  0.00     0.251 C 
ATOM      6  O   UNL A   1      34.209  26.104  23.580  1.00  0.00    -0.270 OA
ATOM      7  H   UNL A   1      32.462  27.335  22.910  1.00  0.00     0.163 HD
BRANCH   5   8
ATOM      8  C   UNL A   1      32.857  24.256  24.159  1.00  0.00     0.067 C 
ATOM      9  C   UNL A   1      32.502  19.217  24.532  1.00  0.00     0.029 A 
ATOM     10  C   UNL A   1      32.638  20.277  25.446  1.00  0.00     0.058 A 
ATOM     11  C   UNL A   1      32.364  19.542  23.172  1.00  0.00     0.050 A 
ATOM     12  C   UNL A   1      32.719  21.596  25.011  1.00  0.00     0.128 A 
ATOM     13  C   UNL A   1      32.449  20.873  22.738  1.00  0.00     0.033 A 
ATOM     14  Cl  UNL A   1      32.083  18.352  21.952  1.00  0.00    -0.084 Cl
ATOM     15  C   UNL A   1      32.650  21.902  23.657  1.00  0.00     0.019 A 
ATOM     16  O   UNL A   1      32.934  22.537  25.972  1.00  0.00    -0.475 OA
ATOM     17  C   UNL A   1      32.844  23.281  23.229  1.00  0.00     0.025 C 
ATOM     18  C   UNL A   1      32.639  23.913  25.608  1.00  0.00     0.314 C 
BRANCH   9  19
ATOM     19  C   UNL A   1      32.547  17.797  25.066  1.00  0.00     0.300 C 
BRANCH  19  20
ATOM     20  N   UNL A   1      33.883  17.245  25.375  1.00  0.00    -0.334 N 
ATOM     21  C   UNL A   1      34.854  17.430  24.298  1.00  0.00     0.333 C 
ATOM     22  H   UNL A   1      34.192  17.809  26.167  1.00  0.00     0.348 HD
BRANCH  20  23
ATOM     23  C   UNL A   1      33.877  15.855  25.843  1.00  0.00     0.258 C 
ATOM     24  C   UNL A   1      32.716  15.060  25.262  1.00  0.00     0.071 C 
ENDBRANCH  20  23
ENDBRANCH  19  20
ENDBRANCH   9  19
BRANCH  18  25
ATOM     25  C   UNL A   1      31.221  24.268  26.089  1.00  0.00     0.429 C 
ATOM     26  F   UNL A   1      30.911  23.574  27.209  1.00  0.00    -0.167 F 
ATOM     27  F   UNL A   1      31.096  25.579  26.399  1.00  0.00    -0.167 F 
ATOM     28  F   UNL A   1      30.279  23.990  25.158  1.00  0.00    -0.167 F 
ENDBRANCH  18  25
ENDBRANCH   5   8
ENDBRANCH   3   4
ENDBRANCH   2   3
ENDBRANCH   1   2
BRANCH   1  29
ATOM     29  C   UNL A   1      31.561  28.813  25.414  1.00  0.00     0.002 C 
BRANCH  29  30
ATOM     30  C   UNL A   1      32.859  29.623  25.440  1.00  0.00     0.021 C 
BRANCH  30  31
ATOM     31  C   UNL A   1      33.461  29.828  26.825  1.00  0.00     0.116 C 
BRANCH  31  32
ATOM     32  N   UNL A   1      33.312  31.195  27.300  1.00  0.00    -0.352 N 
ATOM     33  C   UNL A   1      34.148  31.912  28.122  1.00  0.00     0.251 C 
ATOM     34  H   UNL A   1      32.506  31.669  26.991  1.00  0.00     0.163 HD
ATOM     35  O   UNL A   1      33.811  33.010  28.551  1.00  0.00    -0.269 OA
BRANCH  33  36
ATOM     36  C   UNL A   1      35.444  31.320  28.514  1.00  0.00     0.039 A 
ATOM     37  C   UNL A   1      35.480  30.148  29.276  1.00  0.00     0.014 A 
ATOM     38  C   UNL A   1      36.626  31.982  28.173  1.00  0.00     0.014 A 
ATOM     39  C   UNL A   1      36.685  29.727  29.827  1.00  0.00     0.010 A 
ATOM     40  C   UNL A   1      37.844  31.514  28.672  1.00  0.00     0.010 A 
ATOM     41  C   UNL A   1      37.878  30.413  29.543  1.00  0.00    -0.014 A 
BRANCH  41  42
ATOM     42  C   UNL A   1      39.148  29.977  30.176  1.00  0.00     0.031 A 
ATOM     43  C   UNL A   1      39.620  30.611  31.457  1.00  0.00     0.074 A 
ATOM     44  C   UNL A   1      39.849  28.969  29.623  1.00  0.00     0.049 A 
ATOM     45  N   UNL A   1      40.706  30.363  32.143  1.00  0.00    -0.248 NA
ATOM     46  C   UNL A   1      38.766  31.654  32.049  1.00  0.00     0.031 C 
ATOM     47  C   UNL A   1      39.467  28.248  28.407  1.00  0.00     0.029 A 
ATOM     48  N   UNL A   1      41.010  28.356  30.022  1.00  0.00    -0.354 N 
ATOM     49  C   UNL A   1      40.674  31.224  33.234  1.00  0.00     0.074 A 
ATOM     50  C   UNL A   1      39.474  32.021  33.110  1.00  0.00     0.031 C 
ATOM     51  C   UNL A   1      40.345  27.258  28.190  1.00  0.00     0.029 A 
ATOM     52  C   UNL A   1      41.390  27.314  29.208  1.00  0.00     0.049 A 
ATOM     53  H   UNL A   1      41.522  28.634  30.815  1.00  0.00     0.167 HD
ATOM     54  C   UNL A   1      41.561  31.332  34.250  1.00  0.00     0.031 A 
ATOM     55  C   UNL A   1      42.463  26.502  29.261  1.00  0.00     0.031 A 
ATOM     56  C   UNL A   1      42.749  30.528  34.373  1.00  0.00     0.049 A 
ATOM     57  C   UNL A   1      43.467  26.683  30.361  1.00  0.00     0.074 A 
ATOM     58  C   UNL A   1      43.710  30.569  35.368  1.00  0.00     0.029 A 
ATOM     59  N   UNL A   1      43.135  29.536  33.484  1.00  0.00    -0.354 N 
ATOM     60  N   UNL A   1      43.433  27.522  31.369  1.00  0.00    -0.248 NA
ATOM     61  C   UNL A   1      44.655  25.819  30.335  1.00  0.00     0.031 C 
ATOM     62  C   UNL A   1      44.703  29.637  35.055  1.00  0.00     0.029 A 
ATOM     63  C   UNL A   1      44.329  28.972  33.897  1.00  0.00     0.049 A 
ATOM     64  H   UNL A   1      42.632  29.271  32.680  1.00  0.00     0.167 HD
ATOM     65  C   UNL A   1      44.590  27.285  32.099  1.00  0.00     0.074 A 
ATOM     66  C   UNL A   1      45.296  26.212  31.430  1.00  0.00     0.031 C 
ATOM     67  C   UNL A   1      45.025  27.905  33.222  1.00  0.00     0.031 A 
BRANCH  54  68
ATOM     68  C   UNL A   1      41.303  32.357  35.321  1.00  0.00    -0.014 A 
ATOM     69  C   UNL A   1      40.513  32.019  36.436  1.00  0.00     0.010 A 
ATOM     70  C   UNL A   1      41.738  33.686  35.170  1.00  0.00     0.010 A 
ATOM     71  C   UNL A   1      40.141  32.993  37.366  1.00  0.00     0.020 A 
ATOM     72  C   UNL A   1      41.387  34.659  36.111  1.00  0.00     0.020 A 
ATOM     73  C   UNL A   1      40.571  34.310  37.192  1.00  0.00     0.054 A 
BRANCH  73  74
ATOM     74  S   UNL A   1      40.067  35.567  38.399  1.00  0.00     0.124 S 
ATOM     75  O   UNL A   1      41.245  35.662  39.255  1.00  0.00    -0.237 OA
ATOM     76  O   UNL A   1      39.802  36.732  37.556  1.00  0.00    -0.237 OA
ATOM     77  O   UNL A   1      38.883  34.982  39.024  1.00  0.00    -0.744 OA
ENDBRANCH  73  74
ENDBRANCH  54  68
BRANCH  55  78
ATOM     78  C   UNL A   1      42.615  25.442  28.227  1.00  0.00    -0.014 A 
ATOM     79  C   UNL A   1      42.198  24.124  28.496  1.00  0.00     0.010 A 
ATOM     80  C   UNL A   1      43.274  25.719  27.018  1.00  0.00     0.010 A 
ATOM     81  C   UNL A   1      42.495  23.091  27.604  1.00  0.00     0.020 A 
ATOM     82  C   UNL A   1      43.548  24.691  26.109  1.00  0.00     0.020 A 
ATOM     83  C   UNL A   1      43.186  23.379  26.425  1.00  0.00     0.054 A 
BRANCH  83  84
ATOM     84  S   UNL A   1      43.624  22.015  25.312  1.00  0.00     0.124 S 
ATOM     85  O   UNL A   1      43.596  22.674  24.009  1.00  0.00    -0.237 OA
ATOM     86  O   UNL A   1      44.947  21.622  25.790  1.00  0.00    -0.237 OA
ATOM     87  O   UNL A   1      42.567  21.036  25.542  1.00  0.00    -0.744 OA
ENDBRANCH  83  84
ENDBRANCH  55  78
BRANCH  67  88
ATOM     88  C   UNL A   1      46.329  27.458  33.822  1.00  0.00    -0.014 A 
ATOM     89  C   UNL A   1      47.534  28.021  33.362  1.00  0.00     0.010 A 
ATOM     90  C   UNL A   1      46.371  26.381  34.723  1.00  0.00     0.010 A 
ATOM     91  C   UNL A   1      48.761  27.484  33.759  1.00  0.00     0.020 A 
ATOM     92  C   UNL A   1      47.598  25.857  35.140  1.00  0.00     0.020 A 
ATOM     93  C   UNL A   1      48.784  26.395  34.634  1.00  0.00     0.054 A 
BRANCH  93  94
ATOM     94  S   UNL A   1      50.385  25.677  35.096  1.00  0.00     0.124 S 
ATOM     95  O   UNL A   1      51.321  26.708  34.662  1.00  0.00    -0.237 OA
ATOM     96  O   UNL A   1      50.257  25.508  36.543  1.00  0.00    -0.237 OA
ATOM     97  O   UNL A   1      50.431  24.430  34.335  1.00  0.00    -0.744 OA
ENDBRANCH  93  94
ENDBRANCH  67  88
ENDBRANCH  41  42
ENDBRANCH  33  36
ENDBRANCH  31  32
ENDBRANCH  30  31
ENDBRANCH  29  30
ENDBRANCH   1  29
TORSDOF 20
ENDMDL
