MODEL 1
REMARK VINA RESULT:      -8.9      0.000      0.000
REMARK SMILES Cc1ccc(S(=O)(=O)Nc2ccc(Cl)c(C(=O)NCCCCCCNC(=O)c3ccc(-c4c5nc(c(-c6ccc(S(=O)(=O)[O-])cc6)c6ccc([nH]6)c(-c6ccc(S(=O)(=O)[O-])cc6)c6nc(c(-c7ccc(S(=O)(=O)[O-])cc7)c7ccc4[nH]7)C=C6)C=C5)cc3)c2)cc1Cl
REMARK SMILES IDX 21 1 20 2 19 3 18 4 16 5 17 6 15 8 10 9 11 10 88 11 12 12
REMARK SMILES IDX 13 13 14 14 9 15 6 17 7 18 8 19 5 20 1 21 2 22 3 23 90 24
REMARK SMILES IDX 4 25 89 26 91 27 22 28 23 29 24 30 25 31 26 32 27 34 28 35
REMARK SMILES IDX 29 36 87 37 30 38 86 39 31 40 32 41 33 42 80 43 34 44 85 45
REMARK SMILES IDX 79 46 81 47 35 48 84 49 78 50 77 51 36 53 66 54 47 55 65 56
REMARK SMILES IDX 48 57 51 58 64 59 82 60 49 61 50 62 63 64 83 65 52 66 37 67
REMARK SMILES IDX 38 68 46 69 39 70 45 71 40 72 41 73 42 74 43 75 44 76 67 77
REMARK SMILES IDX 68 78 76 79 69 80 75 81 70 82 71 83 72 84 73 85 74 86 53 87
REMARK SMILES IDX 54 88 62 89 55 90 61 91 56 92 57 93 58 94 59 95 60 96
REMARK H PARENT 18 7 9 16 25 33 81 52 51 63
REMARK Flexibility Score: inf
ROOT
ATOM      1  C   UNL A   1      42.860  23.460  27.820  1.00  0.00     0.002 C 
ENDROOT
BRANCH   1   2
ATOM      2  C   UNL A   1      44.297  23.012  27.520  1.00  0.00     0.021 C 
BRANCH   2   3
ATOM      3  C   UNL A   1      45.325  23.672  28.442  1.00  0.00     0.116 C 
BRANCH   3   4
ATOM      4  N   UNL A   1      46.442  24.164  27.654  1.00  0.00    -0.352 N 
ATOM      5  C   UNL A   1      46.595  25.222  26.792  1.00  0.00     0.252 C 
ATOM      6  O   UNL A   1      47.612  25.232  26.102  1.00  0.00    -0.269 OA
ATOM      7  H   UNL A   1      47.260  23.627  27.760  1.00  0.00     0.163 HD
BRANCH   5   8
ATOM      8  C   UNL A   1      45.624  26.349  26.700  1.00  0.00     0.060 A 
ATOM      9  C   UNL A   1      44.953  28.616  27.267  1.00  0.00     0.050 A 
ATOM     10  C   UNL A   1      43.846  28.511  26.427  1.00  0.00     0.028 A 
ATOM     11  C   UNL A   1      45.761  27.500  27.493  1.00  0.00     0.042 A 
ATOM     12  C   UNL A   1      43.636  27.342  25.702  1.00  0.00     0.023 A 
ATOM     13  C   UNL A   1      44.544  26.280  25.799  1.00  0.00     0.053 A 
ATOM     14  Cl  UNL A   1      44.275  24.973  24.696  1.00  0.00    -0.083 Cl
BRANCH   9  15
ATOM     15  N   UNL A   1      45.249  29.909  27.767  1.00  0.00    -0.280 N 
ATOM     16  H   UNL A   1      44.931  30.128  28.673  1.00  0.00     0.180 HD
BRANCH  15  17
ATOM     17  S   UNL A   1      46.096  31.096  26.936  1.00  0.00     0.261 S 
ATOM     18  O   UNL A   1      45.782  30.938  25.522  1.00  0.00    -0.201 OA
ATOM     19  O   UNL A   1      47.444  31.020  27.427  1.00  0.00    -0.201 OA
BRANCH  17  20
ATOM     20  C   UNL A   1      45.472  32.706  27.389  1.00  0.00     0.089 A 
ATOM     21  C   UNL A   1      43.034  36.064  28.570  1.00  0.00     0.046 C 
ATOM     22  C   UNL A   1      43.923  34.940  28.115  1.00  0.00    -0.032 A 
ATOM     23  C   UNL A   1      44.830  34.366  29.022  1.00  0.00     0.006 A 
ATOM     24  C   UNL A   1      43.891  34.449  26.801  1.00  0.00     0.045 A 
ATOM     25  C   UNL A   1      45.619  33.266  28.658  1.00  0.00     0.022 A 
ATOM     26  C   UNL A   1      44.650  33.333  26.444  1.00  0.00     0.043 A 
ATOM     27  Cl  UNL A   1      42.876  35.151  25.596  1.00  0.00    -0.084 Cl
ENDBRANCH  17  20
ENDBRANCH  15  17
ENDBRANCH   9  15
ENDBRANCH   5   8
ENDBRANCH   3   4
ENDBRANCH   2   3
ENDBRANCH   1   2
BRANCH   1  28
ATOM     28  C   UNL A   1      42.030  22.440  28.610  1.00  0.00     0.002 C 
BRANCH  28  29
ATOM     29  C   UNL A   1      41.128  21.534  27.765  1.00  0.00     0.021 C 
BRANCH  29  30
ATOM     30  C   UNL A   1      40.986  21.949  26.302  1.00  0.00     0.116 C 
BRANCH  30  31
ATOM     31  N   UNL A   1      39.595  22.121  25.915  1.00  0.00    -0.352 N 
ATOM     32  C   UNL A   1      38.715  23.118  26.257  1.00  0.00     0.251 C 
ATOM     33  H   UNL A   1      39.231  21.422  25.324  1.00  0.00     0.163 HD
ATOM     34  O   UNL A   1      37.524  23.003  25.985  1.00  0.00    -0.269 OA
BRANCH  32  35
ATOM     35  C   UNL A   1      39.199  24.322  26.967  1.00  0.00     0.039 A 
ATOM     36  C   UNL A   1      39.976  25.249  26.266  1.00  0.00     0.014 A 
ATOM     37  C   UNL A   1      38.915  24.525  28.321  1.00  0.00     0.014 A 
ATOM     38  C   UNL A   1      40.427  26.404  26.910  1.00  0.00     0.010 A 
ATOM     39  C   UNL A   1      39.324  25.700  28.949  1.00  0.00     0.010 A 
ATOM     40  C   UNL A   1      40.087  26.650  28.250  1.00  0.00    -0.014 A 
BRANCH  40  41
ATOM     41  C   UNL A   1      40.516  27.896  28.930  1.00  0.00     0.031 A 
ATOM     42  C   UNL A   1      41.876  27.986  29.567  1.00  0.00     0.074 A 
ATOM     43  C   UNL A   1      39.660  28.933  29.021  1.00  0.00     0.049 A 
ATOM     44  N   UNL A   1      42.409  28.976  30.236  1.00  0.00    -0.248 NA
ATOM     45  C   UNL A   1      42.741  26.800  29.456  1.00  0.00     0.031 C 
ATOM     46  C   UNL A   1      38.297  28.954  28.483  1.00  0.00     0.029 A 
ATOM     47  N   UNL A   1      39.806  30.165  29.605  1.00  0.00    -0.354 N 
ATOM     48  C   UNL A   1      43.661  28.529  30.641  1.00  0.00     0.074 A 
ATOM     49  C   UNL A   1      43.796  27.168  30.170  1.00  0.00     0.031 C 
ATOM     50  C   UNL A   1      37.740  30.148  28.749  1.00  0.00     0.029 A 
ATOM     51  C   UNL A   1      38.693  30.964  29.494  1.00  0.00     0.049 A 
ATOM     52  H   UNL A   1      40.630  30.451  30.061  1.00  0.00     0.167 HD
ATOM     53  C   UNL A   1      44.617  29.196  31.330  1.00  0.00     0.031 A 
ATOM     54  C   UNL A   1      38.463  32.212  29.944  1.00  0.00     0.031 A 
ATOM     55  C   UNL A   1      44.492  30.557  31.782  1.00  0.00     0.049 A 
ATOM     56  C   UNL A   1      39.550  32.941  30.683  1.00  0.00     0.074 A 
ATOM     57  C   UNL A   1      45.428  31.336  32.438  1.00  0.00     0.029 A 
ATOM     58  N   UNL A   1      43.360  31.341  31.622  1.00  0.00    -0.354 N 
ATOM     59  N   UNL A   1      40.751  32.523  31.002  1.00  0.00    -0.248 NA
ATOM     60  C   UNL A   1      39.255  34.317  31.110  1.00  0.00     0.031 C 
ATOM     61  C   UNL A   1      44.851  32.584  32.701  1.00  0.00     0.029 A 
ATOM     62  C   UNL A   1      43.569  32.591  32.177  1.00  0.00     0.049 A 
ATOM     63  H   UNL A   1      42.530  31.051  31.179  1.00  0.00     0.167 HD
ATOM     64  C   UNL A   1      41.362  33.590  31.650  1.00  0.00     0.074 A 
ATOM     65  C   UNL A   1      40.405  34.676  31.665  1.00  0.00     0.031 C 
ATOM     66  C   UNL A   1      42.607  33.662  32.183  1.00  0.00     0.031 A 
BRANCH  53  67
ATOM     67  C   UNL A   1      45.891  28.457  31.640  1.00  0.00    -0.014 A 
ATOM     68  C   UNL A   1      46.023  27.709  32.823  1.00  0.00     0.010 A 
ATOM     69  C   UNL A   1      46.955  28.481  30.721  1.00  0.00     0.010 A 
ATOM     70  C   UNL A   1      47.211  27.029  33.101  1.00  0.00     0.020 A 
ATOM     71  C   UNL A   1      48.137  27.784  30.985  1.00  0.00     0.020 A 
ATOM     72  C   UNL A   1      48.264  27.076  32.182  1.00  0.00     0.054 A 
BRANCH  72  73
ATOM     73  S   UNL A   1      49.790  26.170  32.555  1.00  0.00     0.124 S 
ATOM     74  O   UNL A   1      50.756  26.841  31.689  1.00  0.00    -0.237 OA
ATOM     75  O   UNL A   1      49.964  26.401  33.987  1.00  0.00    -0.237 OA
ATOM     76  O   UNL A   1      49.474  24.792  32.186  1.00  0.00    -0.744 OA
ENDBRANCH  72  73
ENDBRANCH  53  67
BRANCH  54  77
ATOM     77  C   UNL A   1      37.152  32.863  29.684  1.00  0.00    -0.014 A 
ATOM     78  C   UNL A   1      36.145  32.845  30.663  1.00  0.00     0.010 A 
ATOM     79  C   UNL A   1      36.912  33.516  28.462  1.00  0.00     0.010 A 
ATOM     80  C   UNL A   1      34.911  33.456  30.420  1.00  0.00     0.020 A 
ATOM     81  C   UNL A   1      35.687  34.146  28.224  1.00  0.00     0.020 A 
ATOM     82  C   UNL A   1      34.689  34.101  29.200  1.00  0.00     0.054 A 
BRANCH  82  83
ATOM     83  S   UNL A   1      33.103  34.937  28.921  1.00  0.00     0.124 S 
ATOM     84  O   UNL A   1      32.465  34.056  27.948  1.00  0.00    -0.237 OA
ATOM     85  O   UNL A   1      32.506  34.944  30.254  1.00  0.00    -0.237 OA
ATOM     86  O   UNL A   1      33.495  36.251  28.418  1.00  0.00    -0.744 OA
ENDBRANCH  82  83
ENDBRANCH  54  77
BRANCH  66  87
ATOM     87  C   UNL A   1      43.012  34.969  32.805  1.00  0.00    -0.014 A 
ATOM     88  C   UNL A   1      43.708  35.940  32.063  1.00  0.00     0.010 A 
ATOM     89  C   UNL A   1      42.652  35.246  34.136  1.00  0.00     0.010 A 
ATOM     90  C   UNL A   1      44.060  37.157  32.651  1.00  0.00     0.020 A 
ATOM     91  C   UNL A   1      42.986  36.470  34.721  1.00  0.00     0.020 A 
ATOM     92  C   UNL A   1      43.701  37.413  33.978  1.00  0.00     0.054 A 
BRANCH  92  93
ATOM     93  S   UNL A   1      44.131  39.015  34.712  1.00  0.00     0.124 S 
ATOM     94  O   UNL A   1      43.033  39.862  34.254  1.00  0.00    -0.237 OA
ATOM     95  O   UNL A   1      44.143  38.723  36.144  1.00  0.00    -0.237 OA
ATOM     96  O   UNL A   1      45.437  39.320  34.135  1.00  0.00    -0.744 OA
ENDBRANCH  92  93
ENDBRANCH  66  87
ENDBRANCH  40  41
ENDBRANCH  32  35
ENDBRANCH  30  31
ENDBRANCH  29  30
ENDBRANCH  28  29
ENDBRANCH   1  28
TORSDOF 19
ENDMDL
MODEL 2
REMARK VINA RESULT:      -8.5      5.140     12.116
REMARK SMILES Cc1ccc(S(=O)(=O)Nc2ccc(Cl)c(C(=O)NCCCCCCNC(=O)c3ccc(-c4c5nc(c(-c6ccc(S(=O)(=O)[O-])cc6)c6ccc([nH]6)c(-c6ccc(S(=O)(=O)[O-])cc6)c6nc(c(-c7ccc(S(=O)(=O)[O-])cc7)c7ccc4[nH]7)C=C6)C=C5)cc3)c2)cc1Cl
REMARK SMILES IDX 21 1 20 2 19 3 18 4 16 5 17 6 15 8 10 9 11 10 88 11 12 12
REMARK SMILES IDX 13 13 14 14 9 15 6 17 7 18 8 19 5 20 1 21 2 22 3 23 90 24
REMARK SMILES IDX 4 25 89 26 91 27 22 28 23 29 24 30 25 31 26 32 27 34 28 35
REMARK SMILES IDX 29 36 87 37 30 38 86 39 31 40 32 41 33 42 80 43 34 44 85 45
REMARK SMILES IDX 79 46 81 47 35 48 84 49 78 50 77 51 36 53 66 54 47 55 65 56
REMARK SMILES IDX 48 57 51 58 64 59 82 60 49 61 50 62 63 64 83 65 52 66 37 67
REMARK SMILES IDX 38 68 46 69 39 70 45 71 40 72 41 73 42 74 43 75 44 76 67 77
REMARK SMILES IDX 68 78 76 79 69 80 75 81 70 82 71 83 72 84 73 85 74 86 53 87
REMARK SMILES IDX 54 88 62 89 55 90 61 91 56 92 57 93 58 94 59 95 60 96
REMARK H PARENT 18 7 9 16 25 33 81 52 51 63
REMARK Flexibility Score: inf
ROOT
ATOM      1  C   UNL A   1      34.961  31.305  28.056  1.00  0.00     0.002 C 
ENDROOT
BRANCH   1   2
ATOM      2  C   UNL A   1      35.501  29.994  27.468  1.00  0.00     0.021 C 
BRANCH   2   3
ATOM      3  C   UNL A   1      34.454  29.240  26.646  1.00  0.00     0.116 C 
BRANCH   3   4
ATOM      4  N   UNL A   1      33.293  30.090  26.438  1.00  0.00    -0.352 N 
ATOM      5  C   UNL A   1      32.113  29.925  25.756  1.00  0.00     0.252 C 
ATOM      6  O   UNL A   1      31.429  30.932  25.582  1.00  0.00    -0.269 OA
ATOM      7  H   UNL A   1      33.369  30.966  26.879  1.00  0.00     0.163 HD
BRANCH   5   8
ATOM      8  C   UNL A   1      31.625  28.602  25.275  1.00  0.00     0.060 A 
ATOM      9  C   UNL A   1      31.283  26.997  23.481  1.00  0.00     0.050 A 
ATOM     10  C   UNL A   1      30.808  26.058  24.395  1.00  0.00     0.028 A 
ATOM     11  C   UNL A   1      31.569  28.296  23.905  1.00  0.00     0.042 A 
ATOM     12  C   UNL A   1      30.764  26.373  25.750  1.00  0.00     0.023 A 
ATOM     13  C   UNL A   1      31.213  27.621  26.198  1.00  0.00     0.053 A 
ATOM     14  Cl  UNL A   1      31.293  27.806  27.918  1.00  0.00    -0.083 Cl
BRANCH   9  15
ATOM     15  N   UNL A   1      31.545  26.528  22.170  1.00  0.00    -0.280 N 
ATOM     16  H   UNL A   1      30.795  26.520  21.532  1.00  0.00     0.180 HD
BRANCH  15  17
ATOM     17  S   UNL A   1      33.035  25.984  21.618  1.00  0.00     0.261 S 
ATOM     18  O   UNL A   1      34.020  26.996  21.972  1.00  0.00    -0.201 OA
ATOM     19  O   UNL A   1      32.816  25.582  20.256  1.00  0.00    -0.201 OA
BRANCH  17  20
ATOM     20  C   UNL A   1      33.508  24.517  22.518  1.00  0.00     0.089 A 
ATOM     21  C   UNL A   1      34.035  21.406  25.461  1.00  0.00     0.046 C 
ATOM     22  C   UNL A   1      33.922  22.480  24.414  1.00  0.00    -0.032 A 
ATOM     23  C   UNL A   1      33.113  22.261  23.285  1.00  0.00     0.006 A 
ATOM     24  C   UNL A   1      34.612  23.696  24.516  1.00  0.00     0.045 A 
ATOM     25  C   UNL A   1      32.922  23.266  22.328  1.00  0.00     0.022 A 
ATOM     26  C   UNL A   1      34.398  24.712  23.583  1.00  0.00     0.043 A 
ATOM     27  Cl  UNL A   1      35.697  24.017  25.818  1.00  0.00    -0.084 Cl
ENDBRANCH  17  20
ENDBRANCH  15  17
ENDBRANCH   9  15
ENDBRANCH   5   8
ENDBRANCH   3   4
ENDBRANCH   2   3
ENDBRANCH   1   2
BRANCH   1  28
ATOM     28  C   UNL A   1      35.894  32.510  27.883  1.00  0.00     0.002 C 
BRANCH  28  29
ATOM     29  C   UNL A   1      35.950  33.471  29.075  1.00  0.00     0.021 C 
BRANCH  29  30
ATOM     30  C   UNL A   1      36.997  33.126  30.133  1.00  0.00     0.116 C 
BRANCH  30  31
ATOM     31  N   UNL A   1      36.516  32.127  31.074  1.00  0.00    -0.352 N 
ATOM     32  C   UNL A   1      37.007  30.873  31.336  1.00  0.00     0.251 C 
ATOM     33  H   UNL A   1      35.723  32.388  31.597  1.00  0.00     0.163 HD
ATOM     34  O   UNL A   1      36.362  30.096  32.032  1.00  0.00    -0.269 OA
BRANCH  32  35
ATOM     35  C   UNL A   1      38.306  30.452  30.766  1.00  0.00     0.039 A 
ATOM     36  C   UNL A   1      38.436  30.372  29.376  1.00  0.00     0.014 A 
ATOM     37  C   UNL A   1      39.381  30.110  31.593  1.00  0.00     0.014 A 
ATOM     38  C   UNL A   1      39.659  29.997  28.815  1.00  0.00     0.010 A 
ATOM     39  C   UNL A   1      40.613  29.782  31.031  1.00  0.00     0.010 A 
ATOM     40  C   UNL A   1      40.764  29.720  29.636  1.00  0.00    -0.014 A 
BRANCH  40  41
ATOM     41  C   UNL A   1      42.081  29.370  29.051  1.00  0.00     0.031 A 
ATOM     42  C   UNL A   1      42.338  27.982  28.531  1.00  0.00     0.074 A 
ATOM     43  C   UNL A   1      43.067  30.289  29.036  1.00  0.00     0.049 A 
ATOM     44  N   UNL A   1      43.435  27.483  28.021  1.00  0.00    -0.248 NA
ATOM     45  C   UNL A   1      41.223  27.025  28.613  1.00  0.00     0.031 C 
ATOM     46  C   UNL A   1      42.957  31.656  29.550  1.00  0.00     0.029 A 
ATOM     47  N   UNL A   1      44.357  30.209  28.577  1.00  0.00    -0.354 N 
ATOM     48  C   UNL A   1      43.151  26.152  27.740  1.00  0.00     0.074 A 
ATOM     49  C   UNL A   1      41.788  25.913  28.164  1.00  0.00     0.031 C 
ATOM     50  C   UNL A   1      44.127  32.290  29.363  1.00  0.00     0.029 A 
ATOM     51  C   UNL A   1      45.073  31.370  28.740  1.00  0.00     0.049 A 
ATOM     52  H   UNL A   1      44.734  29.396  28.170  1.00  0.00     0.167 HD
ATOM     53  C   UNL A   1      43.947  25.218  27.168  1.00  0.00     0.031 A 
ATOM     54  C   UNL A   1      46.350  31.663  28.425  1.00  0.00     0.031 A 
ATOM     55  C   UNL A   1      45.295  25.460  26.728  1.00  0.00     0.049 A 
ATOM     56  C   UNL A   1      47.205  30.617  27.766  1.00  0.00     0.074 A 
ATOM     57  C   UNL A   1      46.161  24.592  26.085  1.00  0.00     0.029 A 
ATOM     58  N   UNL A   1      45.973  26.659  26.882  1.00  0.00    -0.354 N 
ATOM     59  N   UNL A   1      46.897  29.381  27.452  1.00  0.00    -0.248 NA
ATOM     60  C   UNL A   1      48.575  31.009  27.407  1.00  0.00     0.031 C 
ATOM     61  C   UNL A   1      47.374  25.259  25.877  1.00  0.00     0.029 A 
ATOM     62  C   UNL A   1      47.250  26.552  26.358  1.00  0.00     0.049 A 
ATOM     63  H   UNL A   1      45.601  27.468  27.302  1.00  0.00     0.167 HD
ATOM     64  C   UNL A   1      48.029  28.855  26.839  1.00  0.00     0.074 A 
ATOM     65  C   UNL A   1      49.022  29.909  26.816  1.00  0.00     0.031 C 
ATOM     66  C   UNL A   1      48.225  27.610  26.341  1.00  0.00     0.031 A 
BRANCH  53  67
ATOM     67  C   UNL A   1      43.375  23.838  26.985  1.00  0.00    -0.014 A 
ATOM     68  C   UNL A   1      42.762  23.465  25.776  1.00  0.00     0.010 A 
ATOM     69  C   UNL A   1      43.481  22.893  28.021  1.00  0.00     0.010 A 
ATOM     70  C   UNL A   1      42.231  22.182  25.619  1.00  0.00     0.020 A 
ATOM     71  C   UNL A   1      42.971  21.602  27.859  1.00  0.00     0.020 A 
ATOM     72  C   UNL A   1      42.334  21.260  26.664  1.00  0.00     0.054 A 
BRANCH  72  73
ATOM     73  S   UNL A   1      41.654  19.595  26.431  1.00  0.00     0.124 S 
ATOM     74  O   UNL A   1      41.977  18.958  27.706  1.00  0.00    -0.237 OA
ATOM     75  O   UNL A   1      40.235  19.852  26.200  1.00  0.00    -0.237 OA
ATOM     76  O   UNL A   1      42.386  19.081  25.276  1.00  0.00    -0.744 OA
ENDBRANCH  72  73
ENDBRANCH  53  67
BRANCH  54  77
ATOM     77  C   UNL A   1      46.890  33.019  28.708  1.00  0.00    -0.014 A 
ATOM     78  C   UNL A   1      46.762  34.046  27.759  1.00  0.00     0.010 A 
ATOM     79  C   UNL A   1      47.520  33.291  29.936  1.00  0.00     0.010 A 
ATOM     80  C   UNL A   1      47.270  35.321  28.023  1.00  0.00     0.020 A 
ATOM     81  C   UNL A   1      48.010  34.570  30.212  1.00  0.00     0.020 A 
ATOM     82  C   UNL A   1      47.893  35.575  29.249  1.00  0.00     0.054 A 
BRANCH  82  83
ATOM     83  S   UNL A   1      48.497  37.249  29.599  1.00  0.00     0.124 S 
ATOM     84  O   UNL A   1      48.884  37.714  28.271  1.00  0.00    -0.237 OA
ATOM     85  O   UNL A   1      47.324  37.898  30.179  1.00  0.00    -0.237 OA
ATOM     86  O   UNL A   1      49.598  37.024  30.532  1.00  0.00    -0.744 OA
ENDBRANCH  82  83
ENDBRANCH  54  77
BRANCH  66  87
ATOM     87  C   UNL A   1      49.558  27.328  25.704  1.00  0.00    -0.014 A 
ATOM     88  C   UNL A   1      50.646  26.877  26.470  1.00  0.00     0.010 A 
ATOM     89  C   UNL A   1      49.706  27.473  24.312  1.00  0.00     0.010 A 
ATOM     90  C   UNL A   1      51.872  26.601  25.859  1.00  0.00     0.020 A 
ATOM     91  C   UNL A   1      50.925  27.179  23.696  1.00  0.00     0.020 A 
ATOM     92  C   UNL A   1      52.005  26.758  24.476  1.00  0.00     0.054 A 
BRANCH  92  93
ATOM     93  S   UNL A   1      53.591  26.355  23.693  1.00  0.00     0.124 S 
ATOM     94  O   UNL A   1      54.035  25.209  24.482  1.00  0.00    -0.237 OA
ATOM     95  O   UNL A   1      53.207  26.058  22.315  1.00  0.00    -0.237 OA
ATOM     96  O   UNL A   1      54.379  27.573  23.865  1.00  0.00    -0.744 OA
ENDBRANCH  92  93
ENDBRANCH  66  87
ENDBRANCH  40  41
ENDBRANCH  32  35
ENDBRANCH  30  31
ENDBRANCH  29  30
ENDBRANCH  28  29
ENDBRANCH   1  28
TORSDOF 19
ENDMDL
MODEL 3
REMARK VINA RESULT:      -8.4      1.147      8.080
REMARK SMILES Cc1ccc(S(=O)(=O)Nc2ccc(Cl)c(C(=O)NCCCCCCNC(=O)c3ccc(-c4c5nc(c(-c6ccc(S(=O)(=O)[O-])cc6)c6ccc([nH]6)c(-c6ccc(S(=O)(=O)[O-])cc6)c6nc(c(-c7ccc(S(=O)(=O)[O-])cc7)c7ccc4[nH]7)C=C6)C=C5)cc3)c2)cc1Cl
REMARK SMILES IDX 21 1 20 2 19 3 18 4 16 5 17 6 15 8 10 9 11 10 88 11 12 12
REMARK SMILES IDX 13 13 14 14 9 15 6 17 7 18 8 19 5 20 1 21 2 22 3 23 90 24
REMARK SMILES IDX 4 25 89 26 91 27 22 28 23 29 24 30 25 31 26 32 27 34 28 35
REMARK SMILES IDX 29 36 87 37 30 38 86 39 31 40 32 41 33 42 80 43 34 44 85 45
REMARK SMILES IDX 79 46 81 47 35 48 84 49 78 50 77 51 36 53 66 54 47 55 65 56
REMARK SMILES IDX 48 57 51 58 64 59 82 60 49 61 50 62 63 64 83 65 52 66 37 67
REMARK SMILES IDX 38 68 46 69 39 70 45 71 40 72 41 73 42 74 43 75 44 76 67 77
REMARK SMILES IDX 68 78 76 79 69 80 75 81 70 82 71 83 72 84 73 85 74 86 53 87
REMARK SMILES IDX 54 88 62 89 55 90 61 91 56 92 57 93 58 94 59 95 60 96
REMARK H PARENT 18 7 9 16 25 33 81 52 51 63
REMARK Flexibility Score: inf
ROOT
ATOM      1  C   UNL A   1      43.867  23.173  27.293  1.00  0.00     0.002 C 
ENDROOT
BRANCH   1   2
ATOM      2  C   UNL A   1      45.376  23.352  27.077  1.00  0.00     0.021 C 
BRANCH   2   3
ATOM      3  C   UNL A   1      45.857  24.764  27.417  1.00  0.00     0.116 C 
BRANCH   3   4
ATOM      4  N   UNL A   1      46.366  25.408  26.217  1.00  0.00    -0.352 N 
ATOM      5  C   UNL A   1      46.065  26.585  25.579  1.00  0.00     0.252 C 
ATOM      6  O   UNL A   1      46.520  26.733  24.446  1.00  0.00    -0.269 OA
ATOM      7  H   UNL A   1      47.074  24.892  25.769  1.00  0.00     0.163 HD
BRANCH   5   8
ATOM      8  C   UNL A   1      45.268  27.676  26.208  1.00  0.00     0.060 A 
ATOM      9  C   UNL A   1      45.144  29.724  27.512  1.00  0.00     0.050 A 
ATOM     10  C   UNL A   1      43.769  29.795  27.292  1.00  0.00     0.028 A 
ATOM     11  C   UNL A   1      45.860  28.607  27.077  1.00  0.00     0.042 A 
ATOM     12  C   UNL A   1      43.143  28.829  26.511  1.00  0.00     0.023 A 
ATOM     13  C   UNL A   1      43.892  27.798  25.930  1.00  0.00     0.053 A 
ATOM     14  Cl  UNL A   1      43.027  26.786  24.823  1.00  0.00    -0.083 Cl
BRANCH   9  15
ATOM     15  N   UNL A   1      45.753  30.866  28.089  1.00  0.00    -0.280 N 
ATOM     16  H   UNL A   1      45.925  30.848  29.058  1.00  0.00     0.180 HD
BRANCH  15  17
ATOM     17  S   UNL A   1      46.205  32.248  27.249  1.00  0.00     0.261 S 
ATOM     18  O   UNL A   1      46.585  31.830  25.907  1.00  0.00    -0.201 OA
ATOM     19  O   UNL A   1      47.117  32.943  28.114  1.00  0.00    -0.201 OA
BRANCH  17  20
ATOM     20  C   UNL A   1      44.786  33.311  27.037  1.00  0.00     0.089 A 
ATOM     21  C   UNL A   1      42.040  36.635  26.872  1.00  0.00     0.046 C 
ATOM     22  C   UNL A   1      42.940  35.433  26.950  1.00  0.00    -0.032 A 
ATOM     23  C   UNL A   1      43.467  34.886  25.768  1.00  0.00     0.006 A 
ATOM     24  C   UNL A   1      43.264  34.822  28.171  1.00  0.00     0.045 A 
ATOM     25  C   UNL A   1      44.370  33.816  25.805  1.00  0.00     0.022 A 
ATOM     26  C   UNL A   1      44.189  33.778  28.216  1.00  0.00     0.043 A 
ATOM     27  Cl  UNL A   1      42.593  35.368  29.663  1.00  0.00    -0.084 Cl
ENDBRANCH  17  20
ENDBRANCH  15  17
ENDBRANCH   9  15
ENDBRANCH   5   8
ENDBRANCH   3   4
ENDBRANCH   2   3
ENDBRANCH   1   2
BRANCH   1  28
ATOM     28  C   UNL A   1      43.257  21.978  26.550  1.00  0.00     0.002 C 
BRANCH  28  29
ATOM     29  C   UNL A   1      41.932  22.259  25.833  1.00  0.00     0.021 C 
BRANCH  29  30
ATOM     30  C   UNL A   1      40.684  21.779  26.572  1.00  0.00     0.116 C 
BRANCH  30  31
ATOM     31  N   UNL A   1      39.463  22.113  25.856  1.00  0.00    -0.352 N 
ATOM     32  C   UNL A   1      38.678  23.235  25.953  1.00  0.00     0.251 C 
ATOM     33  H   UNL A   1      39.154  21.437  25.211  1.00  0.00     0.163 HD
ATOM     34  O   UNL A   1      37.582  23.265  25.404  1.00  0.00    -0.269 OA
BRANCH  32  35
ATOM     35  C   UNL A   1      39.147  24.402  26.732  1.00  0.00     0.039 A 
ATOM     36  C   UNL A   1      38.748  24.525  28.066  1.00  0.00     0.014 A 
ATOM     37  C   UNL A   1      39.952  25.385  26.147  1.00  0.00     0.014 A 
ATOM     38  C   UNL A   1      39.195  25.607  28.827  1.00  0.00     0.010 A 
ATOM     39  C   UNL A   1      40.437  26.439  26.921  1.00  0.00     0.010 A 
ATOM     40  C   UNL A   1      40.061  26.561  28.268  1.00  0.00    -0.014 A 
BRANCH  40  41
ATOM     41  C   UNL A   1      40.583  27.687  29.080  1.00  0.00     0.031 A 
ATOM     42  C   UNL A   1      39.739  28.909  29.320  1.00  0.00     0.074 A 
ATOM     43  C   UNL A   1      41.842  27.633  29.560  1.00  0.00     0.049 A 
ATOM     44  N   UNL A   1      40.039  30.004  29.970  1.00  0.00    -0.248 NA
ATOM     45  C   UNL A   1      38.388  28.908  28.734  1.00  0.00     0.031 C 
ATOM     46  C   UNL A   1      42.776  26.523  29.359  1.00  0.00     0.029 A 
ATOM     47  N   UNL A   1      42.553  28.536  30.308  1.00  0.00    -0.354 N 
ATOM     48  C   UNL A   1      38.927  30.829  29.857  1.00  0.00     0.074 A 
ATOM     49  C   UNL A   1      37.956  30.121  29.050  1.00  0.00     0.031 C 
ATOM     50  C   UNL A   1      43.932  26.805  29.984  1.00  0.00     0.029 A 
ATOM     51  C   UNL A   1      43.829  28.121  30.605  1.00  0.00     0.049 A 
ATOM     52  H   UNL A   1      42.184  29.399  30.603  1.00  0.00     0.167 HD
ATOM     53  C   UNL A   1      38.726  32.058  30.389  1.00  0.00     0.031 A 
ATOM     54  C   UNL A   1      44.809  28.732  31.299  1.00  0.00     0.031 A 
ATOM     55  C   UNL A   1      39.682  32.754  31.207  1.00  0.00     0.049 A 
ATOM     56  C   UNL A   1      44.551  30.085  31.902  1.00  0.00     0.074 A 
ATOM     57  C   UNL A   1      39.546  33.979  31.838  1.00  0.00     0.029 A 
ATOM     58  N   UNL A   1      40.950  32.286  31.511  1.00  0.00    -0.354 N 
ATOM     59  N   UNL A   1      43.469  30.822  31.836  1.00  0.00    -0.248 NA
ATOM     60  C   UNL A   1      45.643  30.681  32.685  1.00  0.00     0.031 C 
ATOM     61  C   UNL A   1      40.746  34.265  32.501  1.00  0.00     0.029 A 
ATOM     62  C   UNL A   1      41.613  33.202  32.311  1.00  0.00     0.049 A 
ATOM     63  H   UNL A   1      41.325  31.429  31.205  1.00  0.00     0.167 HD
ATOM     64  C   UNL A   1      43.742  31.961  32.586  1.00  0.00     0.074 A 
ATOM     65  C   UNL A   1      45.085  31.809  33.106  1.00  0.00     0.031 C 
ATOM     66  C   UNL A   1      42.949  33.035  32.821  1.00  0.00     0.031 A 
BRANCH  53  67
ATOM     67  C   UNL A   1      37.412  32.732  30.097  1.00  0.00    -0.014 A 
ATOM     68  C   UNL A   1      36.276  32.469  30.883  1.00  0.00     0.010 A 
ATOM     69  C   UNL A   1      37.321  33.665  29.049  1.00  0.00     0.010 A 
ATOM     70  C   UNL A   1      35.060  33.098  30.601  1.00  0.00     0.020 A 
ATOM     71  C   UNL A   1      36.112  34.313  28.778  1.00  0.00     0.020 A 
ATOM     72  C   UNL A   1      34.985  34.012  29.546  1.00  0.00     0.054 A 
BRANCH  72  73
ATOM     73  S   UNL A   1      33.402  34.831  29.210  1.00  0.00     0.124 S 
ATOM     74  O   UNL A   1      32.788  33.917  28.250  1.00  0.00    -0.237 OA
ATOM     75  O   UNL A   1      32.772  34.873  30.528  1.00  0.00    -0.237 OA
ATOM     76  O   UNL A   1      33.792  36.131  28.670  1.00  0.00    -0.744 OA
ENDBRANCH  72  73
ENDBRANCH  53  67
BRANCH  54  77
ATOM     77  C   UNL A   1      46.119  28.055  31.482  1.00  0.00    -0.014 A 
ATOM     78  C   UNL A   1      47.143  28.225  30.536  1.00  0.00     0.010 A 
ATOM     79  C   UNL A   1      46.353  27.251  32.612  1.00  0.00     0.010 A 
ATOM     80  C   UNL A   1      48.376  27.588  30.706  1.00  0.00     0.020 A 
ATOM     81  C   UNL A   1      47.591  26.630  32.796  1.00  0.00     0.020 A 
ATOM     82  C   UNL A   1      48.591  26.792  31.836  1.00  0.00     0.054 A 
BRANCH  82  83
ATOM     83  S   UNL A   1      50.215  26.018  32.070  1.00  0.00     0.124 S 
ATOM     84  O   UNL A   1      50.104  25.488  33.425  1.00  0.00    -0.237 OA
ATOM     85  O   UNL A   1      50.252  25.021  31.003  1.00  0.00    -0.237 OA
ATOM     86  O   UNL A   1      51.149  27.129  31.904  1.00  0.00    -0.744 OA
ENDBRANCH  82  83
ENDBRANCH  54  77
BRANCH  66  87
ATOM     87  C   UNL A   1      43.506  34.119  33.702  1.00  0.00    -0.014 A 
ATOM     88  C   UNL A   1      44.186  35.220  33.153  1.00  0.00     0.010 A 
ATOM     89  C   UNL A   1      43.304  34.056  35.093  1.00  0.00     0.010 A 
ATOM     90  C   UNL A   1      44.680  36.228  33.984  1.00  0.00     0.020 A 
ATOM     91  C   UNL A   1      43.779  35.072  35.924  1.00  0.00     0.020 A 
ATOM     92  C   UNL A   1      44.478  36.146  35.366  1.00  0.00     0.054 A 
BRANCH  92  93
ATOM     93  S   UNL A   1      45.090  37.485  36.425  1.00  0.00     0.124 S 
ATOM     94  O   UNL A   1      45.773  36.746  37.483  1.00  0.00    -0.237 OA
ATOM     95  O   UNL A   1      45.959  38.240  35.525  1.00  0.00    -0.237 OA
ATOM     96  O   UNL A   1      43.874  38.183  36.836  1.00  0.00    -0.744 OA
ENDBRANCH  92  93
ENDBRANCH  66  87
ENDBRANCH  40  41
ENDBRANCH  32  35
ENDBRANCH  30  31
ENDBRANCH  29  30
ENDBRANCH  28  29
ENDBRANCH   1  28
TORSDOF 19
ENDMDL
