MODEL 1
REMARK VINA RESULT:     -12.2      0.000      0.000
REMARK SMILES COc1ccc(Cl)c2sc(N3CC(C(=O)NCCCCCCNC(=O)c4ccc(-c5c6nc(c(-c7ccc(S(=O)(=O)[O-])cc7)c7ccc([nH]7)c(-c7ccc(S(=O)(=O)[O-])cc7)c7nc(c(-c8ccc(S(=O)(=O)[O-])cc8)c8ccc5[nH]8)C=C7)C=C6)cc4)C3)nc12
REMARK SMILES IDX 20 1 19 2 18 3 17 4 16 5 14 6 15 7 13 9 11 10 12 11 86 12
REMARK SMILES IDX 10 13 3 14 4 15 88 16 5 17 8 18 87 19 6 20 9 21 7 22 2 23
REMARK SMILES IDX 1 24 21 25 22 26 23 27 24 28 25 30 26 31 27 32 85 33 28 34
REMARK SMILES IDX 84 35 29 36 30 37 31 38 78 39 32 40 83 41 77 42 79 43 33 44
REMARK SMILES IDX 82 45 76 46 75 47 34 49 64 50 45 51 63 52 46 53 49 54 62 55
REMARK SMILES IDX 80 56 47 57 48 58 61 60 81 61 50 62 35 63 36 64 44 65 37 66
REMARK SMILES IDX 43 67 38 68 39 69 40 70 41 71 42 72 65 73 66 74 74 75 67 76
REMARK SMILES IDX 73 77 68 78 69 79 70 80 71 81 72 82 51 83 52 84 60 85 53 86
REMARK SMILES IDX 59 87 54 88 55 89 56 90 57 91 58 92
REMARK H PARENT 16 8 23 29 79 48 49 59
REMARK Flexibility Score: inf
ROOT
ATOM      1  C   UNL A   1      37.850  22.423  25.836  1.00  0.00     0.002 C 
ENDROOT
BRANCH   1   2
ATOM      2  C   UNL A   1      37.097  22.448  24.496  1.00  0.00     0.002 C 
BRANCH   2   3
ATOM      3  C   UNL A   1      35.878  21.520  24.398  1.00  0.00     0.021 C 
BRANCH   3   4
ATOM      4  C   UNL A   1      35.222  21.190  25.740  1.00  0.00     0.116 C 
BRANCH   4   5
ATOM      5  N   UNL A   1      34.204  20.169  25.590  1.00  0.00    -0.356 N 
ATOM      6  C   UNL A   1      32.852  20.253  25.376  1.00  0.00     0.226 C 
ATOM      7  O   UNL A   1      32.262  19.164  25.298  1.00  0.00    -0.275 OA
ATOM      8  H   UNL A   1      34.546  19.248  25.654  1.00  0.00     0.163 HD
BRANCH   6   9
ATOM      9  C   UNL A   1      32.107  21.576  25.218  1.00  0.00     0.117 C 
ATOM     10  N   UNL A   1      32.531  23.593  25.217  1.00  0.00    -0.346 N 
ATOM     11  C   UNL A   1      32.575  22.610  24.191  1.00  0.00     0.134 C 
ATOM     12  C   UNL A   1      32.160  22.690  26.261  1.00  0.00     0.134 C 
BRANCH  10  13
ATOM     13  C   UNL A   1      32.249  24.911  25.139  1.00  0.00     0.186 A 
ATOM     14  C   UNL A   1      32.546  28.363  26.149  1.00  0.00     0.146 A 
ATOM     15  C   UNL A   1      31.944  29.532  25.655  1.00  0.00     0.050 A 
ATOM     16  C   UNL A   1      32.212  27.105  25.569  1.00  0.00     0.127 A 
ATOM     17  C   UNL A   1      30.991  29.469  24.646  1.00  0.00     0.026 A 
ATOM     18  C   UNL A   1      31.295  27.080  24.512  1.00  0.00     0.079 A 
ATOM     19  N   UNL A   1      32.692  25.847  25.950  1.00  0.00    -0.216 NA
ATOM     20  C   UNL A   1      30.652  28.247  24.066  1.00  0.00     0.060 A 
ATOM     21  S   UNL A   1      31.174  25.470  23.920  1.00  0.00    -0.095 S 
ATOM     22  Cl  UNL A   1      29.468  28.218  22.817  1.00  0.00    -0.083 Cl
BRANCH  14  23
ATOM     23  O   UNL A   1      33.526  28.414  27.115  1.00  0.00    -0.494 OA
ATOM     24  C   UNL A   1      34.173  29.679  27.227  1.00  0.00     0.278 C 
ENDBRANCH  14  23
ENDBRANCH  10  13
ENDBRANCH   6   9
ENDBRANCH   4   5
ENDBRANCH   3   4
ENDBRANCH   2   3
ENDBRANCH   1   2
BRANCH   1  25
ATOM     25  C   UNL A   1      39.061  21.484  25.914  1.00  0.00     0.021 C 
BRANCH  25  26
ATOM     26  C   UNL A   1      40.184  22.019  26.787  1.00  0.00     0.116 C 
BRANCH  26  27
ATOM     27  N   UNL A   1      41.468  22.008  26.093  1.00  0.00    -0.352 N 
ATOM     28  C   UNL A   1      42.219  23.084  25.665  1.00  0.00     0.251 C 
ATOM     29  H   UNL A   1      41.848  21.119  25.905  1.00  0.00     0.163 HD
ATOM     30  O   UNL A   1      43.062  22.945  24.795  1.00  0.00    -0.269 OA
BRANCH  28  31
ATOM     31  C   UNL A   1      41.997  24.399  26.296  1.00  0.00     0.039 A 
ATOM     32  C   UNL A   1      41.325  25.421  25.618  1.00  0.00     0.014 A 
ATOM     33  C   UNL A   1      42.520  24.614  27.571  1.00  0.00     0.014 A 
ATOM     34  C   UNL A   1      41.160  26.648  26.251  1.00  0.00     0.010 A 
ATOM     35  C   UNL A   1      42.229  25.765  28.252  1.00  0.00     0.010 A 
ATOM     36  C   UNL A   1      41.622  26.806  27.565  1.00  0.00    -0.014 A 
BRANCH  36  37
ATOM     37  C   UNL A   1      41.457  28.058  28.275  1.00  0.00     0.031 A 
ATOM     38  C   UNL A   1      42.498  29.075  27.992  1.00  0.00     0.074 A 
ATOM     39  C   UNL A   1      40.324  28.355  28.946  1.00  0.00     0.049 A 
ATOM     40  N   UNL A   1      43.433  29.481  28.783  1.00  0.00    -0.248 NA
ATOM     41  C   UNL A   1      42.600  29.604  26.622  1.00  0.00     0.031 C 
ATOM     42  C   UNL A   1      39.066  27.601  29.011  1.00  0.00     0.029 A 
ATOM     43  N   UNL A   1      40.025  29.488  29.626  1.00  0.00    -0.354 N 
ATOM     44  C   UNL A   1      44.115  30.471  28.088  1.00  0.00     0.074 A 
ATOM     45  C   UNL A   1      43.687  30.372  26.715  1.00  0.00     0.031 C 
ATOM     46  C   UNL A   1      38.084  28.406  29.480  1.00  0.00     0.029 A 
ATOM     47  C   UNL A   1      38.675  29.663  29.901  1.00  0.00     0.049 A 
ATOM     48  H   UNL A   1      40.711  30.136  29.903  1.00  0.00     0.167 HD
ATOM     49  C   UNL A   1      44.803  31.456  28.729  1.00  0.00     0.031 A 
ATOM     50  C   UNL A   1      38.102  30.796  30.385  1.00  0.00     0.031 A 
ATOM     51  C   UNL A   1      44.952  31.182  30.134  1.00  0.00     0.049 A 
ATOM     52  C   UNL A   1      39.196  31.572  31.030  1.00  0.00     0.074 A 
ATOM     53  C   UNL A   1      45.534  30.164  30.863  1.00  0.00     0.029 A 
ATOM     54  N   UNL A   1      44.066  31.798  30.989  1.00  0.00    -0.354 N 
ATOM     55  N   UNL A   1      39.859  31.151  32.073  1.00  0.00    -0.248 NA
ATOM     56  C   UNL A   1      39.871  32.584  30.232  1.00  0.00     0.031 C 
ATOM     57  C   UNL A   1      44.617  29.905  31.924  1.00  0.00     0.029 A 
ATOM     58  C   UNL A   1      43.574  30.829  31.828  1.00  0.00     0.049 A 
ATOM     59  H   UNL A   1      43.828  32.754  30.997  1.00  0.00     0.167 HD
ATOM     60  C   UNL A   1      41.177  31.515  31.831  1.00  0.00     0.074 A 
ATOM     61  C   UNL A   1      41.110  32.463  30.719  1.00  0.00     0.031 C 
ATOM     62  C   UNL A   1      42.224  30.811  32.358  1.00  0.00     0.031 A 
BRANCH  49  63
ATOM     63  C   UNL A   1      45.005  32.832  28.158  1.00  0.00    -0.014 A 
ATOM     64  C   UNL A   1      46.306  33.363  28.076  1.00  0.00     0.010 A 
ATOM     65  C   UNL A   1      43.930  33.719  27.938  1.00  0.00     0.010 A 
ATOM     66  C   UNL A   1      46.515  34.725  27.820  1.00  0.00     0.020 A 
ATOM     67  C   UNL A   1      44.128  35.066  27.639  1.00  0.00     0.020 A 
ATOM     68  C   UNL A   1      45.423  35.568  27.607  1.00  0.00     0.054 A 
BRANCH  68  69
ATOM     69  S   UNL A   1      45.703  37.343  27.385  1.00  0.00     0.124 S 
ATOM     70  O   UNL A   1      46.139  37.752  28.716  1.00  0.00    -0.237 OA
ATOM     71  O   UNL A   1      46.730  37.361  26.348  1.00  0.00    -0.237 OA
ATOM     72  O   UNL A   1      44.395  37.848  26.973  1.00  0.00    -0.744 OA
ENDBRANCH  68  69
ENDBRANCH  49  63
BRANCH  50  73
ATOM     73  C   UNL A   1      36.817  31.417  29.954  1.00  0.00    -0.014 A 
ATOM     74  C   UNL A   1      35.842  31.775  30.908  1.00  0.00     0.010 A 
ATOM     75  C   UNL A   1      36.668  31.935  28.651  1.00  0.00     0.010 A 
ATOM     76  C   UNL A   1      34.821  32.691  30.597  1.00  0.00     0.020 A 
ATOM     77  C   UNL A   1      35.647  32.841  28.330  1.00  0.00     0.020 A 
ATOM     78  C   UNL A   1      34.752  33.244  29.316  1.00  0.00     0.054 A 
BRANCH  78  79
ATOM     79  S   UNL A   1      33.558  34.574  28.981  1.00  0.00     0.124 S 
ATOM     80  O   UNL A   1      32.646  33.948  28.029  1.00  0.00    -0.237 OA
ATOM     81  O   UNL A   1      33.006  34.837  30.307  1.00  0.00    -0.237 OA
ATOM     82  O   UNL A   1      34.385  35.648  28.432  1.00  0.00    -0.744 OA
ENDBRANCH  78  79
ENDBRANCH  50  73
BRANCH  62  83
ATOM     83  C   UNL A   1      41.945  29.774  33.422  1.00  0.00    -0.014 A 
ATOM     84  C   UNL A   1      41.545  28.450  33.149  1.00  0.00     0.010 A 
ATOM     85  C   UNL A   1      42.287  30.110  34.743  1.00  0.00     0.010 A 
ATOM     86  C   UNL A   1      41.482  27.494  34.178  1.00  0.00     0.020 A 
ATOM     87  C   UNL A   1      42.241  29.161  35.767  1.00  0.00     0.020 A 
ATOM     88  C   UNL A   1      41.839  27.857  35.481  1.00  0.00     0.054 A 
BRANCH  88  89
ATOM     89  S   UNL A   1      41.798  26.614  36.806  1.00  0.00     0.124 S 
ATOM     90  O   UNL A   1      40.519  26.880  37.459  1.00  0.00    -0.237 OA
ATOM     91  O   UNL A   1      41.876  25.357  36.067  1.00  0.00    -0.237 OA
ATOM     92  O   UNL A   1      42.976  26.926  37.614  1.00  0.00    -0.744 OA
ENDBRANCH  88  89
ENDBRANCH  62  83
ENDBRANCH  36  37
ENDBRANCH  28  31
ENDBRANCH  26  27
ENDBRANCH  25  26
ENDBRANCH   1  25
TORSDOF 18
ENDMDL
MODEL 2
REMARK VINA RESULT:     -11.8      2.940      9.715
REMARK SMILES COc1ccc(Cl)c2sc(N3CC(C(=O)NCCCCCCNC(=O)c4ccc(-c5c6nc(c(-c7ccc(S(=O)(=O)[O-])cc7)c7ccc([nH]7)c(-c7ccc(S(=O)(=O)[O-])cc7)c7nc(c(-c8ccc(S(=O)(=O)[O-])cc8)c8ccc5[nH]8)C=C7)C=C6)cc4)C3)nc12
REMARK SMILES IDX 20 1 19 2 18 3 17 4 16 5 14 6 15 7 13 9 11 10 12 11 86 12
REMARK SMILES IDX 10 13 3 14 4 15 88 16 5 17 8 18 87 19 6 20 9 21 7 22 2 23
REMARK SMILES IDX 1 24 21 25 22 26 23 27 24 28 25 30 26 31 27 32 85 33 28 34
REMARK SMILES IDX 84 35 29 36 30 37 31 38 78 39 32 40 83 41 77 42 79 43 33 44
REMARK SMILES IDX 82 45 76 46 75 47 34 49 64 50 45 51 63 52 46 53 49 54 62 55
REMARK SMILES IDX 80 56 47 57 48 58 61 60 81 61 50 62 35 63 36 64 44 65 37 66
REMARK SMILES IDX 43 67 38 68 39 69 40 70 41 71 42 72 65 73 66 74 74 75 67 76
REMARK SMILES IDX 73 77 68 78 69 79 70 80 71 81 72 82 51 83 52 84 60 85 53 86
REMARK SMILES IDX 59 87 54 88 55 89 56 90 57 91 58 92
REMARK H PARENT 16 8 23 29 79 48 49 59
REMARK Flexibility Score: inf
ROOT
ATOM      1  C   UNL A   1      34.527  30.086  27.221  1.00  0.00     0.002 C 
ENDROOT
BRANCH   1   2
ATOM      2  C   UNL A   1      33.632  29.030  26.554  1.00  0.00     0.002 C 
BRANCH   2   3
ATOM      3  C   UNL A   1      32.774  29.525  25.381  1.00  0.00     0.021 C 
BRANCH   3   4
ATOM      4  C   UNL A   1      31.354  28.958  25.349  1.00  0.00     0.116 C 
BRANCH   4   5
ATOM      5  N   UNL A   1      30.932  28.676  23.991  1.00  0.00    -0.356 N 
ATOM      6  C   UNL A   1      31.392  27.780  23.060  1.00  0.00     0.226 C 
ATOM      7  O   UNL A   1      30.798  27.799  21.971  1.00  0.00    -0.275 OA
ATOM      8  H   UNL A   1      30.179  29.229  23.680  1.00  0.00     0.163 HD
BRANCH   6   9
ATOM      9  C   UNL A   1      32.533  26.802  23.329  1.00  0.00     0.117 C 
ATOM     10  N   UNL A   1      32.786  24.790  23.698  1.00  0.00    -0.346 N 
ATOM     11  C   UNL A   1      32.678  25.531  22.490  1.00  0.00     0.134 C 
ATOM     12  C   UNL A   1      32.589  25.909  24.567  1.00  0.00     0.134 C 
BRANCH  10  13
ATOM     13  C   UNL A   1      33.481  23.663  23.963  1.00  0.00     0.186 A 
ATOM     14  C   UNL A   1      33.829  20.118  24.535  1.00  0.00     0.146 A 
ATOM     15  C   UNL A   1      34.958  19.325  24.804  1.00  0.00     0.050 A 
ATOM     16  C   UNL A   1      33.984  21.527  24.384  1.00  0.00     0.127 A 
ATOM     17  C   UNL A   1      36.209  19.904  24.977  1.00  0.00     0.026 A 
ATOM     18  C   UNL A   1      35.266  22.073  24.502  1.00  0.00     0.079 A 
ATOM     19  N   UNL A   1      32.974  22.464  24.142  1.00  0.00    -0.216 NA
ATOM     20  C   UNL A   1      36.379  21.281  24.832  1.00  0.00     0.060 A 
ATOM     21  S   UNL A   1      35.188  23.755  24.150  1.00  0.00    -0.095 S 
ATOM     22  Cl  UNL A   1      37.948  21.954  25.052  1.00  0.00    -0.083 Cl
BRANCH  14  23
ATOM     23  O   UNL A   1      32.593  19.554  24.315  1.00  0.00    -0.494 OA
ATOM     24  C   UNL A   1      32.408  18.285  24.938  1.00  0.00     0.278 C 
ENDBRANCH  14  23
ENDBRANCH  10  13
ENDBRANCH   6   9
ENDBRANCH   4   5
ENDBRANCH   3   4
ENDBRANCH   2   3
ENDBRANCH   1   2
BRANCH   1  25
ATOM     25  C   UNL A   1      33.839  31.396  27.628  1.00  0.00     0.021 C 
BRANCH  25  26
ATOM     26  C   UNL A   1      34.809  32.463  28.107  1.00  0.00     0.116 C 
BRANCH  26  27
ATOM     27  N   UNL A   1      34.556  32.850  29.491  1.00  0.00    -0.352 N 
ATOM     28  C   UNL A   1      35.007  32.244  30.645  1.00  0.00     0.251 C 
ATOM     29  H   UNL A   1      33.991  33.647  29.618  1.00  0.00     0.163 HD
ATOM     30  O   UNL A   1      34.439  32.433  31.708  1.00  0.00    -0.269 OA
BRANCH  28  31
ATOM     31  C   UNL A   1      36.200  31.380  30.572  1.00  0.00     0.039 A 
ATOM     32  C   UNL A   1      36.084  29.986  30.572  1.00  0.00     0.014 A 
ATOM     33  C   UNL A   1      37.454  31.990  30.554  1.00  0.00     0.014 A 
ATOM     34  C   UNL A   1      37.242  29.218  30.521  1.00  0.00     0.010 A 
ATOM     35  C   UNL A   1      38.583  31.243  30.353  1.00  0.00     0.010 A 
ATOM     36  C   UNL A   1      38.483  29.861  30.418  1.00  0.00    -0.014 A 
BRANCH  36  37
ATOM     37  C   UNL A   1      39.718  29.105  30.343  1.00  0.00     0.031 A 
ATOM     38  C   UNL A   1      40.365  28.839  31.650  1.00  0.00     0.074 A 
ATOM     39  C   UNL A   1      40.114  28.494  29.207  1.00  0.00     0.049 A 
ATOM     40  N   UNL A   1      41.453  29.360  32.107  1.00  0.00    -0.248 NA
ATOM     41  C   UNL A   1      39.645  28.001  32.624  1.00  0.00     0.031 C 
ATOM     42  C   UNL A   1      39.397  28.363  27.932  1.00  0.00     0.029 A 
ATOM     43  N   UNL A   1      41.219  27.740  29.001  1.00  0.00    -0.354 N 
ATOM     44  C   UNL A   1      41.673  28.758  33.340  1.00  0.00     0.074 A 
ATOM     45  C   UNL A   1      40.448  28.083  33.687  1.00  0.00     0.031 C 
ATOM     46  C   UNL A   1      39.972  27.387  27.191  1.00  0.00     0.029 A 
ATOM     47  C   UNL A   1      41.183  26.949  27.861  1.00  0.00     0.049 A 
ATOM     48  H   UNL A   1      41.990  27.752  29.614  1.00  0.00     0.167 HD
ATOM     49  C   UNL A   1      42.920  28.657  33.878  1.00  0.00     0.031 A 
ATOM     50  C   UNL A   1      42.068  25.968  27.544  1.00  0.00     0.031 A 
ATOM     51  C   UNL A   1      43.879  29.462  33.169  1.00  0.00     0.049 A 
ATOM     52  C   UNL A   1      43.301  26.252  28.327  1.00  0.00     0.074 A 
ATOM     53  C   UNL A   1      43.998  30.811  32.899  1.00  0.00     0.029 A 
ATOM     54  N   UNL A   1      44.667  28.822  32.238  1.00  0.00    -0.354 N 
ATOM     55  N   UNL A   1      44.030  27.322  28.159  1.00  0.00    -0.248 NA
ATOM     56  C   UNL A   1      43.453  25.591  29.615  1.00  0.00     0.031 C 
ATOM     57  C   UNL A   1      44.424  30.875  31.540  1.00  0.00     0.029 A 
ATOM     58  C   UNL A   1      44.619  29.568  31.086  1.00  0.00     0.049 A 
ATOM     59  H   UNL A   1      45.169  27.985  32.371  1.00  0.00     0.167 HD
ATOM     60  C   UNL A   1      44.399  27.709  29.441  1.00  0.00     0.074 A 
ATOM     61  C   UNL A   1      44.079  26.561  30.289  1.00  0.00     0.031 C 
ATOM     62  C   UNL A   1      44.665  29.014  29.747  1.00  0.00     0.031 A 
BRANCH  49  63
ATOM     63  C   UNL A   1      43.336  27.545  34.800  1.00  0.00    -0.014 A 
ATOM     64  C   UNL A   1      43.935  27.859  36.035  1.00  0.00     0.010 A 
ATOM     65  C   UNL A   1      43.390  26.200  34.378  1.00  0.00     0.010 A 
ATOM     66  C   UNL A   1      44.587  26.874  36.791  1.00  0.00     0.020 A 
ATOM     67  C   UNL A   1      43.998  25.205  35.144  1.00  0.00     0.020 A 
ATOM     68  C   UNL A   1      44.617  25.555  36.337  1.00  0.00     0.054 A 
BRANCH  68  69
ATOM     69  S   UNL A   1      45.553  24.317  37.269  1.00  0.00     0.124 S 
ATOM     70  O   UNL A   1      46.932  24.691  36.972  1.00  0.00    -0.237 OA
ATOM     71  O   UNL A   1      45.109  24.567  38.637  1.00  0.00    -0.237 OA
ATOM     72  O   UNL A   1      45.112  23.048  36.695  1.00  0.00    -0.744 OA
ENDBRANCH  68  69
ENDBRANCH  49  63
BRANCH  50  73
ATOM     73  C   UNL A   1      41.765  24.625  26.973  1.00  0.00    -0.014 A 
ATOM     74  C   UNL A   1      42.641  24.031  26.041  1.00  0.00     0.010 A 
ATOM     75  C   UNL A   1      40.786  23.796  27.560  1.00  0.00     0.010 A 
ATOM     76  C   UNL A   1      42.603  22.648  25.785  1.00  0.00     0.020 A 
ATOM     77  C   UNL A   1      40.736  22.418  27.301  1.00  0.00     0.020 A 
ATOM     78  C   UNL A   1      41.671  21.845  26.445  1.00  0.00     0.054 A 
BRANCH  78  79
ATOM     79  S   UNL A   1      41.760  20.038  26.263  1.00  0.00     0.124 S 
ATOM     80  O   UNL A   1      42.777  19.874  25.229  1.00  0.00    -0.237 OA
ATOM     81  O   UNL A   1      42.146  19.611  27.605  1.00  0.00    -0.237 OA
ATOM     82  O   UNL A   1      40.404  19.665  25.863  1.00  0.00    -0.744 OA
ENDBRANCH  78  79
ENDBRANCH  50  73
BRANCH  62  83
ATOM     83  C   UNL A   1      44.806  30.014  28.622  1.00  0.00    -0.014 A 
ATOM     84  C   UNL A   1      43.761  30.369  27.744  1.00  0.00     0.010 A 
ATOM     85  C   UNL A   1      45.997  30.759  28.578  1.00  0.00     0.010 A 
ATOM     86  C   UNL A   1      43.914  31.436  26.842  1.00  0.00     0.020 A 
ATOM     87  C   UNL A   1      46.149  31.830  27.695  1.00  0.00     0.020 A 
ATOM     88  C   UNL A   1      45.107  32.165  26.831  1.00  0.00     0.054 A 
BRANCH  88  89
ATOM     89  S   UNL A   1      45.294  33.571  25.695  1.00  0.00     0.124 S 
ATOM     90  O   UNL A   1      46.744  33.708  25.585  1.00  0.00    -0.237 OA
ATOM     91  O   UNL A   1      44.615  33.100  24.491  1.00  0.00    -0.237 OA
ATOM     92  O   UNL A   1      44.624  34.671  26.387  1.00  0.00    -0.744 OA
ENDBRANCH  88  89
ENDBRANCH  62  83
ENDBRANCH  36  37
ENDBRANCH  28  31
ENDBRANCH  26  27
ENDBRANCH  25  26
ENDBRANCH   1  25
TORSDOF 18
ENDMDL
MODEL 3
REMARK VINA RESULT:     -11.2      2.972      9.558
REMARK SMILES COc1ccc(Cl)c2sc(N3CC(C(=O)NCCCCCCNC(=O)c4ccc(-c5c6nc(c(-c7ccc(S(=O)(=O)[O-])cc7)c7ccc([nH]7)c(-c7ccc(S(=O)(=O)[O-])cc7)c7nc(c(-c8ccc(S(=O)(=O)[O-])cc8)c8ccc5[nH]8)C=C7)C=C6)cc4)C3)nc12
REMARK SMILES IDX 20 1 19 2 18 3 17 4 16 5 14 6 15 7 13 9 11 10 12 11 86 12
REMARK SMILES IDX 10 13 3 14 4 15 88 16 5 17 8 18 87 19 6 20 9 21 7 22 2 23
REMARK SMILES IDX 1 24 21 25 22 26 23 27 24 28 25 30 26 31 27 32 85 33 28 34
REMARK SMILES IDX 84 35 29 36 30 37 31 38 78 39 32 40 83 41 77 42 79 43 33 44
REMARK SMILES IDX 82 45 76 46 75 47 34 49 64 50 45 51 63 52 46 53 49 54 62 55
REMARK SMILES IDX 80 56 47 57 48 58 61 60 81 61 50 62 35 63 36 64 44 65 37 66
REMARK SMILES IDX 43 67 38 68 39 69 40 70 41 71 42 72 65 73 66 74 74 75 67 76
REMARK SMILES IDX 73 77 68 78 69 79 70 80 71 81 72 82 51 83 52 84 60 85 53 86
REMARK SMILES IDX 59 87 54 88 55 89 56 90 57 91 58 92
REMARK H PARENT 16 8 23 29 79 48 49 59
REMARK Flexibility Score: inf
ROOT
ATOM      1  C   UNL A   1      33.284  30.959  27.239  1.00  0.00     0.002 C 
ENDROOT
BRANCH   1   2
ATOM      2  C   UNL A   1      31.932  30.560  26.629  1.00  0.00     0.002 C 
BRANCH   2   3
ATOM      3  C   UNL A   1      31.908  29.220  25.879  1.00  0.00     0.021 C 
BRANCH   3   4
ATOM      4  C   UNL A   1      32.536  29.262  24.484  1.00  0.00     0.116 C 
BRANCH   4   5
ATOM      5  N   UNL A   1      31.522  29.378  23.455  1.00  0.00    -0.356 N 
ATOM      6  C   UNL A   1      30.936  28.441  22.642  1.00  0.00     0.226 C 
ATOM      7  O   UNL A   1      30.089  28.885  21.851  1.00  0.00    -0.275 OA
ATOM      8  H   UNL A   1      31.195  30.295  23.313  1.00  0.00     0.163 HD
BRANCH   6   9
ATOM      9  C   UNL A   1      31.266  26.952  22.704  1.00  0.00     0.117 C 
ATOM     10  N   UNL A   1      32.644  25.714  23.607  1.00  0.00    -0.346 N 
ATOM     11  C   UNL A   1      31.403  26.243  24.052  1.00  0.00     0.134 C 
ATOM     12  C   UNL A   1      32.641  26.390  22.347  1.00  0.00     0.134 C 
BRANCH  10  13
ATOM     13  C   UNL A   1      33.238  24.537  23.901  1.00  0.00     0.186 A 
ATOM     14  C   UNL A   1      36.061  22.418  24.648  1.00  0.00     0.146 A 
ATOM     15  C   UNL A   1      36.146  21.043  24.923  1.00  0.00     0.050 A 
ATOM     16  C   UNL A   1      34.793  22.995  24.347  1.00  0.00     0.127 A 
ATOM     17  C   UNL A   1      35.019  20.234  24.854  1.00  0.00     0.026 A 
ATOM     18  C   UNL A   1      33.667  22.165  24.347  1.00  0.00     0.079 A 
ATOM     19  N   UNL A   1      34.530  24.331  24.026  1.00  0.00    -0.216 NA
ATOM     20  C   UNL A   1      33.770  20.781  24.562  1.00  0.00     0.060 A 
ATOM     21  S   UNL A   1      32.266  23.130  24.085  1.00  0.00    -0.095 S 
ATOM     22  Cl  UNL A   1      32.401  19.739  24.490  1.00  0.00    -0.083 Cl
BRANCH  14  23
ATOM     23  O   UNL A   1      37.160  23.241  24.759  1.00  0.00    -0.494 OA
ATOM     24  C   UNL A   1      37.335  23.813  26.052  1.00  0.00     0.278 C 
ENDBRANCH  14  23
ENDBRANCH  10  13
ENDBRANCH   6   9
ENDBRANCH   4   5
ENDBRANCH   3   4
ENDBRANCH   2   3
ENDBRANCH   1   2
BRANCH   1  25
ATOM     25  C   UNL A   1      33.385  32.393  27.779  1.00  0.00     0.021 C 
BRANCH  25  26
ATOM     26  C   UNL A   1      34.654  32.651  28.573  1.00  0.00     0.116 C 
BRANCH  26  27
ATOM     27  N   UNL A   1      34.378  32.874  29.989  1.00  0.00    -0.352 N 
ATOM     28  C   UNL A   1      34.942  32.248  31.081  1.00  0.00     0.251 C 
ATOM     29  H   UNL A   1      33.701  33.561  30.191  1.00  0.00     0.163 HD
ATOM     30  O   UNL A   1      34.377  32.256  32.162  1.00  0.00    -0.269 OA
BRANCH  28  31
ATOM     31  C   UNL A   1      36.251  31.587  30.920  1.00  0.00     0.039 A 
ATOM     32  C   UNL A   1      37.428  32.335  30.801  1.00  0.00     0.014 A 
ATOM     33  C   UNL A   1      36.281  30.195  30.841  1.00  0.00     0.014 A 
ATOM     34  C   UNL A   1      38.633  31.663  30.631  1.00  0.00     0.010 A 
ATOM     35  C   UNL A   1      37.477  29.530  30.825  1.00  0.00     0.010 A 
ATOM     36  C   UNL A   1      38.640  30.262  30.640  1.00  0.00    -0.014 A 
BRANCH  36  37
ATOM     37  C   UNL A   1      39.873  29.514  30.486  1.00  0.00     0.031 A 
ATOM     38  C   UNL A   1      40.608  29.262  31.749  1.00  0.00     0.074 A 
ATOM     39  C   UNL A   1      40.196  28.899  29.330  1.00  0.00     0.049 A 
ATOM     40  N   UNL A   1      41.720  29.793  32.129  1.00  0.00    -0.248 NA
ATOM     41  C   UNL A   1      39.962  28.425  32.774  1.00  0.00     0.031 C 
ATOM     42  C   UNL A   1      39.396  28.754  28.107  1.00  0.00     0.029 A 
ATOM     43  N   UNL A   1      41.291  28.151  29.056  1.00  0.00    -0.354 N 
ATOM     44  C   UNL A   1      42.027  29.201  33.348  1.00  0.00     0.074 A 
ATOM     45  C   UNL A   1      40.833  28.519  33.780  1.00  0.00     0.031 C 
ATOM     46  C   UNL A   1      39.928  27.778  27.335  1.00  0.00     0.029 A 
ATOM     47  C   UNL A   1      41.184  27.352  27.925  1.00  0.00     0.049 A 
ATOM     48  H   UNL A   1      42.101  28.172  29.615  1.00  0.00     0.167 HD
ATOM     49  C   UNL A   1      43.308  29.112  33.801  1.00  0.00     0.031 A 
ATOM     50  C   UNL A   1      42.053  26.376  27.555  1.00  0.00     0.031 A 
ATOM     51  C   UNL A   1      44.212  29.919  33.025  1.00  0.00     0.049 A 
ATOM     52  C   UNL A   1      43.334  26.673  28.252  1.00  0.00     0.074 A 
ATOM     53  C   UNL A   1      44.301  31.267  32.740  1.00  0.00     0.029 A 
ATOM     54  N   UNL A   1      44.940  29.278  32.047  1.00  0.00    -0.354 N 
ATOM     55  N   UNL A   1      44.042  27.747  28.029  1.00  0.00    -0.248 NA
ATOM     56  C   UNL A   1      43.577  26.023  29.531  1.00  0.00     0.031 C 
ATOM     57  C   UNL A   1      44.635  31.326  31.355  1.00  0.00     0.029 A 
ATOM     58  C   UNL A   1      44.809  30.017  30.897  1.00  0.00     0.049 A 
ATOM     59  H   UNL A   1      45.456  28.446  32.151  1.00  0.00     0.167 HD
ATOM     60  C   UNL A   1      44.493  28.146  29.281  1.00  0.00     0.074 A 
ATOM     61  C   UNL A   1      44.240  27.001  30.156  1.00  0.00     0.031 C 
ATOM     62  C   UNL A   1      44.770  29.454  29.561  1.00  0.00     0.031 A 
BRANCH  49  63
ATOM     63  C   UNL A   1      43.794  28.009  34.700  1.00  0.00    -0.014 A 
ATOM     64  C   UNL A   1      44.815  28.275  35.632  1.00  0.00     0.010 A 
ATOM     65  C   UNL A   1      43.455  26.657  34.480  1.00  0.00     0.010 A 
ATOM     66  C   UNL A   1      45.487  27.232  36.284  1.00  0.00     0.020 A 
ATOM     67  C   UNL A   1      44.087  25.614  35.156  1.00  0.00     0.020 A 
ATOM     68  C   UNL A   1      45.120  25.908  36.037  1.00  0.00     0.054 A 
BRANCH  68  69
ATOM     69  S   UNL A   1      46.067  24.568  36.803  1.00  0.00     0.124 S 
ATOM     70  O   UNL A   1      46.520  25.186  38.045  1.00  0.00    -0.237 OA
ATOM     71  O   UNL A   1      45.057  23.524  36.945  1.00  0.00    -0.237 OA
ATOM     72  O   UNL A   1      47.117  24.287  35.826  1.00  0.00    -0.744 OA
ENDBRANCH  68  69
ENDBRANCH  49  63
BRANCH  50  73
ATOM     73  C   UNL A   1      41.723  25.027  27.014  1.00  0.00    -0.014 A 
ATOM     74  C   UNL A   1      42.573  24.406  26.077  1.00  0.00     0.010 A 
ATOM     75  C   UNL A   1      40.746  24.221  27.633  1.00  0.00     0.010 A 
ATOM     76  C   UNL A   1      42.514  23.019  25.845  1.00  0.00     0.020 A 
ATOM     77  C   UNL A   1      40.673  22.840  27.401  1.00  0.00     0.020 A 
ATOM     78  C   UNL A   1      41.584  22.240  26.537  1.00  0.00     0.054 A 
BRANCH  78  79
ATOM     79  S   UNL A   1      41.648  20.429  26.386  1.00  0.00     0.124 S 
ATOM     80  O   UNL A   1      42.623  20.235  25.317  1.00  0.00    -0.237 OA
ATOM     81  O   UNL A   1      42.081  20.022  27.719  1.00  0.00    -0.237 OA
ATOM     82  O   UNL A   1      40.273  20.064  26.045  1.00  0.00    -0.744 OA
ENDBRANCH  78  79
ENDBRANCH  50  73
BRANCH  62  83
ATOM     83  C   UNL A   1      44.827  30.449  28.423  1.00  0.00    -0.014 A 
ATOM     84  C   UNL A   1      43.699  31.106  27.890  1.00  0.00     0.010 A 
ATOM     85  C   UNL A   1      46.103  30.868  28.008  1.00  0.00     0.010 A 
ATOM     86  C   UNL A   1      43.851  32.149  26.960  1.00  0.00     0.020 A 
ATOM     87  C   UNL A   1      46.261  31.913  27.096  1.00  0.00     0.020 A 
ATOM     88  C   UNL A   1      45.135  32.551  26.576  1.00  0.00     0.054 A 
BRANCH  88  89
ATOM     89  S   UNL A   1      45.336  33.925  25.404  1.00  0.00     0.124 S 
ATOM     90  O   UNL A   1      44.620  35.016  26.059  1.00  0.00    -0.237 OA
ATOM     91  O   UNL A   1      46.787  34.077  25.338  1.00  0.00    -0.237 OA
ATOM     92  O   UNL A   1      44.714  33.431  24.176  1.00  0.00    -0.744 OA
ENDBRANCH  88  89
ENDBRANCH  62  83
ENDBRANCH  36  37
ENDBRANCH  28  31
ENDBRANCH  26  27
ENDBRANCH  25  26
ENDBRANCH   1  25
TORSDOF 18
ENDMDL
