MODEL 1
REMARK VINA RESULT:     -10.4      0.000      0.000
REMARK SMILES Cc1ccc(S(=O)(=O)N(c2ccccc2)[C@H](C)C(=O)NCCCCCCNC(=O)c2ccc(-c3c4nc(c(-c5ccc(S(=O)(=O)[O-])cc5)c5ccc([nH]5)c(-c5ccc(S(=O)(=O)[O-])cc5)c5nc(c(-c6ccc(S(=O)(=O)[O-])cc6)c6ccc3[nH]6)C=C5)C=C4)cc2)cc1
REMARK SMILES IDX 23 1 22 2 21 3 20 4 18 5 19 6 16 8 17 9 9 10 6 11 7 12 8 13
REMARK SMILES IDX 5 14 1 15 2 16 3 17 91 18 4 19 90 20 10 21 11 22 15 23 12 24
REMARK SMILES IDX 14 25 13 26 24 27 25 28 26 29 27 30 28 31 29 33 30 34 31 35
REMARK SMILES IDX 89 36 32 37 88 38 33 39 34 40 35 41 82 42 36 43 87 44 81 45
REMARK SMILES IDX 83 46 37 47 86 48 80 49 79 50 38 52 68 53 49 54 67 55 50 56
REMARK SMILES IDX 53 57 66 58 84 59 51 60 52 61 65 63 85 64 54 65 39 66 40 67
REMARK SMILES IDX 48 68 41 69 47 70 42 71 43 72 44 73 45 74 46 75 69 76 70 77
REMARK SMILES IDX 78 78 71 79 77 80 72 81 73 82 74 83 75 84 76 85 55 86 56 87
REMARK SMILES IDX 64 88 57 89 63 90 58 91 59 92 60 93 61 94 62 95
REMARK H PARENT 20 7 27 32 83 51 53 62
REMARK Flexibility Score: inf
ROOT
ATOM      1  C   UNL A   1      37.115  23.469  25.433  1.00  0.00     0.002 C 
ENDROOT
BRANCH   1   2
ATOM      2  C   UNL A   1      35.711  23.954  25.039  1.00  0.00     0.021 C 
BRANCH   2   3
ATOM      3  C   UNL A   1      34.572  22.945  25.186  1.00  0.00     0.116 C 
BRANCH   3   4
ATOM      4  N   UNL A   1      33.894  22.952  26.463  1.00  0.00    -0.354 N 
ATOM      5  C   UNL A   1      32.578  23.192  26.747  1.00  0.00     0.243 C 
ATOM      6  O   UNL A   1      32.183  22.798  27.854  1.00  0.00    -0.273 OA
ATOM      7  H   UNL A   1      34.462  22.755  27.243  1.00  0.00     0.163 HD
BRANCH   5   8
ATOM      8  C   UNL A   1      31.610  23.949  25.819  1.00  0.00     0.185 C 
ATOM      9  C   UNL A   1      30.212  24.134  26.412  1.00  0.00     0.043 C 
BRANCH   8  10
ATOM     10  N   UNL A   1      32.161  25.162  25.108  1.00  0.00    -0.254 N 
BRANCH  10  11
ATOM     11  S   UNL A   1      31.722  25.254  23.452  1.00  0.00     0.265 S 
ATOM     12  O   UNL A   1      31.006  24.026  23.150  1.00  0.00    -0.201 OA
ATOM     13  O   UNL A   1      32.911  25.595  22.699  1.00  0.00    -0.201 OA
BRANCH  11  14
ATOM     14  C   UNL A   1      30.552  26.575  23.170  1.00  0.00     0.088 A 
ATOM     15  C   UNL A   1      27.741  29.837  23.062  1.00  0.00     0.044 C 
ATOM     16  C   UNL A   1      28.702  28.685  23.064  1.00  0.00    -0.051 A 
ATOM     17  C   UNL A   1      28.323  27.443  23.582  1.00  0.00     0.005 A 
ATOM     18  C   UNL A   1      29.983  28.830  22.515  1.00  0.00     0.005 A 
ATOM     19  C   UNL A   1      29.248  26.400  23.655  1.00  0.00     0.022 A 
ATOM     20  C   UNL A   1      30.891  27.764  22.531  1.00  0.00     0.022 A 
ENDBRANCH  11  14
ENDBRANCH  10  11
BRANCH  10  21
ATOM     21  C   UNL A   1      32.365  26.373  25.832  1.00  0.00     0.053 A 
ATOM     22  C   UNL A   1      33.666  26.891  25.836  1.00  0.00     0.027 A 
ATOM     23  C   UNL A   1      31.344  27.054  26.491  1.00  0.00     0.027 A 
ATOM     24  C   UNL A   1      33.945  28.096  26.476  1.00  0.00     0.002 A 
ATOM     25  C   UNL A   1      31.630  28.252  27.151  1.00  0.00     0.002 A 
ATOM     26  C   UNL A   1      32.926  28.773  27.141  1.00  0.00     0.000 A 
ENDBRANCH  10  21
ENDBRANCH   8  10
ENDBRANCH   5   8
ENDBRANCH   3   4
ENDBRANCH   2   3
ENDBRANCH   1   2
BRANCH   1  27
ATOM     27  C   UNL A   1      37.797  24.116  26.652  1.00  0.00     0.002 C 
BRANCH  27  28
ATOM     28  C   UNL A   1      39.175  24.743  26.438  1.00  0.00     0.021 C 
BRANCH  28  29
ATOM     29  C   UNL A   1      40.331  24.028  27.125  1.00  0.00     0.116 C 
BRANCH  29  30
ATOM     30  N   UNL A   1      41.026  23.095  26.236  1.00  0.00    -0.352 N 
ATOM     31  C   UNL A   1      42.383  23.023  25.963  1.00  0.00     0.251 C 
ATOM     32  H   UNL A   1      40.459  22.438  25.773  1.00  0.00     0.163 HD
ATOM     33  O   UNL A   1      42.875  22.309  25.107  1.00  0.00    -0.269 OA
BRANCH  31  34
ATOM     34  C   UNL A   1      43.257  23.785  26.873  1.00  0.00     0.039 A 
ATOM     35  C   UNL A   1      43.090  23.526  28.238  1.00  0.00     0.014 A 
ATOM     36  C   UNL A   1      43.844  24.958  26.406  1.00  0.00     0.014 A 
ATOM     37  C   UNL A   1      43.295  24.559  29.140  1.00  0.00     0.010 A 
ATOM     38  C   UNL A   1      43.963  26.009  27.294  1.00  0.00     0.010 A 
ATOM     39  C   UNL A   1      43.604  25.823  28.637  1.00  0.00    -0.014 A 
BRANCH  39  40
ATOM     40  C   UNL A   1      43.454  27.027  29.442  1.00  0.00     0.031 A 
ATOM     41  C   UNL A   1      42.356  27.960  29.131  1.00  0.00     0.074 A 
ATOM     42  C   UNL A   1      44.341  27.300  30.425  1.00  0.00     0.049 A 
ATOM     43  N   UNL A   1      42.359  29.221  29.402  1.00  0.00    -0.248 NA
ATOM     44  C   UNL A   1      41.193  27.534  28.357  1.00  0.00     0.031 C 
ATOM     45  C   UNL A   1      44.244  28.357  31.426  1.00  0.00     0.029 A 
ATOM     46  N   UNL A   1      45.653  26.829  30.553  1.00  0.00    -0.354 N 
ATOM     47  C   UNL A   1      41.101  29.701  29.116  1.00  0.00     0.074 A 
ATOM     48  C   UNL A   1      40.476  28.659  28.339  1.00  0.00     0.031 C 
ATOM     49  C   UNL A   1      45.485  28.676  31.827  1.00  0.00     0.029 A 
ATOM     50  C   UNL A   1      46.415  27.918  31.003  1.00  0.00     0.049 A 
ATOM     51  H   UNL A   1      45.976  25.918  30.364  1.00  0.00     0.167 HD
ATOM     52  C   UNL A   1      40.670  30.850  29.709  1.00  0.00     0.031 A 
ATOM     53  C   UNL A   1      47.460  28.449  30.306  1.00  0.00     0.031 A 
ATOM     54  C   UNL A   1      41.785  31.570  30.328  1.00  0.00     0.049 A 
ATOM     55  C   UNL A   1      47.250  29.909  29.957  1.00  0.00     0.074 A 
ATOM     56  C   UNL A   1      42.230  31.699  31.633  1.00  0.00     0.029 A 
ATOM     57  N   UNL A   1      42.821  32.030  29.516  1.00  0.00    -0.354 N 
ATOM     58  N   UNL A   1      46.097  30.518  30.033  1.00  0.00    -0.248 NA
ATOM     59  C   UNL A   1      48.310  30.786  29.466  1.00  0.00     0.031 C 
ATOM     60  C   UNL A   1      43.596  32.102  31.589  1.00  0.00     0.029 A 
ATOM     61  C   UNL A   1      43.958  32.272  30.263  1.00  0.00     0.049 A 
ATOM     62  H   UNL A   1      42.751  32.166  28.543  1.00  0.00     0.167 HD
ATOM     63  C   UNL A   1      46.236  31.821  29.633  1.00  0.00     0.074 A 
ATOM     64  C   UNL A   1      47.644  31.943  29.294  1.00  0.00     0.031 C 
ATOM     65  C   UNL A   1      45.189  32.699  29.607  1.00  0.00     0.031 A 
BRANCH  52  66
ATOM     66  C   UNL A   1      39.200  31.126  29.988  1.00  0.00    -0.014 A 
ATOM     67  C   UNL A   1      38.311  31.367  28.919  1.00  0.00     0.010 A 
ATOM     68  C   UNL A   1      38.652  31.292  31.276  1.00  0.00     0.010 A 
ATOM     69  C   UNL A   1      36.997  31.832  29.129  1.00  0.00     0.020 A 
ATOM     70  C   UNL A   1      37.355  31.768  31.505  1.00  0.00     0.020 A 
ATOM     71  C   UNL A   1      36.536  32.056  30.427  1.00  0.00     0.054 A 
BRANCH  71  72
ATOM     72  S   UNL A   1      34.886  32.748  30.702  1.00  0.00     0.124 S 
ATOM     73  O   UNL A   1      35.153  34.182  30.771  1.00  0.00    -0.237 OA
ATOM     74  O   UNL A   1      34.153  32.294  29.525  1.00  0.00    -0.237 OA
ATOM     75  O   UNL A   1      34.462  32.143  31.965  1.00  0.00    -0.744 OA
ENDBRANCH  71  72
ENDBRANCH  52  66
BRANCH  53  76
ATOM     76  C   UNL A   1      48.256  27.470  29.518  1.00  0.00    -0.014 A 
ATOM     77  C   UNL A   1      47.980  27.370  28.137  1.00  0.00     0.010 A 
ATOM     78  C   UNL A   1      49.465  26.941  30.001  1.00  0.00     0.010 A 
ATOM     79  C   UNL A   1      48.938  26.883  27.244  1.00  0.00     0.020 A 
ATOM     80  C   UNL A   1      50.432  26.453  29.106  1.00  0.00     0.020 A 
ATOM     81  C   UNL A   1      50.181  26.480  27.730  1.00  0.00     0.054 A 
BRANCH  81  82
ATOM     82  S   UNL A   1      51.492  26.101  26.526  1.00  0.00     0.124 S 
ATOM     83  O   UNL A   1      51.491  24.642  26.511  1.00  0.00    -0.237 OA
ATOM     84  O   UNL A   1      50.984  26.740  25.311  1.00  0.00    -0.237 OA
ATOM     85  O   UNL A   1      52.673  26.722  27.113  1.00  0.00    -0.744 OA
ENDBRANCH  81  82
ENDBRANCH  53  76
BRANCH  65  86
ATOM     86  C   UNL A   1      45.238  34.087  29.017  1.00  0.00    -0.014 A 
ATOM     87  C   UNL A   1      44.468  34.498  27.916  1.00  0.00     0.010 A 
ATOM     88  C   UNL A   1      45.989  35.083  29.685  1.00  0.00     0.010 A 
ATOM     89  C   UNL A   1      44.491  35.828  27.469  1.00  0.00     0.020 A 
ATOM     90  C   UNL A   1      45.985  36.418  29.274  1.00  0.00     0.020 A 
ATOM     91  C   UNL A   1      45.251  36.779  28.151  1.00  0.00     0.054 A 
BRANCH  91  92
ATOM     92  S   UNL A   1      45.213  38.513  27.626  1.00  0.00     0.124 S 
ATOM     93  O   UNL A   1      45.969  39.166  28.691  1.00  0.00    -0.237 OA
ATOM     94  O   UNL A   1      45.872  38.478  26.322  1.00  0.00    -0.237 OA
ATOM     95  O   UNL A   1      43.787  38.823  27.585  1.00  0.00    -0.744 OA
ENDBRANCH  91  92
ENDBRANCH  65  86
ENDBRANCH  39  40
ENDBRANCH  31  34
ENDBRANCH  29  30
ENDBRANCH  28  29
ENDBRANCH  27  28
ENDBRANCH   1  27
TORSDOF 20
ENDMDL
MODEL 2
REMARK VINA RESULT:     -10.3      4.210     10.213
REMARK SMILES Cc1ccc(S(=O)(=O)N(c2ccccc2)[C@H](C)C(=O)NCCCCCCNC(=O)c2ccc(-c3c4nc(c(-c5ccc(S(=O)(=O)[O-])cc5)c5ccc([nH]5)c(-c5ccc(S(=O)(=O)[O-])cc5)c5nc(c(-c6ccc(S(=O)(=O)[O-])cc6)c6ccc3[nH]6)C=C5)C=C4)cc2)cc1
REMARK SMILES IDX 23 1 22 2 21 3 20 4 18 5 19 6 16 8 17 9 9 10 6 11 7 12 8 13
REMARK SMILES IDX 5 14 1 15 2 16 3 17 91 18 4 19 90 20 10 21 11 22 15 23 12 24
REMARK SMILES IDX 14 25 13 26 24 27 25 28 26 29 27 30 28 31 29 33 30 34 31 35
REMARK SMILES IDX 89 36 32 37 88 38 33 39 34 40 35 41 82 42 36 43 87 44 81 45
REMARK SMILES IDX 83 46 37 47 86 48 80 49 79 50 38 52 68 53 49 54 67 55 50 56
REMARK SMILES IDX 53 57 66 58 84 59 51 60 52 61 65 63 85 64 54 65 39 66 40 67
REMARK SMILES IDX 48 68 41 69 47 70 42 71 43 72 44 73 45 74 46 75 69 76 70 77
REMARK SMILES IDX 78 78 71 79 77 80 72 81 73 82 74 83 75 84 76 85 55 86 56 87
REMARK SMILES IDX 64 88 57 89 63 90 58 91 59 92 60 93 61 94 62 95
REMARK H PARENT 20 7 27 32 83 51 53 62
REMARK Flexibility Score: inf
ROOT
ATOM      1  C   UNL A   1      34.025  30.084  26.840  1.00  0.00     0.002 C 
ENDROOT
BRANCH   1   2
ATOM      2  C   UNL A   1      32.642  30.734  26.685  1.00  0.00     0.021 C 
BRANCH   2   3
ATOM      3  C   UNL A   1      31.682  30.075  25.695  1.00  0.00     0.116 C 
BRANCH   3   4
ATOM      4  N   UNL A   1      31.396  28.680  25.939  1.00  0.00    -0.354 N 
ATOM      5  C   UNL A   1      31.965  27.566  25.386  1.00  0.00     0.243 C 
ATOM      6  O   UNL A   1      31.795  26.507  26.008  1.00  0.00    -0.273 OA
ATOM      7  H   UNL A   1      30.687  28.504  26.600  1.00  0.00     0.163 HD
BRANCH   5   8
ATOM      8  C   UNL A   1      32.731  27.550  24.051  1.00  0.00     0.185 C 
ATOM      9  C   UNL A   1      33.948  26.623  24.053  1.00  0.00     0.043 C 
BRANCH   8  10
ATOM     10  N   UNL A   1      31.899  27.496  22.792  1.00  0.00    -0.254 N 
BRANCH  10  11
ATOM     11  S   UNL A   1      32.259  26.160  21.778  1.00  0.00     0.265 S 
ATOM     12  O   UNL A   1      33.673  26.260  21.456  1.00  0.00    -0.201 OA
ATOM     13  O   UNL A   1      31.280  26.139  20.712  1.00  0.00    -0.201 OA
BRANCH  11  14
ATOM     14  C   UNL A   1      32.075  24.616  22.659  1.00  0.00     0.088 A 
ATOM     15  C   UNL A   1      32.087  21.065  25.098  1.00  0.00     0.044 C 
ATOM     16  C   UNL A   1      32.066  22.280  24.217  1.00  0.00    -0.051 A 
ATOM     17  C   UNL A   1      33.072  22.489  23.269  1.00  0.00     0.005 A 
ATOM     18  C   UNL A   1      31.016  23.203  24.309  1.00  0.00     0.005 A 
ATOM     19  C   UNL A   1      33.090  23.660  22.510  1.00  0.00     0.022 A 
ATOM     20  C   UNL A   1      31.000  24.348  23.503  1.00  0.00     0.022 A 
ENDBRANCH  11  14
ENDBRANCH  10  11
BRANCH  10  21
ATOM     21  C   UNL A   1      30.569  28.011  22.802  1.00  0.00     0.053 A 
ATOM     22  C   UNL A   1      30.385  29.288  22.256  1.00  0.00     0.027 A 
ATOM     23  C   UNL A   1      29.475  27.301  23.294  1.00  0.00     0.027 A 
ATOM     24  C   UNL A   1      29.112  29.846  22.180  1.00  0.00     0.002 A 
ATOM     25  C   UNL A   1      28.201  27.873  23.235  1.00  0.00     0.002 A 
ATOM     26  C   UNL A   1      28.020  29.140  22.677  1.00  0.00     0.000 A 
ENDBRANCH  10  21
ENDBRANCH   8  10
ENDBRANCH   5   8
ENDBRANCH   3   4
ENDBRANCH   2   3
ENDBRANCH   1   2
BRANCH   1  27
ATOM     27  C   UNL A   1      34.827  30.368  28.123  1.00  0.00     0.002 C 
BRANCH  27  28
ATOM     28  C   UNL A   1      34.507  31.656  28.883  1.00  0.00     0.021 C 
BRANCH  28  29
ATOM     29  C   UNL A   1      35.476  32.807  28.654  1.00  0.00     0.116 C 
BRANCH  29  30
ATOM     30  N   UNL A   1      36.041  33.327  29.901  1.00  0.00    -0.352 N 
ATOM     31  C   UNL A   1      36.901  32.690  30.782  1.00  0.00     0.251 C 
ATOM     32  H   UNL A   1      35.777  34.243  30.145  1.00  0.00     0.163 HD
ATOM     33  O   UNL A   1      37.221  33.133  31.871  1.00  0.00    -0.269 OA
BRANCH  31  34
ATOM     34  C   UNL A   1      37.536  31.460  30.276  1.00  0.00     0.039 A 
ATOM     35  C   UNL A   1      37.671  30.418  31.200  1.00  0.00     0.014 A 
ATOM     36  C   UNL A   1      38.318  31.538  29.125  1.00  0.00     0.014 A 
ATOM     37  C   UNL A   1      38.766  29.574  31.094  1.00  0.00     0.010 A 
ATOM     38  C   UNL A   1      39.452  30.754  29.071  1.00  0.00     0.010 A 
ATOM     39  C   UNL A   1      39.711  29.839  30.102  1.00  0.00    -0.014 A 
BRANCH  39  40
ATOM     40  C   UNL A   1      41.053  29.277  30.151  1.00  0.00     0.031 A 
ATOM     41  C   UNL A   1      41.269  27.906  29.652  1.00  0.00     0.074 A 
ATOM     42  C   UNL A   1      42.068  29.989  30.689  1.00  0.00     0.049 A 
ATOM     43  N   UNL A   1      42.220  27.123  30.034  1.00  0.00    -0.248 NA
ATOM     44  C   UNL A   1      40.317  27.268  28.747  1.00  0.00     0.031 C 
ATOM     45  C   UNL A   1      43.488  29.652  30.663  1.00  0.00     0.029 A 
ATOM     46  N   UNL A   1      41.985  31.044  31.607  1.00  0.00    -0.354 N 
ATOM     47  C   UNL A   1      42.183  26.013  29.220  1.00  0.00     0.074 A 
ATOM     48  C   UNL A   1      40.907  26.087  28.552  1.00  0.00     0.031 C 
ATOM     49  C   UNL A   1      44.079  30.229  31.721  1.00  0.00     0.029 A 
ATOM     50  C   UNL A   1      43.032  30.848  32.520  1.00  0.00     0.049 A 
ATOM     51  H   UNL A   1      41.325  31.774  31.610  1.00  0.00     0.167 HD
ATOM     52  C   UNL A   1      43.303  25.249  29.076  1.00  0.00     0.031 A 
ATOM     53  C   UNL A   1      42.842  30.650  33.856  1.00  0.00     0.031 A 
ATOM     54  C   UNL A   1      44.296  25.577  30.101  1.00  0.00     0.049 A 
ATOM     55  C   UNL A   1      43.391  29.321  34.335  1.00  0.00     0.074 A 
ATOM     56  C   UNL A   1      45.460  26.327  30.096  1.00  0.00     0.029 A 
ATOM     57  N   UNL A   1      43.971  25.371  31.441  1.00  0.00    -0.354 N 
ATOM     58  N   UNL A   1      43.731  28.343  33.539  1.00  0.00    -0.248 NA
ATOM     59  C   UNL A   1      43.570  28.977  35.743  1.00  0.00     0.031 C 
ATOM     60  C   UNL A   1      45.747  26.693  31.442  1.00  0.00     0.029 A 
ATOM     61  C   UNL A   1      44.793  26.117  32.264  1.00  0.00     0.049 A 
ATOM     62  H   UNL A   1      43.255  24.773  31.758  1.00  0.00     0.167 HD
ATOM     63  C   UNL A   1      44.170  27.276  34.279  1.00  0.00     0.074 A 
ATOM     64  C   UNL A   1      44.058  27.726  35.656  1.00  0.00     0.031 C 
ATOM     65  C   UNL A   1      44.589  26.107  33.709  1.00  0.00     0.031 A 
BRANCH  52  66
ATOM     66  C   UNL A   1      43.592  24.451  27.813  1.00  0.00    -0.014 A 
ATOM     67  C   UNL A   1      42.992  23.189  27.621  1.00  0.00     0.010 A 
ATOM     68  C   UNL A   1      44.542  24.821  26.839  1.00  0.00     0.010 A 
ATOM     69  C   UNL A   1      43.386  22.324  26.581  1.00  0.00     0.020 A 
ATOM     70  C   UNL A   1      44.958  23.969  25.808  1.00  0.00     0.020 A 
ATOM     71  C   UNL A   1      44.391  22.712  25.694  1.00  0.00     0.054 A 
BRANCH  71  72
ATOM     72  S   UNL A   1      44.972  21.568  24.417  1.00  0.00     0.124 S 
ATOM     73  O   UNL A   1      46.403  21.480  24.701  1.00  0.00    -0.237 OA
ATOM     74  O   UNL A   1      44.195  20.364  24.693  1.00  0.00    -0.237 OA
ATOM     75  O   UNL A   1      44.637  22.246  23.165  1.00  0.00    -0.744 OA
ENDBRANCH  71  72
ENDBRANCH  52  66
BRANCH  53  76
ATOM     76  C   UNL A   1      41.687  31.380  34.445  1.00  0.00    -0.014 A 
ATOM     77  C   UNL A   1      40.403  30.825  34.253  1.00  0.00     0.010 A 
ATOM     78  C   UNL A   1      41.858  32.345  35.451  1.00  0.00     0.010 A 
ATOM     79  C   UNL A   1      39.352  31.122  35.125  1.00  0.00     0.020 A 
ATOM     80  C   UNL A   1      40.805  32.643  36.332  1.00  0.00     0.020 A 
ATOM     81  C   UNL A   1      39.577  31.987  36.195  1.00  0.00     0.054 A 
BRANCH  81  82
ATOM     82  S   UNL A   1      38.277  32.148  37.457  1.00  0.00     0.124 S 
ATOM     83  O   UNL A   1      37.588  30.866  37.362  1.00  0.00    -0.237 OA
ATOM     84  O   UNL A   1      39.060  32.349  38.678  1.00  0.00    -0.237 OA
ATOM     85  O   UNL A   1      37.515  33.306  37.004  1.00  0.00    -0.744 OA
ENDBRANCH  81  82
ENDBRANCH  53  76
BRANCH  65  86
ATOM     86  C   UNL A   1      44.917  24.843  34.466  1.00  0.00    -0.014 A 
ATOM     87  C   UNL A   1      45.462  23.693  33.872  1.00  0.00     0.010 A 
ATOM     88  C   UNL A   1      44.807  24.850  35.877  1.00  0.00     0.010 A 
ATOM     89  C   UNL A   1      45.829  22.581  34.645  1.00  0.00     0.020 A 
ATOM     90  C   UNL A   1      45.209  23.764  36.658  1.00  0.00     0.020 A 
ATOM     91  C   UNL A   1      45.699  22.624  36.034  1.00  0.00     0.054 A 
BRANCH  91  92
ATOM     92  S   UNL A   1      46.251  21.220  37.038  1.00  0.00     0.124 S 
ATOM     93  O   UNL A   1      45.713  21.561  38.352  1.00  0.00    -0.237 OA
ATOM     94  O   UNL A   1      45.623  20.076  36.382  1.00  0.00    -0.237 OA
ATOM     95  O   UNL A   1      47.706  21.274  36.921  1.00  0.00    -0.744 OA
ENDBRANCH  91  92
ENDBRANCH  65  86
ENDBRANCH  39  40
ENDBRANCH  31  34
ENDBRANCH  29  30
ENDBRANCH  28  29
ENDBRANCH  27  28
ENDBRANCH   1  27
TORSDOF 20
ENDMDL
MODEL 3
REMARK VINA RESULT:     -10.3      3.772      5.628
REMARK SMILES Cc1ccc(S(=O)(=O)N(c2ccccc2)[C@H](C)C(=O)NCCCCCCNC(=O)c2ccc(-c3c4nc(c(-c5ccc(S(=O)(=O)[O-])cc5)c5ccc([nH]5)c(-c5ccc(S(=O)(=O)[O-])cc5)c5nc(c(-c6ccc(S(=O)(=O)[O-])cc6)c6ccc3[nH]6)C=C5)C=C4)cc2)cc1
REMARK SMILES IDX 23 1 22 2 21 3 20 4 18 5 19 6 16 8 17 9 9 10 6 11 7 12 8 13
REMARK SMILES IDX 5 14 1 15 2 16 3 17 91 18 4 19 90 20 10 21 11 22 15 23 12 24
REMARK SMILES IDX 14 25 13 26 24 27 25 28 26 29 27 30 28 31 29 33 30 34 31 35
REMARK SMILES IDX 89 36 32 37 88 38 33 39 34 40 35 41 82 42 36 43 87 44 81 45
REMARK SMILES IDX 83 46 37 47 86 48 80 49 79 50 38 52 68 53 49 54 67 55 50 56
REMARK SMILES IDX 53 57 66 58 84 59 51 60 52 61 65 63 85 64 54 65 39 66 40 67
REMARK SMILES IDX 48 68 41 69 47 70 42 71 43 72 44 73 45 74 46 75 69 76 70 77
REMARK SMILES IDX 78 78 71 79 77 80 72 81 73 82 74 83 75 84 76 85 55 86 56 87
REMARK SMILES IDX 64 88 57 89 63 90 58 91 59 92 60 93 61 94 62 95
REMARK H PARENT 20 7 27 32 83 51 53 62
REMARK Flexibility Score: inf
ROOT
ATOM      1  C   UNL A   1      40.193  25.648  26.644  1.00  0.00     0.002 C 
ENDROOT
BRANCH   1   2
ATOM      2  C   UNL A   1      39.675  24.252  27.023  1.00  0.00     0.021 C 
BRANCH   2   3
ATOM      3  C   UNL A   1      38.325  23.840  26.439  1.00  0.00     0.116 C 
BRANCH   3   4
ATOM      4  N   UNL A   1      38.180  22.436  26.130  1.00  0.00    -0.354 N 
ATOM      5  C   UNL A   1      37.265  21.811  25.329  1.00  0.00     0.243 C 
ATOM      6  O   UNL A   1      37.565  20.667  24.956  1.00  0.00    -0.273 OA
ATOM      7  H   UNL A   1      38.837  21.840  26.560  1.00  0.00     0.163 HD
BRANCH   5   8
ATOM      8  C   UNL A   1      35.906  22.411  24.926  1.00  0.00     0.185 C 
ATOM      9  C   UNL A   1      35.800  22.742  23.436  1.00  0.00     0.043 C 
BRANCH   8  10
ATOM     10  N   UNL A   1      34.677  21.766  25.519  1.00  0.00    -0.254 N 
BRANCH  10  11
ATOM     11  S   UNL A   1      33.957  22.675  26.783  1.00  0.00     0.265 S 
ATOM     12  O   UNL A   1      35.038  23.069  27.671  1.00  0.00    -0.201 OA
ATOM     13  O   UNL A   1      32.847  21.904  27.304  1.00  0.00    -0.201 OA
BRANCH  11  14
ATOM     14  C   UNL A   1      33.263  24.201  26.163  1.00  0.00     0.088 A 
ATOM     15  C   UNL A   1      31.433  27.983  25.216  1.00  0.00     0.044 C 
ATOM     16  C   UNL A   1      32.062  26.652  25.507  1.00  0.00    -0.051 A 
ATOM     17  C   UNL A   1      31.272  25.551  25.848  1.00  0.00     0.005 A 
ATOM     18  C   UNL A   1      33.449  26.487  25.406  1.00  0.00     0.005 A 
ATOM     19  C   UNL A   1      31.869  24.338  26.195  1.00  0.00     0.022 A 
ATOM     20  C   UNL A   1      34.044  25.253  25.694  1.00  0.00     0.022 A 
ENDBRANCH  11  14
ENDBRANCH  10  11
BRANCH  10  21
ATOM     21  C   UNL A   1      33.843  20.949  24.700  1.00  0.00     0.053 A 
ATOM     22  C   UNL A   1      32.961  21.616  23.840  1.00  0.00     0.027 A 
ATOM     23  C   UNL A   1      33.892  19.557  24.702  1.00  0.00     0.027 A 
ATOM     24  C   UNL A   1      32.145  20.897  22.969  1.00  0.00     0.002 A 
ATOM     25  C   UNL A   1      33.058  18.837  23.843  1.00  0.00     0.002 A 
ATOM     26  C   UNL A   1      32.190  19.506  22.976  1.00  0.00     0.000 A 
ENDBRANCH  10  21
ENDBRANCH   8  10
ENDBRANCH   5   8
ENDBRANCH   3   4
ENDBRANCH   2   3
ENDBRANCH   1   2
BRANCH   1  27
ATOM     27  C   UNL A   1      41.275  25.756  25.554  1.00  0.00     0.002 C 
BRANCH  27  28
ATOM     28  C   UNL A   1      42.644  25.147  25.857  1.00  0.00     0.021 C 
BRANCH  28  29
ATOM     29  C   UNL A   1      42.663  23.632  26.016  1.00  0.00     0.116 C 
BRANCH  29  30
ATOM     30  N   UNL A   1      42.893  22.934  24.749  1.00  0.00    -0.352 N 
ATOM     31  C   UNL A   1      44.098  22.705  24.104  1.00  0.00     0.251 C 
ATOM     32  H   UNL A   1      42.090  22.585  24.298  1.00  0.00     0.163 HD
ATOM     33  O   UNL A   1      44.199  22.238  22.983  1.00  0.00    -0.269 OA
BRANCH  31  34
ATOM     34  C   UNL A   1      45.307  22.945  24.911  1.00  0.00     0.039 A 
ATOM     35  C   UNL A   1      45.392  22.231  26.112  1.00  0.00     0.014 A 
ATOM     36  C   UNL A   1      46.038  24.110  24.687  1.00  0.00     0.014 A 
ATOM     37  C   UNL A   1      46.031  22.820  27.191  1.00  0.00     0.010 A 
ATOM     38  C   UNL A   1      46.597  24.733  25.784  1.00  0.00     0.010 A 
ATOM     39  C   UNL A   1      46.512  24.122  27.044  1.00  0.00    -0.014 A 
BRANCH  39  40
ATOM     40  C   UNL A   1      46.836  24.955  28.194  1.00  0.00     0.031 A 
ATOM     41  C   UNL A   1      45.742  25.425  29.064  1.00  0.00     0.074 A 
ATOM     42  C   UNL A   1      48.116  25.325  28.424  1.00  0.00     0.049 A 
ATOM     43  N   UNL A   1      45.783  26.489  29.791  1.00  0.00    -0.248 NA
ATOM     44  C   UNL A   1      44.441  24.761  29.073  1.00  0.00     0.031 C 
ATOM     45  C   UNL A   1      48.634  26.004  29.607  1.00  0.00     0.029 A 
ATOM     46  N   UNL A   1      49.169  25.393  27.504  1.00  0.00    -0.354 N 
ATOM     47  C   UNL A   1      44.652  26.486  30.577  1.00  0.00     0.074 A 
ATOM     48  C   UNL A   1      43.796  25.486  29.989  1.00  0.00     0.031 C 
ATOM     49  C   UNL A   1      49.735  26.686  29.256  1.00  0.00     0.029 A 
ATOM     50  C   UNL A   1      49.881  26.562  27.813  1.00  0.00     0.049 A 
ATOM     51  H   UNL A   1      49.369  24.751  26.785  1.00  0.00     0.167 HD
ATOM     52  C   UNL A   1      44.638  27.207  31.734  1.00  0.00     0.031 A 
ATOM     53  C   UNL A   1      50.037  27.603  26.946  1.00  0.00     0.031 A 
ATOM     54  C   UNL A   1      45.760  28.148  31.778  1.00  0.00     0.049 A 
ATOM     55  C   UNL A   1      49.463  28.901  27.479  1.00  0.00     0.074 A 
ATOM     56  C   UNL A   1      46.982  28.144  32.428  1.00  0.00     0.029 A 
ATOM     57  N   UNL A   1      45.835  29.149  30.811  1.00  0.00    -0.354 N 
ATOM     58  N   UNL A   1      48.648  28.973  28.498  1.00  0.00    -0.248 NA
ATOM     59  C   UNL A   1      49.733  30.210  26.892  1.00  0.00     0.031 C 
ATOM     60  C   UNL A   1      47.841  29.051  31.743  1.00  0.00     0.029 A 
ATOM     61  C   UNL A   1      47.123  29.643  30.719  1.00  0.00     0.049 A 
ATOM     62  H   UNL A   1      45.075  29.461  30.268  1.00  0.00     0.167 HD
ATOM     63  C   UNL A   1      48.297  30.280  28.717  1.00  0.00     0.074 A 
ATOM     64  C   UNL A   1      49.009  31.018  27.688  1.00  0.00     0.031 C 
ATOM     65  C   UNL A   1      47.449  30.656  29.720  1.00  0.00     0.031 A 
BRANCH  52  66
ATOM     66  C   UNL A   1      43.791  26.812  32.934  1.00  0.00    -0.014 A 
ATOM     67  C   UNL A   1      42.739  27.649  33.363  1.00  0.00     0.010 A 
ATOM     68  C   UNL A   1      44.054  25.702  33.763  1.00  0.00     0.010 A 
ATOM     69  C   UNL A   1      42.066  27.438  34.584  1.00  0.00     0.020 A 
ATOM     70  C   UNL A   1      43.408  25.486  34.986  1.00  0.00     0.020 A 
ATOM     71  C   UNL A   1      42.427  26.368  35.403  1.00  0.00     0.054 A 
BRANCH  71  72
ATOM     72  S   UNL A   1      41.636  26.148  37.017  1.00  0.00     0.124 S 
ATOM     73  O   UNL A   1      41.031  24.824  36.893  1.00  0.00    -0.237 OA
ATOM     74  O   UNL A   1      42.765  26.245  37.937  1.00  0.00    -0.237 OA
ATOM     75  O   UNL A   1      40.682  27.254  37.091  1.00  0.00    -0.744 OA
ENDBRANCH  71  72
ENDBRANCH  52  66
BRANCH  53  76
ATOM     76  C   UNL A   1      50.143  27.221  25.512  1.00  0.00    -0.014 A 
ATOM     77  C   UNL A   1      48.952  27.208  24.754  1.00  0.00     0.010 A 
ATOM     78  C   UNL A   1      51.372  27.238  24.832  1.00  0.00     0.010 A 
ATOM     79  C   UNL A   1      48.982  27.347  23.364  1.00  0.00     0.020 A 
ATOM     80  C   UNL A   1      51.405  27.381  23.434  1.00  0.00     0.020 A 
ATOM     81  C   UNL A   1      50.209  27.490  22.718  1.00  0.00     0.054 A 
BRANCH  81  82
ATOM     82  S   UNL A   1      50.204  27.930  20.952  1.00  0.00     0.124 S 
ATOM     83  O   UNL A   1      49.140  27.085  20.422  1.00  0.00    -0.237 OA
ATOM     84  O   UNL A   1      49.903  29.362  20.996  1.00  0.00    -0.237 OA
ATOM     85  O   UNL A   1      51.554  27.586  20.520  1.00  0.00    -0.744 OA
ENDBRANCH  81  82
ENDBRANCH  53  76
BRANCH  65  86
ATOM     86  C   UNL A   1      46.889  32.046  29.905  1.00  0.00    -0.014 A 
ATOM     87  C   UNL A   1      47.523  33.054  30.650  1.00  0.00     0.010 A 
ATOM     88  C   UNL A   1      45.732  32.412  29.178  1.00  0.00     0.010 A 
ATOM     89  C   UNL A   1      46.996  34.353  30.710  1.00  0.00     0.020 A 
ATOM     90  C   UNL A   1      45.224  33.713  29.198  1.00  0.00     0.020 A 
ATOM     91  C   UNL A   1      45.849  34.674  29.984  1.00  0.00     0.054 A 
BRANCH  91  92
ATOM     92  S   UNL A   1      45.217  36.372  29.994  1.00  0.00     0.124 S 
ATOM     93  O   UNL A   1      45.757  36.901  28.745  1.00  0.00    -0.237 OA
ATOM     94  O   UNL A   1      43.768  36.185  30.020  1.00  0.00    -0.237 OA
ATOM     95  O   UNL A   1      45.786  36.936  31.215  1.00  0.00    -0.744 OA
ENDBRANCH  91  92
ENDBRANCH  65  86
ENDBRANCH  39  40
ENDBRANCH  31  34
ENDBRANCH  29  30
ENDBRANCH  28  29
ENDBRANCH  27  28
ENDBRANCH   1  27
TORSDOF 20
ENDMDL
