MODEL 1
REMARK VINA RESULT:     -11.0      0.000      0.000
REMARK SMILES Nc1cc(C(=O)NCCCCCCNC(=O)c2ccc(-c3c4nc(c(-c5ccc(S(=O)(=O)[O-])cc5)c5ccc([nH]5)c(-c5ccc(S(=O)(=O)[O-])cc5)c5nc(c(-c6ccc(S(=O)(=O)[O-])cc6)c6ccc3[nH]6)C=C5)C=C4)cc2)c(-c2ccc(F)cc2O)cn1
REMARK SMILES IDX 11 1 10 2 9 3 8 4 7 5 5 6 6 7 4 9 2 10 3 11 87 12 86 13
REMARK SMILES IDX 77 14 1 15 78 18 79 19 84 20 80 21 83 22 81 23 82 24 85 25
REMARK SMILES IDX 12 27 13 28 14 29 15 30 16 32 17 33 18 34 76 35 19 36 75 37
REMARK SMILES IDX 20 38 21 39 22 40 69 41 23 42 74 43 68 44 70 45 24 46 73 47
REMARK SMILES IDX 67 48 66 49 25 51 55 52 36 53 54 54 37 55 40 56 53 57 71 58
REMARK SMILES IDX 38 59 39 60 52 62 72 63 41 64 26 65 27 66 35 67 28 68 34 69
REMARK SMILES IDX 29 70 30 71 31 72 32 73 33 74 56 75 57 76 65 77 58 78 64 79
REMARK SMILES IDX 59 80 60 81 61 82 62 83 63 84 42 85 43 86 51 87 44 88 50 89
REMARK SMILES IDX 45 90 46 91 47 92 48 93 49 94
REMARK H PARENT 7 8 1 16 1 17 85 26 14 31 70 50 40 61
REMARK Flexibility Score: inf
ROOT
ATOM      1  C   UNL A   1      33.513  26.822  25.183  1.00  0.00     0.002 C 
ENDROOT
BRANCH   1   2
ATOM      2  C   UNL A   1      32.847  27.236  23.865  1.00  0.00     0.002 C 
BRANCH   2   3
ATOM      3  C   UNL A   1      32.442  26.065  22.952  1.00  0.00     0.021 C 
BRANCH   3   4
ATOM      4  C   UNL A   1      33.606  25.118  22.639  1.00  0.00     0.116 C 
BRANCH   4   5
ATOM      5  N   UNL A   1      33.111  23.758  22.565  1.00  0.00    -0.352 N 
ATOM      6  C   UNL A   1      32.694  22.823  23.472  1.00  0.00     0.252 C 
ATOM      7  O   UNL A   1      32.651  21.675  23.025  1.00  0.00    -0.269 OA
ATOM      8  H   UNL A   1      33.062  23.427  21.639  1.00  0.00     0.163 HD
BRANCH   6   9
ATOM      9  C   UNL A   1      32.288  23.091  24.893  1.00  0.00     0.052 A 
ATOM     10  C   UNL A   1      30.581  23.534  26.545  1.00  0.00     0.124 A 
ATOM     11  C   UNL A   1      30.984  23.478  25.222  1.00  0.00     0.061 A 
ATOM     12  N   UNL A   1      31.425  23.340  27.560  1.00  0.00    -0.239 NA
ATOM     13  C   UNL A   1      32.715  23.088  27.243  1.00  0.00     0.123 A 
ATOM     14  C   UNL A   1      33.223  22.950  25.947  1.00  0.00     0.017 A 
BRANCH  10  15
ATOM     15  N   UNL A   1      29.278  23.853  26.872  1.00  0.00    -0.384 N 
ATOM     16  H   UNL A   1      28.881  24.692  26.545  1.00  0.00     0.158 HD
ATOM     17  H   UNL A   1      28.747  23.241  27.430  1.00  0.00     0.158 HD
ENDBRANCH  10  15
BRANCH  14  18
ATOM     18  C   UNL A   1      34.679  22.717  25.810  1.00  0.00     0.026 A 
ATOM     19  C   UNL A   1      35.574  23.802  25.768  1.00  0.00     0.015 A 
ATOM     20  C   UNL A   1      35.225  21.427  25.646  1.00  0.00     0.126 A 
ATOM     21  C   UNL A   1      36.947  23.594  25.592  1.00  0.00     0.040 A 
ATOM     22  C   UNL A   1      36.587  21.209  25.471  1.00  0.00     0.086 A 
ATOM     23  C   UNL A   1      37.439  22.301  25.452  1.00  0.00     0.126 A 
ATOM     24  F   UNL A   1      38.757  22.109  25.302  1.00  0.00    -0.207 F 
BRANCH  20  25
ATOM     25  O   UNL A   1      34.433  20.311  25.719  1.00  0.00    -0.507 OA
ATOM     26  H   UNL A   1      34.480  19.659  25.048  1.00  0.00     0.293 HD
ENDBRANCH  20  25
ENDBRANCH  14  18
ENDBRANCH   6   9
ENDBRANCH   4   5
ENDBRANCH   3   4
ENDBRANCH   2   3
ENDBRANCH   1   2
BRANCH   1  27
ATOM     27  C   UNL A   1      34.198  27.964  25.937  1.00  0.00     0.021 C 
BRANCH  27  28
ATOM     28  C   UNL A   1      33.526  28.320  27.259  1.00  0.00     0.116 C 
BRANCH  28  29
ATOM     29  N   UNL A   1      33.430  29.761  27.432  1.00  0.00    -0.352 N 
ATOM     30  C   UNL A   1      34.324  30.619  28.021  1.00  0.00     0.251 C 
ATOM     31  H   UNL A   1      32.612  30.177  27.077  1.00  0.00     0.163 HD
ATOM     32  O   UNL A   1      33.979  31.758  28.316  1.00  0.00    -0.269 OA
BRANCH  30  33
ATOM     33  C   UNL A   1      35.698  30.158  28.306  1.00  0.00     0.039 A 
ATOM     34  C   UNL A   1      36.667  30.243  27.303  1.00  0.00     0.014 A 
ATOM     35  C   UNL A   1      36.025  29.633  29.560  1.00  0.00     0.014 A 
ATOM     36  C   UNL A   1      37.977  29.848  27.575  1.00  0.00     0.010 A 
ATOM     37  C   UNL A   1      37.347  29.310  29.852  1.00  0.00     0.010 A 
ATOM     38  C   UNL A   1      38.334  29.404  28.860  1.00  0.00    -0.014 A 
BRANCH  38  39
ATOM     39  C   UNL A   1      39.734  29.030  29.183  1.00  0.00     0.031 A 
ATOM     40  C   UNL A   1      40.655  30.032  29.825  1.00  0.00     0.074 A 
ATOM     41  C   UNL A   1      40.192  27.808  28.845  1.00  0.00     0.049 A 
ATOM     42  N   UNL A   1      41.919  29.909  30.135  1.00  0.00    -0.248 NA
ATOM     43  C   UNL A   1      40.087  31.355  30.136  1.00  0.00     0.031 C 
ATOM     44  C   UNL A   1      39.407  26.762  28.183  1.00  0.00     0.029 A 
ATOM     45  N   UNL A   1      41.431  27.240  29.006  1.00  0.00    -0.354 N 
ATOM     46  C   UNL A   1      42.302  31.137  30.662  1.00  0.00     0.074 A 
ATOM     47  C   UNL A   1      41.151  32.009  30.581  1.00  0.00     0.031 C 
ATOM     48  C   UNL A   1      40.174  25.671  28.023  1.00  0.00     0.029 A 
ATOM     49  C   UNL A   1      41.514  25.953  28.528  1.00  0.00     0.049 A 
ATOM     50  H   UNL A   1      42.188  27.709  29.425  1.00  0.00     0.167 HD
ATOM     51  C   UNL A   1      43.498  31.501  31.184  1.00  0.00     0.031 A 
ATOM     52  C   UNL A   1      42.554  25.097  28.493  1.00  0.00     0.031 A 
ATOM     53  C   UNL A   1      44.637  30.627  31.270  1.00  0.00     0.049 A 
ATOM     54  C   UNL A   1      43.876  25.530  29.065  1.00  0.00     0.074 A 
ATOM     55  C   UNL A   1      45.876  30.881  31.831  1.00  0.00     0.029 A 
ATOM     56  N   UNL A   1      44.679  29.330  30.778  1.00  0.00    -0.354 N 
ATOM     57  N   UNL A   1      44.199  26.674  29.620  1.00  0.00    -0.248 NA
ATOM     58  C   UNL A   1      44.971  24.552  29.017  1.00  0.00     0.031 C 
ATOM     59  C   UNL A   1      46.687  29.760  31.627  1.00  0.00     0.029 A 
ATOM     60  C   UNL A   1      45.932  28.782  30.999  1.00  0.00     0.049 A 
ATOM     61  H   UNL A   1      43.930  28.868  30.338  1.00  0.00     0.167 HD
ATOM     62  C   UNL A   1      45.526  26.542  30.013  1.00  0.00     0.074 A 
ATOM     63  C   UNL A   1      45.939  25.203  29.647  1.00  0.00     0.031 C 
ATOM     64  C   UNL A   1      46.330  27.447  30.625  1.00  0.00     0.031 A 
BRANCH  51  65
ATOM     65  C   UNL A   1      43.636  32.912  31.695  1.00  0.00    -0.014 A 
ATOM     66  C   UNL A   1      43.246  33.255  33.003  1.00  0.00     0.010 A 
ATOM     67  C   UNL A   1      44.204  33.901  30.871  1.00  0.00     0.010 A 
ATOM     68  C   UNL A   1      43.380  34.568  33.460  1.00  0.00     0.020 A 
ATOM     69  C   UNL A   1      44.368  35.209  31.336  1.00  0.00     0.020 A 
ATOM     70  C   UNL A   1      43.938  35.539  32.624  1.00  0.00     0.054 A 
BRANCH  70  71
ATOM     71  S   UNL A   1      44.121  37.229  33.253  1.00  0.00     0.124 S 
ATOM     72  O   UNL A   1      42.863  37.420  33.971  1.00  0.00    -0.237 OA
ATOM     73  O   UNL A   1      45.313  37.132  34.091  1.00  0.00    -0.237 OA
ATOM     74  O   UNL A   1      44.276  38.035  32.045  1.00  0.00    -0.744 OA
ENDBRANCH  70  71
ENDBRANCH  51  65
BRANCH  52  75
ATOM     75  C   UNL A   1      42.380  23.740  27.905  1.00  0.00    -0.014 A 
ATOM     76  C   UNL A   1      42.551  23.533  26.525  1.00  0.00     0.010 A 
ATOM     77  C   UNL A   1      42.055  22.645  28.726  1.00  0.00     0.010 A 
ATOM     78  C   UNL A   1      42.382  22.259  25.973  1.00  0.00     0.020 A 
ATOM     79  C   UNL A   1      41.916  21.365  28.183  1.00  0.00     0.020 A 
ATOM     80  C   UNL A   1      42.068  21.182  26.808  1.00  0.00     0.054 A 
BRANCH  80  81
ATOM     81  S   UNL A   1      41.902  19.529  26.077  1.00  0.00     0.124 S 
ATOM     82  O   UNL A   1      42.382  18.671  27.156  1.00  0.00    -0.237 OA
ATOM     83  O   UNL A   1      40.472  19.453  25.794  1.00  0.00    -0.237 OA
ATOM     84  O   UNL A   1      42.761  19.590  24.897  1.00  0.00    -0.744 OA
ENDBRANCH  80  81
ENDBRANCH  52  75
BRANCH  64  85
ATOM     85  C   UNL A   1      47.728  27.011  30.972  1.00  0.00    -0.014 A 
ATOM     86  C   UNL A   1      48.005  26.326  32.167  1.00  0.00     0.010 A 
ATOM     87  C   UNL A   1      48.773  27.244  30.058  1.00  0.00     0.010 A 
ATOM     88  C   UNL A   1      49.308  25.910  32.456  1.00  0.00     0.020 A 
ATOM     89  C   UNL A   1      50.069  26.802  30.329  1.00  0.00     0.020 A 
ATOM     90  C   UNL A   1      50.332  26.150  31.534  1.00  0.00     0.054 A 
BRANCH  90  91
ATOM     91  S   UNL A   1      52.004  25.558  31.913  1.00  0.00     0.124 S 
ATOM     92  O   UNL A   1      52.306  26.278  33.148  1.00  0.00    -0.237 OA
ATOM     93  O   UNL A   1      51.809  24.118  32.056  1.00  0.00    -0.237 OA
ATOM     94  O   UNL A   1      52.787  25.964  30.748  1.00  0.00    -0.744 OA
ENDBRANCH  90  91
ENDBRANCH  64  85
ENDBRANCH  38  39
ENDBRANCH  30  33
ENDBRANCH  28  29
ENDBRANCH  27  28
ENDBRANCH   1  27
TORSDOF 19
ENDMDL
MODEL 2
REMARK VINA RESULT:     -10.7      2.490      3.130
REMARK SMILES Nc1cc(C(=O)NCCCCCCNC(=O)c2ccc(-c3c4nc(c(-c5ccc(S(=O)(=O)[O-])cc5)c5ccc([nH]5)c(-c5ccc(S(=O)(=O)[O-])cc5)c5nc(c(-c6ccc(S(=O)(=O)[O-])cc6)c6ccc3[nH]6)C=C5)C=C4)cc2)c(-c2ccc(F)cc2O)cn1
REMARK SMILES IDX 11 1 10 2 9 3 8 4 7 5 5 6 6 7 4 9 2 10 3 11 87 12 86 13
REMARK SMILES IDX 77 14 1 15 78 18 79 19 84 20 80 21 83 22 81 23 82 24 85 25
REMARK SMILES IDX 12 27 13 28 14 29 15 30 16 32 17 33 18 34 76 35 19 36 75 37
REMARK SMILES IDX 20 38 21 39 22 40 69 41 23 42 74 43 68 44 70 45 24 46 73 47
REMARK SMILES IDX 67 48 66 49 25 51 55 52 36 53 54 54 37 55 40 56 53 57 71 58
REMARK SMILES IDX 38 59 39 60 52 62 72 63 41 64 26 65 27 66 35 67 28 68 34 69
REMARK SMILES IDX 29 70 30 71 31 72 32 73 33 74 56 75 57 76 65 77 58 78 64 79
REMARK SMILES IDX 59 80 60 81 61 82 62 83 63 84 42 85 43 86 51 87 44 88 50 89
REMARK SMILES IDX 45 90 46 91 47 92 48 93 49 94
REMARK H PARENT 7 8 1 16 1 17 85 26 14 31 70 50 40 61
REMARK Flexibility Score: inf
ROOT
ATOM      1  C   UNL A   1      33.173  26.493  25.517  1.00  0.00     0.002 C 
ENDROOT
BRANCH   1   2
ATOM      2  C   UNL A   1      33.348  26.832  24.032  1.00  0.00     0.002 C 
BRANCH   2   3
ATOM      3  C   UNL A   1      33.736  25.640  23.139  1.00  0.00     0.021 C 
BRANCH   3   4
ATOM      4  C   UNL A   1      32.565  25.111  22.304  1.00  0.00     0.116 C 
BRANCH   4   5
ATOM      5  N   UNL A   1      32.521  23.665  22.402  1.00  0.00    -0.352 N 
ATOM      6  C   UNL A   1      32.499  22.760  23.427  1.00  0.00     0.252 C 
ATOM      7  O   UNL A   1      32.784  21.610  23.086  1.00  0.00    -0.269 OA
ATOM      8  H   UNL A   1      32.501  23.231  21.519  1.00  0.00     0.163 HD
BRANCH   6   9
ATOM      9  C   UNL A   1      32.152  23.054  24.858  1.00  0.00     0.052 A 
ATOM     10  C   UNL A   1      30.520  23.583  26.561  1.00  0.00     0.124 A 
ATOM     11  C   UNL A   1      30.878  23.501  25.226  1.00  0.00     0.061 A 
ATOM     12  N   UNL A   1      31.387  23.357  27.549  1.00  0.00    -0.239 NA
ATOM     13  C   UNL A   1      32.654  23.047  27.193  1.00  0.00     0.123 A 
ATOM     14  C   UNL A   1      33.114  22.878  25.882  1.00  0.00     0.017 A 
BRANCH  10  15
ATOM     15  N   UNL A   1      29.245  23.962  26.926  1.00  0.00    -0.384 N 
ATOM     16  H   UNL A   1      28.544  24.055  26.241  1.00  0.00     0.158 HD
ATOM     17  H   UNL A   1      29.036  24.137  27.872  1.00  0.00     0.158 HD
ENDBRANCH  10  15
BRANCH  14  18
ATOM     18  C   UNL A   1      34.553  22.579  25.701  1.00  0.00     0.026 A 
ATOM     19  C   UNL A   1      35.496  23.622  25.640  1.00  0.00     0.015 A 
ATOM     20  C   UNL A   1      35.033  21.267  25.511  1.00  0.00     0.126 A 
ATOM     21  C   UNL A   1      36.852  23.353  25.422  1.00  0.00     0.040 A 
ATOM     22  C   UNL A   1      36.378  20.989  25.294  1.00  0.00     0.086 A 
ATOM     23  C   UNL A   1      37.279  22.040  25.258  1.00  0.00     0.126 A 
ATOM     24  F   UNL A   1      38.581  21.789  25.068  1.00  0.00    -0.207 F 
BRANCH  20  25
ATOM     25  O   UNL A   1      34.193  20.189  25.599  1.00  0.00    -0.507 OA
ATOM     26  H   UNL A   1      34.191  19.540  24.922  1.00  0.00     0.293 HD
ENDBRANCH  20  25
ENDBRANCH  14  18
ENDBRANCH   6   9
ENDBRANCH   4   5
ENDBRANCH   3   4
ENDBRANCH   2   3
ENDBRANCH   1   2
BRANCH   1  27
ATOM     27  C   UNL A   1      33.168  27.704  26.452  1.00  0.00     0.021 C 
BRANCH  27  28
ATOM     28  C   UNL A   1      34.283  28.706  26.170  1.00  0.00     0.116 C 
BRANCH  28  29
ATOM     29  N   UNL A   1      33.860  30.065  26.466  1.00  0.00    -0.352 N 
ATOM     30  C   UNL A   1      34.296  30.906  27.459  1.00  0.00     0.251 C 
ATOM     31  H   UNL A   1      33.166  30.432  25.873  1.00  0.00     0.163 HD
ATOM     32  O   UNL A   1      33.659  31.917  27.732  1.00  0.00    -0.269 OA
BRANCH  30  33
ATOM     33  C   UNL A   1      35.532  30.578  28.201  1.00  0.00     0.039 A 
ATOM     34  C   UNL A   1      35.463  29.698  29.283  1.00  0.00     0.014 A 
ATOM     35  C   UNL A   1      36.754  31.148  27.831  1.00  0.00     0.014 A 
ATOM     36  C   UNL A   1      36.630  29.351  29.964  1.00  0.00     0.010 A 
ATOM     37  C   UNL A   1      37.926  30.744  28.463  1.00  0.00     0.010 A 
ATOM     38  C   UNL A   1      37.875  29.849  29.543  1.00  0.00    -0.014 A 
BRANCH  38  39
ATOM     39  C   UNL A   1      39.133  29.449  30.221  1.00  0.00     0.031 A 
ATOM     40  C   UNL A   1      39.592  30.180  31.454  1.00  0.00     0.074 A 
ATOM     41  C   UNL A   1      39.891  28.468  29.693  1.00  0.00     0.049 A 
ATOM     42  N   UNL A   1      40.683  30.011  32.154  1.00  0.00    -0.248 NA
ATOM     43  C   UNL A   1      38.723  31.260  31.951  1.00  0.00     0.031 C 
ATOM     44  C   UNL A   1      39.573  27.710  28.479  1.00  0.00     0.029 A 
ATOM     45  N   UNL A   1      41.089  27.941  30.107  1.00  0.00    -0.354 N 
ATOM     46  C   UNL A   1      40.641  30.968  33.161  1.00  0.00     0.074 A 
ATOM     47  C   UNL A   1      39.443  31.750  32.951  1.00  0.00     0.031 C 
ATOM     48  C   UNL A   1      40.535  26.798  28.265  1.00  0.00     0.029 A 
ATOM     49  C   UNL A   1      41.559  26.934  29.296  1.00  0.00     0.049 A 
ATOM     50  H   UNL A   1      41.567  28.254  30.909  1.00  0.00     0.167 HD
ATOM     51  C   UNL A   1      41.510  31.166  34.181  1.00  0.00     0.031 A 
ATOM     52  C   UNL A   1      42.689  26.205  29.370  1.00  0.00     0.031 A 
ATOM     53  C   UNL A   1      42.696  30.379  34.390  1.00  0.00     0.049 A 
ATOM     54  C   UNL A   1      43.647  26.454  30.504  1.00  0.00     0.074 A 
ATOM     55  C   UNL A   1      43.612  30.464  35.424  1.00  0.00     0.029 A 
ATOM     56  N   UNL A   1      43.134  29.366  33.549  1.00  0.00    -0.354 N 
ATOM     57  N   UNL A   1      43.554  27.320  31.484  1.00  0.00    -0.248 NA
ATOM     58  C   UNL A   1      44.855  25.620  30.546  1.00  0.00     0.031 C 
ATOM     59  C   UNL A   1      44.635  29.542  35.177  1.00  0.00     0.029 A 
ATOM     60  C   UNL A   1      44.322  28.837  34.027  1.00  0.00     0.049 A 
ATOM     61  H   UNL A   1      42.669  29.068  32.735  1.00  0.00     0.167 HD
ATOM     62  C   UNL A   1      44.678  27.114  32.277  1.00  0.00     0.074 A 
ATOM     63  C   UNL A   1      45.426  26.032  31.669  1.00  0.00     0.031 C 
ATOM     64  C   UNL A   1      45.056  27.761  33.408  1.00  0.00     0.031 A 
BRANCH  51  65
ATOM     65  C   UNL A   1      41.213  32.286  35.144  1.00  0.00    -0.014 A 
ATOM     66  C   UNL A   1      41.562  33.616  34.846  1.00  0.00     0.010 A 
ATOM     67  C   UNL A   1      40.537  32.012  36.347  1.00  0.00     0.010 A 
ATOM     68  C   UNL A   1      41.281  34.643  35.751  1.00  0.00     0.020 A 
ATOM     69  C   UNL A   1      40.226  33.040  37.241  1.00  0.00     0.020 A 
ATOM     70  C   UNL A   1      40.615  34.348  36.945  1.00  0.00     0.054 A 
BRANCH  70  71
ATOM     71  S   UNL A   1      40.243  35.704  38.090  1.00  0.00     0.124 S 
ATOM     72  O   UNL A   1      39.851  36.773  37.174  1.00  0.00    -0.237 OA
ATOM     73  O   UNL A   1      39.165  35.148  38.904  1.00  0.00    -0.237 OA
ATOM     74  O   UNL A   1      41.504  35.921  38.795  1.00  0.00    -0.744 OA
ENDBRANCH  70  71
ENDBRANCH  51  65
BRANCH  52  75
ATOM     75  C   UNL A   1      42.969  25.162  28.346  1.00  0.00    -0.014 A 
ATOM     76  C   UNL A   1      43.700  25.477  27.186  1.00  0.00     0.010 A 
ATOM     77  C   UNL A   1      42.517  23.842  28.530  1.00  0.00     0.010 A 
ATOM     78  C   UNL A   1      43.957  24.498  26.222  1.00  0.00     0.020 A 
ATOM     79  C   UNL A   1      42.798  22.854  27.584  1.00  0.00     0.020 A 
ATOM     80  C   UNL A   1      43.507  23.191  26.429  1.00  0.00     0.054 A 
BRANCH  80  81
ATOM     81  S   UNL A   1      43.895  21.925  25.188  1.00  0.00     0.124 S 
ATOM     82  O   UNL A   1      42.880  20.912  25.459  1.00  0.00    -0.237 OA
ATOM     83  O   UNL A   1      43.742  22.657  23.934  1.00  0.00    -0.237 OA
ATOM     84  O   UNL A   1      45.267  21.540  25.512  1.00  0.00    -0.744 OA
ENDBRANCH  80  81
ENDBRANCH  52  75
BRANCH  64  85
ATOM     85  C   UNL A   1      46.317  27.295  34.086  1.00  0.00    -0.014 A 
ATOM     86  C   UNL A   1      47.563  27.874  33.792  1.00  0.00     0.010 A 
ATOM     87  C   UNL A   1      46.242  26.296  35.075  1.00  0.00     0.010 A 
ATOM     88  C   UNL A   1      48.716  27.442  34.452  1.00  0.00     0.020 A 
ATOM     89  C   UNL A   1      47.387  25.883  35.759  1.00  0.00     0.020 A 
ATOM     90  C   UNL A   1      48.621  26.449  35.433  1.00  0.00     0.054 A 
BRANCH  90  91
ATOM     91  S   UNL A   1      50.125  25.939  36.307  1.00  0.00     0.124 S 
ATOM     92  O   UNL A   1      51.120  25.963  35.237  1.00  0.00    -0.237 OA
ATOM     93  O   UNL A   1      50.272  26.976  37.325  1.00  0.00    -0.237 OA
ATOM     94  O   UNL A   1      49.795  24.611  36.820  1.00  0.00    -0.744 OA
ENDBRANCH  90  91
ENDBRANCH  64  85
ENDBRANCH  38  39
ENDBRANCH  30  33
ENDBRANCH  28  29
ENDBRANCH  27  28
ENDBRANCH   1  27
TORSDOF 19
ENDMDL
MODEL 3
REMARK VINA RESULT:     -10.5      0.758      8.175
REMARK SMILES Nc1cc(C(=O)NCCCCCCNC(=O)c2ccc(-c3c4nc(c(-c5ccc(S(=O)(=O)[O-])cc5)c5ccc([nH]5)c(-c5ccc(S(=O)(=O)[O-])cc5)c5nc(c(-c6ccc(S(=O)(=O)[O-])cc6)c6ccc3[nH]6)C=C5)C=C4)cc2)c(-c2ccc(F)cc2O)cn1
REMARK SMILES IDX 11 1 10 2 9 3 8 4 7 5 5 6 6 7 4 9 2 10 3 11 87 12 86 13
REMARK SMILES IDX 77 14 1 15 78 18 79 19 84 20 80 21 83 22 81 23 82 24 85 25
REMARK SMILES IDX 12 27 13 28 14 29 15 30 16 32 17 33 18 34 76 35 19 36 75 37
REMARK SMILES IDX 20 38 21 39 22 40 69 41 23 42 74 43 68 44 70 45 24 46 73 47
REMARK SMILES IDX 67 48 66 49 25 51 55 52 36 53 54 54 37 55 40 56 53 57 71 58
REMARK SMILES IDX 38 59 39 60 52 62 72 63 41 64 26 65 27 66 35 67 28 68 34 69
REMARK SMILES IDX 29 70 30 71 31 72 32 73 33 74 56 75 57 76 65 77 58 78 64 79
REMARK SMILES IDX 59 80 60 81 61 82 62 83 63 84 42 85 43 86 51 87 44 88 50 89
REMARK SMILES IDX 45 90 46 91 47 92 48 93 49 94
REMARK H PARENT 7 8 1 16 1 17 85 26 14 31 70 50 40 61
REMARK Flexibility Score: inf
ROOT
ATOM      1  C   UNL A   1      33.863  27.949  24.231  1.00  0.00     0.002 C 
ENDROOT
BRANCH   1   2
ATOM      2  C   UNL A   1      33.465  27.358  22.872  1.00  0.00     0.002 C 
BRANCH   2   3
ATOM      3  C   UNL A   1      33.700  25.844  22.734  1.00  0.00     0.021 C 
BRANCH   3   4
ATOM      4  C   UNL A   1      32.661  25.154  21.844  1.00  0.00     0.116 C 
BRANCH   4   5
ATOM      5  N   UNL A   1      32.626  23.739  22.155  1.00  0.00    -0.352 N 
ATOM      6  C   UNL A   1      32.587  22.996  23.304  1.00  0.00     0.252 C 
ATOM      7  O   UNL A   1      32.889  21.812  23.144  1.00  0.00    -0.269 OA
ATOM      8  H   UNL A   1      32.632  23.178  21.347  1.00  0.00     0.163 HD
BRANCH   6   9
ATOM      9  C   UNL A   1      32.202  23.496  24.666  1.00  0.00     0.052 A 
ATOM     10  C   UNL A   1      30.532  24.300  26.217  1.00  0.00     0.124 A 
ATOM     11  C   UNL A   1      30.931  24.024  24.921  1.00  0.00     0.061 A 
ATOM     12  N   UNL A   1      31.358  24.192  27.259  1.00  0.00    -0.239 NA
ATOM     13  C   UNL A   1      32.625  23.800  26.997  1.00  0.00     0.123 A 
ATOM     14  C   UNL A   1      33.122  23.438  25.740  1.00  0.00     0.017 A 
BRANCH  10  15
ATOM     15  N   UNL A   1      29.258  24.761  26.479  1.00  0.00    -0.384 N 
ATOM     16  H   UNL A   1      28.764  25.262  25.790  1.00  0.00     0.158 HD
ATOM     17  H   UNL A   1      28.842  24.587  27.355  1.00  0.00     0.158 HD
ENDBRANCH  10  15
BRANCH  14  18
ATOM     18  C   UNL A   1      34.556  23.079  25.655  1.00  0.00     0.026 A 
ATOM     19  C   UNL A   1      35.531  24.074  25.455  1.00  0.00     0.015 A 
ATOM     20  C   UNL A   1      35.003  21.742  25.697  1.00  0.00     0.126 A 
ATOM     21  C   UNL A   1      36.884  23.740  25.327  1.00  0.00     0.040 A 
ATOM     22  C   UNL A   1      36.345  21.399  25.571  1.00  0.00     0.086 A 
ATOM     23  C   UNL A   1      37.277  22.407  25.393  1.00  0.00     0.126 A 
ATOM     24  F   UNL A   1      38.576  22.097  25.288  1.00  0.00    -0.207 F 
BRANCH  20  25
ATOM     25  O   UNL A   1      34.129  20.714  25.933  1.00  0.00    -0.507 OA
ATOM     26  H   UNL A   1      34.446  19.899  26.273  1.00  0.00     0.293 HD
ENDBRANCH  20  25
ENDBRANCH  14  18
ENDBRANCH   6   9
ENDBRANCH   4   5
ENDBRANCH   3   4
ENDBRANCH   2   3
ENDBRANCH   1   2
BRANCH   1  27
ATOM     27  C   UNL A   1      33.126  27.347  25.429  1.00  0.00     0.021 C 
BRANCH  27  28
ATOM     28  C   UNL A   1      33.640  27.835  26.779  1.00  0.00     0.116 C 
BRANCH  28  29
ATOM     29  N   UNL A   1      33.358  29.247  26.973  1.00  0.00    -0.352 N 
ATOM     30  C   UNL A   1      34.107  30.195  27.625  1.00  0.00     0.251 C 
ATOM     31  H   UNL A   1      32.514  29.569  26.582  1.00  0.00     0.163 HD
ATOM     32  O   UNL A   1      33.610  31.275  27.921  1.00  0.00    -0.269 OA
BRANCH  30  33
ATOM     33  C   UNL A   1      35.512  29.898  27.974  1.00  0.00     0.039 A 
ATOM     34  C   UNL A   1      36.495  30.001  26.988  1.00  0.00     0.014 A 
ATOM     35  C   UNL A   1      35.854  29.511  29.274  1.00  0.00     0.014 A 
ATOM     36  C   UNL A   1      37.830  29.762  27.318  1.00  0.00     0.010 A 
ATOM     37  C   UNL A   1      37.192  29.347  29.618  1.00  0.00     0.010 A 
ATOM     38  C   UNL A   1      38.193  29.460  28.642  1.00  0.00    -0.014 A 
BRANCH  38  39
ATOM     39  C   UNL A   1      39.613  29.256  29.023  1.00  0.00     0.031 A 
ATOM     40  C   UNL A   1      40.291  27.943  28.737  1.00  0.00     0.074 A 
ATOM     41  C   UNL A   1      40.273  30.231  29.680  1.00  0.00     0.049 A 
ATOM     42  N   UNL A   1      41.504  27.560  29.038  1.00  0.00    -0.248 NA
ATOM     43  C   UNL A   1      39.493  26.918  28.044  1.00  0.00     0.031 C 
ATOM     44  C   UNL A   1      39.712  31.534  30.049  1.00  0.00     0.029 A 
ATOM     45  N   UNL A   1      41.559  30.277  30.157  1.00  0.00    -0.354 N 
ATOM     46  C   UNL A   1      41.611  26.249  28.587  1.00  0.00     0.074 A 
ATOM     47  C   UNL A   1      40.323  25.885  28.040  1.00  0.00     0.031 C 
ATOM     48  C   UNL A   1      40.657  32.260  30.668  1.00  0.00     0.029 A 
ATOM     49  C   UNL A   1      41.874  31.462  30.780  1.00  0.00     0.049 A 
ATOM     50  H   UNL A   1      42.195  29.532  30.063  1.00  0.00     0.167 HD
ATOM     51  C   UNL A   1      42.689  25.430  28.609  1.00  0.00     0.031 A 
ATOM     52  C   UNL A   1      43.013  31.861  31.378  1.00  0.00     0.031 A 
ATOM     53  C   UNL A   1      43.970  25.800  29.147  1.00  0.00     0.049 A 
ATOM     54  C   UNL A   1      44.192  30.926  31.404  1.00  0.00     0.074 A 
ATOM     55  C   UNL A   1      45.141  25.062  29.167  1.00  0.00     0.029 A 
ATOM     56  N   UNL A   1      44.250  27.011  29.765  1.00  0.00    -0.354 N 
ATOM     57  N   UNL A   1      44.293  29.715  30.912  1.00  0.00    -0.248 NA
ATOM     58  C   UNL A   1      45.414  31.418  32.055  1.00  0.00     0.031 C 
ATOM     59  C   UNL A   1      46.112  25.803  29.848  1.00  0.00     0.029 A 
ATOM     60  C   UNL A   1      45.567  27.029  30.194  1.00  0.00     0.049 A 
ATOM     61  H   UNL A   1      43.607  27.747  29.881  1.00  0.00     0.167 HD
ATOM     62  C   UNL A   1      45.598  29.311  31.168  1.00  0.00     0.074 A 
ATOM     63  C   UNL A   1      46.252  30.413  31.844  1.00  0.00     0.031 C 
ATOM     64  C   UNL A   1      46.202  28.134  30.868  1.00  0.00     0.031 A 
BRANCH  51  65
ATOM     65  C   UNL A   1      42.524  24.044  28.040  1.00  0.00    -0.014 A 
ATOM     66  C   UNL A   1      42.253  22.942  28.872  1.00  0.00     0.010 A 
ATOM     67  C   UNL A   1      42.599  23.846  26.649  1.00  0.00     0.010 A 
ATOM     68  C   UNL A   1      42.104  21.663  28.328  1.00  0.00     0.020 A 
ATOM     69  C   UNL A   1      42.420  22.574  26.099  1.00  0.00     0.020 A 
ATOM     70  C   UNL A   1      42.190  21.486  26.944  1.00  0.00     0.054 A 
BRANCH  70  71
ATOM     71  S   UNL A   1      41.971  19.819  26.265  1.00  0.00     0.124 S 
ATOM     72  O   UNL A   1      42.895  19.831  25.133  1.00  0.00    -0.237 OA
ATOM     73  O   UNL A   1      42.360  18.965  27.384  1.00  0.00    -0.237 OA
ATOM     74  O   UNL A   1      40.555  19.771  25.911  1.00  0.00    -0.744 OA
ENDBRANCH  70  71
ENDBRANCH  51  65
BRANCH  52  75
ATOM     75  C   UNL A   1      43.095  33.215  31.993  1.00  0.00    -0.014 A 
ATOM     76  C   UNL A   1      42.767  33.406  33.347  1.00  0.00     0.010 A 
ATOM     77  C   UNL A   1      43.515  34.319  31.229  1.00  0.00     0.010 A 
ATOM     78  C   UNL A   1      42.839  34.679  33.921  1.00  0.00     0.020 A 
ATOM     79  C   UNL A   1      43.617  35.587  31.807  1.00  0.00     0.020 A 
ATOM     80  C   UNL A   1      43.267  35.761  33.147  1.00  0.00     0.054 A 
BRANCH  80  81
ATOM     81  S   UNL A   1      43.401  37.395  33.926  1.00  0.00     0.124 S 
ATOM     82  O   UNL A   1      43.576  38.269  32.771  1.00  0.00    -0.237 OA
ATOM     83  O   UNL A   1      42.124  37.515  34.624  1.00  0.00    -0.237 OA
ATOM     84  O   UNL A   1      44.567  37.263  34.796  1.00  0.00    -0.744 OA
ENDBRANCH  80  81
ENDBRANCH  52  75
BRANCH  64  85
ATOM     85  C   UNL A   1      47.655  27.986  31.236  1.00  0.00    -0.014 A 
ATOM     86  C   UNL A   1      48.046  27.375  32.439  1.00  0.00     0.010 A 
ATOM     87  C   UNL A   1      48.645  28.417  30.333  1.00  0.00     0.010 A 
ATOM     88  C   UNL A   1      49.402  27.227  32.748  1.00  0.00     0.020 A 
ATOM     89  C   UNL A   1      49.999  28.242  30.623  1.00  0.00     0.020 A 
ATOM     90  C   UNL A   1      50.370  27.660  31.836  1.00  0.00     0.054 A 
BRANCH  90  91
ATOM     91  S   UNL A   1      52.121  27.415  32.240  1.00  0.00     0.124 S 
ATOM     92  O   UNL A   1      52.086  26.157  32.983  1.00  0.00    -0.237 OA
ATOM     93  O   UNL A   1      52.747  27.349  30.922  1.00  0.00    -0.237 OA
ATOM     94  O   UNL A   1      52.463  28.595  33.030  1.00  0.00    -0.744 OA
ENDBRANCH  90  91
ENDBRANCH  64  85
ENDBRANCH  38  39
ENDBRANCH  30  33
ENDBRANCH  28  29
ENDBRANCH  27  28
ENDBRANCH   1  27
TORSDOF 19
ENDMDL
