MODEL 1
REMARK VINA RESULT:     -10.9      0.000      0.000
REMARK SMILES O=C(Cc1ccc(F)cc1F)Nc1sccc1C(=O)NCCCCCCNC(=O)c1ccc(-c2c3nc(c(-c4ccc(S(=O)(=O)[O-])cc4)c4ccc([nH]4)c(-c4ccc(S(=O)(=O)[O-])cc4)c4nc(c(-c5ccc(S(=O)(=O)[O-])cc5)c5ccc2[nH]5)C=C4)C=C3)cc1
REMARK SMILES IDX 23 1 22 2 21 3 20 4 18 5 19 6 17 8 13 9 14 10 15 11 16 12
REMARK SMILES IDX 12 13 1 14 2 15 3 17 4 18 5 19 10 20 6 21 9 22 11 23 7 24
REMARK SMILES IDX 8 25 24 26 25 27 26 28 27 29 28 30 29 32 30 33 31 34 89 35
REMARK SMILES IDX 32 36 88 37 33 38 34 39 35 40 82 41 36 42 87 43 81 44 83 45
REMARK SMILES IDX 37 46 86 47 80 48 79 49 38 51 68 52 49 53 67 54 50 55 53 56
REMARK SMILES IDX 66 57 84 58 51 59 52 60 65 62 85 63 54 64 39 65 40 66 48 67
REMARK SMILES IDX 41 68 47 69 42 70 43 71 44 72 45 73 46 74 69 75 70 76 78 77
REMARK SMILES IDX 71 78 77 79 72 80 73 81 74 82 75 83 76 84 55 85 56 86 64 87
REMARK SMILES IDX 57 88 63 89 58 90 59 91 60 92 61 93 62 94
REMARK H PARENT 20 7 12 16 27 31 83 50 53 61
REMARK Flexibility Score: inf
ROOT
ATOM      1  C   UNL A   1      32.474  22.970  25.886  1.00  0.00     0.002 C 
ENDROOT
BRANCH   1   2
ATOM      2  C   UNL A   1      32.485  22.582  24.401  1.00  0.00     0.021 C 
BRANCH   2   3
ATOM      3  C   UNL A   1      31.640  23.442  23.467  1.00  0.00     0.116 C 
BRANCH   3   4
ATOM      4  N   UNL A   1      32.342  24.233  22.490  1.00  0.00    -0.352 N 
ATOM      5  C   UNL A   1      33.075  25.390  22.660  1.00  0.00     0.254 C 
ATOM      6  O   UNL A   1      33.694  25.793  21.670  1.00  0.00    -0.269 OA
ATOM      7  H   UNL A   1      32.293  23.899  21.565  1.00  0.00     0.163 HD
BRANCH   5   8
ATOM      8  C   UNL A   1      32.980  26.232  23.866  1.00  0.00     0.074 A 
ATOM      9  C   UNL A   1      32.013  27.123  24.307  1.00  0.00     0.108 A 
ATOM     10  S   UNL A   1      32.527  28.074  25.633  1.00  0.00    -0.126 S 
ATOM     11  C   UNL A   1      33.921  27.122  25.854  1.00  0.00     0.068 A 
ATOM     12  C   UNL A   1      34.049  26.191  24.852  1.00  0.00     0.028 A 
BRANCH   9  13
ATOM     13  N   UNL A   1      30.733  27.472  23.938  1.00  0.00    -0.317 N 
ATOM     14  O   UNL A   1      31.281  29.136  22.435  1.00  0.00    -0.274 OA
ATOM     15  C   UNL A   1      30.453  28.550  23.128  1.00  0.00     0.229 C 
ATOM     16  H   UNL A   1      29.983  26.926  24.266  1.00  0.00     0.170 HD
BRANCH  15  17
ATOM     17  C   UNL A   1      29.056  29.103  23.322  1.00  0.00     0.139 C 
BRANCH  17  18
ATOM     18  C   UNL A   1      28.601  30.292  22.531  1.00  0.00    -0.003 A 
ATOM     19  C   UNL A   1      28.141  30.202  21.216  1.00  0.00     0.010 A 
ATOM     20  C   UNL A   1      28.749  31.568  23.111  1.00  0.00     0.129 A 
ATOM     21  C   UNL A   1      27.804  31.367  20.523  1.00  0.00     0.040 A 
ATOM     22  C   UNL A   1      28.423  32.727  22.428  1.00  0.00     0.078 A 
ATOM     23  F   UNL A   1      29.220  31.676  24.363  1.00  0.00    -0.207 F 
ATOM     24  C   UNL A   1      27.945  32.613  21.134  1.00  0.00     0.126 A 
ATOM     25  F   UNL A   1      27.615  33.719  20.457  1.00  0.00    -0.207 F 
ENDBRANCH  17  18
ENDBRANCH  15  17
ENDBRANCH   9  13
ENDBRANCH   5   8
ENDBRANCH   3   4
ENDBRANCH   2   3
ENDBRANCH   1   2
BRANCH   1  26
ATOM     26  C   UNL A   1      33.828  23.138  26.593  1.00  0.00     0.002 C 
BRANCH  26  27
ATOM     27  C   UNL A   1      35.078  22.709  25.824  1.00  0.00     0.021 C 
BRANCH  27  28
ATOM     28  C   UNL A   1      36.374  23.453  26.117  1.00  0.00     0.116 C 
BRANCH  28  29
ATOM     29  N   UNL A   1      37.550  22.621  25.959  1.00  0.00    -0.352 N 
ATOM     30  C   UNL A   1      38.872  22.900  26.207  1.00  0.00     0.251 C 
ATOM     31  H   UNL A   1      37.374  21.714  25.622  1.00  0.00     0.163 HD
ATOM     32  O   UNL A   1      39.726  22.087  25.859  1.00  0.00    -0.269 OA
BRANCH  30  33
ATOM     33  C   UNL A   1      39.288  24.166  26.862  1.00  0.00     0.039 A 
ATOM     34  C   UNL A   1      38.899  24.386  28.188  1.00  0.00     0.014 A 
ATOM     35  C   UNL A   1      40.008  25.155  26.186  1.00  0.00     0.014 A 
ATOM     36  C   UNL A   1      39.271  25.563  28.844  1.00  0.00     0.010 A 
ATOM     37  C   UNL A   1      40.443  26.297  26.864  1.00  0.00     0.010 A 
ATOM     38  C   UNL A   1      40.073  26.519  28.199  1.00  0.00    -0.014 A 
BRANCH  38  39
ATOM     39  C   UNL A   1      40.528  27.743  28.915  1.00  0.00     0.031 A 
ATOM     40  C   UNL A   1      41.888  27.794  29.563  1.00  0.00     0.074 A 
ATOM     41  C   UNL A   1      39.698  28.803  29.019  1.00  0.00     0.049 A 
ATOM     42  N   UNL A   1      42.443  28.768  30.239  1.00  0.00    -0.248 NA
ATOM     43  C   UNL A   1      42.727  26.589  29.457  1.00  0.00     0.031 C 
ATOM     44  C   UNL A   1      38.339  28.868  28.475  1.00  0.00     0.029 A 
ATOM     45  N   UNL A   1      39.873  30.026  29.616  1.00  0.00    -0.354 N 
ATOM     46  C   UNL A   1      43.683  28.292  30.652  1.00  0.00     0.074 A 
ATOM     47  C   UNL A   1      43.781  26.925  30.188  1.00  0.00     0.031 C 
ATOM     48  C   UNL A   1      37.816  30.075  28.741  1.00  0.00     0.029 A 
ATOM     49  C   UNL A   1      38.780  30.856  29.509  1.00  0.00     0.049 A 
ATOM     50  H   UNL A   1      40.702  30.286  30.079  1.00  0.00     0.167 HD
ATOM     51  C   UNL A   1      44.657  28.935  31.340  1.00  0.00     0.031 A 
ATOM     52  C   UNL A   1      38.570  32.102  29.981  1.00  0.00     0.031 A 
ATOM     53  C   UNL A   1      44.562  30.300  31.788  1.00  0.00     0.049 A 
ATOM     54  C   UNL A   1      39.668  32.793  30.743  1.00  0.00     0.074 A 
ATOM     55  C   UNL A   1      45.525  31.061  32.431  1.00  0.00     0.029 A 
ATOM     56  N   UNL A   1      43.443  31.107  31.651  1.00  0.00    -0.354 N 
ATOM     57  N   UNL A   1      40.864  32.351  31.049  1.00  0.00    -0.248 NA
ATOM     58  C   UNL A   1      39.391  34.158  31.213  1.00  0.00     0.031 C 
ATOM     59  C   UNL A   1      44.965  32.303  32.741  1.00  0.00     0.029 A 
ATOM     60  C   UNL A   1      43.679  32.344  32.229  1.00  0.00     0.049 A 
ATOM     61  H   UNL A   1      42.606  30.841  31.208  1.00  0.00     0.167 HD
ATOM     62  C   UNL A   1      41.491  33.392  31.725  1.00  0.00     0.074 A 
ATOM     63  C   UNL A   1      40.550  34.492  31.763  1.00  0.00     0.031 C 
ATOM     64  C   UNL A   1      42.733  33.432  32.267  1.00  0.00     0.031 A 
BRANCH  51  65
ATOM     65  C   UNL A   1      45.913  28.169  31.667  1.00  0.00    -0.014 A 
ATOM     66  C   UNL A   1      46.000  27.360  32.815  1.00  0.00     0.010 A 
ATOM     67  C   UNL A   1      47.002  28.204  30.775  1.00  0.00     0.010 A 
ATOM     68  C   UNL A   1      47.161  26.629  33.081  1.00  0.00     0.020 A 
ATOM     69  C   UNL A   1      48.154  27.451  31.022  1.00  0.00     0.020 A 
ATOM     70  C   UNL A   1      48.231  26.678  32.181  1.00  0.00     0.054 A 
BRANCH  70  71
ATOM     71  S   UNL A   1      49.709  25.687  32.533  1.00  0.00     0.124 S 
ATOM     72  O   UNL A   1      49.189  24.694  33.472  1.00  0.00    -0.237 OA
ATOM     73  O   UNL A   1      50.072  25.175  31.215  1.00  0.00    -0.237 OA
ATOM     74  O   UNL A   1      50.646  26.651  33.105  1.00  0.00    -0.744 OA
ENDBRANCH  70  71
ENDBRANCH  51  65
BRANCH  52  75
ATOM     75  C   UNL A   1      37.260  32.774  29.749  1.00  0.00    -0.014 A 
ATOM     76  C   UNL A   1      36.236  32.711  30.711  1.00  0.00     0.010 A 
ATOM     77  C   UNL A   1      37.030  33.483  28.554  1.00  0.00     0.010 A 
ATOM     78  C   UNL A   1      35.001  33.321  30.472  1.00  0.00     0.020 A 
ATOM     79  C   UNL A   1      35.809  34.123  28.328  1.00  0.00     0.020 A 
ATOM     80  C   UNL A   1      34.796  34.025  29.283  1.00  0.00     0.054 A 
BRANCH  80  81
ATOM     81  S   UNL A   1      33.200  34.845  29.013  1.00  0.00     0.124 S 
ATOM     82  O   UNL A   1      33.612  36.177  28.584  1.00  0.00    -0.237 OA
ATOM     83  O   UNL A   1      32.586  34.008  27.985  1.00  0.00    -0.237 OA
ATOM     84  O   UNL A   1      32.557  34.780  30.324  1.00  0.00    -0.744 OA
ENDBRANCH  80  81
ENDBRANCH  52  75
BRANCH  64  85
ATOM     85  C   UNL A   1      43.163  34.717  32.926  1.00  0.00    -0.014 A 
ATOM     86  C   UNL A   1      43.040  34.904  34.314  1.00  0.00     0.010 A 
ATOM     87  C   UNL A   1      43.744  35.736  32.149  1.00  0.00     0.010 A 
ATOM     88  C   UNL A   1      43.453  36.101  34.906  1.00  0.00     0.020 A 
ATOM     89  C   UNL A   1      44.188  36.920  32.740  1.00  0.00     0.020 A 
ATOM     90  C   UNL A   1      44.024  37.102  34.115  1.00  0.00     0.054 A 
BRANCH  90  91
ATOM     91  S   UNL A   1      44.585  38.632  34.913  1.00  0.00     0.124 S 
ATOM     92  O   UNL A   1      44.284  38.368  36.317  1.00  0.00    -0.237 OA
ATOM     93  O   UNL A   1      46.004  38.670  34.570  1.00  0.00    -0.237 OA
ATOM     94  O   UNL A   1      43.769  39.670  34.286  1.00  0.00    -0.744 OA
ENDBRANCH  90  91
ENDBRANCH  64  85
ENDBRANCH  38  39
ENDBRANCH  30  33
ENDBRANCH  28  29
ENDBRANCH  27  28
ENDBRANCH  26  27
ENDBRANCH   1  26
TORSDOF 19
ENDMDL
MODEL 2
REMARK VINA RESULT:     -10.6      4.543     10.395
REMARK SMILES O=C(Cc1ccc(F)cc1F)Nc1sccc1C(=O)NCCCCCCNC(=O)c1ccc(-c2c3nc(c(-c4ccc(S(=O)(=O)[O-])cc4)c4ccc([nH]4)c(-c4ccc(S(=O)(=O)[O-])cc4)c4nc(c(-c5ccc(S(=O)(=O)[O-])cc5)c5ccc2[nH]5)C=C4)C=C3)cc1
REMARK SMILES IDX 23 1 22 2 21 3 20 4 18 5 19 6 17 8 13 9 14 10 15 11 16 12
REMARK SMILES IDX 12 13 1 14 2 15 3 17 4 18 5 19 10 20 6 21 9 22 11 23 7 24
REMARK SMILES IDX 8 25 24 26 25 27 26 28 27 29 28 30 29 32 30 33 31 34 89 35
REMARK SMILES IDX 32 36 88 37 33 38 34 39 35 40 82 41 36 42 87 43 81 44 83 45
REMARK SMILES IDX 37 46 86 47 80 48 79 49 38 51 68 52 49 53 67 54 50 55 53 56
REMARK SMILES IDX 66 57 84 58 51 59 52 60 65 62 85 63 54 64 39 65 40 66 48 67
REMARK SMILES IDX 41 68 47 69 42 70 43 71 44 72 45 73 46 74 69 75 70 76 78 77
REMARK SMILES IDX 71 78 77 79 72 80 73 81 74 82 75 83 76 84 55 85 56 86 64 87
REMARK SMILES IDX 57 88 63 89 58 90 59 91 60 92 61 93 62 94
REMARK H PARENT 20 7 12 16 27 31 83 50 53 61
REMARK Flexibility Score: inf
ROOT
ATOM      1  C   UNL A   1      35.037  29.323  27.470  1.00  0.00     0.002 C 
ENDROOT
BRANCH   1   2
ATOM      2  C   UNL A   1      33.659  28.731  27.145  1.00  0.00     0.021 C 
BRANCH   2   3
ATOM      3  C   UNL A   1      32.830  29.469  26.100  1.00  0.00     0.116 C 
BRANCH   3   4
ATOM      4  N   UNL A   1      33.309  29.441  24.743  1.00  0.00    -0.352 N 
ATOM      5  C   UNL A   1      32.788  28.795  23.641  1.00  0.00     0.254 C 
ATOM      6  O   UNL A   1      33.321  29.051  22.557  1.00  0.00    -0.269 OA
ATOM      7  H   UNL A   1      34.129  29.960  24.577  1.00  0.00     0.163 HD
BRANCH   5   8
ATOM      8  C   UNL A   1      31.800  27.705  23.740  1.00  0.00     0.074 A 
ATOM      9  C   UNL A   1      31.933  26.324  23.748  1.00  0.00     0.108 A 
ATOM     10  S   UNL A   1      30.441  25.503  23.580  1.00  0.00    -0.126 S 
ATOM     11  C   UNL A   1      29.556  26.939  23.803  1.00  0.00     0.068 A 
ATOM     12  C   UNL A   1      30.388  28.030  23.867  1.00  0.00     0.028 A 
BRANCH   9  13
ATOM     13  N   UNL A   1      32.968  25.420  23.829  1.00  0.00    -0.317 N 
ATOM     14  O   UNL A   1      33.770  25.665  21.678  1.00  0.00    -0.274 OA
ATOM     15  C   UNL A   1      33.732  25.053  22.743  1.00  0.00     0.229 C 
ATOM     16  H   UNL A   1      33.175  25.019  24.704  1.00  0.00     0.170 HD
BRANCH  15  17
ATOM     17  C   UNL A   1      34.372  23.689  22.890  1.00  0.00     0.139 C 
BRANCH  17  18
ATOM     18  C   UNL A   1      34.316  22.969  24.204  1.00  0.00    -0.003 A 
ATOM     19  C   UNL A   1      33.347  22.010  24.506  1.00  0.00     0.010 A 
ATOM     20  C   UNL A   1      35.220  23.361  25.212  1.00  0.00     0.129 A 
ATOM     21  C   UNL A   1      33.320  21.438  25.780  1.00  0.00     0.040 A 
ATOM     22  C   UNL A   1      35.193  22.803  26.479  1.00  0.00     0.078 A 
ATOM     23  F   UNL A   1      36.137  24.305  24.949  1.00  0.00    -0.207 F 
ATOM     24  C   UNL A   1      34.241  21.836  26.750  1.00  0.00     0.126 A 
ATOM     25  F   UNL A   1      34.202  21.275  27.963  1.00  0.00    -0.207 F 
ENDBRANCH  17  18
ENDBRANCH  15  17
ENDBRANCH   9  13
ENDBRANCH   5   8
ENDBRANCH   3   4
ENDBRANCH   2   3
ENDBRANCH   1   2
BRANCH   1  26
ATOM     26  C   UNL A   1      35.209  30.846  27.353  1.00  0.00     0.002 C 
BRANCH  26  27
ATOM     27  C   UNL A   1      34.753  31.696  28.540  1.00  0.00     0.021 C 
BRANCH  27  28
ATOM     28  C   UNL A   1      35.818  32.158  29.524  1.00  0.00     0.116 C 
BRANCH  28  29
ATOM     29  N   UNL A   1      35.729  31.490  30.807  1.00  0.00    -0.352 N 
ATOM     30  C   UNL A   1      36.589  30.600  31.403  1.00  0.00     0.251 C 
ATOM     31  H   UNL A   1      34.927  31.707  31.334  1.00  0.00     0.163 HD
ATOM     32  O   UNL A   1      36.239  30.039  32.441  1.00  0.00    -0.269 OA
BRANCH  30  33
ATOM     33  C   UNL A   1      37.914  30.286  30.812  1.00  0.00     0.039 A 
ATOM     34  C   UNL A   1      38.987  30.046  31.678  1.00  0.00     0.014 A 
ATOM     35  C   UNL A   1      38.132  30.271  29.431  1.00  0.00     0.014 A 
ATOM     36  C   UNL A   1      40.252  29.745  31.164  1.00  0.00     0.010 A 
ATOM     37  C   UNL A   1      39.376  29.897  28.919  1.00  0.00     0.010 A 
ATOM     38  C   UNL A   1      40.455  29.638  29.778  1.00  0.00    -0.014 A 
BRANCH  38  39
ATOM     39  C   UNL A   1      41.783  29.251  29.228  1.00  0.00     0.031 A 
ATOM     40  C   UNL A   1      42.889  30.268  29.101  1.00  0.00     0.074 A 
ATOM     41  C   UNL A   1      41.986  27.987  28.801  1.00  0.00     0.049 A 
ATOM     42  N   UNL A   1      44.101  30.112  28.631  1.00  0.00    -0.248 NA
ATOM     43  C   UNL A   1      42.590  31.641  29.538  1.00  0.00     0.031 C 
ATOM     44  C   UNL A   1      40.986  26.915  28.826  1.00  0.00     0.029 A 
ATOM     45  N   UNL A   1      43.097  27.387  28.262  1.00  0.00    -0.354 N 
ATOM     46  C   UNL A   1      44.702  31.365  28.700  1.00  0.00     0.074 A 
ATOM     47  C   UNL A   1      43.707  32.279  29.215  1.00  0.00     0.031 C 
ATOM     48  C   UNL A   1      41.536  25.787  28.351  1.00  0.00     0.029 A 
ATOM     49  C   UNL A   1      42.912  26.060  27.947  1.00  0.00     0.049 A 
ATOM     50  H   UNL A   1      43.946  27.862  28.113  1.00  0.00     0.167 HD
ATOM     51  C   UNL A   1      45.970  31.720  28.378  1.00  0.00     0.031 A 
ATOM     52  C   UNL A   1      43.749  25.162  27.389  1.00  0.00     0.031 A 
ATOM     53  C   UNL A   1      46.963  30.805  27.879  1.00  0.00     0.049 A 
ATOM     54  C   UNL A   1      45.151  25.582  27.040  1.00  0.00     0.074 A 
ATOM     55  C   UNL A   1      48.295  31.057  27.591  1.00  0.00     0.029 A 
ATOM     56  N   UNL A   1      46.738  29.469  27.584  1.00  0.00    -0.354 N 
ATOM     57  N   UNL A   1      45.722  26.753  27.192  1.00  0.00    -0.248 NA
ATOM     58  C   UNL A   1      46.025  24.556  26.456  1.00  0.00     0.031 C 
ATOM     59  C   UNL A   1      48.855  29.892  27.061  1.00  0.00     0.029 A 
ATOM     60  C   UNL A   1      47.895  28.894  27.084  1.00  0.00     0.049 A 
ATOM     61  H   UNL A   1      45.883  28.999  27.711  1.00  0.00     0.167 HD
ATOM     62  C   UNL A   1      47.030  26.597  26.746  1.00  0.00     0.074 A 
ATOM     63  C   UNL A   1      47.170  25.214  26.339  1.00  0.00     0.031 C 
ATOM     64  C   UNL A   1      48.024  27.517  26.676  1.00  0.00     0.031 A 
BRANCH  51  65
ATOM     65  C   UNL A   1      46.361  33.167  28.543  1.00  0.00    -0.014 A 
ATOM     66  C   UNL A   1      46.962  33.633  29.726  1.00  0.00     0.010 A 
ATOM     67  C   UNL A   1      46.187  34.061  27.469  1.00  0.00     0.010 A 
ATOM     68  C   UNL A   1      47.351  34.970  29.844  1.00  0.00     0.020 A 
ATOM     69  C   UNL A   1      46.601  35.392  27.573  1.00  0.00     0.020 A 
ATOM     70  C   UNL A   1      47.169  35.842  28.765  1.00  0.00     0.054 A 
BRANCH  70  71
ATOM     71  S   UNL A   1      47.720  37.561  28.935  1.00  0.00     0.124 S 
ATOM     72  O   UNL A   1      46.828  38.256  28.008  1.00  0.00    -0.237 OA
ATOM     73  O   UNL A   1      47.488  37.833  30.351  1.00  0.00    -0.237 OA
ATOM     74  O   UNL A   1      49.123  37.519  28.532  1.00  0.00    -0.744 OA
ENDBRANCH  70  71
ENDBRANCH  51  65
BRANCH  52  75
ATOM     75  C   UNL A   1      43.278  23.773  27.119  1.00  0.00    -0.014 A 
ATOM     76  C   UNL A   1      43.340  22.784  28.116  1.00  0.00     0.010 A 
ATOM     77  C   UNL A   1      42.764  23.434  25.853  1.00  0.00     0.010 A 
ATOM     78  C   UNL A   1      42.921  21.477  27.845  1.00  0.00     0.020 A 
ATOM     79  C   UNL A   1      42.314  22.138  25.590  1.00  0.00     0.020 A 
ATOM     80  C   UNL A   1      42.409  21.163  26.584  1.00  0.00     0.054 A 
BRANCH  80  81
ATOM     81  S   UNL A   1      41.832  19.472  26.267  1.00  0.00     0.124 S 
ATOM     82  O   UNL A   1      42.593  19.111  25.076  1.00  0.00    -0.237 OA
ATOM     83  O   UNL A   1      42.209  18.777  27.496  1.00  0.00    -0.237 OA
ATOM     84  O   UNL A   1      40.394  19.633  26.067  1.00  0.00    -0.744 OA
ENDBRANCH  80  81
ENDBRANCH  52  75
BRANCH  64  85
ATOM     85  C   UNL A   1      49.365  27.055  26.167  1.00  0.00    -0.014 A 
ATOM     86  C   UNL A   1      50.313  26.474  27.028  1.00  0.00     0.010 A 
ATOM     87  C   UNL A   1      49.661  27.160  24.796  1.00  0.00     0.010 A 
ATOM     88  C   UNL A   1      51.547  26.043  26.533  1.00  0.00     0.020 A 
ATOM     89  C   UNL A   1      50.880  26.702  24.291  1.00  0.00     0.020 A 
ATOM     90  C   UNL A   1      51.823  26.161  25.167  1.00  0.00     0.054 A 
BRANCH  90  91
ATOM     91  S   UNL A   1      53.419  25.562  24.545  1.00  0.00     0.124 S 
ATOM     92  O   UNL A   1      53.297  25.813  23.111  1.00  0.00    -0.237 OA
ATOM     93  O   UNL A   1      54.376  26.407  25.252  1.00  0.00    -0.237 OA
ATOM     94  O   UNL A   1      53.435  24.153  24.930  1.00  0.00    -0.744 OA
ENDBRANCH  90  91
ENDBRANCH  64  85
ENDBRANCH  38  39
ENDBRANCH  30  33
ENDBRANCH  28  29
ENDBRANCH  27  28
ENDBRANCH  26  27
ENDBRANCH   1  26
TORSDOF 19
ENDMDL
MODEL 3
REMARK VINA RESULT:     -10.5      4.355      9.759
REMARK SMILES O=C(Cc1ccc(F)cc1F)Nc1sccc1C(=O)NCCCCCCNC(=O)c1ccc(-c2c3nc(c(-c4ccc(S(=O)(=O)[O-])cc4)c4ccc([nH]4)c(-c4ccc(S(=O)(=O)[O-])cc4)c4nc(c(-c5ccc(S(=O)(=O)[O-])cc5)c5ccc2[nH]5)C=C4)C=C3)cc1
REMARK SMILES IDX 23 1 22 2 21 3 20 4 18 5 19 6 17 8 13 9 14 10 15 11 16 12
REMARK SMILES IDX 12 13 1 14 2 15 3 17 4 18 5 19 10 20 6 21 9 22 11 23 7 24
REMARK SMILES IDX 8 25 24 26 25 27 26 28 27 29 28 30 29 32 30 33 31 34 89 35
REMARK SMILES IDX 32 36 88 37 33 38 34 39 35 40 82 41 36 42 87 43 81 44 83 45
REMARK SMILES IDX 37 46 86 47 80 48 79 49 38 51 68 52 49 53 67 54 50 55 53 56
REMARK SMILES IDX 66 57 84 58 51 59 52 60 65 62 85 63 54 64 39 65 40 66 48 67
REMARK SMILES IDX 41 68 47 69 42 70 43 71 44 72 45 73 46 74 69 75 70 76 78 77
REMARK SMILES IDX 71 78 77 79 72 80 73 81 74 82 75 83 76 84 55 85 56 86 64 87
REMARK SMILES IDX 57 88 63 89 58 90 59 91 60 92 61 93 62 94
REMARK H PARENT 20 7 12 16 27 31 83 50 53 61
REMARK Flexibility Score: inf
ROOT
ATOM      1  C   UNL A   1      36.131  23.565  24.495  1.00  0.00     0.002 C 
ENDROOT
BRANCH   1   2
ATOM      2  C   UNL A   1      35.124  24.368  25.331  1.00  0.00     0.021 C 
BRANCH   2   3
ATOM      3  C   UNL A   1      34.194  25.301  24.563  1.00  0.00     0.116 C 
BRANCH   3   4
ATOM      4  N   UNL A   1      33.890  24.949  23.201  1.00  0.00    -0.352 N 
ATOM      5  C   UNL A   1      32.851  25.372  22.396  1.00  0.00     0.254 C 
ATOM      6  O   UNL A   1      32.902  25.020  21.213  1.00  0.00    -0.269 OA
ATOM      7  H   UNL A   1      34.514  24.314  22.782  1.00  0.00     0.163 HD
BRANCH   5   8
ATOM      8  C   UNL A   1      31.639  26.022  22.923  1.00  0.00     0.074 A 
ATOM      9  C   UNL A   1      30.609  25.560  23.731  1.00  0.00     0.108 A 
ATOM     10  S   UNL A   1      29.278  26.633  23.804  1.00  0.00    -0.126 S 
ATOM     11  C   UNL A   1      30.151  27.868  23.024  1.00  0.00     0.068 A 
ATOM     12  C   UNL A   1      31.378  27.417  22.602  1.00  0.00     0.028 A 
BRANCH   9  13
ATOM     13  N   UNL A   1      30.357  24.434  24.482  1.00  0.00    -0.317 N 
ATOM     14  O   UNL A   1      31.104  25.237  26.514  1.00  0.00    -0.274 OA
ATOM     15  C   UNL A   1      30.750  24.304  25.796  1.00  0.00     0.229 C 
ATOM     16  H   UNL A   1      29.872  23.688  24.062  1.00  0.00     0.170 HD
BRANCH  15  17
ATOM     17  C   UNL A   1      30.918  22.865  26.235  1.00  0.00     0.139 C 
BRANCH  17  18
ATOM     18  C   UNL A   1      32.114  22.077  25.791  1.00  0.00    -0.003 A 
ATOM     19  C   UNL A   1      32.233  21.528  24.513  1.00  0.00     0.010 A 
ATOM     20  C   UNL A   1      33.109  21.791  26.747  1.00  0.00     0.129 A 
ATOM     21  C   UNL A   1      33.347  20.746  24.202  1.00  0.00     0.040 A 
ATOM     22  C   UNL A   1      34.212  21.010  26.447  1.00  0.00     0.078 A 
ATOM     23  F   UNL A   1      32.994  22.284  27.991  1.00  0.00    -0.207 F 
ATOM     24  C   UNL A   1      34.323  20.497  25.166  1.00  0.00     0.126 A 
ATOM     25  F   UNL A   1      35.385  19.747  24.850  1.00  0.00    -0.207 F 
ENDBRANCH  17  18
ENDBRANCH  15  17
ENDBRANCH   9  13
ENDBRANCH   5   8
ENDBRANCH   3   4
ENDBRANCH   2   3
ENDBRANCH   1   2
BRANCH   1  26
ATOM     26  C   UNL A   1      37.520  23.308  25.099  1.00  0.00     0.002 C 
BRANCH  26  27
ATOM     27  C   UNL A   1      37.982  21.854  25.200  1.00  0.00     0.021 C 
BRANCH  27  28
ATOM     28  C   UNL A   1      38.892  21.484  26.363  1.00  0.00     0.116 C 
BRANCH  28  29
ATOM     29  N   UNL A   1      39.852  20.453  26.023  1.00  0.00    -0.352 N 
ATOM     30  C   UNL A   1      41.224  20.499  25.981  1.00  0.00     0.251 C 
ATOM     31  H   UNL A   1      39.459  19.583  25.784  1.00  0.00     0.163 HD
ATOM     32  O   UNL A   1      41.838  19.539  25.518  1.00  0.00    -0.269 OA
BRANCH  30  33
ATOM     33  C   UNL A   1      41.975  21.687  26.459  1.00  0.00     0.039 A 
ATOM     34  C   UNL A   1      42.247  22.713  25.546  1.00  0.00     0.014 A 
ATOM     35  C   UNL A   1      42.456  21.790  27.768  1.00  0.00     0.014 A 
ATOM     36  C   UNL A   1      42.950  23.850  25.955  1.00  0.00     0.010 A 
ATOM     37  C   UNL A   1      43.093  22.959  28.194  1.00  0.00     0.010 A 
ATOM     38  C   UNL A   1      43.355  24.000  27.291  1.00  0.00    -0.014 A 
BRANCH  38  39
ATOM     39  C   UNL A   1      44.044  25.239  27.747  1.00  0.00     0.031 A 
ATOM     40  C   UNL A   1      43.284  26.319  28.472  1.00  0.00     0.074 A 
ATOM     41  C   UNL A   1      45.354  25.413  27.472  1.00  0.00     0.049 A 
ATOM     42  N   UNL A   1      43.717  27.468  28.927  1.00  0.00    -0.248 NA
ATOM     43  C   UNL A   1      41.848  26.092  28.699  1.00  0.00     0.031 C 
ATOM     44  C   UNL A   1      46.197  24.465  26.738  1.00  0.00     0.029 A 
ATOM     45  N   UNL A   1      46.206  26.446  27.774  1.00  0.00    -0.354 N 
ATOM     46  C   UNL A   1      42.610  28.106  29.476  1.00  0.00     0.074 A 
ATOM     47  C   UNL A   1      41.475  27.235  29.258  1.00  0.00     0.031 C 
ATOM     48  C   UNL A   1      47.448  24.947  26.671  1.00  0.00     0.029 A 
ATOM     49  C   UNL A   1      47.491  26.255  27.316  1.00  0.00     0.049 A 
ATOM     50  H   UNL A   1      45.925  27.248  28.269  1.00  0.00     0.167 HD
ATOM     51  C   UNL A   1      42.543  29.298  30.116  1.00  0.00     0.031 A 
ATOM     52  C   UNL A   1      48.581  27.045  27.398  1.00  0.00     0.031 A 
ATOM     53  C   UNL A   1      43.677  30.156  30.345  1.00  0.00     0.049 A 
ATOM     54  C   UNL A   1      48.480  28.365  28.113  1.00  0.00     0.074 A 
ATOM     55  C   UNL A   1      43.722  31.351  31.045  1.00  0.00     0.029 A 
ATOM     56  N   UNL A   1      44.960  29.922  29.874  1.00  0.00    -0.354 N 
ATOM     57  N   UNL A   1      47.440  28.908  28.698  1.00  0.00    -0.248 NA
ATOM     58  C   UNL A   1      49.706  29.172  28.191  1.00  0.00     0.031 C 
ATOM     59  C   UNL A   1      45.015  31.870  30.941  1.00  0.00     0.029 A 
ATOM     60  C   UNL A   1      45.794  30.966  30.238  1.00  0.00     0.049 A 
ATOM     61  H   UNL A   1      45.237  29.131  29.358  1.00  0.00     0.167 HD
ATOM     62  C   UNL A   1      47.891  30.110  29.233  1.00  0.00     0.074 A 
ATOM     63  C   UNL A   1      49.302  30.202  28.922  1.00  0.00     0.031 C 
ATOM     64  C   UNL A   1      47.198  31.053  29.919  1.00  0.00     0.031 A 
BRANCH  51  65
ATOM     65  C   UNL A   1      41.196  29.760  30.610  1.00  0.00    -0.014 A 
ATOM     66  C   UNL A   1      40.321  30.485  29.780  1.00  0.00     0.010 A 
ATOM     67  C   UNL A   1      40.769  29.403  31.903  1.00  0.00     0.010 A 
ATOM     68  C   UNL A   1      39.061  30.873  30.245  1.00  0.00     0.020 A 
ATOM     69  C   UNL A   1      39.498  29.764  32.361  1.00  0.00     0.020 A 
ATOM     70  C   UNL A   1      38.657  30.508  31.533  1.00  0.00     0.054 A 
BRANCH  70  71
ATOM     71  S   UNL A   1      37.001  30.991  32.093  1.00  0.00     0.124 S 
ATOM     72  O   UNL A   1      36.237  29.765  31.867  1.00  0.00    -0.237 OA
ATOM     73  O   UNL A   1      37.226  31.340  33.493  1.00  0.00    -0.237 OA
ATOM     74  O   UNL A   1      36.651  32.110  31.222  1.00  0.00    -0.744 OA
ENDBRANCH  70  71
ENDBRANCH  51  65
BRANCH  52  75
ATOM     75  C   UNL A   1      49.864  26.607  26.778  1.00  0.00    -0.014 A 
ATOM     76  C   UNL A   1      50.153  26.901  25.433  1.00  0.00     0.010 A 
ATOM     77  C   UNL A   1      50.807  25.889  27.536  1.00  0.00     0.010 A 
ATOM     78  C   UNL A   1      51.347  26.463  24.852  1.00  0.00     0.020 A 
ATOM     79  C   UNL A   1      52.016  25.479  26.968  1.00  0.00     0.020 A 
ATOM     80  C   UNL A   1      52.272  25.756  25.625  1.00  0.00     0.054 A 
BRANCH  80  81
ATOM     81  S   UNL A   1      53.834  25.234  24.862  1.00  0.00     0.124 S 
ATOM     82  O   UNL A   1      53.774  25.898  23.564  1.00  0.00    -0.237 OA
ATOM     83  O   UNL A   1      54.829  25.754  25.796  1.00  0.00    -0.237 OA
ATOM     84  O   UNL A   1      53.725  23.776  24.826  1.00  0.00    -0.744 OA
ENDBRANCH  80  81
ENDBRANCH  52  75
BRANCH  64  85
ATOM     85  C   UNL A   1      47.960  32.257  30.408  1.00  0.00    -0.014 A 
ATOM     86  C   UNL A   1      48.610  32.255  31.654  1.00  0.00     0.010 A 
ATOM     87  C   UNL A   1      48.066  33.393  29.584  1.00  0.00     0.010 A 
ATOM     88  C   UNL A   1      49.319  33.380  32.084  1.00  0.00     0.020 A 
ATOM     89  C   UNL A   1      48.800  34.507  29.995  1.00  0.00     0.020 A 
ATOM     90  C   UNL A   1      49.409  34.500  31.252  1.00  0.00     0.054 A 
BRANCH  90  91
ATOM     91  S   UNL A   1      50.365  35.933  31.819  1.00  0.00     0.124 S 
ATOM     92  O   UNL A   1      51.309  35.319  32.748  1.00  0.00    -0.237 OA
ATOM     93  O   UNL A   1      50.944  36.443  30.579  1.00  0.00    -0.237 OA
ATOM     94  O   UNL A   1      49.361  36.799  32.434  1.00  0.00    -0.744 OA
ENDBRANCH  90  91
ENDBRANCH  64  85
ENDBRANCH  38  39
ENDBRANCH  30  33
ENDBRANCH  28  29
ENDBRANCH  27  28
ENDBRANCH  26  27
ENDBRANCH   1  26
TORSDOF 19
ENDMDL
