MODEL 1
REMARK VINA RESULT:     -12.9      0.000      0.000
REMARK SMILES Cc1ccccc1C[C@H](C[C@@H]1Cc2ccccc21)C(=O)NCCCCCCNC(=O)c1ccc(-c2c3nc(c(-c4ccc(S(=O)(=O)[O-])cc4)c4ccc([nH]4)c(-c4ccc(S(=O)(=O)[O-])cc4)c4nc(c(-c5ccc(S(=O)(=O)[O-])cc5)c5ccc2[nH]5)C=C4)C=C3)cc1
REMARK SMILES IDX 25 1 24 2 23 3 22 4 21 5 19 6 20 7 9 9 8 10 7 11 1 12 2 13
REMARK SMILES IDX 3 14 4 15 6 16 5 17 10 18 11 19 12 20 18 21 13 22 17 23
REMARK SMILES IDX 14 24 16 25 15 26 26 27 27 28 28 29 29 30 30 32 31 33 32 34
REMARK SMILES IDX 90 35 33 36 89 37 34 38 35 39 36 40 83 41 37 42 88 43 82 44
REMARK SMILES IDX 84 45 38 46 87 47 81 48 80 49 39 51 69 52 50 53 68 54 51 55
REMARK SMILES IDX 54 56 67 57 85 58 52 59 53 60 66 62 86 63 55 64 40 65 41 66
REMARK SMILES IDX 49 67 42 68 48 69 43 70 44 71 45 72 46 73 47 74 70 75 71 76
REMARK SMILES IDX 79 77 72 78 78 79 73 80 74 81 75 82 76 83 77 84 56 85 57 86
REMARK SMILES IDX 65 87 58 88 64 89 59 90 60 91 61 92 62 93 63 94
REMARK H PARENT 21 8 28 31 84 50 54 61
REMARK Flexibility Score: inf
ROOT
ATOM      1  C   UNL A   1      32.307  29.289  25.923  1.00  0.00     0.002 C 
ENDROOT
BRANCH   1   2
ATOM      2  C   UNL A   1      31.359  29.628  24.762  1.00  0.00     0.002 C 
BRANCH   2   3
ATOM      3  C   UNL A   1      31.729  29.113  23.367  1.00  0.00     0.021 C 
BRANCH   3   4
ATOM      4  C   UNL A   1      31.603  27.610  23.136  1.00  0.00     0.116 C 
BRANCH   4   5
ATOM      5  N   UNL A   1      32.284  27.114  21.958  1.00  0.00    -0.356 N 
ATOM      6  C   UNL A   1      32.751  25.867  21.682  1.00  0.00     0.223 C 
ATOM      7  O   UNL A   1      32.983  25.604  20.495  1.00  0.00    -0.275 OA
ATOM      8  H   UNL A   1      32.430  27.782  21.249  1.00  0.00     0.163 HD
BRANCH   6   9
ATOM      9  C   UNL A   1      33.029  24.794  22.747  1.00  0.00     0.083 C 
BRANCH   9  10
ATOM     10  C   UNL A   1      33.607  23.477  22.171  1.00  0.00     0.049 C 
BRANCH  10  11
ATOM     11  C   UNL A   1      34.428  22.581  23.076  1.00  0.00    -0.044 A 
ATOM     12  C   UNL A   1      32.447  21.052  23.664  1.00  0.00     0.044 C 
ATOM     13  C   UNL A   1      33.881  21.491  23.789  1.00  0.00    -0.048 A 
ATOM     14  C   UNL A   1      34.689  20.796  24.709  1.00  0.00     0.004 A 
ATOM     15  C   UNL A   1      36.030  21.130  24.888  1.00  0.00     0.000 A 
ATOM     16  C   UNL A   1      35.802  22.855  23.223  1.00  0.00     0.004 A 
ATOM     17  C   UNL A   1      36.592  22.149  24.132  1.00  0.00     0.000 A 
ENDBRANCH  10  11
ENDBRANCH   9  10
BRANCH   9  18
ATOM     18  C   UNL A   1      31.961  24.601  23.838  1.00  0.00     0.022 C 
BRANCH  18  19
ATOM     19  C   UNL A   1      32.425  25.125  25.204  1.00  0.00     0.025 C 
ATOM     20  C   UNL A   1      33.973  25.381  25.379  1.00  0.00     0.044 C 
ATOM     21  C   UNL A   1      32.614  24.014  26.209  1.00  0.00    -0.041 A 
ATOM     22  C   UNL A   1      33.966  24.213  26.324  1.00  0.00    -0.044 A 
ATOM     23  C   UNL A   1      31.953  23.031  26.909  1.00  0.00     0.004 A 
ATOM     24  C   UNL A   1      34.747  23.423  27.135  1.00  0.00     0.004 A 
ATOM     25  C   UNL A   1      32.716  22.215  27.743  1.00  0.00     0.000 A 
ATOM     26  C   UNL A   1      34.106  22.407  27.852  1.00  0.00     0.000 A 
ENDBRANCH  18  19
ENDBRANCH   9  18
ENDBRANCH   6   9
ENDBRANCH   4   5
ENDBRANCH   3   4
ENDBRANCH   2   3
ENDBRANCH   1   2
BRANCH   1  27
ATOM     27  C   UNL A   1      33.145  30.432  26.498  1.00  0.00     0.021 C 
BRANCH  27  28
ATOM     28  C   UNL A   1      34.396  29.991  27.248  1.00  0.00     0.116 C 
BRANCH  28  29
ATOM     29  N   UNL A   1      35.125  31.128  27.807  1.00  0.00    -0.352 N 
ATOM     30  C   UNL A   1      36.363  31.140  28.432  1.00  0.00     0.251 C 
ATOM     31  H   UNL A   1      34.678  32.001  27.731  1.00  0.00     0.163 HD
ATOM     32  O   UNL A   1      36.811  32.113  29.000  1.00  0.00    -0.269 OA
BRANCH  30  33
ATOM     33  C   UNL A   1      37.171  29.915  28.288  1.00  0.00     0.039 A 
ATOM     34  C   UNL A   1      37.286  29.091  29.414  1.00  0.00     0.014 A 
ATOM     35  C   UNL A   1      38.035  29.796  27.204  1.00  0.00     0.014 A 
ATOM     36  C   UNL A   1      38.401  28.272  29.540  1.00  0.00     0.010 A 
ATOM     37  C   UNL A   1      39.187  29.058  27.374  1.00  0.00     0.010 A 
ATOM     38  C   UNL A   1      39.395  28.342  28.564  1.00  0.00    -0.014 A 
BRANCH  38  39
ATOM     39  C   UNL A   1      40.724  27.768  28.739  1.00  0.00     0.031 A 
ATOM     40  C   UNL A   1      40.960  26.352  28.384  1.00  0.00     0.074 A 
ATOM     41  C   UNL A   1      41.754  28.535  29.161  1.00  0.00     0.049 A 
ATOM     42  N   UNL A   1      41.897  25.618  28.884  1.00  0.00    -0.248 NA
ATOM     43  C   UNL A   1      40.092  25.627  27.461  1.00  0.00     0.031 C 
ATOM     44  C   UNL A   1      43.173  28.196  29.104  1.00  0.00     0.029 A 
ATOM     45  N   UNL A   1      41.716  29.699  29.934  1.00  0.00    -0.354 N 
ATOM     46  C   UNL A   1      41.953  24.461  28.139  1.00  0.00     0.074 A 
ATOM     47  C   UNL A   1      40.748  24.470  27.343  1.00  0.00     0.031 C 
ATOM     48  C   UNL A   1      43.824  28.917  30.030  1.00  0.00     0.029 A 
ATOM     49  C   UNL A   1      42.821  29.633  30.800  1.00  0.00     0.049 A 
ATOM     50  H   UNL A   1      41.049  30.421  29.881  1.00  0.00     0.167 HD
ATOM     51  C   UNL A   1      43.086  23.702  28.152  1.00  0.00     0.031 A 
ATOM     52  C   UNL A   1      42.734  29.646  32.162  1.00  0.00     0.031 A 
ATOM     53  C   UNL A   1      44.064  24.205  29.117  1.00  0.00     0.049 A 
ATOM     54  C   UNL A   1      43.368  28.431  32.806  1.00  0.00     0.074 A 
ATOM     55  C   UNL A   1      45.214  24.964  28.979  1.00  0.00     0.029 A 
ATOM     56  N   UNL A   1      43.765  24.181  30.474  1.00  0.00    -0.354 N 
ATOM     57  N   UNL A   1      43.682  27.346  32.156  1.00  0.00    -0.248 NA
ATOM     58  C   UNL A   1      43.643  28.321  34.236  1.00  0.00     0.031 C 
ATOM     59  C   UNL A   1      45.564  25.464  30.259  1.00  0.00     0.029 A 
ATOM     60  C   UNL A   1      44.643  24.986  31.175  1.00  0.00     0.049 A 
ATOM     61  H   UNL A   1      43.031  23.665  30.879  1.00  0.00     0.167 HD
ATOM     62  C   UNL A   1      44.154  26.404  33.031  1.00  0.00     0.074 A 
ATOM     63  C   UNL A   1      44.129  27.069  34.321  1.00  0.00     0.031 C 
ATOM     64  C   UNL A   1      44.509  25.152  32.617  1.00  0.00     0.031 A 
BRANCH  51  65
ATOM     65  C   UNL A   1      43.430  22.701  27.065  1.00  0.00    -0.014 A 
ATOM     66  C   UNL A   1      42.688  21.505  26.962  1.00  0.00     0.010 A 
ATOM     67  C   UNL A   1      44.508  22.831  26.170  1.00  0.00     0.010 A 
ATOM     68  C   UNL A   1      43.068  20.459  26.105  1.00  0.00     0.020 A 
ATOM     69  C   UNL A   1      44.924  21.783  25.335  1.00  0.00     0.020 A 
ATOM     70  C   UNL A   1      44.208  20.593  25.319  1.00  0.00     0.054 A 
BRANCH  70  71
ATOM     71  S   UNL A   1      44.745  19.202  24.292  1.00  0.00     0.124 S 
ATOM     72  O   UNL A   1      46.139  19.032  24.694  1.00  0.00    -0.237 OA
ATOM     73  O   UNL A   1      43.835  18.137  24.705  1.00  0.00    -0.237 OA
ATOM     74  O   UNL A   1      44.554  19.686  22.925  1.00  0.00    -0.744 OA
ENDBRANCH  70  71
ENDBRANCH  51  65
BRANCH  52  75
ATOM     75  C   UNL A   1      41.546  30.359  32.701  1.00  0.00    -0.014 A 
ATOM     76  C   UNL A   1      40.398  29.592  32.990  1.00  0.00     0.010 A 
ATOM     77  C   UNL A   1      41.693  31.622  33.301  1.00  0.00     0.010 A 
ATOM     78  C   UNL A   1      39.504  30.002  33.982  1.00  0.00     0.020 A 
ATOM     79  C   UNL A   1      40.795  32.034  34.295  1.00  0.00     0.020 A 
ATOM     80  C   UNL A   1      39.745  31.191  34.670  1.00  0.00     0.054 A 
BRANCH  80  81
ATOM     81  S   UNL A   1      38.788  31.508  36.185  1.00  0.00     0.124 S 
ATOM     82  O   UNL A   1      37.812  32.495  35.734  1.00  0.00    -0.237 OA
ATOM     83  O   UNL A   1      38.250  30.182  36.486  1.00  0.00    -0.237 OA
ATOM     84  O   UNL A   1      39.796  31.996  37.120  1.00  0.00    -0.744 OA
ENDBRANCH  80  81
ENDBRANCH  52  75
BRANCH  64  85
ATOM     85  C   UNL A   1      44.843  23.981  33.510  1.00  0.00    -0.014 A 
ATOM     86  C   UNL A   1      43.942  22.956  33.841  1.00  0.00     0.010 A 
ATOM     87  C   UNL A   1      46.178  23.826  33.957  1.00  0.00     0.010 A 
ATOM     88  C   UNL A   1      44.335  21.868  34.634  1.00  0.00     0.020 A 
ATOM     89  C   UNL A   1      46.591  22.722  34.709  1.00  0.00     0.020 A 
ATOM     90  C   UNL A   1      45.657  21.761  35.069  1.00  0.00     0.054 A 
BRANCH  90  91
ATOM     91  S   UNL A   1      46.168  20.325  36.047  1.00  0.00     0.124 S 
ATOM     92  O   UNL A   1      45.407  19.248  35.418  1.00  0.00    -0.237 OA
ATOM     93  O   UNL A   1      47.613  20.278  35.831  1.00  0.00    -0.237 OA
ATOM     94  O   UNL A   1      45.760  20.673  37.405  1.00  0.00    -0.744 OA
ENDBRANCH  90  91
ENDBRANCH  64  85
ENDBRANCH  38  39
ENDBRANCH  30  33
ENDBRANCH  28  29
ENDBRANCH  27  28
ENDBRANCH   1  27
TORSDOF 20
ENDMDL
MODEL 2
REMARK VINA RESULT:     -12.4      1.577      2.211
REMARK SMILES Cc1ccccc1C[C@H](C[C@@H]1Cc2ccccc21)C(=O)NCCCCCCNC(=O)c1ccc(-c2c3nc(c(-c4ccc(S(=O)(=O)[O-])cc4)c4ccc([nH]4)c(-c4ccc(S(=O)(=O)[O-])cc4)c4nc(c(-c5ccc(S(=O)(=O)[O-])cc5)c5ccc2[nH]5)C=C4)C=C3)cc1
REMARK SMILES IDX 25 1 24 2 23 3 22 4 21 5 19 6 20 7 9 9 8 10 7 11 1 12 2 13
REMARK SMILES IDX 3 14 4 15 6 16 5 17 10 18 11 19 12 20 18 21 13 22 17 23
REMARK SMILES IDX 14 24 16 25 15 26 26 27 27 28 28 29 29 30 30 32 31 33 32 34
REMARK SMILES IDX 90 35 33 36 89 37 34 38 35 39 36 40 83 41 37 42 88 43 82 44
REMARK SMILES IDX 84 45 38 46 87 47 81 48 80 49 39 51 69 52 50 53 68 54 51 55
REMARK SMILES IDX 54 56 67 57 85 58 52 59 53 60 66 62 86 63 55 64 40 65 41 66
REMARK SMILES IDX 49 67 42 68 48 69 43 70 44 71 45 72 46 73 47 74 70 75 71 76
REMARK SMILES IDX 79 77 72 78 78 79 73 80 74 81 75 82 76 83 77 84 56 85 57 86
REMARK SMILES IDX 65 87 58 88 64 89 59 90 60 91 61 92 62 93 63 94
REMARK H PARENT 21 8 28 31 84 50 54 61
REMARK Flexibility Score: inf
ROOT
ATOM      1  C   UNL A   1      31.632  28.889  26.136  1.00  0.00     0.002 C 
ENDROOT
BRANCH   1   2
ATOM      2  C   UNL A   1      31.134  28.796  24.685  1.00  0.00     0.002 C 
BRANCH   2   3
ATOM      3  C   UNL A   1      32.143  29.078  23.566  1.00  0.00     0.021 C 
BRANCH   3   4
ATOM      4  C   UNL A   1      33.364  28.164  23.499  1.00  0.00     0.116 C 
BRANCH   4   5
ATOM      5  N   UNL A   1      33.536  27.467  22.241  1.00  0.00    -0.356 N 
ATOM      6  C   UNL A   1      33.298  26.165  21.928  1.00  0.00     0.223 C 
ATOM      7  O   UNL A   1      33.191  25.886  20.727  1.00  0.00    -0.275 OA
ATOM      8  H   UNL A   1      33.874  28.020  21.501  1.00  0.00     0.163 HD
BRANCH   6   9
ATOM      9  C   UNL A   1      33.185  25.034  22.963  1.00  0.00     0.083 C 
BRANCH   9  10
ATOM     10  C   UNL A   1      33.378  23.618  22.366  1.00  0.00     0.049 C 
BRANCH  10  11
ATOM     11  C   UNL A   1      33.723  22.473  23.297  1.00  0.00    -0.044 A 
ATOM     12  C   UNL A   1      36.200  23.134  23.489  1.00  0.00     0.044 C 
ATOM     13  C   UNL A   1      35.029  22.234  23.779  1.00  0.00    -0.048 A 
ATOM     14  C   UNL A   1      35.283  21.070  24.530  1.00  0.00     0.004 A 
ATOM     15  C   UNL A   1      34.259  20.181  24.852  1.00  0.00     0.000 A 
ATOM     16  C   UNL A   1      32.693  21.597  23.692  1.00  0.00     0.004 A 
ATOM     17  C   UNL A   1      32.960  20.453  24.446  1.00  0.00     0.000 A 
ENDBRANCH  10  11
ENDBRANCH   9  10
BRANCH   9  18
ATOM     18  C   UNL A   1      32.049  25.145  23.995  1.00  0.00     0.022 C 
BRANCH  18  19
ATOM     19  C   UNL A   1      32.572  25.456  25.404  1.00  0.00     0.025 C 
ATOM     20  C   UNL A   1      34.138  25.467  25.595  1.00  0.00     0.044 C 
ATOM     21  C   UNL A   1      32.590  24.233  26.291  1.00  0.00    -0.041 A 
ATOM     22  C   UNL A   1      33.956  24.224  26.418  1.00  0.00    -0.044 A 
ATOM     23  C   UNL A   1      31.788  23.290  26.891  1.00  0.00     0.004 A 
ATOM     24  C   UNL A   1      34.608  23.252  27.140  1.00  0.00     0.004 A 
ATOM     25  C   UNL A   1      32.420  22.293  27.635  1.00  0.00     0.000 A 
ATOM     26  C   UNL A   1      33.821  22.271  27.754  1.00  0.00     0.000 A 
ENDBRANCH  18  19
ENDBRANCH   9  18
ENDBRANCH   6   9
ENDBRANCH   4   5
ENDBRANCH   3   4
ENDBRANCH   2   3
ENDBRANCH   1   2
BRANCH   1  27
ATOM     27  C   UNL A   1      32.132  30.252  26.617  1.00  0.00     0.021 C 
BRANCH  27  28
ATOM     28  C   UNL A   1      33.641  30.347  26.810  1.00  0.00     0.116 C 
BRANCH  28  29
ATOM     29  N   UNL A   1      34.006  31.423  27.729  1.00  0.00    -0.352 N 
ATOM     30  C   UNL A   1      34.965  31.418  28.730  1.00  0.00     0.251 C 
ATOM     31  H   UNL A   1      33.505  32.263  27.623  1.00  0.00     0.163 HD
ATOM     32  O   UNL A   1      35.085  32.312  29.541  1.00  0.00    -0.269 OA
BRANCH  30  33
ATOM     33  C   UNL A   1      35.920  30.293  28.705  1.00  0.00     0.039 A 
ATOM     34  C   UNL A   1      36.263  29.722  29.935  1.00  0.00     0.014 A 
ATOM     35  C   UNL A   1      36.676  30.073  27.559  1.00  0.00     0.014 A 
ATOM     36  C   UNL A   1      37.490  29.082  30.063  1.00  0.00     0.010 A 
ATOM     37  C   UNL A   1      37.933  29.524  27.711  1.00  0.00     0.010 A 
ATOM     38  C   UNL A   1      38.360  29.081  28.973  1.00  0.00    -0.014 A 
BRANCH  38  39
ATOM     39  C   UNL A   1      39.767  28.715  29.077  1.00  0.00     0.031 A 
ATOM     40  C   UNL A   1      40.194  27.344  28.722  1.00  0.00     0.074 A 
ATOM     41  C   UNL A   1      40.692  29.634  29.433  1.00  0.00     0.049 A 
ATOM     42  N   UNL A   1      41.255  26.767  29.176  1.00  0.00    -0.248 NA
ATOM     43  C   UNL A   1      39.395  26.481  27.858  1.00  0.00     0.031 C 
ATOM     44  C   UNL A   1      42.140  29.509  29.299  1.00  0.00     0.029 A 
ATOM     45  N   UNL A   1      40.523  30.793  30.196  1.00  0.00    -0.354 N 
ATOM     46  C   UNL A   1      41.444  25.618  28.440  1.00  0.00     0.074 A 
ATOM     47  C   UNL A   1      40.209  25.433  27.713  1.00  0.00     0.031 C 
ATOM     48  C   UNL A   1      42.725  30.336  30.180  1.00  0.00     0.029 A 
ATOM     49  C   UNL A   1      41.670  30.908  30.999  1.00  0.00     0.049 A 
ATOM     50  H   UNL A   1      39.753  31.406  30.175  1.00  0.00     0.167 HD
ATOM     51  C   UNL A   1      42.676  25.036  28.396  1.00  0.00     0.031 A 
ATOM     52  C   UNL A   1      41.657  30.931  32.364  1.00  0.00     0.031 A 
ATOM     53  C   UNL A   1      43.619  25.696  29.299  1.00  0.00     0.049 A 
ATOM     54  C   UNL A   1      42.500  29.837  32.982  1.00  0.00     0.074 A 
ATOM     55  C   UNL A   1      44.633  26.616  29.089  1.00  0.00     0.029 A 
ATOM     56  N   UNL A   1      43.402  25.653  30.671  1.00  0.00    -0.354 N 
ATOM     57  N   UNL A   1      42.937  28.799  32.326  1.00  0.00    -0.248 NA
ATOM     58  C   UNL A   1      42.866  29.793  34.396  1.00  0.00     0.031 C 
ATOM     59  C   UNL A   1      44.974  27.185  30.342  1.00  0.00     0.029 A 
ATOM     60  C   UNL A   1      44.186  26.592  31.314  1.00  0.00     0.049 A 
ATOM     61  H   UNL A   1      42.777  25.040  31.122  1.00  0.00     0.167 HD
ATOM     62  C   UNL A   1      43.592  27.954  33.181  1.00  0.00     0.074 A 
ATOM     63  C   UNL A   1      43.538  28.630  34.464  1.00  0.00     0.031 C 
ATOM     64  C   UNL A   1      44.107  26.762  32.759  1.00  0.00     0.031 A 
BRANCH  51  65
ATOM     65  C   UNL A   1      43.107  24.079  27.301  1.00  0.00    -0.014 A 
ATOM     66  C   UNL A   1      42.835  22.701  27.436  1.00  0.00     0.010 A 
ATOM     67  C   UNL A   1      43.845  24.447  26.160  1.00  0.00     0.010 A 
ATOM     68  C   UNL A   1      43.364  21.743  26.557  1.00  0.00     0.020 A 
ATOM     69  C   UNL A   1      44.412  23.502  25.293  1.00  0.00     0.020 A 
ATOM     70  C   UNL A   1      44.181  22.149  25.506  1.00  0.00     0.054 A 
BRANCH  70  71
ATOM     71  S   UNL A   1      44.938  20.899  24.437  1.00  0.00     0.124 S 
ATOM     72  O   UNL A   1      44.756  21.471  23.105  1.00  0.00    -0.237 OA
ATOM     73  O   UNL A   1      46.314  20.860  24.925  1.00  0.00    -0.237 OA
ATOM     74  O   UNL A   1      44.152  19.695  24.701  1.00  0.00    -0.744 OA
ENDBRANCH  70  71
ENDBRANCH  51  65
BRANCH  52  75
ATOM     75  C   UNL A   1      40.406  31.469  32.962  1.00  0.00    -0.014 A 
ATOM     76  C   UNL A   1      40.381  32.837  33.304  1.00  0.00     0.010 A 
ATOM     77  C   UNL A   1      39.190  30.785  32.792  1.00  0.00     0.010 A 
ATOM     78  C   UNL A   1      39.176  33.544  33.308  1.00  0.00     0.020 A 
ATOM     79  C   UNL A   1      37.981  31.493  32.798  1.00  0.00     0.020 A 
ATOM     80  C   UNL A   1      37.992  32.877  32.994  1.00  0.00     0.054 A 
BRANCH  80  81
ATOM     81  S   UNL A   1      36.515  33.882  32.648  1.00  0.00     0.124 S 
ATOM     82  O   UNL A   1      35.433  32.927  32.864  1.00  0.00    -0.237 OA
ATOM     83  O   UNL A   1      36.629  34.942  33.648  1.00  0.00    -0.237 OA
ATOM     84  O   UNL A   1      36.718  34.306  31.266  1.00  0.00    -0.744 OA
ENDBRANCH  80  81
ENDBRANCH  52  75
BRANCH  64  85
ATOM     85  C   UNL A   1      44.661  25.670  33.643  1.00  0.00    -0.014 A 
ATOM     86  C   UNL A   1      46.029  25.466  33.885  1.00  0.00     0.010 A 
ATOM     87  C   UNL A   1      43.757  24.863  34.377  1.00  0.00     0.010 A 
ATOM     88  C   UNL A   1      46.474  24.464  34.760  1.00  0.00     0.020 A 
ATOM     89  C   UNL A   1      44.189  23.893  35.286  1.00  0.00     0.020 A 
ATOM     90  C   UNL A   1      45.550  23.679  35.451  1.00  0.00     0.054 A 
BRANCH  90  91
ATOM     91  S   UNL A   1      46.133  22.425  36.621  1.00  0.00     0.124 S 
ATOM     92  O   UNL A   1      47.582  22.529  36.475  1.00  0.00    -0.237 OA
ATOM     93  O   UNL A   1      45.598  22.892  37.898  1.00  0.00    -0.237 OA
ATOM     94  O   UNL A   1      45.537  21.189  36.120  1.00  0.00    -0.744 OA
ENDBRANCH  90  91
ENDBRANCH  64  85
ENDBRANCH  38  39
ENDBRANCH  30  33
ENDBRANCH  28  29
ENDBRANCH  27  28
ENDBRANCH   1  27
TORSDOF 20
ENDMDL
MODEL 3
REMARK VINA RESULT:     -12.3      1.266      2.000
REMARK SMILES Cc1ccccc1C[C@H](C[C@@H]1Cc2ccccc21)C(=O)NCCCCCCNC(=O)c1ccc(-c2c3nc(c(-c4ccc(S(=O)(=O)[O-])cc4)c4ccc([nH]4)c(-c4ccc(S(=O)(=O)[O-])cc4)c4nc(c(-c5ccc(S(=O)(=O)[O-])cc5)c5ccc2[nH]5)C=C4)C=C3)cc1
REMARK SMILES IDX 25 1 24 2 23 3 22 4 21 5 19 6 20 7 9 9 8 10 7 11 1 12 2 13
REMARK SMILES IDX 3 14 4 15 6 16 5 17 10 18 11 19 12 20 18 21 13 22 17 23
REMARK SMILES IDX 14 24 16 25 15 26 26 27 27 28 28 29 29 30 30 32 31 33 32 34
REMARK SMILES IDX 90 35 33 36 89 37 34 38 35 39 36 40 83 41 37 42 88 43 82 44
REMARK SMILES IDX 84 45 38 46 87 47 81 48 80 49 39 51 69 52 50 53 68 54 51 55
REMARK SMILES IDX 54 56 67 57 85 58 52 59 53 60 66 62 86 63 55 64 40 65 41 66
REMARK SMILES IDX 49 67 42 68 48 69 43 70 44 71 45 72 46 73 47 74 70 75 71 76
REMARK SMILES IDX 79 77 72 78 78 79 73 80 74 81 75 82 76 83 77 84 56 85 57 86
REMARK SMILES IDX 65 87 58 88 64 89 59 90 60 91 61 92 62 93 63 94
REMARK H PARENT 21 8 28 31 84 50 54 61
REMARK Flexibility Score: inf
ROOT
ATOM      1  C   UNL A   1      32.003  29.896  27.010  1.00  0.00     0.002 C 
ENDROOT
BRANCH   1   2
ATOM      2  C   UNL A   1      31.928  28.495  27.636  1.00  0.00     0.002 C 
BRANCH   2   3
ATOM      3  C   UNL A   1      31.022  27.460  26.959  1.00  0.00     0.021 C 
BRANCH   3   4
ATOM      4  C   UNL A   1      31.699  26.474  26.010  1.00  0.00     0.116 C 
BRANCH   4   5
ATOM      5  N   UNL A   1      32.308  27.074  24.841  1.00  0.00    -0.356 N 
ATOM      6  C   UNL A   1      32.918  26.485  23.778  1.00  0.00     0.223 C 
ATOM      7  O   UNL A   1      33.051  27.170  22.756  1.00  0.00    -0.275 OA
ATOM      8  H   UNL A   1      32.274  28.057  24.812  1.00  0.00     0.163 HD
BRANCH   6   9
ATOM      9  C   UNL A   1      33.467  25.049  23.784  1.00  0.00     0.083 C 
BRANCH   9  10
ATOM     10  C   UNL A   1      34.913  24.935  24.328  1.00  0.00     0.049 C 
BRANCH  10  11
ATOM     11  C   UNL A   1      35.476  23.560  24.626  1.00  0.00    -0.044 A 
ATOM     12  C   UNL A   1      34.259  23.352  26.882  1.00  0.00     0.044 C 
ATOM     13  C   UNL A   1      35.201  22.854  25.819  1.00  0.00    -0.048 A 
ATOM     14  C   UNL A   1      35.873  21.642  26.071  1.00  0.00     0.004 A 
ATOM     15  C   UNL A   1      36.760  21.102  25.142  1.00  0.00     0.000 A 
ATOM     16  C   UNL A   1      36.322  22.960  23.674  1.00  0.00     0.004 A 
ATOM     17  C   UNL A   1      36.972  21.753  23.935  1.00  0.00     0.000 A 
ENDBRANCH  10  11
ENDBRANCH   9  10
BRANCH   9  18
ATOM     18  C   UNL A   1      33.181  24.188  22.542  1.00  0.00     0.022 C 
BRANCH  18  19
ATOM     19  C   UNL A   1      32.015  23.215  22.765  1.00  0.00     0.025 C 
ATOM     20  C   UNL A   1      31.138  23.440  24.058  1.00  0.00     0.044 C 
ATOM     21  C   UNL A   1      32.459  21.934  23.432  1.00  0.00    -0.041 A 
ATOM     22  C   UNL A   1      31.728  22.157  24.571  1.00  0.00    -0.044 A 
ATOM     23  C   UNL A   1      33.246  20.817  23.270  1.00  0.00     0.004 A 
ATOM     24  C   UNL A   1      31.756  21.282  25.631  1.00  0.00     0.004 A 
ATOM     25  C   UNL A   1      33.292  19.908  24.326  1.00  0.00     0.000 A 
ATOM     26  C   UNL A   1      32.556  20.142  25.502  1.00  0.00     0.000 A 
ENDBRANCH  18  19
ENDBRANCH   9  18
ENDBRANCH   6   9
ENDBRANCH   4   5
ENDBRANCH   3   4
ENDBRANCH   2   3
ENDBRANCH   1   2
BRANCH   1  27
ATOM     27  C   UNL A   1      33.344  30.325  26.413  1.00  0.00     0.021 C 
BRANCH  27  28
ATOM     28  C   UNL A   1      34.566  29.901  27.219  1.00  0.00     0.116 C 
BRANCH  28  29
ATOM     29  N   UNL A   1      35.267  31.050  27.790  1.00  0.00    -0.352 N 
ATOM     30  C   UNL A   1      36.459  31.072  28.497  1.00  0.00     0.251 C 
ATOM     31  H   UNL A   1      34.835  31.924  27.655  1.00  0.00     0.163 HD
ATOM     32  O   UNL A   1      36.879  32.060  29.062  1.00  0.00    -0.269 OA
BRANCH  30  33
ATOM     33  C   UNL A   1      37.263  29.836  28.448  1.00  0.00     0.039 A 
ATOM     34  C   UNL A   1      37.432  29.139  29.650  1.00  0.00     0.014 A 
ATOM     35  C   UNL A   1      38.073  29.598  27.344  1.00  0.00     0.014 A 
ATOM     36  C   UNL A   1      38.554  28.335  29.811  1.00  0.00     0.010 A 
ATOM     37  C   UNL A   1      39.234  28.879  27.538  1.00  0.00     0.010 A 
ATOM     38  C   UNL A   1      39.501  28.296  28.787  1.00  0.00    -0.014 A 
BRANCH  38  39
ATOM     39  C   UNL A   1      40.837  27.740  28.960  1.00  0.00     0.031 A 
ATOM     40  C   UNL A   1      41.106  26.344  28.552  1.00  0.00     0.074 A 
ATOM     41  C   UNL A   1      41.845  28.508  29.429  1.00  0.00     0.049 A 
ATOM     42  N   UNL A   1      42.050  25.609  29.037  1.00  0.00    -0.248 NA
ATOM     43  C   UNL A   1      40.266  25.641  27.587  1.00  0.00     0.031 C 
ATOM     44  C   UNL A   1      43.271  28.198  29.381  1.00  0.00     0.029 A 
ATOM     45  N   UNL A   1      41.774  29.639  30.247  1.00  0.00    -0.354 N 
ATOM     46  C   UNL A   1      42.139  24.484  28.247  1.00  0.00     0.074 A 
ATOM     47  C   UNL A   1      40.946  24.503  27.432  1.00  0.00     0.031 C 
ATOM     48  C   UNL A   1      43.894  28.893  30.346  1.00  0.00     0.029 A 
ATOM     49  C   UNL A   1      42.866  29.559  31.128  1.00  0.00     0.049 A 
ATOM     50  H   UNL A   1      41.094  30.350  30.214  1.00  0.00     0.167 HD
ATOM     51  C   UNL A   1      43.286  23.746  28.247  1.00  0.00     0.031 A 
ATOM     52  C   UNL A   1      42.758  29.514  32.488  1.00  0.00     0.031 A 
ATOM     53  C   UNL A   1      44.239  24.227  29.247  1.00  0.00     0.049 A 
ATOM     54  C   UNL A   1      43.406  28.287  33.092  1.00  0.00     0.074 A 
ATOM     55  C   UNL A   1      45.376  25.013  29.158  1.00  0.00     0.029 A 
ATOM     56  N   UNL A   1      43.920  24.143  30.597  1.00  0.00    -0.354 N 
ATOM     57  N   UNL A   1      43.750  27.235  32.404  1.00  0.00    -0.248 NA
ATOM     58  C   UNL A   1      43.661  28.123  34.521  1.00  0.00     0.031 C 
ATOM     59  C   UNL A   1      45.697  25.467  30.463  1.00  0.00     0.029 A 
ATOM     60  C   UNL A   1      44.772  24.935  31.344  1.00  0.00     0.049 A 
ATOM     61  H   UNL A   1      43.191  23.597  30.969  1.00  0.00     0.167 HD
ATOM     62  C   UNL A   1      44.228  26.267  33.248  1.00  0.00     0.074 A 
ATOM     63  C   UNL A   1      44.170  26.878  34.563  1.00  0.00     0.031 C 
ATOM     64  C   UNL A   1      44.612  25.040  32.789  1.00  0.00     0.031 A 
BRANCH  51  65
ATOM     65  C   UNL A   1      43.666  22.797  27.126  1.00  0.00    -0.014 A 
ATOM     66  C   UNL A   1      42.817  21.713  26.815  1.00  0.00     0.010 A 
ATOM     67  C   UNL A   1      44.867  22.861  26.396  1.00  0.00     0.010 A 
ATOM     68  C   UNL A   1      43.194  20.698  25.922  1.00  0.00     0.020 A 
ATOM     69  C   UNL A   1      45.276  21.837  25.528  1.00  0.00     0.020 A 
ATOM     70  C   UNL A   1      44.442  20.749  25.308  1.00  0.00     0.054 A 
BRANCH  70  71
ATOM     71  S   UNL A   1      44.958  19.386  24.235  1.00  0.00     0.124 S 
ATOM     72  O   UNL A   1      46.415  19.433  24.345  1.00  0.00    -0.237 OA
ATOM     73  O   UNL A   1      44.315  18.233  24.860  1.00  0.00    -0.237 OA
ATOM     74  O   UNL A   1      44.429  19.757  22.924  1.00  0.00    -0.744 OA
ENDBRANCH  70  71
ENDBRANCH  51  65
BRANCH  52  75
ATOM     75  C   UNL A   1      41.549  30.183  33.036  1.00  0.00    -0.014 A 
ATOM     76  C   UNL A   1      41.623  31.570  33.281  1.00  0.00     0.010 A 
ATOM     77  C   UNL A   1      40.286  29.579  32.903  1.00  0.00     0.010 A 
ATOM     78  C   UNL A   1      40.474  32.362  33.225  1.00  0.00     0.020 A 
ATOM     79  C   UNL A   1      39.132  30.373  32.848  1.00  0.00     0.020 A 
ATOM     80  C   UNL A   1      39.244  31.763  32.948  1.00  0.00     0.054 A 
BRANCH  80  81
ATOM     81  S   UNL A   1      37.847  32.846  32.519  1.00  0.00     0.124 S 
ATOM     82  O   UNL A   1      36.785  31.885  32.239  1.00  0.00    -0.237 OA
ATOM     83  O   UNL A   1      37.683  33.627  33.744  1.00  0.00    -0.237 OA
ATOM     84  O   UNL A   1      38.345  33.591  31.368  1.00  0.00    -0.744 OA
ENDBRANCH  80  81
ENDBRANCH  52  75
BRANCH  64  85
ATOM     85  C   UNL A   1      44.956  23.840  33.639  1.00  0.00    -0.014 A 
ATOM     86  C   UNL A   1      44.054  22.811  33.956  1.00  0.00     0.010 A 
ATOM     87  C   UNL A   1      46.298  23.662  34.055  1.00  0.00     0.010 A 
ATOM     88  C   UNL A   1      44.455  21.696  34.708  1.00  0.00     0.020 A 
ATOM     89  C   UNL A   1      46.718  22.533  34.765  1.00  0.00     0.020 A 
ATOM     90  C   UNL A   1      45.784  21.567  35.113  1.00  0.00     0.054 A 
BRANCH  90  91
ATOM     91  S   UNL A   1      46.304  20.099  36.037  1.00  0.00     0.124 S 
ATOM     92  O   UNL A   1      45.775  20.380  37.369  1.00  0.00    -0.237 OA
ATOM     93  O   UNL A   1      45.646  19.009  35.320  1.00  0.00    -0.237 OA
ATOM     94  O   UNL A   1      47.759  20.120  35.921  1.00  0.00    -0.744 OA
ENDBRANCH  90  91
ENDBRANCH  64  85
ENDBRANCH  38  39
ENDBRANCH  30  33
ENDBRANCH  28  29
ENDBRANCH  27  28
ENDBRANCH   1  27
TORSDOF 20
ENDMDL
