MODEL 1
REMARK VINA RESULT:     -11.7      0.000      0.000
REMARK SMILES O=C(NCCCCCCNC(=O)c1cc(Br)cc2c1N[C@H](c1cccc([N+](=O)[O-])c1)[C@H]1CC=C[C@H]21)c1ccc(-c2c3nc(c(-c4ccc(S(=O)(=O)[O-])cc4)c4ccc([nH]4)c(-c4ccc(S(=O)(=O)[O-])cc4)c4nc(c(-c5ccc(S(=O)(=O)[O-])cc5)c5ccc2[nH]5)C=C4)C=C3)cc1
REMARK SMILES IDX 6 1 5 2 4 3 3 4 1 5 2 6 36 8 37 9 95 10 38 11 94 12 39 13
REMARK SMILES IDX 40 14 41 15 88 16 42 17 93 18 87 19 89 20 43 21 92 22 86 23
REMARK SMILES IDX 85 24 44 26 74 27 55 28 73 29 56 30 59 31 72 32 90 33 57 34
REMARK SMILES IDX 58 35 71 37 91 38 60 39 45 40 46 41 54 42 47 43 53 44 48 45
REMARK SMILES IDX 49 46 50 47 51 48 52 49 75 50 76 51 84 52 77 53 83 54 78 55
REMARK SMILES IDX 79 56 80 57 81 58 82 59 61 60 62 61 70 62 63 63 69 64 64 65
REMARK SMILES IDX 65 66 66 67 67 68 68 69 7 70 8 71 9 72 10 73 11 74 12 76
REMARK SMILES IDX 13 77 14 78 19 79 15 80 18 81 20 82 16 83 17 84 35 85 21 86
REMARK SMILES IDX 31 88 34 89 32 90 33 91 22 92 23 93 30 94 24 95 26 96 25 97
REMARK SMILES IDX 27 98 28 99 29 100
REMARK H PARENT 3 7 89 25 59 36 10 75 20 87
REMARK Flexibility Score: inf
ROOT
ATOM      1  C   UNL A   1      35.325  21.437  24.950  1.00  0.00     0.002 C 
ENDROOT
BRANCH   1   2
ATOM      2  C   UNL A   1      36.278  22.406  24.251  1.00  0.00     0.021 C 
BRANCH   2   3
ATOM      3  C   UNL A   1      37.235  23.168  25.158  1.00  0.00     0.116 C 
BRANCH   3   4
ATOM      4  N   UNL A   1      38.344  22.340  25.589  1.00  0.00    -0.352 N 
ATOM      5  O   UNL A   1      40.424  21.865  26.274  1.00  0.00    -0.269 OA
ATOM      6  C   UNL A   1      39.522  22.697  26.195  1.00  0.00     0.251 C 
ATOM      7  H   UNL A   1      38.236  21.376  25.420  1.00  0.00     0.163 HD
BRANCH   6   8
ATOM      8  C   UNL A   1      39.721  24.055  26.762  1.00  0.00     0.039 A 
ATOM      9  C   UNL A   1      40.351  25.023  25.973  1.00  0.00     0.014 A 
ATOM     10  C   UNL A   1      39.387  24.357  28.086  1.00  0.00     0.014 A 
ATOM     11  C   UNL A   1      40.650  26.281  26.507  1.00  0.00     0.010 A 
ATOM     12  C   UNL A   1      39.611  25.637  28.593  1.00  0.00     0.010 A 
ATOM     13  C   UNL A   1      40.286  26.596  27.825  1.00  0.00    -0.014 A 
BRANCH  13  14
ATOM     14  C   UNL A   1      40.710  27.871  28.463  1.00  0.00     0.031 A 
ATOM     15  C   UNL A   1      42.140  28.025  28.918  1.00  0.00     0.074 A 
ATOM     16  C   UNL A   1      39.830  28.874  28.654  1.00  0.00     0.049 A 
ATOM     17  N   UNL A   1      42.696  29.007  29.579  1.00  0.00    -0.248 NA
ATOM     18  C   UNL A   1      43.062  26.918  28.608  1.00  0.00     0.031 C 
ATOM     19  C   UNL A   1      38.424  28.852  28.252  1.00  0.00     0.029 A 
ATOM     20  N   UNL A   1      39.992  30.109  29.235  1.00  0.00    -0.354 N 
ATOM     21  C   UNL A   1      44.018  28.628  29.777  1.00  0.00     0.074 A 
ATOM     22  C   UNL A   1      44.173  27.306  29.217  1.00  0.00     0.031 C 
ATOM     23  C   UNL A   1      37.860  30.029  28.569  1.00  0.00     0.029 A 
ATOM     24  C   UNL A   1      38.847  30.870  29.243  1.00  0.00     0.049 A 
ATOM     25  H   UNL A   1      40.848  30.419  29.610  1.00  0.00     0.167 HD
ATOM     26  C   UNL A   1      45.023  29.331  30.347  1.00  0.00     0.031 A 
ATOM     27  C   UNL A   1      38.614  32.104  29.741  1.00  0.00     0.031 A 
ATOM     28  C   UNL A   1      44.876  30.666  30.862  1.00  0.00     0.049 A 
ATOM     29  C   UNL A   1      39.739  32.858  30.397  1.00  0.00     0.074 A 
ATOM     30  C   UNL A   1      45.845  31.475  31.426  1.00  0.00     0.029 A 
ATOM     31  N   UNL A   1      43.695  31.393  30.859  1.00  0.00    -0.354 N 
ATOM     32  N   UNL A   1      40.988  32.490  30.561  1.00  0.00    -0.248 NA
ATOM     33  C   UNL A   1      39.434  34.195  30.929  1.00  0.00     0.031 C 
ATOM     34  C   UNL A   1      45.240  32.669  31.818  1.00  0.00     0.029 A 
ATOM     35  C   UNL A   1      43.909  32.634  31.430  1.00  0.00     0.049 A 
ATOM     36  H   UNL A   1      42.834  31.074  30.504  1.00  0.00     0.167 HD
ATOM     37  C   UNL A   1      41.621  33.557  31.190  1.00  0.00     0.074 A 
ATOM     38  C   UNL A   1      40.622  34.591  31.369  1.00  0.00     0.031 C 
ATOM     39  C   UNL A   1      42.913  33.665  31.585  1.00  0.00     0.031 A 
BRANCH  26  40
ATOM     40  C   UNL A   1      46.388  28.698  30.428  1.00  0.00    -0.014 A 
ATOM     41  C   UNL A   1      47.281  28.819  29.348  1.00  0.00     0.010 A 
ATOM     42  C   UNL A   1      46.737  27.877  31.515  1.00  0.00     0.010 A 
ATOM     43  C   UNL A   1      48.481  28.102  29.335  1.00  0.00     0.020 A 
ATOM     44  C   UNL A   1      47.951  27.184  31.521  1.00  0.00     0.020 A 
ATOM     45  C   UNL A   1      48.802  27.279  30.418  1.00  0.00     0.054 A 
BRANCH  45  46
ATOM     46  S   UNL A   1      50.343  26.324  30.366  1.00  0.00     0.124 S 
ATOM     47  O   UNL A   1      50.497  26.066  28.938  1.00  0.00    -0.237 OA
ATOM     48  O   UNL A   1      51.312  27.250  30.948  1.00  0.00    -0.237 OA
ATOM     49  O   UNL A   1      50.046  25.151  31.186  1.00  0.00    -0.744 OA
ENDBRANCH  45  46
ENDBRANCH  26  40
BRANCH  27  50
ATOM     50  C   UNL A   1      37.257  32.703  29.598  1.00  0.00    -0.014 A 
ATOM     51  C   UNL A   1      36.829  33.225  28.362  1.00  0.00     0.010 A 
ATOM     52  C   UNL A   1      36.411  32.825  30.716  1.00  0.00     0.010 A 
ATOM     53  C   UNL A   1      35.611  33.902  28.258  1.00  0.00     0.020 A 
ATOM     54  C   UNL A   1      35.178  33.476  30.609  1.00  0.00     0.020 A 
ATOM     55  C   UNL A   1      34.799  34.037  29.387  1.00  0.00     0.054 A 
BRANCH  55  56
ATOM     56  S   UNL A   1      33.247  34.966  29.240  1.00  0.00     0.124 S 
ATOM     57  O   UNL A   1      32.734  34.910  30.606  1.00  0.00    -0.237 OA
ATOM     58  O   UNL A   1      33.703  36.280  28.795  1.00  0.00    -0.237 OA
ATOM     59  O   UNL A   1      32.485  34.207  28.253  1.00  0.00    -0.744 OA
ENDBRANCH  55  56
ENDBRANCH  27  50
BRANCH  39  60
ATOM     60  C   UNL A   1      43.367  34.944  32.240  1.00  0.00    -0.014 A 
ATOM     61  C   UNL A   1      43.196  35.107  33.629  1.00  0.00     0.010 A 
ATOM     62  C   UNL A   1      43.778  36.042  31.466  1.00  0.00     0.010 A 
ATOM     63  C   UNL A   1      43.373  36.359  34.223  1.00  0.00     0.020 A 
ATOM     64  C   UNL A   1      43.984  37.290  32.062  1.00  0.00     0.020 A 
ATOM     65  C   UNL A   1      43.748  37.447  33.431  1.00  0.00     0.054 A 
BRANCH  65  66
ATOM     66  S   UNL A   1      43.896  39.081  34.205  1.00  0.00     0.124 S 
ATOM     67  O   UNL A   1      42.743  39.788  33.656  1.00  0.00    -0.237 OA
ATOM     68  O   UNL A   1      43.823  38.769  35.631  1.00  0.00    -0.237 OA
ATOM     69  O   UNL A   1      45.199  39.561  33.747  1.00  0.00    -0.744 OA
ENDBRANCH  65  66
ENDBRANCH  39  60
ENDBRANCH  13  14
ENDBRANCH   6   8
ENDBRANCH   3   4
ENDBRANCH   2   3
ENDBRANCH   1   2
BRANCH   1  70
ATOM     70  C   UNL A   1      35.371  21.451  26.481  1.00  0.00     0.002 C 
BRANCH  70  71
ATOM     71  C   UNL A   1      34.038  21.717  27.189  1.00  0.00     0.021 C 
BRANCH  71  72
ATOM     72  C   UNL A   1      33.659  23.187  27.346  1.00  0.00     0.116 C 
BRANCH  72  73
ATOM     73  N   UNL A   1      32.221  23.402  27.321  1.00  0.00    -0.352 N 
ATOM     74  C   UNL A   1      31.353  23.248  26.267  1.00  0.00     0.253 C 
ATOM     75  H   UNL A   1      31.818  23.696  28.169  1.00  0.00     0.163 HD
ATOM     76  O   UNL A   1      30.167  23.545  26.392  1.00  0.00    -0.269 OA
BRANCH  74  77
ATOM     77  C   UNL A   1      31.851  22.755  24.965  1.00  0.00     0.064 A 
ATOM     78  C   UNL A   1      31.819  21.369  24.771  1.00  0.00     0.031 A 
ATOM     79  C   UNL A   1      32.332  23.624  23.963  1.00  0.00     0.051 A 
ATOM     80  C   UNL A   1      32.220  20.841  23.549  1.00  0.00     0.019 A 
ATOM     81  C   UNL A   1      32.676  23.068  22.708  1.00  0.00    -0.016 A 
ATOM     82  N   UNL A   1      32.412  24.999  24.164  1.00  0.00    -0.377 N 
ATOM     83  Br  UNL A   1      32.181  18.969  23.283  1.00  0.00    -0.051 Br
ATOM     84  C   UNL A   1      32.641  21.679  22.517  1.00  0.00     0.022 A 
ATOM     85  C   UNL A   1      33.161  24.025  21.656  1.00  0.00     0.049 C 
ATOM     86  C   UNL A   1      32.668  25.980  23.101  1.00  0.00     0.114 C 
ATOM     87  H   UNL A   1      32.287  25.338  25.079  1.00  0.00     0.161 HD
ATOM     88  C   UNL A   1      32.332  25.319  21.763  1.00  0.00     0.031 C 
ATOM     89  C   UNL A   1      32.998  23.734  20.196  1.00  0.00    -0.023 C 
ATOM     90  C   UNL A   1      32.633  26.046  20.456  1.00  0.00     0.034 C 
ATOM     91  C   UNL A   1      32.747  24.869  19.525  1.00  0.00    -0.030 C 
BRANCH  86  92
ATOM     92  C   UNL A   1      31.907  27.249  23.479  1.00  0.00    -0.019 A 
ATOM     93  C   UNL A   1      32.283  27.928  24.658  1.00  0.00     0.006 A 
ATOM     94  C   UNL A   1      30.807  27.744  22.762  1.00  0.00     0.091 A 
ATOM     95  C   UNL A   1      31.582  29.047  25.117  1.00  0.00     0.007 A 
ATOM     96  C   UNL A   1      30.119  28.886  23.212  1.00  0.00     0.269 A 
ATOM     97  C   UNL A   1      30.499  29.535  24.392  1.00  0.00     0.085 A 
BRANCH  96  98
ATOM     98  N   UNL A   1      28.939  29.361  22.475  1.00  0.00     0.062 N 
ATOM     99  O   UNL A   1      29.108  29.765  21.317  1.00  0.00    -0.258 OA
ATOM    100  O   UNL A   1      27.855  29.370  23.076  1.00  0.00    -0.258 OA
ENDBRANCH  96  98
ENDBRANCH  86  92
ENDBRANCH  74  77
ENDBRANCH  72  73
ENDBRANCH  71  72
ENDBRANCH  70  71
ENDBRANCH   1  70
TORSDOF 18
ENDMDL
MODEL 2
REMARK VINA RESULT:     -11.6      3.732      8.782
REMARK SMILES O=C(NCCCCCCNC(=O)c1cc(Br)cc2c1N[C@H](c1cccc([N+](=O)[O-])c1)[C@H]1CC=C[C@H]21)c1ccc(-c2c3nc(c(-c4ccc(S(=O)(=O)[O-])cc4)c4ccc([nH]4)c(-c4ccc(S(=O)(=O)[O-])cc4)c4nc(c(-c5ccc(S(=O)(=O)[O-])cc5)c5ccc2[nH]5)C=C4)C=C3)cc1
REMARK SMILES IDX 6 1 5 2 4 3 3 4 1 5 2 6 36 8 37 9 95 10 38 11 94 12 39 13
REMARK SMILES IDX 40 14 41 15 88 16 42 17 93 18 87 19 89 20 43 21 92 22 86 23
REMARK SMILES IDX 85 24 44 26 74 27 55 28 73 29 56 30 59 31 72 32 90 33 57 34
REMARK SMILES IDX 58 35 71 37 91 38 60 39 45 40 46 41 54 42 47 43 53 44 48 45
REMARK SMILES IDX 49 46 50 47 51 48 52 49 75 50 76 51 84 52 77 53 83 54 78 55
REMARK SMILES IDX 79 56 80 57 81 58 82 59 61 60 62 61 70 62 63 63 69 64 64 65
REMARK SMILES IDX 65 66 66 67 67 68 68 69 7 70 8 71 9 72 10 73 11 74 12 76
REMARK SMILES IDX 13 77 14 78 19 79 15 80 18 81 20 82 16 83 17 84 35 85 21 86
REMARK SMILES IDX 31 88 34 89 32 90 33 91 22 92 23 93 30 94 24 95 26 96 25 97
REMARK SMILES IDX 27 98 28 99 29 100
REMARK H PARENT 3 7 89 25 59 36 10 75 20 87
REMARK Flexibility Score: inf
ROOT
ATOM      1  C   UNL A   1      39.337  22.480  26.507  1.00  0.00     0.002 C 
ENDROOT
BRANCH   1   2
ATOM      2  C   UNL A   1      40.541  21.918  27.262  1.00  0.00     0.021 C 
BRANCH   2   3
ATOM      3  C   UNL A   1      41.660  22.907  27.559  1.00  0.00     0.116 C 
BRANCH   3   4
ATOM      4  N   UNL A   1      42.032  23.671  26.385  1.00  0.00    -0.352 N 
ATOM      5  O   UNL A   1      42.089  25.428  24.995  1.00  0.00    -0.269 OA
ATOM      6  C   UNL A   1      41.921  25.017  26.141  1.00  0.00     0.251 C 
ATOM      7  H   UNL A   1      42.422  23.144  25.650  1.00  0.00     0.163 HD
BRANCH   6   8
ATOM      8  C   UNL A   1      41.615  25.978  27.232  1.00  0.00     0.039 A 
ATOM      9  C   UNL A   1      42.415  27.118  27.363  1.00  0.00     0.014 A 
ATOM     10  C   UNL A   1      40.621  25.722  28.182  1.00  0.00     0.014 A 
ATOM     11  C   UNL A   1      42.225  27.991  28.439  1.00  0.00     0.010 A 
ATOM     12  C   UNL A   1      40.378  26.635  29.209  1.00  0.00     0.010 A 
ATOM     13  C   UNL A   1      41.207  27.753  29.375  1.00  0.00    -0.014 A 
BRANCH  13  14
ATOM     14  C   UNL A   1      41.069  28.585  30.599  1.00  0.00     0.031 A 
ATOM     15  C   UNL A   1      39.977  29.623  30.662  1.00  0.00     0.074 A 
ATOM     16  C   UNL A   1      41.915  28.433  31.637  1.00  0.00     0.049 A 
ATOM     17  N   UNL A   1      39.738  30.516  31.587  1.00  0.00    -0.248 NA
ATOM     18  C   UNL A   1      39.043  29.681  29.523  1.00  0.00     0.031 C 
ATOM     19  C   UNL A   1      43.004  27.459  31.703  1.00  0.00     0.029 A 
ATOM     20  N   UNL A   1      41.988  29.097  32.838  1.00  0.00    -0.354 N 
ATOM     21  C   UNL A   1      38.646  31.247  31.134  1.00  0.00     0.074 A 
ATOM     22  C   UNL A   1      38.300  30.734  29.829  1.00  0.00     0.031 C 
ATOM     23  C   UNL A   1      43.617  27.568  32.894  1.00  0.00     0.029 A 
ATOM     24  C   UNL A   1      42.999  28.651  33.656  1.00  0.00     0.049 A 
ATOM     25  H   UNL A   1      41.374  29.824  33.089  1.00  0.00     0.167 HD
ATOM     26  C   UNL A   1      37.971  32.237  31.762  1.00  0.00     0.031 A 
ATOM     27  C   UNL A   1      43.392  29.069  34.879  1.00  0.00     0.031 A 
ATOM     28  C   UNL A   1      38.291  32.714  33.080  1.00  0.00     0.049 A 
ATOM     29  C   UNL A   1      42.645  30.192  35.548  1.00  0.00     0.074 A 
ATOM     30  C   UNL A   1      37.642  33.689  33.815  1.00  0.00     0.029 A 
ATOM     31  N   UNL A   1      39.331  32.241  33.866  1.00  0.00    -0.354 N 
ATOM     32  N   UNL A   1      41.604  30.861  35.111  1.00  0.00    -0.248 NA
ATOM     33  C   UNL A   1      43.114  30.616  36.876  1.00  0.00     0.031 C 
ATOM     34  C   UNL A   1      38.324  33.848  35.022  1.00  0.00     0.029 A 
ATOM     35  C   UNL A   1      39.352  32.919  35.071  1.00  0.00     0.049 A 
ATOM     36  H   UNL A   1      39.959  31.529  33.606  1.00  0.00     0.167 HD
ATOM     37  C   UNL A   1      41.279  31.764  36.118  1.00  0.00     0.074 A 
ATOM     38  C   UNL A   1      42.226  31.551  37.193  1.00  0.00     0.031 C 
ATOM     39  C   UNL A   1      40.286  32.686  36.144  1.00  0.00     0.031 A 
BRANCH  26  40
ATOM     40  C   UNL A   1      36.797  32.865  31.057  1.00  0.00    -0.014 A 
ATOM     41  C   UNL A   1      37.014  33.835  30.062  1.00  0.00     0.010 A 
ATOM     42  C   UNL A   1      35.480  32.591  31.470  1.00  0.00     0.010 A 
ATOM     43  C   UNL A   1      35.940  34.547  29.518  1.00  0.00     0.020 A 
ATOM     44  C   UNL A   1      34.402  33.278  30.905  1.00  0.00     0.020 A 
ATOM     45  C   UNL A   1      34.641  34.271  29.953  1.00  0.00     0.054 A 
BRANCH  45  46
ATOM     46  S   UNL A   1      33.265  35.233  29.267  1.00  0.00     0.124 S 
ATOM     47  O   UNL A   1      33.957  36.343  28.620  1.00  0.00    -0.237 OA
ATOM     48  O   UNL A   1      32.626  34.276  28.367  1.00  0.00    -0.237 OA
ATOM     49  O   UNL A   1      32.476  35.588  30.445  1.00  0.00    -0.744 OA
ENDBRANCH  45  46
ENDBRANCH  26  40
BRANCH  27  50
ATOM     50  C   UNL A   1      44.533  28.386  35.552  1.00  0.00    -0.014 A 
ATOM     51  C   UNL A   1      45.816  28.965  35.554  1.00  0.00     0.010 A 
ATOM     52  C   UNL A   1      44.361  27.116  36.130  1.00  0.00     0.010 A 
ATOM     53  C   UNL A   1      46.912  28.268  36.070  1.00  0.00     0.020 A 
ATOM     54  C   UNL A   1      45.449  26.427  36.675  1.00  0.00     0.020 A 
ATOM     55  C   UNL A   1      46.724  26.996  36.614  1.00  0.00     0.054 A 
BRANCH  55  56
ATOM     56  S   UNL A   1      48.169  26.087  37.230  1.00  0.00     0.124 S 
ATOM     57  O   UNL A   1      48.745  25.567  35.994  1.00  0.00    -0.237 OA
ATOM     58  O   UNL A   1      48.945  27.133  37.893  1.00  0.00    -0.237 OA
ATOM     59  O   UNL A   1      47.590  25.086  38.121  1.00  0.00    -0.744 OA
ENDBRANCH  55  56
ENDBRANCH  27  50
BRANCH  39  60
ATOM     60  C   UNL A   1      40.128  33.546  37.371  1.00  0.00    -0.014 A 
ATOM     61  C   UNL A   1      39.270  33.125  38.405  1.00  0.00     0.010 A 
ATOM     62  C   UNL A   1      40.671  34.842  37.415  1.00  0.00     0.010 A 
ATOM     63  C   UNL A   1      38.911  34.002  39.431  1.00  0.00     0.020 A 
ATOM     64  C   UNL A   1      40.336  35.712  38.457  1.00  0.00     0.020 A 
ATOM     65  C   UNL A   1      39.433  35.297  39.439  1.00  0.00     0.054 A 
BRANCH  65  66
ATOM     66  S   UNL A   1      38.895  36.447  40.735  1.00  0.00     0.124 S 
ATOM     67  O   UNL A   1      40.099  36.580  41.549  1.00  0.00    -0.237 OA
ATOM     68  O   UNL A   1      38.515  37.635  39.973  1.00  0.00    -0.237 OA
ATOM     69  O   UNL A   1      37.783  35.746  41.375  1.00  0.00    -0.744 OA
ENDBRANCH  65  66
ENDBRANCH  39  60
ENDBRANCH  13  14
ENDBRANCH   6   8
ENDBRANCH   3   4
ENDBRANCH   2   3
ENDBRANCH   1   2
BRANCH   1  70
ATOM     70  C   UNL A   1      38.519  21.459  25.710  1.00  0.00     0.002 C 
BRANCH  70  71
ATOM     71  C   UNL A   1      37.035  21.790  25.520  1.00  0.00     0.021 C 
BRANCH  71  72
ATOM     72  C   UNL A   1      36.566  23.095  26.158  1.00  0.00     0.116 C 
BRANCH  72  73
ATOM     73  N   UNL A   1      35.455  22.904  27.076  1.00  0.00    -0.352 N 
ATOM     74  C   UNL A   1      34.118  22.779  26.785  1.00  0.00     0.253 C 
ATOM     75  H   UNL A   1      35.692  22.858  28.030  1.00  0.00     0.163 HD
ATOM     76  O   UNL A   1      33.291  22.697  27.690  1.00  0.00    -0.269 OA
BRANCH  74  77
ATOM     77  C   UNL A   1      33.665  22.777  25.377  1.00  0.00     0.064 A 
ATOM     78  C   UNL A   1      33.338  21.531  24.830  1.00  0.00     0.031 A 
ATOM     79  C   UNL A   1      33.561  23.961  24.617  1.00  0.00     0.051 A 
ATOM     80  C   UNL A   1      32.853  21.462  23.530  1.00  0.00     0.019 A 
ATOM     81  C   UNL A   1      33.007  23.871  23.318  1.00  0.00    -0.016 A 
ATOM     82  N   UNL A   1      33.928  25.199  25.136  1.00  0.00    -0.377 N 
ATOM     83  Br  UNL A   1      32.412  19.781  22.785  1.00  0.00    -0.051 Br
ATOM     84  C   UNL A   1      32.679  22.621  22.774  1.00  0.00     0.022 A 
ATOM     85  C   UNL A   1      32.887  25.155  22.545  1.00  0.00     0.049 C 
ATOM     86  C   UNL A   1      33.626  26.489  24.502  1.00  0.00     0.114 C 
ATOM     87  H   UNL A   1      34.424  25.212  25.986  1.00  0.00     0.161 HD
ATOM     88  C   UNL A   1      32.470  26.269  23.524  1.00  0.00     0.031 C 
ATOM     89  C   UNL A   1      31.845  25.338  21.486  1.00  0.00    -0.023 C 
ATOM     90  C   UNL A   1      32.022  27.402  22.605  1.00  0.00     0.034 C 
ATOM     91  C   UNL A   1      31.396  26.603  21.494  1.00  0.00    -0.030 C 
BRANCH  86  92
ATOM     92  C   UNL A   1      33.421  27.498  25.631  1.00  0.00    -0.019 A 
ATOM     93  C   UNL A   1      32.168  27.527  26.282  1.00  0.00     0.006 A 
ATOM     94  C   UNL A   1      34.380  28.447  26.015  1.00  0.00     0.091 A 
ATOM     95  C   UNL A   1      31.874  28.476  27.265  1.00  0.00     0.007 A 
ATOM     96  C   UNL A   1      34.090  29.384  27.024  1.00  0.00     0.269 A 
ATOM     97  C   UNL A   1      32.837  29.405  27.645  1.00  0.00     0.085 A 
BRANCH  96  98
ATOM     98  N   UNL A   1      35.089  30.402  27.378  1.00  0.00     0.062 N 
ATOM     99  O   UNL A   1      34.677  31.491  27.799  1.00  0.00    -0.258 OA
ATOM    100  O   UNL A   1      36.282  30.123  27.190  1.00  0.00    -0.258 OA
ENDBRANCH  96  98
ENDBRANCH  86  92
ENDBRANCH  74  77
ENDBRANCH  72  73
ENDBRANCH  71  72
ENDBRANCH  70  71
ENDBRANCH   1  70
TORSDOF 18
ENDMDL
MODEL 3
REMARK VINA RESULT:     -11.5      3.490      9.132
REMARK SMILES O=C(NCCCCCCNC(=O)c1cc(Br)cc2c1N[C@H](c1cccc([N+](=O)[O-])c1)[C@H]1CC=C[C@H]21)c1ccc(-c2c3nc(c(-c4ccc(S(=O)(=O)[O-])cc4)c4ccc([nH]4)c(-c4ccc(S(=O)(=O)[O-])cc4)c4nc(c(-c5ccc(S(=O)(=O)[O-])cc5)c5ccc2[nH]5)C=C4)C=C3)cc1
REMARK SMILES IDX 6 1 5 2 4 3 3 4 1 5 2 6 36 8 37 9 95 10 38 11 94 12 39 13
REMARK SMILES IDX 40 14 41 15 88 16 42 17 93 18 87 19 89 20 43 21 92 22 86 23
REMARK SMILES IDX 85 24 44 26 74 27 55 28 73 29 56 30 59 31 72 32 90 33 57 34
REMARK SMILES IDX 58 35 71 37 91 38 60 39 45 40 46 41 54 42 47 43 53 44 48 45
REMARK SMILES IDX 49 46 50 47 51 48 52 49 75 50 76 51 84 52 77 53 83 54 78 55
REMARK SMILES IDX 79 56 80 57 81 58 82 59 61 60 62 61 70 62 63 63 69 64 64 65
REMARK SMILES IDX 65 66 66 67 67 68 68 69 7 70 8 71 9 72 10 73 11 74 12 76
REMARK SMILES IDX 13 77 14 78 19 79 15 80 18 81 20 82 16 83 17 84 35 85 21 86
REMARK SMILES IDX 31 88 34 89 32 90 33 91 22 92 23 93 30 94 24 95 26 96 25 97
REMARK SMILES IDX 27 98 28 99 29 100
REMARK H PARENT 3 7 89 25 59 36 10 75 20 87
REMARK Flexibility Score: inf
ROOT
ATOM      1  C   UNL A   1      33.108  27.595  26.024  1.00  0.00     0.002 C 
ENDROOT
BRANCH   1   2
ATOM      2  C   UNL A   1      33.669  28.413  27.187  1.00  0.00     0.021 C 
BRANCH   2   3
ATOM      3  C   UNL A   1      34.784  29.389  26.836  1.00  0.00     0.116 C 
BRANCH   3   4
ATOM      4  N   UNL A   1      34.467  30.741  27.250  1.00  0.00    -0.352 N 
ATOM      5  O   UNL A   1      34.414  32.532  28.597  1.00  0.00    -0.269 OA
ATOM      6  C   UNL A   1      34.981  31.488  28.281  1.00  0.00     0.251 C 
ATOM      7  H   UNL A   1      33.778  31.193  26.711  1.00  0.00     0.163 HD
BRANCH   6   8
ATOM      8  C   UNL A   1      36.205  31.064  29.007  1.00  0.00     0.039 A 
ATOM      9  C   UNL A   1      37.401  31.744  28.755  1.00  0.00     0.014 A 
ATOM     10  C   UNL A   1      36.212  29.949  29.851  1.00  0.00     0.014 A 
ATOM     11  C   UNL A   1      38.595  31.308  29.339  1.00  0.00     0.010 A 
ATOM     12  C   UNL A   1      37.387  29.564  30.498  1.00  0.00     0.010 A 
ATOM     13  C   UNL A   1      38.598  30.210  30.212  1.00  0.00    -0.014 A 
BRANCH  13  14
ATOM     14  C   UNL A   1      39.867  29.641  30.739  1.00  0.00     0.031 A 
ATOM     15  C   UNL A   1      40.469  30.227  31.991  1.00  0.00     0.074 A 
ATOM     16  C   UNL A   1      40.487  28.628  30.102  1.00  0.00     0.049 A 
ATOM     17  N   UNL A   1      41.611  29.949  32.567  1.00  0.00    -0.248 NA
ATOM     18  C   UNL A   1      39.697  31.280  32.676  1.00  0.00     0.031 C 
ATOM     19  C   UNL A   1      40.002  27.970  28.890  1.00  0.00     0.029 A 
ATOM     20  N   UNL A   1      41.661  27.974  30.390  1.00  0.00    -0.354 N 
ATOM     21  C   UNL A   1      41.699  30.801  33.662  1.00  0.00     0.074 A 
ATOM     22  C   UNL A   1      40.526  31.644  33.644  1.00  0.00     0.031 C 
ATOM     23  C   UNL A   1      40.854  26.987  28.555  1.00  0.00     0.029 A 
ATOM     24  C   UNL A   1      41.971  26.976  29.498  1.00  0.00     0.049 A 
ATOM     25  H   UNL A   1      42.227  28.200  31.164  1.00  0.00     0.167 HD
ATOM     26  C   UNL A   1      42.656  30.857  34.616  1.00  0.00     0.031 A 
ATOM     27  C   UNL A   1      43.036  26.147  29.438  1.00  0.00     0.031 A 
ATOM     28  C   UNL A   1      43.799  29.986  34.656  1.00  0.00     0.049 A 
ATOM     29  C   UNL A   1      44.105  26.245  30.494  1.00  0.00     0.074 A 
ATOM     30  C   UNL A   1      44.805  29.941  35.603  1.00  0.00     0.029 A 
ATOM     31  N   UNL A   1      44.078  28.997  33.725  1.00  0.00    -0.354 N 
ATOM     32  N   UNL A   1      44.164  27.047  31.531  1.00  0.00    -0.248 NA
ATOM     33  C   UNL A   1      45.248  25.326  30.383  1.00  0.00     0.031 C 
ATOM     34  C   UNL A   1      45.724  28.966  35.215  1.00  0.00     0.029 A 
ATOM     35  C   UNL A   1      45.252  28.351  34.066  1.00  0.00     0.049 A 
ATOM     36  H   UNL A   1      43.523  28.787  32.938  1.00  0.00     0.167 HD
ATOM     37  C   UNL A   1      45.332  26.712  32.208  1.00  0.00     0.074 A 
ATOM     38  C   UNL A   1      45.947  25.628  31.470  1.00  0.00     0.031 C 
ATOM     39  C   UNL A   1      45.846  27.258  33.336  1.00  0.00     0.031 A 
BRANCH  26  40
ATOM     40  C   UNL A   1      42.511  31.870  35.721  1.00  0.00    -0.014 A 
ATOM     41  C   UNL A   1      41.810  31.533  36.894  1.00  0.00     0.010 A 
ATOM     42  C   UNL A   1      42.954  33.194  35.547  1.00  0.00     0.010 A 
ATOM     43  C   UNL A   1      41.523  32.507  37.854  1.00  0.00     0.020 A 
ATOM     44  C   UNL A   1      42.697  34.163  36.520  1.00  0.00     0.020 A 
ATOM     45  C   UNL A   1      41.959  33.820  37.654  1.00  0.00     0.054 A 
BRANCH  45  46
ATOM     46  S   UNL A   1      41.540  35.079  38.890  1.00  0.00     0.124 S 
ATOM     47  O   UNL A   1      42.388  34.699  40.016  1.00  0.00    -0.237 OA
ATOM     48  O   UNL A   1      41.906  36.322  38.216  1.00  0.00    -0.237 OA
ATOM     49  O   UNL A   1      40.105  34.892  39.096  1.00  0.00    -0.744 OA
ENDBRANCH  45  46
ENDBRANCH  26  40
BRANCH  27  50
ATOM     50  C   UNL A   1      43.112  25.133  28.348  1.00  0.00    -0.014 A 
ATOM     51  C   UNL A   1      42.653  23.819  28.558  1.00  0.00     0.010 A 
ATOM     52  C   UNL A   1      43.713  25.454  27.118  1.00  0.00     0.010 A 
ATOM     53  C   UNL A   1      42.841  22.835  27.584  1.00  0.00     0.020 A 
ATOM     54  C   UNL A   1      43.875  24.479  26.128  1.00  0.00     0.020 A 
ATOM     55  C   UNL A   1      43.465  23.168  26.380  1.00  0.00     0.054 A 
BRANCH  55  56
ATOM     56  S   UNL A   1      43.746  21.862  25.152  1.00  0.00     0.124 S 
ATOM     57  O   UNL A   1      45.063  21.364  25.540  1.00  0.00    -0.237 OA
ATOM     58  O   UNL A   1      42.633  20.949  25.396  1.00  0.00    -0.237 OA
ATOM     59  O   UNL A   1      43.697  22.574  23.877  1.00  0.00    -0.744 OA
ENDBRANCH  55  56
ENDBRANCH  27  50
BRANCH  39  60
ATOM     60  C   UNL A   1      47.134  26.704  33.888  1.00  0.00    -0.014 A 
ATOM     61  C   UNL A   1      48.362  27.193  33.400  1.00  0.00     0.010 A 
ATOM     62  C   UNL A   1      47.131  25.583  34.735  1.00  0.00     0.010 A 
ATOM     63  C   UNL A   1      49.557  26.537  33.702  1.00  0.00     0.020 A 
ATOM     64  C   UNL A   1      48.329  24.942  35.063  1.00  0.00     0.020 A 
ATOM     65  C   UNL A   1      49.529  25.404  34.518  1.00  0.00     0.054 A 
BRANCH  65  66
ATOM     66  S   UNL A   1      51.082  24.519  34.836  1.00  0.00     0.124 S 
ATOM     67  O   UNL A   1      51.996  25.609  35.163  1.00  0.00    -0.237 OA
ATOM     68  O   UNL A   1      50.728  23.639  35.948  1.00  0.00    -0.237 OA
ATOM     69  O   UNL A   1      51.352  23.836  33.572  1.00  0.00    -0.744 OA
ENDBRANCH  65  66
ENDBRANCH  39  60
ENDBRANCH  13  14
ENDBRANCH   6   8
ENDBRANCH   3   4
ENDBRANCH   2   3
ENDBRANCH   1   2
BRANCH   1  70
ATOM     70  C   UNL A   1      32.078  28.312  25.146  1.00  0.00     0.002 C 
BRANCH  70  71
ATOM     71  C   UNL A   1      32.617  28.939  23.856  1.00  0.00     0.021 C 
BRANCH  71  72
ATOM     72  C   UNL A   1      33.854  28.268  23.267  1.00  0.00     0.116 C 
BRANCH  72  73
ATOM     73  N   UNL A   1      33.598  27.651  21.976  1.00  0.00    -0.352 N 
ATOM     74  C   UNL A   1      33.331  26.332  21.697  1.00  0.00     0.253 C 
ATOM     75  H   UNL A   1      33.619  28.256  21.200  1.00  0.00     0.163 HD
ATOM     76  O   UNL A   1      33.210  25.955  20.534  1.00  0.00    -0.269 OA
BRANCH  74  77
ATOM     77  C   UNL A   1      33.221  25.352  22.800  1.00  0.00     0.064 A 
ATOM     78  C   UNL A   1      34.404  24.707  23.179  1.00  0.00     0.031 A 
ATOM     79  C   UNL A   1      31.997  25.076  23.445  1.00  0.00     0.051 A 
ATOM     80  C   UNL A   1      34.384  23.814  24.244  1.00  0.00     0.019 A 
ATOM     81  C   UNL A   1      32.015  24.212  24.565  1.00  0.00    -0.016 A 
ATOM     82  N   UNL A   1      30.807  25.678  23.045  1.00  0.00    -0.377 N 
ATOM     83  Br  UNL A   1      35.979  22.938  24.759  1.00  0.00    -0.051 Br
ATOM     84  C   UNL A   1      33.202  23.568  24.943  1.00  0.00     0.022 A 
ATOM     85  C   UNL A   1      30.698  23.960  25.244  1.00  0.00     0.049 C 
ATOM     86  C   UNL A   1      29.554  25.629  23.809  1.00  0.00     0.114 C 
ATOM     87  H   UNL A   1      30.805  26.170  22.193  1.00  0.00     0.161 HD
ATOM     88  C   UNL A   1      29.902  25.279  25.257  1.00  0.00     0.031 C 
ATOM     89  C   UNL A   1      30.621  23.597  26.695  1.00  0.00    -0.023 C 
ATOM     90  C   UNL A   1      28.790  25.016  26.268  1.00  0.00     0.034 C 
ATOM     91  C   UNL A   1      29.532  24.152  27.251  1.00  0.00    -0.030 C 
BRANCH  86  92
ATOM     92  C   UNL A   1      28.829  26.948  23.551  1.00  0.00    -0.019 A 
ATOM     93  C   UNL A   1      27.458  27.033  23.879  1.00  0.00     0.006 A 
ATOM     94  C   UNL A   1      29.426  28.063  22.942  1.00  0.00     0.091 A 
ATOM     95  C   UNL A   1      26.704  28.176  23.595  1.00  0.00     0.007 A 
ATOM     96  C   UNL A   1      28.671  29.222  22.682  1.00  0.00     0.269 A 
ATOM     97  C   UNL A   1      27.310  29.278  23.001  1.00  0.00     0.085 A 
BRANCH  96  98
ATOM     98  N   UNL A   1      29.300  30.360  21.998  1.00  0.00     0.062 N 
ATOM     99  O   UNL A   1      30.260  30.125  21.252  1.00  0.00    -0.258 OA
ATOM    100  O   UNL A   1      28.860  31.492  22.247  1.00  0.00    -0.258 OA
ENDBRANCH  96  98
ENDBRANCH  86  92
ENDBRANCH  74  77
ENDBRANCH  72  73
ENDBRANCH  71  72
ENDBRANCH  70  71
ENDBRANCH   1  70
TORSDOF 18
ENDMDL
