MODEL 1
REMARK VINA RESULT:     -10.7      0.000      0.000
REMARK SMILES O=C(NCCCCCCNC(=O)c1ccc(Br)c(NC(=S)NC(=O)c2cccs2)c1)c1ccc(-c2c3nc(c(-c4ccc(S(=O)(=O)[O-])cc4)c4ccc([nH]4)c(-c4ccc(S(=O)(=O)[O-])cc4)c4nc(c(-c5ccc(S(=O)(=O)[O-])cc5)c5ccc2[nH]5)C=C4)C=C3)cc1
REMARK SMILES IDX 7 1 6 2 5 3 4 4 3 5 1 6 2 7 31 9 32 10 90 11 33 12 89 13
REMARK SMILES IDX 34 14 35 15 36 16 83 17 37 18 88 19 82 20 84 21 38 22 87 23
REMARK SMILES IDX 81 24 80 25 39 27 69 28 50 29 68 30 51 31 54 32 67 33 85 34
REMARK SMILES IDX 52 35 53 36 66 38 86 39 55 40 40 41 41 42 49 43 42 44 48 45
REMARK SMILES IDX 43 46 44 47 45 48 46 49 47 50 70 51 71 52 79 53 72 54 78 55
REMARK SMILES IDX 73 56 74 57 75 58 76 59 77 60 56 61 57 62 65 63 58 64 64 65
REMARK SMILES IDX 59 66 60 67 61 68 62 69 63 70 8 71 9 72 10 73 11 74 12 76
REMARK SMILES IDX 13 77 14 78 30 79 15 80 18 81 16 82 17 83 19 84 20 86 21 87
REMARK SMILES IDX 22 88 23 89 24 91 25 92 26 93 29 94 27 95 28 96
REMARK H PARENT 3 8 84 26 54 37 10 75 19 85 22 90
REMARK Flexibility Score: inf
ROOT
ATOM      1  C   UNL A   1      40.786  22.731  28.232  1.00  0.00     0.002 C 
ENDROOT
BRANCH   1   2
ATOM      2  C   UNL A   1      42.256  22.687  28.668  1.00  0.00     0.002 C 
BRANCH   2   3
ATOM      3  C   UNL A   1      43.251  22.817  27.523  1.00  0.00     0.021 C 
BRANCH   3   4
ATOM      4  C   UNL A   1      43.740  24.235  27.316  1.00  0.00     0.116 C 
BRANCH   4   5
ATOM      5  N   UNL A   1      43.269  24.801  26.062  1.00  0.00    -0.352 N 
ATOM      6  O   UNL A   1      41.940  26.099  24.770  1.00  0.00    -0.269 OA
ATOM      7  C   UNL A   1      42.404  25.853  25.878  1.00  0.00     0.251 C 
ATOM      8  H   UNL A   1      43.612  24.377  25.242  1.00  0.00     0.163 HD
BRANCH   7   9
ATOM      9  C   UNL A   1      42.026  26.656  27.057  1.00  0.00     0.039 A 
ATOM     10  C   UNL A   1      42.761  27.799  27.367  1.00  0.00     0.014 A 
ATOM     11  C   UNL A   1      41.006  26.216  27.902  1.00  0.00     0.014 A 
ATOM     12  C   UNL A   1      42.628  28.373  28.617  1.00  0.00     0.010 A 
ATOM     13  C   UNL A   1      40.760  26.908  29.092  1.00  0.00     0.010 A 
ATOM     14  C   UNL A   1      41.588  27.975  29.474  1.00  0.00    -0.014 A 
BRANCH  14  15
ATOM     15  C   UNL A   1      41.348  28.780  30.697  1.00  0.00     0.031 A 
ATOM     16  C   UNL A   1      42.213  28.654  31.918  1.00  0.00     0.074 A 
ATOM     17  C   UNL A   1      40.344  29.682  30.662  1.00  0.00     0.049 A 
ATOM     18  N   UNL A   1      42.144  29.333  33.036  1.00  0.00    -0.248 NA
ATOM     19  C   UNL A   1      43.282  27.644  31.896  1.00  0.00     0.031 C 
ATOM     20  C   UNL A   1      39.428  29.878  29.532  1.00  0.00     0.029 A 
ATOM     21  N   UNL A   1      39.942  30.621  31.575  1.00  0.00    -0.354 N 
ATOM     22  C   UNL A   1      43.153  28.834  33.850  1.00  0.00     0.074 A 
ATOM     23  C   UNL A   1      43.790  27.761  33.116  1.00  0.00     0.031 C 
ATOM     24  C   UNL A   1      38.625  30.918  29.788  1.00  0.00     0.029 A 
ATOM     25  C   UNL A   1      38.891  31.393  31.137  1.00  0.00     0.049 A 
ATOM     26  H   UNL A   1      40.365  30.734  32.456  1.00  0.00     0.167 HD
ATOM     27  C   UNL A   1      43.520  29.244  35.089  1.00  0.00     0.031 A 
ATOM     28  C   UNL A   1      38.185  32.353  31.760  1.00  0.00     0.031 A 
ATOM     29  C   UNL A   1      42.860  30.298  35.819  1.00  0.00     0.049 A 
ATOM     30  C   UNL A   1      38.569  32.729  33.159  1.00  0.00     0.074 A 
ATOM     31  C   UNL A   1      43.163  30.792  37.077  1.00  0.00     0.029 A 
ATOM     32  N   UNL A   1      41.763  31.018  35.366  1.00  0.00    -0.354 N 
ATOM     33  N   UNL A   1      39.554  32.270  33.894  1.00  0.00    -0.248 NA
ATOM     34  C   UNL A   1      37.752  33.758  33.811  1.00  0.00     0.031 C 
ATOM     35  C   UNL A   1      42.206  31.753  37.414  1.00  0.00     0.029 A 
ATOM     36  C   UNL A   1      41.360  31.929  36.331  1.00  0.00     0.049 A 
ATOM     37  H   UNL A   1      41.333  30.899  34.488  1.00  0.00     0.167 HD
ATOM     38  C   UNL A   1      39.491  32.979  35.087  1.00  0.00     0.074 A 
ATOM     39  C   UNL A   1      38.396  33.919  34.956  1.00  0.00     0.031 C 
ATOM     40  C   UNL A   1      40.266  32.859  36.193  1.00  0.00     0.031 A 
BRANCH  27  41
ATOM     41  C   UNL A   1      44.688  28.549  35.744  1.00  0.00    -0.014 A 
ATOM     42  C   UNL A   1      45.998  29.038  35.596  1.00  0.00     0.010 A 
ATOM     43  C   UNL A   1      44.466  27.438  36.580  1.00  0.00     0.010 A 
ATOM     44  C   UNL A   1      47.066  28.414  36.247  1.00  0.00     0.020 A 
ATOM     45  C   UNL A   1      45.527  26.833  37.262  1.00  0.00     0.020 A 
ATOM     46  C   UNL A   1      46.823  27.319  37.082  1.00  0.00     0.054 A 
BRANCH  46  47
ATOM     47  S   UNL A   1      48.226  26.570  37.951  1.00  0.00     0.124 S 
ATOM     48  O   UNL A   1      48.960  25.943  36.855  1.00  0.00    -0.237 OA
ATOM     49  O   UNL A   1      48.876  27.728  38.559  1.00  0.00    -0.237 OA
ATOM     50  O   UNL A   1      47.601  25.642  38.890  1.00  0.00    -0.744 OA
ENDBRANCH  46  47
ENDBRANCH  27  41
BRANCH  28  51
ATOM     51  C   UNL A   1      37.011  32.973  31.084  1.00  0.00    -0.014 A 
ATOM     52  C   UNL A   1      35.699  32.576  31.391  1.00  0.00     0.010 A 
ATOM     53  C   UNL A   1      37.213  33.960  30.100  1.00  0.00     0.010 A 
ATOM     54  C   UNL A   1      34.616  33.121  30.695  1.00  0.00     0.020 A 
ATOM     55  C   UNL A   1      36.132  34.543  29.440  1.00  0.00     0.020 A 
ATOM     56  C   UNL A   1      34.841  34.103  29.725  1.00  0.00     0.054 A 
BRANCH  56  57
ATOM     57  S   UNL A   1      33.420  34.808  28.851  1.00  0.00     0.124 S 
ATOM     58  O   UNL A   1      33.104  33.757  27.888  1.00  0.00    -0.237 OA
ATOM     59  O   UNL A   1      32.451  34.993  29.928  1.00  0.00    -0.237 OA
ATOM     60  O   UNL A   1      33.949  36.044  28.277  1.00  0.00    -0.744 OA
ENDBRANCH  56  57
ENDBRANCH  28  51
BRANCH  40  61
ATOM     61  C   UNL A   1      39.986  33.808  37.332  1.00  0.00    -0.014 A 
ATOM     62  C   UNL A   1      40.606  35.069  37.413  1.00  0.00     0.010 A 
ATOM     63  C   UNL A   1      39.075  33.430  38.335  1.00  0.00     0.010 A 
ATOM     64  C   UNL A   1      40.363  35.907  38.504  1.00  0.00     0.020 A 
ATOM     65  C   UNL A   1      38.794  34.284  39.402  1.00  0.00     0.020 A 
ATOM     66  C   UNL A   1      39.456  35.510  39.490  1.00  0.00     0.054 A 
BRANCH  66  67
ATOM     67  S   UNL A   1      39.139  36.629  40.881  1.00  0.00     0.124 S 
ATOM     68  O   UNL A   1      40.487  36.878  41.385  1.00  0.00    -0.237 OA
ATOM     69  O   UNL A   1      38.490  37.765  40.230  1.00  0.00    -0.237 OA
ATOM     70  O   UNL A   1      38.278  35.848  41.765  1.00  0.00    -0.744 OA
ENDBRANCH  66  67
ENDBRANCH  40  61
ENDBRANCH  14  15
ENDBRANCH   7   9
ENDBRANCH   4   5
ENDBRANCH   3   4
ENDBRANCH   2   3
ENDBRANCH   1   2
BRANCH   1  71
ATOM     71  C   UNL A   1      40.551  22.614  26.719  1.00  0.00     0.021 C 
BRANCH  71  72
ATOM     72  C   UNL A   1      39.094  22.753  26.289  1.00  0.00     0.116 C 
BRANCH  72  73
ATOM     73  N   UNL A   1      38.697  21.645  25.451  1.00  0.00    -0.352 N 
ATOM     74  C   UNL A   1      37.472  21.126  25.142  1.00  0.00     0.251 C 
ATOM     75  H   UNL A   1      39.449  21.176  25.023  1.00  0.00     0.163 HD
ATOM     76  O   UNL A   1      37.497  20.003  24.646  1.00  0.00    -0.269 OA
BRANCH  74  77
ATOM     77  C   UNL A   1      36.185  21.993  25.423  1.00  0.00     0.041 A 
ATOM     78  C   UNL A   1      34.767  20.892  25.726  1.00  0.00     0.015 A 
ATOM     79  C   UNL A   1      35.705  23.991  25.499  1.00  0.00     0.041 A 
ATOM     80  C   UNL A   1      33.186  21.671  26.000  1.00  0.00     0.018 A 
ATOM     81  C   UNL A   1      34.186  24.602  25.654  1.00  0.00     0.055 A 
ATOM     82  C   UNL A   1      32.934  23.445  25.949  1.00  0.00     0.041 A 
ATOM     83  Br  UNL A   1      31.148  24.070  26.068  1.00  0.00    -0.049 Br
BRANCH  81  84
ATOM     84  N   UNL A   1      34.219  25.941  25.206  1.00  0.00    -0.331 N 
ATOM     85  H   UNL A   1      34.931  26.496  25.599  1.00  0.00     0.169 HD
BRANCH  84  86
ATOM     86  C   UNL A   1      33.393  26.598  24.287  1.00  0.00     0.177 C 
ATOM     87  S   UNL A   1      33.385  25.983  22.720  1.00  0.00    -0.040 S 
BRANCH  86  88
ATOM     88  N   UNL A   1      32.506  27.734  24.505  1.00  0.00    -0.298 N 
ATOM     89  C   UNL A   1      31.363  28.686  24.119  1.00  0.00     0.267 C 
ATOM     90  H   UNL A   1      32.800  28.080  25.378  1.00  0.00     0.172 HD
ATOM     91  O   UNL A   1      31.237  29.717  24.780  1.00  0.00    -0.268 OA
BRANCH  89  92
ATOM     92  C   UNL A   1      30.424  28.302  22.974  1.00  0.00     0.092 A 
ATOM     93  C   UNL A   1      29.875  29.661  22.100  1.00  0.00     0.025 A 
ATOM     94  S   UNL A   1      28.753  26.894  23.742  1.00  0.00    -0.139 S 
ATOM     95  C   UNL A   1      28.002  29.981  22.296  1.00  0.00     0.012 A 
ATOM     96  C   UNL A   1      27.117  28.491  23.261  1.00  0.00     0.065 A 
ENDBRANCH  89  92
ENDBRANCH  86  88
ENDBRANCH  84  86
ENDBRANCH  81  84
ENDBRANCH  74  77
ENDBRANCH  72  73
ENDBRANCH  71  72
ENDBRANCH   1  71
TORSDOF 20
ENDMDL
MODEL 2
REMARK VINA RESULT:      -9.9      2.789      9.695
REMARK SMILES O=C(NCCCCCCNC(=O)c1ccc(Br)c(NC(=S)NC(=O)c2cccs2)c1)c1ccc(-c2c3nc(c(-c4ccc(S(=O)(=O)[O-])cc4)c4ccc([nH]4)c(-c4ccc(S(=O)(=O)[O-])cc4)c4nc(c(-c5ccc(S(=O)(=O)[O-])cc5)c5ccc2[nH]5)C=C4)C=C3)cc1
REMARK SMILES IDX 7 1 6 2 5 3 4 4 3 5 1 6 2 7 31 9 32 10 90 11 33 12 89 13
REMARK SMILES IDX 34 14 35 15 36 16 83 17 37 18 88 19 82 20 84 21 38 22 87 23
REMARK SMILES IDX 81 24 80 25 39 27 69 28 50 29 68 30 51 31 54 32 67 33 85 34
REMARK SMILES IDX 52 35 53 36 66 38 86 39 55 40 40 41 41 42 49 43 42 44 48 45
REMARK SMILES IDX 43 46 44 47 45 48 46 49 47 50 70 51 71 52 79 53 72 54 78 55
REMARK SMILES IDX 73 56 74 57 75 58 76 59 77 60 56 61 57 62 65 63 58 64 64 65
REMARK SMILES IDX 59 66 60 67 61 68 62 69 63 70 8 71 9 72 10 73 11 74 12 76
REMARK SMILES IDX 13 77 14 78 30 79 15 80 18 81 16 82 17 83 19 84 20 86 21 87
REMARK SMILES IDX 22 88 23 89 24 91 25 92 26 93 29 94 27 95 28 96
REMARK H PARENT 3 8 84 26 54 37 10 75 19 85 22 90
REMARK Flexibility Score: inf
ROOT
ATOM      1  C   UNL A   1      35.949  31.730  28.484  1.00  0.00     0.002 C 
ENDROOT
BRANCH   1   2
ATOM      2  C   UNL A   1      35.451  33.114  28.051  1.00  0.00     0.002 C 
BRANCH   2   3
ATOM      3  C   UNL A   1      34.081  33.486  28.600  1.00  0.00     0.021 C 
BRANCH   3   4
ATOM      4  C   UNL A   1      33.930  34.966  28.875  1.00  0.00     0.116 C 
BRANCH   4   5
ATOM      5  N   UNL A   1      33.067  35.228  30.017  1.00  0.00    -0.352 N 
ATOM      6  O   UNL A   1      32.357  34.973  32.150  1.00  0.00    -0.269 OA
ATOM      7  C   UNL A   1      33.257  34.858  31.327  1.00  0.00     0.251 C 
ATOM      8  H   UNL A   1      32.244  35.733  29.827  1.00  0.00     0.163 HD
BRANCH   7   9
ATOM      9  C   UNL A   1      34.566  34.287  31.704  1.00  0.00     0.039 A 
ATOM     10  C   UNL A   1      34.643  32.942  32.063  1.00  0.00     0.014 A 
ATOM     11  C   UNL A   1      35.687  35.112  31.792  1.00  0.00     0.014 A 
ATOM     12  C   UNL A   1      35.772  32.478  32.712  1.00  0.00     0.010 A 
ATOM     13  C   UNL A   1      36.883  34.588  32.292  1.00  0.00     0.010 A 
ATOM     14  C   UNL A   1      36.928  33.274  32.784  1.00  0.00    -0.014 A 
BRANCH  14  15
ATOM     15  C   UNL A   1      38.176  32.644  33.278  1.00  0.00     0.031 A 
ATOM     16  C   UNL A   1      39.025  31.764  32.407  1.00  0.00     0.074 A 
ATOM     17  C   UNL A   1      38.563  32.931  34.539  1.00  0.00     0.049 A 
ATOM     18  N   UNL A   1      40.167  31.190  32.697  1.00  0.00    -0.248 NA
ATOM     19  C   UNL A   1      38.542  31.480  31.046  1.00  0.00     0.031 C 
ATOM     20  C   UNL A   1      37.806  33.763  35.483  1.00  0.00     0.029 A 
ATOM     21  N   UNL A   1      39.692  32.592  35.237  1.00  0.00    -0.354 N 
ATOM     22  C   UNL A   1      40.536  30.477  31.563  1.00  0.00     0.074 A 
ATOM     23  C   UNL A   1      39.475  30.651  30.595  1.00  0.00     0.031 C 
ATOM     24  C   UNL A   1      38.522  33.929  36.601  1.00  0.00     0.029 A 
ATOM     25  C   UNL A   1      39.734  33.130  36.502  1.00  0.00     0.049 A 
ATOM     26  H   UNL A   1      40.403  32.019  34.869  1.00  0.00     0.167 HD
ATOM     27  C   UNL A   1      41.665  29.757  31.349  1.00  0.00     0.031 A 
ATOM     28  C   UNL A   1      40.626  32.973  37.496  1.00  0.00     0.031 A 
ATOM     29  C   UNL A   1      42.704  29.572  32.332  1.00  0.00     0.049 A 
ATOM     30  C   UNL A   1      41.825  32.107  37.251  1.00  0.00     0.074 A 
ATOM     31  C   UNL A   1      43.888  28.866  32.207  1.00  0.00     0.029 A 
ATOM     32  N   UNL A   1      42.684  30.085  33.621  1.00  0.00    -0.354 N 
ATOM     33  N   UNL A   1      42.174  31.475  36.155  1.00  0.00    -0.248 NA
ATOM     34  C   UNL A   1      42.754  31.939  38.372  1.00  0.00     0.031 C 
ATOM     35  C   UNL A   1      44.546  28.890  33.440  1.00  0.00     0.029 A 
ATOM     36  C   UNL A   1      43.821  29.687  34.309  1.00  0.00     0.049 A 
ATOM     37  H   UNL A   1      41.968  30.649  33.994  1.00  0.00     0.167 HD
ATOM     38  C   UNL A   1      43.383  30.857  36.450  1.00  0.00     0.074 A 
ATOM     39  C   UNL A   1      43.717  31.224  37.812  1.00  0.00     0.031 C 
ATOM     40  C   UNL A   1      44.144  30.055  35.666  1.00  0.00     0.031 A 
BRANCH  27  41
ATOM     41  C   UNL A   1      41.838  29.105  29.999  1.00  0.00    -0.014 A 
ATOM     42  C   UNL A   1      41.604  27.729  29.823  1.00  0.00     0.010 A 
ATOM     43  C   UNL A   1      42.165  29.889  28.876  1.00  0.00     0.010 A 
ATOM     44  C   UNL A   1      41.720  27.146  28.559  1.00  0.00     0.020 A 
ATOM     45  C   UNL A   1      42.248  29.316  27.603  1.00  0.00     0.020 A 
ATOM     46  C   UNL A   1      42.035  27.945  27.455  1.00  0.00     0.054 A 
BRANCH  46  47
ATOM     47  S   UNL A   1      42.126  27.161  25.823  1.00  0.00     0.124 S 
ATOM     48  O   UNL A   1      40.835  26.483  25.740  1.00  0.00    -0.237 OA
ATOM     49  O   UNL A   1      42.290  28.307  24.931  1.00  0.00    -0.237 OA
ATOM     50  O   UNL A   1      43.286  26.279  25.922  1.00  0.00    -0.744 OA
ENDBRANCH  46  47
ENDBRANCH  27  41
BRANCH  28  51
ATOM     51  C   UNL A   1      40.381  33.600  38.825  1.00  0.00    -0.014 A 
ATOM     52  C   UNL A   1      39.492  33.027  39.749  1.00  0.00     0.010 A 
ATOM     53  C   UNL A   1      41.030  34.804  39.159  1.00  0.00     0.010 A 
ATOM     54  C   UNL A   1      39.224  33.670  40.961  1.00  0.00     0.020 A 
ATOM     55  C   UNL A   1      40.805  35.422  40.389  1.00  0.00     0.020 A 
ATOM     56  C   UNL A   1      39.885  34.862  41.273  1.00  0.00     0.054 A 
BRANCH  56  57
ATOM     57  S   UNL A   1      39.535  35.665  42.859  1.00  0.00     0.124 S 
ATOM     58  O   UNL A   1      40.713  35.312  43.645  1.00  0.00    -0.237 OA
ATOM     59  O   UNL A   1      39.424  37.071  42.478  1.00  0.00    -0.237 OA
ATOM     60  O   UNL A   1      38.285  35.043  43.291  1.00  0.00    -0.744 OA
ENDBRANCH  56  57
ENDBRANCH  28  51
BRANCH  40  61
ATOM     61  C   UNL A   1      45.444  29.561  36.250  1.00  0.00    -0.014 A 
ATOM     62  C   UNL A   1      45.523  28.350  36.962  1.00  0.00     0.010 A 
ATOM     63  C   UNL A   1      46.614  30.324  36.070  1.00  0.00     0.010 A 
ATOM     64  C   UNL A   1      46.731  27.941  37.531  1.00  0.00     0.020 A 
ATOM     65  C   UNL A   1      47.833  29.895  36.597  1.00  0.00     0.020 A 
ATOM     66  C   UNL A   1      47.880  28.716  37.342  1.00  0.00     0.054 A 
BRANCH  66  67
ATOM     67  S   UNL A   1      49.440  28.148  38.069  1.00  0.00     0.124 S 
ATOM     68  O   UNL A   1      49.039  27.819  39.434  1.00  0.00    -0.237 OA
ATOM     69  O   UNL A   1      49.786  27.010  37.223  1.00  0.00    -0.237 OA
ATOM     70  O   UNL A   1      50.323  29.305  37.942  1.00  0.00    -0.744 OA
ENDBRANCH  66  67
ENDBRANCH  40  61
ENDBRANCH  14  15
ENDBRANCH   7   9
ENDBRANCH   4   5
ENDBRANCH   3   4
ENDBRANCH   2   3
ENDBRANCH   1   2
BRANCH   1  71
ATOM     71  C   UNL A   1      34.879  30.629  28.502  1.00  0.00     0.021 C 
BRANCH  71  72
ATOM     72  C   UNL A   1      34.259  30.321  27.142  1.00  0.00     0.116 C 
BRANCH  72  73
ATOM     73  N   UNL A   1      32.962  30.946  27.015  1.00  0.00    -0.352 N 
ATOM     74  C   UNL A   1      31.836  30.583  26.332  1.00  0.00     0.251 C 
ATOM     75  H   UNL A   1      32.873  31.790  27.513  1.00  0.00     0.163 HD
ATOM     76  O   UNL A   1      31.009  31.479  26.187  1.00  0.00    -0.269 OA
BRANCH  74  77
ATOM     77  C   UNL A   1      31.699  29.094  25.828  1.00  0.00     0.041 A 
ATOM     78  C   UNL A   1      31.459  29.087  24.024  1.00  0.00     0.015 A 
ATOM     79  C   UNL A   1      31.685  27.218  26.667  1.00  0.00     0.041 A 
ATOM     80  C   UNL A   1      31.212  27.499  23.250  1.00  0.00     0.018 A 
ATOM     81  C   UNL A   1      31.339  25.820  25.873  1.00  0.00     0.055 A 
ATOM     82  C   UNL A   1      31.147  25.954  24.158  1.00  0.00     0.041 A 
ATOM     83  Br  UNL A   1      30.679  24.396  23.186  1.00  0.00    -0.049 Br
BRANCH  81  84
ATOM     84  N   UNL A   1      30.982  24.857  26.842  1.00  0.00    -0.331 N 
ATOM     85  H   UNL A   1      30.477  25.207  27.612  1.00  0.00     0.169 HD
BRANCH  84  86
ATOM     86  C   UNL A   1      31.234  23.481  26.873  1.00  0.00     0.177 C 
ATOM     87  S   UNL A   1      29.928  22.477  26.530  1.00  0.00    -0.040 S 
BRANCH  86  88
ATOM     88  N   UNL A   1      32.490  22.789  27.133  1.00  0.00    -0.298 N 
ATOM     89  C   UNL A   1      33.718  21.958  26.726  1.00  0.00     0.267 C 
ATOM     90  H   UNL A   1      32.628  22.933  28.096  1.00  0.00     0.172 HD
ATOM     91  O   UNL A   1      34.404  21.482  27.631  1.00  0.00    -0.268 OA
BRANCH  89  92
ATOM     92  C   UNL A   1      34.049  21.791  25.242  1.00  0.00     0.092 A 
ATOM     93  C   UNL A   1      35.277  20.635  24.977  1.00  0.00     0.025 A 
ATOM     94  S   UNL A   1      34.425  23.857  24.265  1.00  0.00    -0.139 S 
ATOM     95  C   UNL A   1      36.896  21.392  24.303  1.00  0.00     0.012 A 
ATOM     96  C   UNL A   1      36.653  23.304  23.832  1.00  0.00     0.065 A 
ENDBRANCH  89  92
ENDBRANCH  86  88
ENDBRANCH  84  86
ENDBRANCH  81  84
ENDBRANCH  74  77
ENDBRANCH  72  73
ENDBRANCH  71  72
ENDBRANCH   1  71
TORSDOF 20
ENDMDL
MODEL 3
REMARK VINA RESULT:      -9.9      2.811      9.367
REMARK SMILES O=C(NCCCCCCNC(=O)c1ccc(Br)c(NC(=S)NC(=O)c2cccs2)c1)c1ccc(-c2c3nc(c(-c4ccc(S(=O)(=O)[O-])cc4)c4ccc([nH]4)c(-c4ccc(S(=O)(=O)[O-])cc4)c4nc(c(-c5ccc(S(=O)(=O)[O-])cc5)c5ccc2[nH]5)C=C4)C=C3)cc1
REMARK SMILES IDX 7 1 6 2 5 3 4 4 3 5 1 6 2 7 31 9 32 10 90 11 33 12 89 13
REMARK SMILES IDX 34 14 35 15 36 16 83 17 37 18 88 19 82 20 84 21 38 22 87 23
REMARK SMILES IDX 81 24 80 25 39 27 69 28 50 29 68 30 51 31 54 32 67 33 85 34
REMARK SMILES IDX 52 35 53 36 66 38 86 39 55 40 40 41 41 42 49 43 42 44 48 45
REMARK SMILES IDX 43 46 44 47 45 48 46 49 47 50 70 51 71 52 79 53 72 54 78 55
REMARK SMILES IDX 73 56 74 57 75 58 76 59 77 60 56 61 57 62 65 63 58 64 64 65
REMARK SMILES IDX 59 66 60 67 61 68 62 69 63 70 8 71 9 72 10 73 11 74 12 76
REMARK SMILES IDX 13 77 14 78 30 79 15 80 18 81 16 82 17 83 19 84 20 86 21 87
REMARK SMILES IDX 22 88 23 89 24 91 25 92 26 93 29 94 27 95 28 96
REMARK H PARENT 3 8 84 26 54 37 10 75 19 85 22 90
REMARK Flexibility Score: inf
ROOT
ATOM      1  C   UNL A   1      36.004  31.713  28.713  1.00  0.00     0.002 C 
ENDROOT
BRANCH   1   2
ATOM      2  C   UNL A   1      35.435  33.092  28.361  1.00  0.00     0.002 C 
BRANCH   2   3
ATOM      3  C   UNL A   1      34.084  33.392  28.997  1.00  0.00     0.021 C 
BRANCH   3   4
ATOM      4  C   UNL A   1      33.871  34.864  29.277  1.00  0.00     0.116 C 
BRANCH   4   5
ATOM      5  N   UNL A   1      33.057  35.084  30.463  1.00  0.00    -0.352 N 
ATOM      6  O   UNL A   1      32.470  34.797  32.629  1.00  0.00    -0.269 OA
ATOM      7  C   UNL A   1      33.332  34.725  31.760  1.00  0.00     0.251 C 
ATOM      8  H   UNL A   1      32.201  35.550  30.316  1.00  0.00     0.163 HD
BRANCH   7   9
ATOM      9  C   UNL A   1      34.683  34.217  32.068  1.00  0.00     0.039 A 
ATOM     10  C   UNL A   1      34.838  32.887  32.457  1.00  0.00     0.014 A 
ATOM     11  C   UNL A   1      35.773  35.088  32.063  1.00  0.00     0.014 A 
ATOM     12  C   UNL A   1      36.023  32.487  33.045  1.00  0.00     0.010 A 
ATOM     13  C   UNL A   1      37.018  34.625  32.500  1.00  0.00     0.010 A 
ATOM     14  C   UNL A   1      37.148  33.329  33.022  1.00  0.00    -0.014 A 
BRANCH  14  15
ATOM     15  C   UNL A   1      38.450  32.763  33.453  1.00  0.00     0.031 A 
ATOM     16  C   UNL A   1      39.002  32.991  34.830  1.00  0.00     0.074 A 
ATOM     17  C   UNL A   1      39.111  31.981  32.574  1.00  0.00     0.049 A 
ATOM     18  N   UNL A   1      40.104  32.513  35.353  1.00  0.00    -0.248 NA
ATOM     19  C   UNL A   1      38.239  33.863  35.736  1.00  0.00     0.031 C 
ATOM     20  C   UNL A   1      38.674  31.703  31.199  1.00  0.00     0.029 A 
ATOM     21  N   UNL A   1      40.262  31.250  32.703  1.00  0.00    -0.354 N 
ATOM     22  C   UNL A   1      40.170  33.027  36.642  1.00  0.00     0.074 A 
ATOM     23  C   UNL A   1      39.021  33.891  36.807  1.00  0.00     0.031 C 
ATOM     24  C   UNL A   1      39.502  30.811  30.643  1.00  0.00     0.029 A 
ATOM     25  C   UNL A   1      40.585  30.535  31.573  1.00  0.00     0.049 A 
ATOM     26  H   UNL A   1      40.804  31.237  33.524  1.00  0.00     0.167 HD
ATOM     27  C   UNL A   1      41.098  32.785  37.601  1.00  0.00     0.031 A 
ATOM     28  C   UNL A   1      41.655  29.770  31.292  1.00  0.00     0.031 A 
ATOM     29  C   UNL A   1      42.251  31.940  37.415  1.00  0.00     0.049 A 
ATOM     30  C   UNL A   1      42.701  29.586  32.350  1.00  0.00     0.074 A 
ATOM     31  C   UNL A   1      43.244  31.627  38.328  1.00  0.00     0.029 A 
ATOM     32  N   UNL A   1      42.575  31.279  36.238  1.00  0.00    -0.354 N 
ATOM     33  N   UNL A   1      42.721  30.049  33.577  1.00  0.00    -0.248 NA
ATOM     34  C   UNL A   1      43.865  28.771  31.988  1.00  0.00     0.031 C 
ATOM     35  C   UNL A   1      44.203  30.842  37.683  1.00  0.00     0.029 A 
ATOM     36  C   UNL A   1      43.766  30.585  36.395  1.00  0.00     0.049 A 
ATOM     37  H   UNL A   1      42.039  31.300  35.412  1.00  0.00     0.167 HD
ATOM     38  C   UNL A   1      43.889  29.554  34.144  1.00  0.00     0.074 A 
ATOM     39  C   UNL A   1      44.523  28.729  33.136  1.00  0.00     0.031 C 
ATOM     40  C   UNL A   1      44.392  29.768  35.384  1.00  0.00     0.031 A 
BRANCH  27  41
ATOM     41  C   UNL A   1      40.912  33.448  38.944  1.00  0.00    -0.014 A 
ATOM     42  C   UNL A   1      41.500  34.695  39.224  1.00  0.00     0.010 A 
ATOM     43  C   UNL A   1      40.077  32.856  39.911  1.00  0.00     0.010 A 
ATOM     44  C   UNL A   1      41.281  35.322  40.453  1.00  0.00     0.020 A 
ATOM     45  C   UNL A   1      39.826  33.498  41.128  1.00  0.00     0.020 A 
ATOM     46  C   UNL A   1      40.439  34.723  41.395  1.00  0.00     0.054 A 
BRANCH  46  47
ATOM     47  S   UNL A   1      40.136  35.592  42.957  1.00  0.00     0.124 S 
ATOM     48  O   UNL A   1      39.301  36.709  42.525  1.00  0.00    -0.237 OA
ATOM     49  O   UNL A   1      39.459  34.576  43.758  1.00  0.00    -0.237 OA
ATOM     50  O   UNL A   1      41.473  35.959  43.418  1.00  0.00    -0.744 OA
ENDBRANCH  46  47
ENDBRANCH  27  41
BRANCH  28  51
ATOM     51  C   UNL A   1      41.813  29.179  29.934  1.00  0.00    -0.014 A 
ATOM     52  C   UNL A   1      42.404  29.904  28.886  1.00  0.00     0.010 A 
ATOM     53  C   UNL A   1      41.340  27.876  29.680  1.00  0.00     0.010 A 
ATOM     54  C   UNL A   1      42.478  29.356  27.603  1.00  0.00     0.020 A 
ATOM     55  C   UNL A   1      41.459  27.306  28.413  1.00  0.00     0.020 A 
ATOM     56  C   UNL A   1      42.007  28.059  27.376  1.00  0.00     0.054 A 
BRANCH  56  57
ATOM     57  S   UNL A   1      42.132  27.363  25.708  1.00  0.00     0.124 S 
ATOM     58  O   UNL A   1      40.919  26.555  25.625  1.00  0.00    -0.237 OA
ATOM     59  O   UNL A   1      42.156  28.560  24.872  1.00  0.00    -0.237 OA
ATOM     60  O   UNL A   1      43.383  26.609  25.744  1.00  0.00    -0.744 OA
ENDBRANCH  56  57
ENDBRANCH  28  51
BRANCH  40  61
ATOM     61  C   UNL A   1      45.672  29.052  35.736  1.00  0.00    -0.014 A 
ATOM     62  C   UNL A   1      46.928  29.674  35.608  1.00  0.00     0.010 A 
ATOM     63  C   UNL A   1      45.612  27.730  36.217  1.00  0.00     0.010 A 
ATOM     64  C   UNL A   1      48.099  28.970  35.897  1.00  0.00     0.020 A 
ATOM     65  C   UNL A   1      46.777  27.039  36.552  1.00  0.00     0.020 A 
ATOM     66  C   UNL A   1      48.016  27.657  36.370  1.00  0.00     0.054 A 
BRANCH  66  67
ATOM     67  S   UNL A   1      49.550  26.776  36.764  1.00  0.00     0.124 S 
ATOM     68  O   UNL A   1      50.365  27.040  35.581  1.00  0.00    -0.237 OA
ATOM     69  O   UNL A   1      49.987  27.437  37.991  1.00  0.00    -0.237 OA
ATOM     70  O   UNL A   1      49.122  25.389  36.927  1.00  0.00    -0.744 OA
ENDBRANCH  66  67
ENDBRANCH  40  61
ENDBRANCH  14  15
ENDBRANCH   7   9
ENDBRANCH   4   5
ENDBRANCH   3   4
ENDBRANCH   2   3
ENDBRANCH   1   2
BRANCH   1  71
ATOM     71  C   UNL A   1      34.991  30.559  28.669  1.00  0.00     0.021 C 
BRANCH  71  72
ATOM     72  C   UNL A   1      34.411  30.274  27.286  1.00  0.00     0.116 C 
BRANCH  72  73
ATOM     73  N   UNL A   1      33.149  30.955  27.108  1.00  0.00    -0.352 N 
ATOM     74  C   UNL A   1      32.033  30.636  26.388  1.00  0.00     0.251 C 
ATOM     75  H   UNL A   1      33.081  31.807  27.596  1.00  0.00     0.163 HD
ATOM     76  O   UNL A   1      31.254  31.567  26.205  1.00  0.00    -0.269 OA
BRANCH  74  77
ATOM     77  C   UNL A   1      31.847  29.151  25.890  1.00  0.00     0.041 A 
ATOM     78  C   UNL A   1      31.504  29.150  24.103  1.00  0.00     0.015 A 
ATOM     79  C   UNL A   1      31.856  27.273  26.727  1.00  0.00     0.041 A 
ATOM     80  C   UNL A   1      31.191  27.568  23.343  1.00  0.00     0.018 A 
ATOM     81  C   UNL A   1      31.446  25.882  25.952  1.00  0.00     0.055 A 
ATOM     82  C   UNL A   1      31.157  26.022  24.251  1.00  0.00     0.041 A 
ATOM     83  Br  UNL A   1      30.613  24.472  23.305  1.00  0.00    -0.049 Br
BRANCH  81  84
ATOM     84  N   UNL A   1      31.132  24.922  26.939  1.00  0.00    -0.331 N 
ATOM     85  H   UNL A   1      30.685  25.278  27.741  1.00  0.00     0.169 HD
BRANCH  84  86
ATOM     86  C   UNL A   1      31.358  23.540  26.948  1.00  0.00     0.177 C 
ATOM     87  S   UNL A   1      30.034  22.567  26.586  1.00  0.00    -0.040 S 
BRANCH  86  88
ATOM     88  N   UNL A   1      32.599  22.820  27.202  1.00  0.00    -0.298 N 
ATOM     89  C   UNL A   1      33.802  21.956  26.790  1.00  0.00     0.267 C 
ATOM     90  H   UNL A   1      32.751  22.971  28.162  1.00  0.00     0.172 HD
ATOM     91  O   UNL A   1      34.486  21.472  27.691  1.00  0.00    -0.268 OA
BRANCH  89  92
ATOM     92  C   UNL A   1      34.113  21.767  25.304  1.00  0.00     0.092 A 
ATOM     93  C   UNL A   1      35.360  20.633  25.040  1.00  0.00     0.025 A 
ATOM     94  S   UNL A   1      34.428  23.820  24.280  1.00  0.00    -0.139 S 
ATOM     95  C   UNL A   1      36.951  21.410  24.324  1.00  0.00     0.012 A 
ATOM     96  C   UNL A   1      36.660  23.307  23.821  1.00  0.00     0.065 A 
ENDBRANCH  89  92
ENDBRANCH  86  88
ENDBRANCH  84  86
ENDBRANCH  81  84
ENDBRANCH  74  77
ENDBRANCH  72  73
ENDBRANCH  71  72
ENDBRANCH   1  71
TORSDOF 20
ENDMDL
