MODEL 1
REMARK VINA RESULT:     -12.4      0.000      0.000
REMARK SMILES Cc1ccccc1-c1c(Cl)ccc2c1C=C(C(=O)NCCCCCCNC(=O)c1ccc(-c3c4nc(c(-c5ccc(S(=O)(=O)[O-])cc5)c5ccc([nH]5)c(-c5ccc(S(=O)(=O)[O-])cc5)c5nc(c(-c6ccc(S(=O)(=O)[O-])cc6)c6ccc3[nH]6)C=C5)C=C4)cc1)[C@@H](C(F)(F)F)O2
REMARK SMILES IDX 23 1 22 2 21 3 20 4 19 5 17 6 18 7 16 9 8 10 9 11 14 12
REMARK SMILES IDX 10 13 11 14 13 15 15 16 12 17 94 18 89 19 7 20 1 21 2 22
REMARK SMILES IDX 3 23 4 24 6 25 5 26 90 27 91 28 92 29 93 30 24 31 25 32
REMARK SMILES IDX 26 33 27 34 28 36 29 37 30 38 88 39 31 40 87 41 32 42 33 43
REMARK SMILES IDX 34 44 81 45 35 46 86 47 80 48 82 49 36 50 85 51 79 52 78 53
REMARK SMILES IDX 37 55 67 56 48 57 66 58 49 59 52 60 65 61 83 62 50 63 51 64
REMARK SMILES IDX 64 66 84 67 53 68 38 69 39 70 47 71 40 72 46 73 41 74 42 75
REMARK SMILES IDX 43 76 44 77 45 78 68 79 69 80 77 81 70 82 76 83 71 84 72 85
REMARK SMILES IDX 73 86 74 87 75 88 54 89 55 90 63 91 56 92 62 93 57 94 58 95
REMARK SMILES IDX 59 96 60 97 61 98
REMARK H PARENT 19 8 26 35 82 54 52 65
REMARK Flexibility Score: inf
ROOT
ATOM      1  C   UNL A   1      41.266  22.549  26.306  1.00  0.00     0.002 C 
ENDROOT
BRANCH   1   2
ATOM      2  C   UNL A   1      39.872  22.768  27.014  1.00  0.00     0.002 C 
BRANCH   2   3
ATOM      3  C   UNL A   1      38.625  23.340  26.260  1.00  0.00     0.021 C 
BRANCH   3   4
ATOM      4  C   UNL A   1      37.781  22.334  25.513  1.00  0.00     0.116 C 
BRANCH   4   5
ATOM      5  N   UNL A   1      37.073  22.938  24.412  1.00  0.00    -0.352 N 
ATOM      6  C   UNL A   1      35.862  23.531  24.347  1.00  0.00     0.251 C 
ATOM      7  O   UNL A   1      35.470  23.902  23.241  1.00  0.00    -0.270 OA
ATOM      8  H   UNL A   1      37.558  22.913  23.557  1.00  0.00     0.163 HD
BRANCH   6   9
ATOM      9  C   UNL A   1      35.008  23.696  25.582  1.00  0.00     0.067 C 
ATOM     10  C   UNL A   1      32.100  25.850  24.715  1.00  0.00     0.012 A 
ATOM     11  C   UNL A   1      31.016  25.669  23.817  1.00  0.00     0.049 A 
ATOM     12  C   UNL A   1      32.929  24.722  24.955  1.00  0.00     0.027 A 
ATOM     13  Cl  UNL A   1      29.992  26.985  23.329  1.00  0.00    -0.084 Cl
ATOM     14  C   UNL A   1      30.713  24.419  23.265  1.00  0.00     0.025 A 
ATOM     15  C   UNL A   1      32.531  23.447  24.490  1.00  0.00     0.128 A 
ATOM     16  C   UNL A   1      34.254  24.817  25.623  1.00  0.00     0.026 C 
ATOM     17  C   UNL A   1      31.448  23.300  23.633  1.00  0.00     0.049 A 
ATOM     18  O   UNL A   1      33.158  22.272  24.838  1.00  0.00    -0.475 OA
ATOM     19  C   UNL A   1      34.242  22.396  25.798  1.00  0.00     0.314 C 
BRANCH  10  20
ATOM     20  C   UNL A   1      32.242  27.124  25.476  1.00  0.00    -0.013 A 
ATOM     21  C   UNL A   1      33.776  28.304  23.787  1.00  0.00     0.045 C 
ATOM     22  C   UNL A   1      32.992  28.242  25.062  1.00  0.00    -0.043 A 
ATOM     23  C   UNL A   1      33.080  29.378  25.895  1.00  0.00     0.004 A 
ATOM     24  C   UNL A   1      32.403  29.442  27.109  1.00  0.00     0.000 A 
ATOM     25  C   UNL A   1      31.574  27.217  26.721  1.00  0.00     0.009 A 
ATOM     26  C   UNL A   1      31.639  28.361  27.518  1.00  0.00     0.001 A 
ENDBRANCH  10  20
BRANCH  19  27
ATOM     27  C   UNL A   1      33.741  22.203  27.234  1.00  0.00     0.429 C 
ATOM     28  F   UNL A   1      34.496  22.910  28.112  1.00  0.00    -0.167 F 
ATOM     29  F   UNL A   1      32.466  22.636  27.379  1.00  0.00    -0.167 F 
ATOM     30  F   UNL A   1      33.773  20.911  27.639  1.00  0.00    -0.167 F 
ENDBRANCH  19  27
ENDBRANCH   6   9
ENDBRANCH   4   5
ENDBRANCH   3   4
ENDBRANCH   2   3
ENDBRANCH   1   2
BRANCH   1  31
ATOM     31  C   UNL A   1      42.776  22.567  26.940  1.00  0.00     0.021 C 
BRANCH  31  32
ATOM     32  C   UNL A   1      43.893  23.548  26.322  1.00  0.00     0.116 C 
BRANCH  32  33
ATOM     33  N   UNL A   1      43.688  25.055  25.777  1.00  0.00    -0.352 N 
ATOM     34  C   UNL A   1      43.095  26.357  26.105  1.00  0.00     0.251 C 
ATOM     35  H   UNL A   1      44.124  25.127  24.897  1.00  0.00     0.163 HD
ATOM     36  O   UNL A   1      43.918  27.289  25.990  1.00  0.00    -0.269 OA
BRANCH  34  37
ATOM     37  C   UNL A   1      41.654  26.896  26.535  1.00  0.00     0.039 A 
ATOM     38  C   UNL A   1      41.132  28.137  26.041  1.00  0.00     0.014 A 
ATOM     39  C   UNL A   1      40.800  26.314  27.462  1.00  0.00     0.014 A 
ATOM     40  C   UNL A   1      40.251  28.962  26.862  1.00  0.00     0.010 A 
ATOM     41  C   UNL A   1      39.959  27.126  28.291  1.00  0.00     0.010 A 
ATOM     42  C   UNL A   1      39.865  28.518  28.139  1.00  0.00    -0.014 A 
BRANCH  42  43
ATOM     43  C   UNL A   1      39.654  29.412  29.366  1.00  0.00     0.031 A 
ATOM     44  C   UNL A   1      38.779  30.580  29.324  1.00  0.00     0.074 A 
ATOM     45  C   UNL A   1      40.046  29.190  30.660  1.00  0.00     0.049 A 
ATOM     46  N   UNL A   1      39.131  31.774  29.682  1.00  0.00    -0.248 NA
ATOM     47  C   UNL A   1      37.369  30.427  28.998  1.00  0.00     0.031 C 
ATOM     48  C   UNL A   1      39.788  29.855  31.952  1.00  0.00     0.029 A 
ATOM     49  N   UNL A   1      40.789  28.138  31.126  1.00  0.00    -0.354 N 
ATOM     50  C   UNL A   1      37.944  32.423  29.945  1.00  0.00     0.074 A 
ATOM     51  C   UNL A   1      36.910  31.646  29.288  1.00  0.00     0.031 C 
ATOM     52  C   UNL A   1      40.665  29.409  32.886  1.00  0.00     0.029 A 
ATOM     53  C   UNL A   1      41.547  28.457  32.248  1.00  0.00     0.049 A 
ATOM     54  H   UNL A   1      40.786  27.246  30.709  1.00  0.00     0.167 HD
ATOM     55  C   UNL A   1      37.808  33.316  30.972  1.00  0.00     0.031 A 
ATOM     56  C   UNL A   1      42.916  28.429  32.131  1.00  0.00     0.031 A 
ATOM     57  C   UNL A   1      38.937  33.290  31.913  1.00  0.00     0.049 A 
ATOM     58  C   UNL A   1      43.428  29.855  32.041  1.00  0.00     0.074 A 
ATOM     59  C   UNL A   1      39.056  32.948  33.256  1.00  0.00     0.029 A 
ATOM     60  N   UNL A   1      40.240  33.349  31.438  1.00  0.00    -0.354 N 
ATOM     61  N   UNL A   1      42.651  30.875  32.272  1.00  0.00    -0.248 NA
ATOM     62  C   UNL A   1      44.770  30.296  31.670  1.00  0.00     0.031 C 
ATOM     63  C   UNL A   1      40.440  32.827  33.578  1.00  0.00     0.029 A 
ATOM     64  C   UNL A   1      41.166  33.116  32.440  1.00  0.00     0.049 A 
ATOM     65  H   UNL A   1      40.477  33.535  30.501  1.00  0.00     0.167 HD
ATOM     66  C   UNL A   1      43.280  32.053  32.022  1.00  0.00     0.074 A 
ATOM     67  C   UNL A   1      44.629  31.641  31.672  1.00  0.00     0.031 C 
ATOM     68  C   UNL A   1      42.590  33.230  32.125  1.00  0.00     0.031 A 
BRANCH  55  69
ATOM     69  C   UNL A   1      36.478  33.986  31.263  1.00  0.00    -0.014 A 
ATOM     70  C   UNL A   1      36.259  34.688  32.462  1.00  0.00     0.010 A 
ATOM     71  C   UNL A   1      35.418  34.006  30.329  1.00  0.00     0.010 A 
ATOM     72  C   UNL A   1      35.033  35.306  32.749  1.00  0.00     0.020 A 
ATOM     73  C   UNL A   1      34.171  34.578  30.619  1.00  0.00     0.020 A 
ATOM     74  C   UNL A   1      33.988  35.236  31.830  1.00  0.00     0.054 A 
BRANCH  74  75
ATOM     75  S   UNL A   1      32.424  36.066  32.208  1.00  0.00     0.124 S 
ATOM     76  O   UNL A   1      32.799  36.981  33.282  1.00  0.00    -0.237 OA
ATOM     77  O   UNL A   1      32.090  36.694  30.933  1.00  0.00    -0.237 OA
ATOM     78  O   UNL A   1      31.539  34.974  32.611  1.00  0.00    -0.744 OA
ENDBRANCH  74  75
ENDBRANCH  55  69
BRANCH  56  79
ATOM     79  C   UNL A   1      43.441  27.172  31.386  1.00  0.00    -0.014 A 
ATOM     80  C   UNL A   1      44.071  27.483  30.152  1.00  0.00     0.010 A 
ATOM     81  C   UNL A   1      44.160  26.299  32.187  1.00  0.00     0.010 A 
ATOM     82  C   UNL A   1      45.476  27.609  30.088  1.00  0.00     0.020 A 
ATOM     83  C   UNL A   1      45.558  26.457  32.114  1.00  0.00     0.020 A 
ATOM     84  C   UNL A   1      46.217  27.245  31.198  1.00  0.00     0.054 A 
BRANCH  84  85
ATOM     85  S   UNL A   1      47.880  28.164  31.713  1.00  0.00     0.124 S 
ATOM     86  O   UNL A   1      47.568  28.549  33.045  1.00  0.00    -0.237 OA
ATOM     87  O   UNL A   1      48.927  27.157  31.693  1.00  0.00    -0.237 OA
ATOM     88  O   UNL A   1      48.088  29.298  30.832  1.00  0.00    -0.744 OA
ENDBRANCH  84  85
ENDBRANCH  56  79
BRANCH  68  89
ATOM     89  C   UNL A   1      43.128  34.627  31.933  1.00  0.00    -0.014 A 
ATOM     90  C   UNL A   1      43.262  35.574  32.954  1.00  0.00     0.010 A 
ATOM     91  C   UNL A   1      43.428  35.067  30.617  1.00  0.00     0.010 A 
ATOM     92  C   UNL A   1      43.758  36.859  32.681  1.00  0.00     0.020 A 
ATOM     93  C   UNL A   1      43.915  36.338  30.330  1.00  0.00     0.020 A 
ATOM     94  C   UNL A   1      44.099  37.225  31.374  1.00  0.00     0.054 A 
BRANCH  94  95
ATOM     95  S   UNL A   1      44.761  38.873  31.051  1.00  0.00     0.124 S 
ATOM     96  O   UNL A   1      43.585  39.721  31.222  1.00  0.00    -0.237 OA
ATOM     97  O   UNL A   1      45.782  38.998  32.088  1.00  0.00    -0.237 OA
ATOM     98  O   UNL A   1      45.271  38.789  29.685  1.00  0.00    -0.744 OA
ENDBRANCH  94  95
ENDBRANCH  68  89
ENDBRANCH  42  43
ENDBRANCH  34  37
ENDBRANCH  32  33
ENDBRANCH  31  32
ENDBRANCH   1  31
TORSDOF 18
ENDMDL
MODEL 2
REMARK VINA RESULT:     -12.3      2.096      2.694
REMARK SMILES Cc1ccccc1-c1c(Cl)ccc2c1C=C(C(=O)NCCCCCCNC(=O)c1ccc(-c3c4nc(c(-c5ccc(S(=O)(=O)[O-])cc5)c5ccc([nH]5)c(-c5ccc(S(=O)(=O)[O-])cc5)c5nc(c(-c6ccc(S(=O)(=O)[O-])cc6)c6ccc3[nH]6)C=C5)C=C4)cc1)[C@@H](C(F)(F)F)O2
REMARK SMILES IDX 23 1 22 2 21 3 20 4 19 5 17 6 18 7 16 9 8 10 9 11 14 12
REMARK SMILES IDX 10 13 11 14 13 15 15 16 12 17 94 18 89 19 7 20 1 21 2 22
REMARK SMILES IDX 3 23 4 24 6 25 5 26 90 27 91 28 92 29 93 30 24 31 25 32
REMARK SMILES IDX 26 33 27 34 28 36 29 37 30 38 88 39 31 40 87 41 32 42 33 43
REMARK SMILES IDX 34 44 81 45 35 46 86 47 80 48 82 49 36 50 85 51 79 52 78 53
REMARK SMILES IDX 37 55 67 56 48 57 66 58 49 59 52 60 65 61 83 62 50 63 51 64
REMARK SMILES IDX 64 66 84 67 53 68 38 69 39 70 47 71 40 72 46 73 41 74 42 75
REMARK SMILES IDX 43 76 44 77 45 78 68 79 69 80 77 81 70 82 76 83 71 84 72 85
REMARK SMILES IDX 73 86 74 87 75 88 54 89 55 90 63 91 56 92 62 93 57 94 58 95
REMARK SMILES IDX 59 96 60 97 61 98
REMARK H PARENT 19 8 26 35 82 54 52 65
REMARK Flexibility Score: inf
ROOT
ATOM      1  C   UNL A   1      41.481  22.000  26.649  1.00  0.00     0.002 C 
ENDROOT
BRANCH   1   2
ATOM      2  C   UNL A   1      40.048  22.327  27.227  1.00  0.00     0.002 C 
BRANCH   2   3
ATOM      3  C   UNL A   1      39.033  23.259  26.484  1.00  0.00     0.021 C 
BRANCH   3   4
ATOM      4  C   UNL A   1      37.782  22.592  25.959  1.00  0.00     0.116 C 
BRANCH   4   5
ATOM      5  N   UNL A   1      37.498  22.979  24.600  1.00  0.00    -0.352 N 
ATOM      6  C   UNL A   1      36.334  23.247  23.972  1.00  0.00     0.251 C 
ATOM      7  O   UNL A   1      36.380  23.487  22.766  1.00  0.00    -0.270 OA
ATOM      8  H   UNL A   1      38.294  23.061  24.028  1.00  0.00     0.163 HD
BRANCH   6   9
ATOM      9  C   UNL A   1      35.020  23.213  24.719  1.00  0.00     0.067 C 
ATOM     10  C   UNL A   1      33.179  26.364  23.989  1.00  0.00     0.012 A 
ATOM     11  C   UNL A   1      32.644  26.897  22.788  1.00  0.00     0.049 A 
ATOM     12  C   UNL A   1      33.643  25.022  23.945  1.00  0.00     0.027 A 
ATOM     13  Cl  UNL A   1      32.153  28.558  22.652  1.00  0.00    -0.084 Cl
ATOM     14  C   UNL A   1      32.488  26.115  21.637  1.00  0.00     0.025 A 
ATOM     15  C   UNL A   1      33.359  24.218  22.816  1.00  0.00     0.128 A 
ATOM     16  C   UNL A   1      34.487  24.420  25.012  1.00  0.00     0.026 C 
ATOM     17  C   UNL A   1      32.809  24.766  21.664  1.00  0.00     0.049 A 
ATOM     18  O   UNL A   1      33.590  22.863  22.761  1.00  0.00    -0.475 OA
ATOM     19  C   UNL A   1      34.088  22.258  23.984  1.00  0.00     0.314 C 
BRANCH  10  20
ATOM     20  C   UNL A   1      33.099  27.142  25.259  1.00  0.00    -0.013 A 
ATOM     21  C   UNL A   1      30.772  26.316  25.963  1.00  0.00     0.045 C 
ATOM     22  C   UNL A   1      32.019  27.122  26.161  1.00  0.00    -0.043 A 
ATOM     23  C   UNL A   1      32.048  27.938  27.312  1.00  0.00     0.004 A 
ATOM     24  C   UNL A   1      33.148  28.738  27.606  1.00  0.00     0.000 A 
ATOM     25  C   UNL A   1      34.198  27.975  25.581  1.00  0.00     0.009 A 
ATOM     26  C   UNL A   1      34.231  28.749  26.743  1.00  0.00     0.001 A 
ENDBRANCH  10  20
BRANCH  19  27
ATOM     27  C   UNL A   1      32.941  21.722  24.850  1.00  0.00     0.429 C 
ATOM     28  F   UNL A   1      32.191  22.738  25.348  1.00  0.00    -0.167 F 
ATOM     29  F   UNL A   1      32.104  20.934  24.134  1.00  0.00    -0.167 F 
ATOM     30  F   UNL A   1      33.369  20.995  25.908  1.00  0.00    -0.167 F 
ENDBRANCH  19  27
ENDBRANCH   6   9
ENDBRANCH   4   5
ENDBRANCH   3   4
ENDBRANCH   2   3
ENDBRANCH   1   2
BRANCH   1  31
ATOM     31  C   UNL A   1      42.958  22.251  27.310  1.00  0.00     0.021 C 
BRANCH  31  32
ATOM     32  C   UNL A   1      43.959  23.326  26.652  1.00  0.00     0.116 C 
BRANCH  32  33
ATOM     33  N   UNL A   1      43.575  24.733  25.958  1.00  0.00    -0.352 N 
ATOM     34  C   UNL A   1      42.974  26.048  26.213  1.00  0.00     0.251 C 
ATOM     35  H   UNL A   1      43.845  24.695  25.012  1.00  0.00     0.163 HD
ATOM     36  O   UNL A   1      43.709  26.981  25.828  1.00  0.00    -0.269 OA
BRANCH  34  37
ATOM     37  C   UNL A   1      41.602  26.594  26.821  1.00  0.00     0.039 A 
ATOM     38  C   UNL A   1      40.808  27.575  26.139  1.00  0.00     0.014 A 
ATOM     39  C   UNL A   1      41.069  26.279  28.063  1.00  0.00     0.014 A 
ATOM     40  C   UNL A   1      40.022  28.555  26.881  1.00  0.00     0.010 A 
ATOM     41  C   UNL A   1      40.323  27.252  28.807  1.00  0.00     0.010 A 
ATOM     42  C   UNL A   1      39.998  28.513  28.287  1.00  0.00    -0.014 A 
BRANCH  42  43
ATOM     43  C   UNL A   1      39.937  29.734  29.211  1.00  0.00     0.031 A 
ATOM     44  C   UNL A   1      38.833  30.688  29.153  1.00  0.00     0.074 A 
ATOM     45  C   UNL A   1      40.721  30.020  30.298  1.00  0.00     0.049 A 
ATOM     46  N   UNL A   1      38.976  31.969  29.021  1.00  0.00    -0.248 NA
ATOM     47  C   UNL A   1      37.468  30.244  29.390  1.00  0.00     0.031 C 
ATOM     48  C   UNL A   1      40.690  31.043  31.361  1.00  0.00     0.029 A 
ATOM     49  N   UNL A   1      41.795  29.300  30.750  1.00  0.00    -0.354 N 
ATOM     50  C   UNL A   1      37.794  32.501  29.488  1.00  0.00     0.074 A 
ATOM     51  C   UNL A   1      36.832  31.414  29.471  1.00  0.00     0.031 C 
ATOM     52  C   UNL A   1      41.876  31.064  32.019  1.00  0.00     0.029 A 
ATOM     53  C   UNL A   1      42.742  30.081  31.405  1.00  0.00     0.049 A 
ATOM     54  H   UNL A   1      41.887  28.328  30.625  1.00  0.00     0.167 HD
ATOM     55  C   UNL A   1      37.746  33.662  30.208  1.00  0.00     0.031 A 
ATOM     56  C   UNL A   1      43.986  30.201  30.835  1.00  0.00     0.031 A 
ATOM     57  C   UNL A   1      39.068  34.111  30.668  1.00  0.00     0.049 A 
ATOM     58  C   UNL A   1      44.095  31.567  30.183  1.00  0.00     0.074 A 
ATOM     59  C   UNL A   1      39.641  34.265  31.926  1.00  0.00     0.029 A 
ATOM     60  N   UNL A   1      40.128  34.181  29.776  1.00  0.00    -0.354 N 
ATOM     61  N   UNL A   1      43.195  32.489  30.376  1.00  0.00    -0.248 NA
ATOM     62  C   UNL A   1      45.130  32.033  29.263  1.00  0.00     0.031 C 
ATOM     63  C   UNL A   1      41.046  34.450  31.770  1.00  0.00     0.029 A 
ATOM     64  C   UNL A   1      41.328  34.430  30.419  1.00  0.00     0.049 A 
ATOM     65  H   UNL A   1      40.038  34.068  28.803  1.00  0.00     0.167 HD
ATOM     66  C   UNL A   1      43.426  33.586  29.608  1.00  0.00     0.074 A 
ATOM     67  C   UNL A   1      44.678  33.266  28.941  1.00  0.00     0.031 C 
ATOM     68  C   UNL A   1      42.534  34.622  29.612  1.00  0.00     0.031 A 
BRANCH  55  69
ATOM     69  C   UNL A   1      36.434  34.204  30.743  1.00  0.00    -0.014 A 
ATOM     70  C   UNL A   1      36.301  34.611  32.083  1.00  0.00     0.010 A 
ATOM     71  C   UNL A   1      35.301  34.399  29.921  1.00  0.00     0.010 A 
ATOM     72  C   UNL A   1      35.093  35.107  32.595  1.00  0.00     0.020 A 
ATOM     73  C   UNL A   1      34.072  34.848  30.427  1.00  0.00     0.020 A 
ATOM     74  C   UNL A   1      33.979  35.210  31.766  1.00  0.00     0.054 A 
BRANCH  74  75
ATOM     75  S   UNL A   1      32.437  35.880  32.440  1.00  0.00     0.124 S 
ATOM     76  O   UNL A   1      31.761  34.687  32.941  1.00  0.00    -0.237 OA
ATOM     77  O   UNL A   1      32.922  36.806  33.461  1.00  0.00    -0.237 OA
ATOM     78  O   UNL A   1      31.798  36.511  31.286  1.00  0.00    -0.744 OA
ENDBRANCH  74  75
ENDBRANCH  55  69
BRANCH  56  79
ATOM     79  C   UNL A   1      44.562  28.849  30.333  1.00  0.00    -0.014 A 
ATOM     80  C   UNL A   1      43.908  28.365  29.171  1.00  0.00     0.010 A 
ATOM     81  C   UNL A   1      45.946  28.816  30.262  1.00  0.00     0.010 A 
ATOM     82  C   UNL A   1      44.461  28.611  27.894  1.00  0.00     0.020 A 
ATOM     83  C   UNL A   1      46.471  29.078  28.982  1.00  0.00     0.020 A 
ATOM     84  C   UNL A   1      45.728  29.163  27.826  1.00  0.00     0.054 A 
BRANCH  84  85
ATOM     85  S   UNL A   1      46.267  30.412  26.403  1.00  0.00     0.124 S 
ATOM     86  O   UNL A   1      45.070  31.163  26.243  1.00  0.00    -0.237 OA
ATOM     87  O   UNL A   1      47.327  31.234  26.959  1.00  0.00    -0.237 OA
ATOM     88  O   UNL A   1      46.621  29.655  25.217  1.00  0.00    -0.744 OA
ENDBRANCH  84  85
ENDBRANCH  56  79
BRANCH  68  89
ATOM     89  C   UNL A   1      42.645  35.931  28.868  1.00  0.00    -0.014 A 
ATOM     90  C   UNL A   1      42.176  36.148  27.568  1.00  0.00     0.010 A 
ATOM     91  C   UNL A   1      43.363  36.999  29.470  1.00  0.00     0.010 A 
ATOM     92  C   UNL A   1      42.338  37.396  26.946  1.00  0.00     0.020 A 
ATOM     93  C   UNL A   1      43.536  38.238  28.864  1.00  0.00     0.020 A 
ATOM     94  C   UNL A   1      42.999  38.438  27.606  1.00  0.00     0.054 A 
BRANCH  94  95
ATOM     95  S   UNL A   1      43.170  40.042  26.797  1.00  0.00     0.124 S 
ATOM     96  O   UNL A   1      43.258  40.957  27.931  1.00  0.00    -0.237 OA
ATOM     97  O   UNL A   1      44.403  39.867  26.033  1.00  0.00    -0.237 OA
ATOM     98  O   UNL A   1      41.955  40.165  25.994  1.00  0.00    -0.744 OA
ENDBRANCH  94  95
ENDBRANCH  68  89
ENDBRANCH  42  43
ENDBRANCH  34  37
ENDBRANCH  32  33
ENDBRANCH  31  32
ENDBRANCH   1  31
TORSDOF 18
ENDMDL
MODEL 3
REMARK VINA RESULT:     -12.3      3.943      5.886
REMARK SMILES Cc1ccccc1-c1c(Cl)ccc2c1C=C(C(=O)NCCCCCCNC(=O)c1ccc(-c3c4nc(c(-c5ccc(S(=O)(=O)[O-])cc5)c5ccc([nH]5)c(-c5ccc(S(=O)(=O)[O-])cc5)c5nc(c(-c6ccc(S(=O)(=O)[O-])cc6)c6ccc3[nH]6)C=C5)C=C4)cc1)[C@@H](C(F)(F)F)O2
REMARK SMILES IDX 23 1 22 2 21 3 20 4 19 5 17 6 18 7 16 9 8 10 9 11 14 12
REMARK SMILES IDX 10 13 11 14 13 15 15 16 12 17 94 18 89 19 7 20 1 21 2 22
REMARK SMILES IDX 3 23 4 24 6 25 5 26 90 27 91 28 92 29 93 30 24 31 25 32
REMARK SMILES IDX 26 33 27 34 28 36 29 37 30 38 88 39 31 40 87 41 32 42 33 43
REMARK SMILES IDX 34 44 81 45 35 46 86 47 80 48 82 49 36 50 85 51 79 52 78 53
REMARK SMILES IDX 37 55 67 56 48 57 66 58 49 59 52 60 65 61 83 62 50 63 51 64
REMARK SMILES IDX 64 66 84 67 53 68 38 69 39 70 47 71 40 72 46 73 41 74 42 75
REMARK SMILES IDX 43 76 44 77 45 78 68 79 69 80 77 81 70 82 76 83 71 84 72 85
REMARK SMILES IDX 73 86 74 87 75 88 54 89 55 90 63 91 56 92 62 93 57 94 58 95
REMARK SMILES IDX 59 96 60 97 61 98
REMARK H PARENT 19 8 26 35 82 54 52 65
REMARK Flexibility Score: inf
ROOT
ATOM      1  C   UNL A   1      41.620  21.257  26.259  1.00  0.00     0.002 C 
ENDROOT
BRANCH   1   2
ATOM      2  C   UNL A   1      40.146  21.785  26.462  1.00  0.00     0.002 C 
BRANCH   2   3
ATOM      3  C   UNL A   1      39.832  23.224  26.992  1.00  0.00     0.021 C 
BRANCH   3   4
ATOM      4  C   UNL A   1      38.432  23.734  26.740  1.00  0.00     0.116 C 
BRANCH   4   5
ATOM      5  N   UNL A   1      38.091  23.697  25.340  1.00  0.00    -0.352 N 
ATOM      6  C   UNL A   1      36.909  23.523  24.712  1.00  0.00     0.251 C 
ATOM      7  O   UNL A   1      36.921  23.463  23.483  1.00  0.00    -0.270 OA
ATOM      8  H   UNL A   1      38.857  23.818  24.734  1.00  0.00     0.163 HD
BRANCH   6   9
ATOM      9  C   UNL A   1      35.626  23.370  25.496  1.00  0.00     0.067 C 
ATOM     10  C   UNL A   1      33.178  25.873  24.235  1.00  0.00     0.012 A 
ATOM     11  C   UNL A   1      32.552  26.040  22.973  1.00  0.00     0.049 A 
ATOM     12  C   UNL A   1      33.910  24.672  24.435  1.00  0.00     0.027 A 
ATOM     13  Cl  UNL A   1      31.730  27.506  22.536  1.00  0.00    -0.084 Cl
ATOM     14  C   UNL A   1      32.568  25.032  22.001  1.00  0.00     0.025 A 
ATOM     15  C   UNL A   1      33.805  23.622  23.494  1.00  0.00     0.128 A 
ATOM     16  C   UNL A   1      34.853  24.476  25.568  1.00  0.00     0.026 C 
ATOM     17  C   UNL A   1      33.162  23.809  22.277  1.00  0.00     0.049 A 
ATOM     18  O   UNL A   1      34.312  22.358  23.694  1.00  0.00    -0.475 OA
ATOM     19  C   UNL A   1      34.916  22.119  24.993  1.00  0.00     0.314 C 
BRANCH  10  20
ATOM     20  C   UNL A   1      32.931  26.852  25.333  1.00  0.00    -0.013 A 
ATOM     21  C   UNL A   1      30.733  25.814  26.163  1.00  0.00     0.045 C 
ATOM     22  C   UNL A   1      31.833  26.831  26.214  1.00  0.00    -0.043 A 
ATOM     23  C   UNL A   1      31.693  27.842  27.188  1.00  0.00     0.004 A 
ATOM     24  C   UNL A   1      32.644  28.847  27.333  1.00  0.00     0.000 A 
ATOM     25  C   UNL A   1      33.876  27.894  25.499  1.00  0.00     0.009 A 
ATOM     26  C   UNL A   1      33.744  28.867  26.492  1.00  0.00     0.001 A 
ENDBRANCH  10  20
BRANCH  19  27
ATOM     27  C   UNL A   1      33.899  21.542  25.985  1.00  0.00     0.429 C 
ATOM     28  F   UNL A   1      33.715  20.214  25.776  1.00  0.00    -0.167 F 
ATOM     29  F   UNL A   1      34.321  21.680  27.265  1.00  0.00    -0.167 F 
ATOM     30  F   UNL A   1      32.682  22.127  25.899  1.00  0.00    -0.167 F 
ENDBRANCH  19  27
ENDBRANCH   6   9
ENDBRANCH   4   5
ENDBRANCH   3   4
ENDBRANCH   2   3
ENDBRANCH   1   2
BRANCH   1  31
ATOM     31  C   UNL A   1      42.270  19.801  26.629  1.00  0.00     0.021 C 
BRANCH  31  32
ATOM     32  C   UNL A   1      43.154  19.016  25.536  1.00  0.00     0.116 C 
BRANCH  32  33
ATOM     33  N   UNL A   1      44.350  19.609  24.627  1.00  0.00    -0.352 N 
ATOM     34  C   UNL A   1      45.267  20.746  24.480  1.00  0.00     0.251 C 
ATOM     35  H   UNL A   1      44.534  18.969  23.901  1.00  0.00     0.163 HD
ATOM     36  O   UNL A   1      46.456  20.378  24.377  1.00  0.00    -0.269 OA
BRANCH  34  37
ATOM     37  C   UNL A   1      45.133  22.334  24.379  1.00  0.00     0.039 A 
ATOM     38  C   UNL A   1      46.283  23.189  24.327  1.00  0.00     0.014 A 
ATOM     39  C   UNL A   1      43.953  23.064  24.417  1.00  0.00     0.014 A 
ATOM     40  C   UNL A   1      46.255  24.525  24.914  1.00  0.00     0.010 A 
ATOM     41  C   UNL A   1      43.918  24.364  25.023  1.00  0.00     0.010 A 
ATOM     42  C   UNL A   1      45.070  25.007  25.499  1.00  0.00    -0.014 A 
BRANCH  42  43
ATOM     43  C   UNL A   1      44.992  25.906  26.737  1.00  0.00     0.031 A 
ATOM     44  C   UNL A   1      43.777  26.639  27.080  1.00  0.00     0.074 A 
ATOM     45  C   UNL A   1      45.890  26.019  27.767  1.00  0.00     0.049 A 
ATOM     46  N   UNL A   1      43.728  27.913  27.309  1.00  0.00    -0.248 NA
ATOM     47  C   UNL A   1      42.535  25.923  27.329  1.00  0.00     0.031 C 
ATOM     48  C   UNL A   1      45.889  26.699  29.076  1.00  0.00     0.029 A 
ATOM     49  N   UNL A   1      47.106  25.397  27.869  1.00  0.00    -0.354 N 
ATOM     50  C   UNL A   1      42.572  28.093  28.037  1.00  0.00     0.074 A 
ATOM     51  C   UNL A   1      41.772  26.903  27.815  1.00  0.00     0.031 C 
ATOM     52  C   UNL A   1      47.150  26.744  29.576  1.00  0.00     0.029 A 
ATOM     53  C   UNL A   1      48.032  26.123  28.612  1.00  0.00     0.049 A 
ATOM     54  H   UNL A   1      47.305  24.525  27.459  1.00  0.00     0.167 HD
ATOM     55  C   UNL A   1      42.484  28.993  29.063  1.00  0.00     0.031 A 
ATOM     56  C   UNL A   1      49.146  26.601  27.967  1.00  0.00     0.031 A 
ATOM     57  C   UNL A   1      43.790  29.519  29.484  1.00  0.00     0.049 A 
ATOM     58  C   UNL A   1      48.973  28.089  27.729  1.00  0.00     0.074 A 
ATOM     59  C   UNL A   1      44.526  29.425  30.661  1.00  0.00     0.029 A 
ATOM     60  N   UNL A   1      44.682  30.005  28.538  1.00  0.00    -0.354 N 
ATOM     61  N   UNL A   1      48.000  28.760  28.279  1.00  0.00    -0.248 NA
ATOM     62  C   UNL A   1      49.783  28.954  26.874  1.00  0.00     0.031 C 
ATOM     63  C   UNL A   1      45.853  29.881  30.410  1.00  0.00     0.029 A 
ATOM     64  C   UNL A   1      45.924  30.272  29.088  1.00  0.00     0.049 A 
ATOM     65  H   UNL A   1      44.458  30.143  27.590  1.00  0.00     0.167 HD
ATOM     66  C   UNL A   1      47.964  30.045  27.840  1.00  0.00     0.074 A 
ATOM     67  C   UNL A   1      49.129  30.133  26.974  1.00  0.00     0.031 C 
ATOM     68  C   UNL A   1      46.954  30.875  28.242  1.00  0.00     0.031 A 
BRANCH  55  69
ATOM     69  C   UNL A   1      41.210  29.140  29.874  1.00  0.00    -0.014 A 
ATOM     70  C   UNL A   1      40.936  28.298  30.967  1.00  0.00     0.010 A 
ATOM     71  C   UNL A   1      40.269  30.165  29.630  1.00  0.00     0.010 A 
ATOM     72  C   UNL A   1      39.759  28.417  31.722  1.00  0.00     0.020 A 
ATOM     73  C   UNL A   1      39.066  30.268  30.344  1.00  0.00     0.020 A 
ATOM     74  C   UNL A   1      38.823  29.395  31.397  1.00  0.00     0.054 A 
BRANCH  74  75
ATOM     75  S   UNL A   1      37.325  29.549  32.403  1.00  0.00     0.124 S 
ATOM     76  O   UNL A   1      37.521  30.831  33.075  1.00  0.00    -0.237 OA
ATOM     77  O   UNL A   1      36.269  29.522  31.395  1.00  0.00    -0.237 OA
ATOM     78  O   UNL A   1      37.373  28.381  33.281  1.00  0.00    -0.744 OA
ENDBRANCH  74  75
ENDBRANCH  55  69
BRANCH  56  79
ATOM     79  C   UNL A   1      49.811  25.551  27.035  1.00  0.00    -0.014 A 
ATOM     80  C   UNL A   1      49.684  25.873  25.658  1.00  0.00     0.010 A 
ATOM     81  C   UNL A   1      51.093  25.187  27.418  1.00  0.00     0.010 A 
ATOM     82  C   UNL A   1      50.735  26.536  24.987  1.00  0.00     0.020 A 
ATOM     83  C   UNL A   1      52.120  25.874  26.743  1.00  0.00     0.020 A 
ATOM     84  C   UNL A   1      51.939  26.693  25.651  1.00  0.00     0.054 A 
BRANCH  84  85
ATOM     85  S   UNL A   1      53.089  28.271  25.407  1.00  0.00     0.124 S 
ATOM     86  O   UNL A   1      53.290  28.664  26.758  1.00  0.00    -0.237 OA
ATOM     87  O   UNL A   1      54.325  27.791  24.814  1.00  0.00    -0.237 OA
ATOM     88  O   UNL A   1      52.371  29.266  24.631  1.00  0.00    -0.744 OA
ENDBRANCH  84  85
ENDBRANCH  56  79
BRANCH  68  89
ATOM     89  C   UNL A   1      46.776  32.335  27.900  1.00  0.00    -0.014 A 
ATOM     90  C   UNL A   1      46.762  32.850  26.600  1.00  0.00     0.010 A 
ATOM     91  C   UNL A   1      46.720  33.281  28.958  1.00  0.00     0.010 A 
ATOM     92  C   UNL A   1      46.607  34.227  26.375  1.00  0.00     0.020 A 
ATOM     93  C   UNL A   1      46.572  34.648  28.751  1.00  0.00     0.020 A 
ATOM     94  C   UNL A   1      46.493  35.114  27.452  1.00  0.00     0.054 A 
BRANCH  94  95
ATOM     95  S   UNL A   1      46.266  36.877  27.138  1.00  0.00     0.124 S 
ATOM     96  O   UNL A   1      46.766  37.019  25.774  1.00  0.00    -0.237 OA
ATOM     97  O   UNL A   1      44.821  37.029  27.297  1.00  0.00    -0.237 OA
ATOM     98  O   UNL A   1      47.075  37.527  28.166  1.00  0.00    -0.744 OA
ENDBRANCH  94  95
ENDBRANCH  68  89
ENDBRANCH  42  43
ENDBRANCH  34  37
ENDBRANCH  32  33
ENDBRANCH  31  32
ENDBRANCH   1  31
TORSDOF 18
ENDMDL
