MODEL 1
REMARK VINA RESULT:      -9.0      0.000      0.000
REMARK SMILES CC(C)[C@H]([NH2+]Cc1ccc(O)cn1)C(=O)NCCCCCCNC(=O)c1ccc(-c2c3nc(c(-c4ccc(S(=O)(=O)[O-])cc4)c4ccc([nH]4)c(-c4ccc(S(=O)(=O)[O-])cc4)c4nc(c(-c5ccc(S(=O)(=O)[O-])cc5)c5ccc2[nH]5)C=C4)C=C3)cc1
REMARK SMILES IDX 19 1 18 2 17 3 16 4 14 5 15 6 4 8 2 9 1 10 3 11 5 12 6 15
REMARK SMILES IDX 7 16 8 17 13 18 9 19 12 20 10 21 11 22 20 24 21 25 22 26
REMARK SMILES IDX 23 27 24 28 25 30 26 31 27 32 85 33 28 34 84 35 29 36 30 37
REMARK SMILES IDX 31 38 78 39 32 40 83 41 77 42 79 43 33 44 82 45 76 46 75 47
REMARK SMILES IDX 34 49 64 50 45 51 63 52 46 53 49 54 62 55 80 56 47 57 48 58
REMARK SMILES IDX 61 60 81 61 50 62 35 63 36 64 44 65 37 66 43 67 38 68 39 69
REMARK SMILES IDX 40 70 41 71 42 72 65 73 66 74 74 75 67 76 73 77 68 78 69 79
REMARK SMILES IDX 70 80 71 81 72 82 51 83 52 84 60 85 53 86 59 87 54 88 55 89
REMARK SMILES IDX 56 90 57 91 58 92
REMARK H PARENT 16 7 5 13 5 14 11 23 23 29 79 48 49 59
REMARK Flexibility Score: inf
ROOT
ATOM      1  C   UNL A   1      37.014  29.707  28.725  1.00  0.00     0.002 C 
ENDROOT
BRANCH   1   2
ATOM      2  C   UNL A   1      36.093  30.351  27.687  1.00  0.00     0.021 C 
BRANCH   2   3
ATOM      3  C   UNL A   1      34.806  30.943  28.249  1.00  0.00     0.116 C 
BRANCH   3   4
ATOM      4  N   UNL A   1      34.567  32.302  27.803  1.00  0.00    -0.351 N 
ATOM      5  C   UNL A   1      34.814  33.487  28.437  1.00  0.00     0.278 C 
ATOM      6  O   UNL A   1      34.640  34.524  27.787  1.00  0.00    -0.268 OA
ATOM      7  H   UNL A   1      34.164  32.383  26.909  1.00  0.00     0.163 HD
BRANCH   5   8
ATOM      8  C   UNL A   1      35.306  33.560  29.909  1.00  0.00     0.275 C 
BRANCH   8   9
ATOM      9  C   UNL A   1      36.851  33.373  30.032  1.00  0.00     0.051 C 
ATOM     10  C   UNL A   1      37.552  33.439  28.668  1.00  0.00     0.014 C 
ATOM     11  C   UNL A   1      37.588  34.306  30.993  1.00  0.00     0.014 C 
ENDBRANCH   8   9
BRANCH   8  12
ATOM     12  N   UNL A   1      34.493  32.705  30.804  1.00  0.00    -0.331 N 
ATOM     13  H   UNL A   1      34.914  31.777  30.844  1.00  0.00     0.347 HD
ATOM     14  H   UNL A   1      33.546  32.667  30.426  1.00  0.00     0.347 HD
BRANCH  12  15
ATOM     15  C   UNL A   1      34.416  33.252  32.174  1.00  0.00     0.318 C 
BRANCH  15  16
ATOM     16  C   UNL A   1      34.030  34.722  32.158  1.00  0.00     0.095 A 
ATOM     17  C   UNL A   1      34.698  35.619  32.994  1.00  0.00     0.033 A 
ATOM     18  N   UNL A   1      33.049  35.116  31.310  1.00  0.00    -0.251 NA
ATOM     19  C   UNL A   1      34.366  36.970  32.962  1.00  0.00     0.050 A 
ATOM     20  C   UNL A   1      32.742  36.438  31.301  1.00  0.00     0.157 A 
ATOM     21  C   UNL A   1      33.368  37.384  32.096  1.00  0.00     0.133 A 
BRANCH  21  22
ATOM     22  O   UNL A   1      33.000  38.692  32.006  1.00  0.00    -0.506 OA
ATOM     23  H   UNL A   1      33.588  39.319  31.635  1.00  0.00     0.293 HD
ENDBRANCH  21  22
ENDBRANCH  15  16
ENDBRANCH  12  15
ENDBRANCH   8  12
ENDBRANCH   5   8
ENDBRANCH   3   4
ENDBRANCH   2   3
ENDBRANCH   1   2
BRANCH   1  24
ATOM     24  C   UNL A   1      36.505  29.725  30.170  1.00  0.00     0.002 C 
BRANCH  24  25
ATOM     25  C   UNL A   1      37.401  29.034  31.201  1.00  0.00     0.021 C 
BRANCH  25  26
ATOM     26  C   UNL A   1      37.003  29.247  32.657  1.00  0.00     0.116 C 
BRANCH  26  27
ATOM     27  N   UNL A   1      37.134  30.632  33.072  1.00  0.00    -0.352 N 
ATOM     28  C   UNL A   1      38.231  31.455  33.022  1.00  0.00     0.251 C 
ATOM     29  H   UNL A   1      36.318  31.038  33.445  1.00  0.00     0.163 HD
ATOM     30  O   UNL A   1      38.198  32.550  33.574  1.00  0.00    -0.269 OA
BRANCH  28  31
ATOM     31  C   UNL A   1      39.455  31.012  32.318  1.00  0.00     0.039 A 
ATOM     32  C   UNL A   1      40.377  30.219  33.003  1.00  0.00     0.014 A 
ATOM     33  C   UNL A   1      39.700  31.389  30.994  1.00  0.00     0.014 A 
ATOM     34  C   UNL A   1      41.525  29.769  32.348  1.00  0.00     0.010 A 
ATOM     35  C   UNL A   1      40.803  30.874  30.320  1.00  0.00     0.010 A 
ATOM     36  C   UNL A   1      41.738  30.075  30.994  1.00  0.00    -0.014 A 
BRANCH  36  37
ATOM     37  C   UNL A   1      42.951  29.602  30.278  1.00  0.00     0.031 A 
ATOM     38  C   UNL A   1      44.155  30.501  30.170  1.00  0.00     0.074 A 
ATOM     39  C   UNL A   1      42.958  28.388  29.693  1.00  0.00     0.049 A 
ATOM     40  N   UNL A   1      45.286  30.295  29.546  1.00  0.00    -0.248 NA
ATOM     41  C   UNL A   1      44.067  31.816  30.829  1.00  0.00     0.031 C 
ATOM     42  C   UNL A   1      41.846  27.434  29.702  1.00  0.00     0.029 A 
ATOM     43  N   UNL A   1      43.936  27.747  28.973  1.00  0.00    -0.354 N 
ATOM     44  C   UNL A   1      46.035  31.452  29.726  1.00  0.00     0.074 A 
ATOM     45  C   UNL A   1      45.208  32.381  30.463  1.00  0.00     0.031 C 
ATOM     46  C   UNL A   1      42.217  26.320  29.051  1.00  0.00     0.029 A 
ATOM     47  C   UNL A   1      43.572  26.493  28.539  1.00  0.00     0.049 A 
ATOM     48  H   UNL A   1      44.816  28.147  28.786  1.00  0.00     0.167 HD
ATOM     49  C   UNL A   1      47.307  31.711  29.339  1.00  0.00     0.031 A 
ATOM     50  C   UNL A   1      44.253  25.588  27.809  1.00  0.00     0.031 A 
ATOM     51  C   UNL A   1      48.131  30.780  28.615  1.00  0.00     0.049 A 
ATOM     52  C   UNL A   1      45.655  25.911  27.364  1.00  0.00     0.074 A 
ATOM     53  C   UNL A   1      49.445  30.932  28.208  1.00  0.00     0.029 A 
ATOM     54  N   UNL A   1      47.724  29.523  28.195  1.00  0.00    -0.354 N 
ATOM     55  N   UNL A   1      46.362  26.993  27.587  1.00  0.00    -0.248 NA
ATOM     56  C   UNL A   1      46.356  24.884  26.583  1.00  0.00     0.031 C 
ATOM     57  C   UNL A   1      49.815  29.789  27.494  1.00  0.00     0.029 A 
ATOM     58  C   UNL A   1      48.756  28.896  27.517  1.00  0.00     0.049 A 
ATOM     59  H   UNL A   1      46.834  29.135  28.355  1.00  0.00     0.167 HD
ATOM     60  C   UNL A   1      47.605  26.759  27.009  1.00  0.00     0.074 A 
ATOM     61  C   UNL A   1      47.555  25.429  26.437  1.00  0.00     0.031 C 
ATOM     62  C   UNL A   1      48.693  27.568  26.961  1.00  0.00     0.031 A 
BRANCH  49  63
ATOM     63  C   UNL A   1      47.883  33.058  29.692  1.00  0.00    -0.014 A 
ATOM     64  C   UNL A   1      48.195  33.388  31.025  1.00  0.00     0.010 A 
ATOM     65  C   UNL A   1      48.159  33.992  28.677  1.00  0.00     0.010 A 
ATOM     66  C   UNL A   1      48.730  34.640  31.339  1.00  0.00     0.020 A 
ATOM     67  C   UNL A   1      48.725  35.233  28.982  1.00  0.00     0.020 A 
ATOM     68  C   UNL A   1      48.991  35.555  30.315  1.00  0.00     0.054 A 
BRANCH  68  69
ATOM     69  S   UNL A   1      49.710  37.162  30.751  1.00  0.00     0.124 S 
ATOM     70  O   UNL A   1      51.101  36.989  30.343  1.00  0.00    -0.237 OA
ATOM     71  O   UNL A   1      48.928  38.092  29.940  1.00  0.00    -0.237 OA
ATOM     72  O   UNL A   1      49.492  37.260  32.192  1.00  0.00    -0.744 OA
ENDBRANCH  68  69
ENDBRANCH  49  63
BRANCH  50  73
ATOM     73  C   UNL A   1      43.627  24.281  27.464  1.00  0.00    -0.014 A 
ATOM     74  C   UNL A   1      43.550  23.250  28.418  1.00  0.00     0.010 A 
ATOM     75  C   UNL A   1      43.114  24.053  26.173  1.00  0.00     0.010 A 
ATOM     76  C   UNL A   1      43.002  22.010  28.081  1.00  0.00     0.020 A 
ATOM     77  C   UNL A   1      42.536  22.825  25.842  1.00  0.00     0.020 A 
ATOM     78  C   UNL A   1      42.498  21.805  26.794  1.00  0.00     0.054 A 
BRANCH  78  79
ATOM     79  S   UNL A   1      41.765  20.195  26.387  1.00  0.00     0.124 S 
ATOM     80  O   UNL A   1      41.991  19.440  27.615  1.00  0.00    -0.237 OA
ATOM     81  O   UNL A   1      40.375  20.546  26.106  1.00  0.00    -0.237 OA
ATOM     82  O   UNL A   1      42.535  19.753  25.227  1.00  0.00    -0.744 OA
ENDBRANCH  78  79
ENDBRANCH  50  73
BRANCH  62  83
ATOM     83  C   UNL A   1      49.941  27.020  26.318  1.00  0.00    -0.014 A 
ATOM     84  C   UNL A   1      50.213  27.216  24.953  1.00  0.00     0.010 A 
ATOM     85  C   UNL A   1      50.884  26.344  27.116  1.00  0.00     0.010 A 
ATOM     86  C   UNL A   1      51.390  26.711  24.390  1.00  0.00     0.020 A 
ATOM     87  C   UNL A   1      52.075  25.868  26.563  1.00  0.00     0.020 A 
ATOM     88  C   UNL A   1      52.313  26.042  25.199  1.00  0.00     0.054 A 
BRANCH  88  89
ATOM     89  S   UNL A   1      53.849  25.435  24.452  1.00  0.00     0.124 S 
ATOM     90  O   UNL A   1      53.774  24.002  24.724  1.00  0.00    -0.237 OA
ATOM     91  O   UNL A   1      53.696  25.818  23.050  1.00  0.00    -0.237 OA
ATOM     92  O   UNL A   1      54.896  26.152  25.176  1.00  0.00    -0.744 OA
ENDBRANCH  88  89
ENDBRANCH  62  83
ENDBRANCH  36  37
ENDBRANCH  28  31
ENDBRANCH  26  27
ENDBRANCH  25  26
ENDBRANCH  24  25
ENDBRANCH   1  24
TORSDOF 21
ENDMDL
MODEL 2
REMARK VINA RESULT:      -8.8      0.992      8.282
REMARK SMILES CC(C)[C@H]([NH2+]Cc1ccc(O)cn1)C(=O)NCCCCCCNC(=O)c1ccc(-c2c3nc(c(-c4ccc(S(=O)(=O)[O-])cc4)c4ccc([nH]4)c(-c4ccc(S(=O)(=O)[O-])cc4)c4nc(c(-c5ccc(S(=O)(=O)[O-])cc5)c5ccc2[nH]5)C=C4)C=C3)cc1
REMARK SMILES IDX 19 1 18 2 17 3 16 4 14 5 15 6 4 8 2 9 1 10 3 11 5 12 6 15
REMARK SMILES IDX 7 16 8 17 13 18 9 19 12 20 10 21 11 22 20 24 21 25 22 26
REMARK SMILES IDX 23 27 24 28 25 30 26 31 27 32 85 33 28 34 84 35 29 36 30 37
REMARK SMILES IDX 31 38 78 39 32 40 83 41 77 42 79 43 33 44 82 45 76 46 75 47
REMARK SMILES IDX 34 49 64 50 45 51 63 52 46 53 49 54 62 55 80 56 47 57 48 58
REMARK SMILES IDX 61 60 81 61 50 62 35 63 36 64 44 65 37 66 43 67 38 68 39 69
REMARK SMILES IDX 40 70 41 71 42 72 65 73 66 74 74 75 67 76 73 77 68 78 69 79
REMARK SMILES IDX 70 80 71 81 72 82 51 83 52 84 60 85 53 86 59 87 54 88 55 89
REMARK SMILES IDX 56 90 57 91 58 92
REMARK H PARENT 16 7 5 13 5 14 11 23 23 29 79 48 49 59
REMARK Flexibility Score: inf
ROOT
ATOM      1  C   UNL A   1      37.632  29.325  29.256  1.00  0.00     0.002 C 
ENDROOT
BRANCH   1   2
ATOM      2  C   UNL A   1      36.747  29.741  28.079  1.00  0.00     0.021 C 
BRANCH   2   3
ATOM      3  C   UNL A   1      35.416  30.372  28.468  1.00  0.00     0.116 C 
BRANCH   3   4
ATOM      4  N   UNL A   1      35.157  31.619  27.774  1.00  0.00    -0.351 N 
ATOM      5  C   UNL A   1      35.214  32.905  28.234  1.00  0.00     0.278 C 
ATOM      6  O   UNL A   1      35.075  33.810  27.404  1.00  0.00    -0.268 OA
ATOM      7  H   UNL A   1      34.899  31.525  26.829  1.00  0.00     0.163 HD
BRANCH   5   8
ATOM      8  C   UNL A   1      35.456  33.247  29.730  1.00  0.00     0.275 C 
BRANCH   8   9
ATOM      9  C   UNL A   1      36.962  33.151  30.130  1.00  0.00     0.051 C 
ATOM     10  C   UNL A   1      37.878  33.042  28.903  1.00  0.00     0.014 C 
ATOM     11  C   UNL A   1      37.509  34.251  31.038  1.00  0.00     0.014 C 
ENDBRANCH   8   9
BRANCH   8  12
ATOM     12  N   UNL A   1      34.519  32.519  30.619  1.00  0.00    -0.331 N 
ATOM     13  H   UNL A   1      34.789  31.536  30.646  1.00  0.00     0.347 HD
ATOM     14  H   UNL A   1      33.577  32.635  30.245  1.00  0.00     0.347 HD
BRANCH  12  15
ATOM     15  C   UNL A   1      34.532  33.055  31.995  1.00  0.00     0.318 C 
BRANCH  15  16
ATOM     16  C   UNL A   1      34.124  34.518  32.020  1.00  0.00     0.095 A 
ATOM     17  C   UNL A   1      34.639  35.361  33.007  1.00  0.00     0.033 A 
ATOM     18  N   UNL A   1      33.277  34.962  31.059  1.00  0.00    -0.251 NA
ATOM     19  C   UNL A   1      34.288  36.707  33.016  1.00  0.00     0.050 A 
ATOM     20  C   UNL A   1      32.948  36.278  31.093  1.00  0.00     0.157 A 
ATOM     21  C   UNL A   1      33.427  37.172  32.037  1.00  0.00     0.133 A 
BRANCH  21  22
ATOM     22  O   UNL A   1      33.051  38.479  31.980  1.00  0.00    -0.506 OA
ATOM     23  H   UNL A   1      33.151  39.029  32.731  1.00  0.00     0.293 HD
ENDBRANCH  21  22
ENDBRANCH  15  16
ENDBRANCH  12  15
ENDBRANCH   8  12
ENDBRANCH   5   8
ENDBRANCH   3   4
ENDBRANCH   2   3
ENDBRANCH   1   2
BRANCH   1  24
ATOM     24  C   UNL A   1      36.982  29.405  30.640  1.00  0.00     0.002 C 
BRANCH  24  25
ATOM     25  C   UNL A   1      37.791  28.805  31.793  1.00  0.00     0.021 C 
BRANCH  25  26
ATOM     26  C   UNL A   1      37.324  29.199  33.190  1.00  0.00     0.116 C 
BRANCH  26  27
ATOM     27  N   UNL A   1      37.365  30.634  33.407  1.00  0.00    -0.352 N 
ATOM     28  C   UNL A   1      38.414  31.506  33.259  1.00  0.00     0.251 C 
ATOM     29  H   UNL A   1      36.519  31.039  33.704  1.00  0.00     0.163 HD
ATOM     30  O   UNL A   1      38.305  32.664  33.648  1.00  0.00    -0.269 OA
BRANCH  28  31
ATOM     31  C   UNL A   1      39.679  31.043  32.645  1.00  0.00     0.039 A 
ATOM     32  C   UNL A   1      40.539  30.241  33.398  1.00  0.00     0.014 A 
ATOM     33  C   UNL A   1      40.023  31.409  31.340  1.00  0.00     0.014 A 
ATOM     34  C   UNL A   1      41.724  29.772  32.828  1.00  0.00     0.010 A 
ATOM     35  C   UNL A   1      41.164  30.875  30.748  1.00  0.00     0.010 A 
ATOM     36  C   UNL A   1      42.037  30.067  31.491  1.00  0.00    -0.014 A 
BRANCH  36  37
ATOM     37  C   UNL A   1      43.291  29.574  30.866  1.00  0.00     0.031 A 
ATOM     38  C   UNL A   1      43.296  28.258  30.132  1.00  0.00     0.074 A 
ATOM     39  C   UNL A   1      44.431  30.284  30.989  1.00  0.00     0.049 A 
ATOM     40  N   UNL A   1      44.295  27.632  29.565  1.00  0.00    -0.248 NA
ATOM     41  C   UNL A   1      42.013  27.538  30.047  1.00  0.00     0.031 C 
ATOM     42  C   UNL A   1      44.564  31.559  31.698  1.00  0.00     0.029 A 
ATOM     43  N   UNL A   1      45.697  30.032  30.523  1.00  0.00    -0.354 N 
ATOM     44  C   UNL A   1      43.766  26.446  29.069  1.00  0.00     0.074 A 
ATOM     45  C   UNL A   1      42.374  26.408  29.457  1.00  0.00     0.031 C 
ATOM     46  C   UNL A   1      45.830  31.993  31.589  1.00  0.00     0.029 A 
ATOM     47  C   UNL A   1      46.610  31.009  30.845  1.00  0.00     0.049 A 
ATOM     48  H   UNL A   1      45.929  29.227  30.005  1.00  0.00     0.167 HD
ATOM     49  C   UNL A   1      44.376  25.486  28.333  1.00  0.00     0.031 A 
ATOM     50  C   UNL A   1      47.927  31.100  30.574  1.00  0.00     0.031 A 
ATOM     51  C   UNL A   1      45.758  25.532  27.940  1.00  0.00     0.049 A 
ATOM     52  C   UNL A   1      48.588  30.005  29.780  1.00  0.00     0.074 A 
ATOM     53  C   UNL A   1      46.462  24.628  27.164  1.00  0.00     0.029 A 
ATOM     54  N   UNL A   1      46.647  26.537  28.288  1.00  0.00    -0.354 N 
ATOM     55  N   UNL A   1      48.059  28.915  29.279  1.00  0.00    -0.248 NA
ATOM     56  C   UNL A   1      50.022  30.161  29.502  1.00  0.00     0.031 C 
ATOM     57  C   UNL A   1      47.789  25.057  27.088  1.00  0.00     0.029 A 
ATOM     58  C   UNL A   1      47.897  26.267  27.757  1.00  0.00     0.049 A 
ATOM     59  H   UNL A   1      46.423  27.327  28.832  1.00  0.00     0.167 HD
ATOM     60  C   UNL A   1      49.086  28.276  28.591  1.00  0.00     0.074 A 
ATOM     61  C   UNL A   1      50.263  29.109  28.732  1.00  0.00     0.031 C 
ATOM     62  C   UNL A   1      49.056  27.110  27.899  1.00  0.00     0.031 A 
BRANCH  49  63
ATOM     63  C   UNL A   1      43.546  24.302  27.906  1.00  0.00    -0.014 A 
ATOM     64  C   UNL A   1      42.929  24.266  26.641  1.00  0.00     0.010 A 
ATOM     65  C   UNL A   1      43.415  23.192  28.760  1.00  0.00     0.010 A 
ATOM     66  C   UNL A   1      42.163  23.163  26.257  1.00  0.00     0.020 A 
ATOM     67  C   UNL A   1      42.676  22.072  28.366  1.00  0.00     0.020 A 
ATOM     68  C   UNL A   1      42.041  22.073  27.123  1.00  0.00     0.054 A 
BRANCH  68  69
ATOM     69  S   UNL A   1      41.062  20.644  26.585  1.00  0.00     0.124 S 
ATOM     70  O   UNL A   1      39.898  21.287  25.982  1.00  0.00    -0.237 OA
ATOM     71  O   UNL A   1      41.963  19.973  25.651  1.00  0.00    -0.237 OA
ATOM     72  O   UNL A   1      40.799  19.917  27.824  1.00  0.00    -0.744 OA
ENDBRANCH  68  69
ENDBRANCH  49  63
BRANCH  50  73
ATOM     73  C   UNL A   1      48.709  32.279  31.043  1.00  0.00    -0.014 A 
ATOM     74  C   UNL A   1      48.827  33.425  30.236  1.00  0.00     0.010 A 
ATOM     75  C   UNL A   1      49.350  32.259  32.295  1.00  0.00     0.010 A 
ATOM     76  C   UNL A   1      49.596  34.513  30.657  1.00  0.00     0.020 A 
ATOM     77  C   UNL A   1      50.092  33.358  32.734  1.00  0.00     0.020 A 
ATOM     78  C   UNL A   1      50.224  34.473  31.904  1.00  0.00     0.054 A 
BRANCH  78  79
ATOM     79  S   UNL A   1      51.194  35.910  32.443  1.00  0.00     0.124 S 
ATOM     80  O   UNL A   1      51.512  36.554  31.173  1.00  0.00    -0.237 OA
ATOM     81  O   UNL A   1      50.247  36.624  33.297  1.00  0.00    -0.237 OA
ATOM     82  O   UNL A   1      52.327  35.312  33.145  1.00  0.00    -0.744 OA
ENDBRANCH  78  79
ENDBRANCH  50  73
BRANCH  62  83
ATOM     83  C   UNL A   1      50.318  26.689  27.190  1.00  0.00    -0.014 A 
ATOM     84  C   UNL A   1      51.383  26.082  27.879  1.00  0.00     0.010 A 
ATOM     85  C   UNL A   1      50.410  26.856  25.795  1.00  0.00     0.010 A 
ATOM     86  C   UNL A   1      52.532  25.685  27.189  1.00  0.00     0.020 A 
ATOM     87  C   UNL A   1      51.544  26.430  25.100  1.00  0.00     0.020 A 
ATOM     88  C   UNL A   1      52.605  25.860  25.804  1.00  0.00     0.054 A 
BRANCH  88  89
ATOM     89  S   UNL A   1      54.090  25.298  24.929  1.00  0.00     0.124 S 
ATOM     90  O   UNL A   1      53.784  23.891  24.685  1.00  0.00    -0.237 OA
ATOM     91  O   UNL A   1      54.105  26.153  23.744  1.00  0.00    -0.237 OA
ATOM     92  O   UNL A   1      55.170  25.545  25.882  1.00  0.00    -0.744 OA
ENDBRANCH  88  89
ENDBRANCH  62  83
ENDBRANCH  36  37
ENDBRANCH  28  31
ENDBRANCH  26  27
ENDBRANCH  25  26
ENDBRANCH  24  25
ENDBRANCH   1  24
TORSDOF 21
ENDMDL
MODEL 3
REMARK VINA RESULT:      -8.7      4.482      5.836
REMARK SMILES CC(C)[C@H]([NH2+]Cc1ccc(O)cn1)C(=O)NCCCCCCNC(=O)c1ccc(-c2c3nc(c(-c4ccc(S(=O)(=O)[O-])cc4)c4ccc([nH]4)c(-c4ccc(S(=O)(=O)[O-])cc4)c4nc(c(-c5ccc(S(=O)(=O)[O-])cc5)c5ccc2[nH]5)C=C4)C=C3)cc1
REMARK SMILES IDX 19 1 18 2 17 3 16 4 14 5 15 6 4 8 2 9 1 10 3 11 5 12 6 15
REMARK SMILES IDX 7 16 8 17 13 18 9 19 12 20 10 21 11 22 20 24 21 25 22 26
REMARK SMILES IDX 23 27 24 28 25 30 26 31 27 32 85 33 28 34 84 35 29 36 30 37
REMARK SMILES IDX 31 38 78 39 32 40 83 41 77 42 79 43 33 44 82 45 76 46 75 47
REMARK SMILES IDX 34 49 64 50 45 51 63 52 46 53 49 54 62 55 80 56 47 57 48 58
REMARK SMILES IDX 61 60 81 61 50 62 35 63 36 64 44 65 37 66 43 67 38 68 39 69
REMARK SMILES IDX 40 70 41 71 42 72 65 73 66 74 74 75 67 76 73 77 68 78 69 79
REMARK SMILES IDX 70 80 71 81 72 82 51 83 52 84 60 85 53 86 59 87 54 88 55 89
REMARK SMILES IDX 56 90 57 91 58 92
REMARK H PARENT 16 7 5 13 5 14 11 23 23 29 79 48 49 59
REMARK Flexibility Score: inf
ROOT
ATOM      1  C   UNL A   1      39.262  34.967  35.077  1.00  0.00     0.002 C 
ENDROOT
BRANCH   1   2
ATOM      2  C   UNL A   1      39.233  34.932  33.548  1.00  0.00     0.021 C 
BRANCH   2   3
ATOM      3  C   UNL A   1      38.090  34.127  32.944  1.00  0.00     0.116 C 
BRANCH   3   4
ATOM      4  N   UNL A   1      37.916  34.367  31.524  1.00  0.00    -0.351 N 
ATOM      5  C   UNL A   1      37.124  33.721  30.618  1.00  0.00     0.278 C 
ATOM      6  O   UNL A   1      37.053  34.202  29.482  1.00  0.00    -0.268 OA
ATOM      7  H   UNL A   1      38.452  35.106  31.157  1.00  0.00     0.163 HD
BRANCH   5   8
ATOM      8  C   UNL A   1      36.322  32.437  30.974  1.00  0.00     0.275 C 
BRANCH   8   9
ATOM      9  C   UNL A   1      36.779  31.198  30.142  1.00  0.00     0.051 C 
ATOM     10  C   UNL A   1      35.872  30.951  28.928  1.00  0.00     0.014 C 
ATOM     11  C   UNL A   1      38.231  31.180  29.665  1.00  0.00     0.014 C 
ENDBRANCH   8   9
BRANCH   8  12
ATOM     12  N   UNL A   1      34.862  32.687  30.987  1.00  0.00    -0.331 N 
ATOM     13  H   UNL A   1      34.378  31.811  30.788  1.00  0.00     0.347 HD
ATOM     14  H   UNL A   1      34.658  33.392  30.279  1.00  0.00     0.347 HD
BRANCH  12  15
ATOM     15  C   UNL A   1      34.399  33.202  32.291  1.00  0.00     0.318 C 
BRANCH  15  16
ATOM     16  C   UNL A   1      34.103  34.690  32.221  1.00  0.00     0.095 A 
ATOM     17  C   UNL A   1      33.577  35.235  31.047  1.00  0.00     0.033 A 
ATOM     18  N   UNL A   1      34.347  35.443  33.322  1.00  0.00    -0.251 NA
ATOM     19  C   UNL A   1      33.279  36.592  30.990  1.00  0.00     0.050 A 
ATOM     20  C   UNL A   1      34.052  36.765  33.238  1.00  0.00     0.157 A 
ATOM     21  C   UNL A   1      33.521  37.370  32.109  1.00  0.00     0.133 A 
BRANCH  21  22
ATOM     22  O   UNL A   1      33.243  38.702  32.126  1.00  0.00    -0.506 OA
ATOM     23  H   UNL A   1      33.693  39.267  32.722  1.00  0.00     0.293 HD
ENDBRANCH  21  22
ENDBRANCH  15  16
ENDBRANCH  12  15
ENDBRANCH   8  12
ENDBRANCH   5   8
ENDBRANCH   3   4
ENDBRANCH   2   3
ENDBRANCH   1   2
BRANCH   1  24
ATOM     24  C   UNL A   1      40.269  35.937  35.702  1.00  0.00     0.002 C 
BRANCH  24  25
ATOM     25  C   UNL A   1      40.165  36.120  37.219  1.00  0.00     0.021 C 
BRANCH  25  26
ATOM     26  C   UNL A   1      39.143  35.228  37.914  1.00  0.00     0.116 C 
BRANCH  26  27
ATOM     27  N   UNL A   1      39.685  34.574  39.091  1.00  0.00    -0.352 N 
ATOM     28  C   UNL A   1      40.514  33.483  39.176  1.00  0.00     0.251 C 
ATOM     29  H   UNL A   1      39.418  34.968  39.953  1.00  0.00     0.163 HD
ATOM     30  O   UNL A   1      40.736  32.969  40.267  1.00  0.00    -0.269 OA
BRANCH  28  31
ATOM     31  C   UNL A   1      41.124  32.922  37.950  1.00  0.00     0.039 A 
ATOM     32  C   UNL A   1      40.319  32.199  37.067  1.00  0.00     0.014 A 
ATOM     33  C   UNL A   1      42.484  33.095  37.678  1.00  0.00     0.014 A 
ATOM     34  C   UNL A   1      40.869  31.684  35.892  1.00  0.00     0.010 A 
ATOM     35  C   UNL A   1      43.011  32.651  36.468  1.00  0.00     0.010 A 
ATOM     36  C   UNL A   1      42.215  31.924  35.572  1.00  0.00    -0.014 A 
BRANCH  36  37
ATOM     37  C   UNL A   1      42.818  31.388  34.324  1.00  0.00     0.031 A 
ATOM     38  C   UNL A   1      42.920  32.266  33.104  1.00  0.00     0.074 A 
ATOM     39  C   UNL A   1      43.235  30.107  34.273  1.00  0.00     0.049 A 
ATOM     40  N   UNL A   1      43.364  31.971  31.909  1.00  0.00    -0.248 NA
ATOM     41  C   UNL A   1      42.436  33.651  33.237  1.00  0.00     0.031 C 
ATOM     42  C   UNL A   1      43.166  29.146  35.377  1.00  0.00     0.029 A 
ATOM     43  N   UNL A   1      43.800  29.390  33.247  1.00  0.00    -0.354 N 
ATOM     44  C   UNL A   1      43.203  33.124  31.150  1.00  0.00     0.074 A 
ATOM     45  C   UNL A   1      42.562  34.103  31.999  1.00  0.00     0.031 C 
ATOM     46  C   UNL A   1      43.699  27.980  34.979  1.00  0.00     0.029 A 
ATOM     47  C   UNL A   1      44.107  28.091  33.583  1.00  0.00     0.049 A 
ATOM     48  H   UNL A   1      43.970  29.770  32.355  1.00  0.00     0.167 HD
ATOM     49  C   UNL A   1      43.578  33.358  29.870  1.00  0.00     0.031 A 
ATOM     50  C   UNL A   1      44.651  27.103  32.847  1.00  0.00     0.031 A 
ATOM     51  C   UNL A   1      44.226  32.386  29.031  1.00  0.00     0.049 A 
ATOM     52  C   UNL A   1      45.032  27.379  31.417  1.00  0.00     0.074 A 
ATOM     53  C   UNL A   1      44.679  32.535  27.733  1.00  0.00     0.029 A 
ATOM     54  N   UNL A   1      44.516  31.084  29.410  1.00  0.00    -0.354 N 
ATOM     55  N   UNL A   1      44.915  28.492  30.732  1.00  0.00    -0.248 NA
ATOM     56  C   UNL A   1      45.634  26.271  30.665  1.00  0.00     0.031 C 
ATOM     57  C   UNL A   1      45.194  31.308  27.306  1.00  0.00     0.029 A 
ATOM     58  C   UNL A   1      45.127  30.414  28.363  1.00  0.00     0.049 A 
ATOM     59  H   UNL A   1      44.318  30.694  30.291  1.00  0.00     0.167 HD
ATOM     60  C   UNL A   1      45.466  28.228  29.482  1.00  0.00     0.074 A 
ATOM     61  C   UNL A   1      45.927  26.854  29.512  1.00  0.00     0.031 C 
ATOM     62  C   UNL A   1      45.588  29.049  28.410  1.00  0.00     0.031 A 
BRANCH  49  63
ATOM     63  C   UNL A   1      43.295  34.725  29.299  1.00  0.00    -0.014 A 
ATOM     64  C   UNL A   1      42.072  35.006  28.661  1.00  0.00     0.010 A 
ATOM     65  C   UNL A   1      44.244  35.754  29.439  1.00  0.00     0.010 A 
ATOM     66  C   UNL A   1      41.822  36.277  28.136  1.00  0.00     0.020 A 
ATOM     67  C   UNL A   1      43.984  37.036  28.945  1.00  0.00     0.020 A 
ATOM     68  C   UNL A   1      42.781  37.284  28.281  1.00  0.00     0.054 A 
BRANCH  68  69
ATOM     69  S   UNL A   1      42.416  38.930  27.614  1.00  0.00     0.124 S 
ATOM     70  O   UNL A   1      43.746  39.406  27.244  1.00  0.00    -0.237 OA
ATOM     71  O   UNL A   1      41.523  38.631  26.497  1.00  0.00    -0.237 OA
ATOM     72  O   UNL A   1      41.795  39.630  28.735  1.00  0.00    -0.744 OA
ENDBRANCH  68  69
ENDBRANCH  49  63
BRANCH  50  73
ATOM     73  C   UNL A   1      44.886  25.761  33.451  1.00  0.00    -0.014 A 
ATOM     74  C   UNL A   1      46.129  25.443  34.027  1.00  0.00     0.010 A 
ATOM     75  C   UNL A   1      43.870  24.787  33.445  1.00  0.00     0.010 A 
ATOM     76  C   UNL A   1      46.363  24.171  34.555  1.00  0.00     0.020 A 
ATOM     77  C   UNL A   1      44.089  23.524  34.001  1.00  0.00     0.020 A 
ATOM     78  C   UNL A   1      45.340  23.219  34.539  1.00  0.00     0.054 A 
BRANCH  78  79
ATOM     79  S   UNL A   1      45.656  21.582  35.256  1.00  0.00     0.124 S 
ATOM     80  O   UNL A   1      44.528  20.806  34.751  1.00  0.00    -0.237 OA
ATOM     81  O   UNL A   1      46.961  21.241  34.696  1.00  0.00    -0.237 OA
ATOM     82  O   UNL A   1      45.650  21.833  36.696  1.00  0.00    -0.744 OA
ENDBRANCH  78  79
ENDBRANCH  50  73
BRANCH  62  83
ATOM     83  C   UNL A   1      46.296  28.508  27.195  1.00  0.00    -0.014 A 
ATOM     84  C   UNL A   1      47.697  28.555  27.077  1.00  0.00     0.010 A 
ATOM     85  C   UNL A   1      45.542  27.891  26.179  1.00  0.00     0.010 A 
ATOM     86  C   UNL A   1      48.326  28.027  25.945  1.00  0.00     0.020 A 
ATOM     87  C   UNL A   1      46.171  27.334  25.063  1.00  0.00     0.020 A 
ATOM     88  C   UNL A   1      47.559  27.419  24.946  1.00  0.00     0.054 A 
BRANCH  88  89
ATOM     89  S   UNL A   1      48.404  26.706  23.510  1.00  0.00     0.124 S 
ATOM     90  O   UNL A   1      47.903  27.537  22.418  1.00  0.00    -0.237 OA
ATOM     91  O   UNL A   1      49.814  26.891  23.844  1.00  0.00    -0.237 OA
ATOM     92  O   UNL A   1      47.951  25.317  23.493  1.00  0.00    -0.744 OA
ENDBRANCH  88  89
ENDBRANCH  62  83
ENDBRANCH  36  37
ENDBRANCH  28  31
ENDBRANCH  26  27
ENDBRANCH  25  26
ENDBRANCH  24  25
ENDBRANCH   1  24
TORSDOF 21
ENDMDL
