MODEL 1
REMARK VINA RESULT:     -10.7      0.000      0.000
REMARK SMILES O=C(NCCCCCCNC(=O)C1CN(S(=O)(=O)c2ccc(F)cc2)C1)c1ccc(-c2c3nc(c(-c4ccc(S(=O)(=O)[O-])cc4)c4ccc([nH]4)c(-c4ccc(S(=O)(=O)[O-])cc4)c4nc(c(-c5ccc(S(=O)(=O)[O-])cc5)c5ccc2[nH]5)C=C4)C=C3)cc1
REMARK SMILES IDX 6 1 5 2 4 3 3 4 1 5 2 6 27 8 28 9 86 10 29 11 85 12 30 13
REMARK SMILES IDX 31 14 32 15 79 16 33 17 84 18 78 19 80 20 34 21 83 22 77 23
REMARK SMILES IDX 76 24 35 26 65 27 46 28 64 29 47 30 50 31 63 32 81 33 48 34
REMARK SMILES IDX 49 35 62 37 82 38 51 39 36 40 37 41 45 42 38 43 44 44 39 45
REMARK SMILES IDX 40 46 41 47 42 48 43 49 66 50 67 51 75 52 68 53 74 54 69 55
REMARK SMILES IDX 70 56 71 57 72 58 73 59 52 60 53 61 61 62 54 63 60 64 55 65
REMARK SMILES IDX 56 66 57 67 58 68 59 69 7 70 8 71 9 72 10 73 11 74 12 76
REMARK SMILES IDX 13 77 14 78 26 79 15 80 16 81 17 82 18 83 19 84 20 85 25 86
REMARK SMILES IDX 21 87 24 88 22 89 23 90
REMARK H PARENT 3 7 80 25 50 36 10 75
REMARK Flexibility Score: inf
ROOT
ATOM      1  C   UNL A   1      32.887  29.178  24.706  1.00  0.00     0.002 C 
ENDROOT
BRANCH   1   2
ATOM      2  C   UNL A   1      33.428  27.968  25.472  1.00  0.00     0.021 C 
BRANCH   2   3
ATOM      3  C   UNL A   1      33.826  28.248  26.920  1.00  0.00     0.116 C 
BRANCH   3   4
ATOM      4  N   UNL A   1      33.625  29.641  27.280  1.00  0.00    -0.352 N 
ATOM      5  O   UNL A   1      34.023  31.575  28.358  1.00  0.00    -0.269 OA
ATOM      6  C   UNL A   1      34.451  30.491  27.970  1.00  0.00     0.251 C 
ATOM      7  H   UNL A   1      32.771  30.032  26.985  1.00  0.00     0.163 HD
BRANCH   6   8
ATOM      8  C   UNL A   1      35.847  30.098  28.261  1.00  0.00     0.039 A 
ATOM      9  C   UNL A   1      36.845  30.205  27.287  1.00  0.00     0.014 A 
ATOM     10  C   UNL A   1      36.166  29.657  29.548  1.00  0.00     0.014 A 
ATOM     11  C   UNL A   1      38.142  29.781  27.571  1.00  0.00     0.010 A 
ATOM     12  C   UNL A   1      37.478  29.283  29.847  1.00  0.00     0.010 A 
ATOM     13  C   UNL A   1      38.471  29.324  28.855  1.00  0.00    -0.014 A 
BRANCH  13  14
ATOM     14  C   UNL A   1      39.864  28.932  29.180  1.00  0.00     0.031 A 
ATOM     15  C   UNL A   1      40.806  29.915  29.816  1.00  0.00     0.074 A 
ATOM     16  C   UNL A   1      40.291  27.696  28.862  1.00  0.00     0.049 A 
ATOM     17  N   UNL A   1      42.077  29.773  30.095  1.00  0.00    -0.248 NA
ATOM     18  C   UNL A   1      40.251  31.227  30.178  1.00  0.00     0.031 C 
ATOM     19  C   UNL A   1      39.469  26.656  28.240  1.00  0.00     0.029 A 
ATOM     20  N   UNL A   1      41.522  27.110  29.004  1.00  0.00    -0.354 N 
ATOM     21  C   UNL A   1      42.482  30.985  30.640  1.00  0.00     0.074 A 
ATOM     22  C   UNL A   1      41.324  31.855  30.639  1.00  0.00     0.031 C 
ATOM     23  C   UNL A   1      40.217  25.558  28.058  1.00  0.00     0.029 A 
ATOM     24  C   UNL A   1      41.580  25.833  28.503  1.00  0.00     0.049 A 
ATOM     25  H   UNL A   1      42.290  27.561  29.425  1.00  0.00     0.167 HD
ATOM     26  C   UNL A   1      43.708  31.342  31.096  1.00  0.00     0.031 A 
ATOM     27  C   UNL A   1      42.618  24.983  28.381  1.00  0.00     0.031 A 
ATOM     28  C   UNL A   1      44.858  30.476  31.087  1.00  0.00     0.049 A 
ATOM     29  C   UNL A   1      43.973  25.404  28.869  1.00  0.00     0.074 A 
ATOM     30  C   UNL A   1      46.135  30.735  31.553  1.00  0.00     0.029 A 
ATOM     31  N   UNL A   1      44.872  29.186  30.576  1.00  0.00    -0.354 N 
ATOM     32  N   UNL A   1      44.331  26.543  29.412  1.00  0.00    -0.248 NA
ATOM     33  C   UNL A   1      45.063  24.428  28.733  1.00  0.00     0.031 C 
ATOM     34  C   UNL A   1      46.931  29.615  31.287  1.00  0.00     0.029 A 
ATOM     35  C   UNL A   1      46.139  28.642  30.698  1.00  0.00     0.049 A 
ATOM     36  H   UNL A   1      44.095  28.725  30.185  1.00  0.00     0.167 HD
ATOM     37  C   UNL A   1      45.683  26.416  29.702  1.00  0.00     0.074 A 
ATOM     38  C   UNL A   1      46.079  25.086  29.278  1.00  0.00     0.031 C 
ATOM     39  C   UNL A   1      46.518  27.318  30.273  1.00  0.00     0.031 A 
BRANCH  26  40
ATOM     40  C   UNL A   1      43.870  32.749  31.603  1.00  0.00    -0.014 A 
ATOM     41  C   UNL A   1      44.276  33.790  30.748  1.00  0.00     0.010 A 
ATOM     42  C   UNL A   1      43.614  33.035  32.956  1.00  0.00     0.010 A 
ATOM     43  C   UNL A   1      44.480  35.079  31.251  1.00  0.00     0.020 A 
ATOM     44  C   UNL A   1      43.794  34.327  33.458  1.00  0.00     0.020 A 
ATOM     45  C   UNL A   1      44.253  35.335  32.606  1.00  0.00     0.054 A 
BRANCH  45  46
ATOM     46  S   UNL A   1      44.553  37.006  33.245  1.00  0.00     0.124 S 
ATOM     47  O   UNL A   1      43.916  36.943  34.558  1.00  0.00    -0.237 OA
ATOM     48  O   UNL A   1      46.012  37.091  33.260  1.00  0.00    -0.237 OA
ATOM     49  O   UNL A   1      43.893  37.872  32.272  1.00  0.00    -0.744 OA
ENDBRANCH  45  46
ENDBRANCH  26  40
BRANCH  27  50
ATOM     50  C   UNL A   1      42.390  23.654  27.758  1.00  0.00    -0.014 A 
ATOM     51  C   UNL A   1      42.747  23.423  26.420  1.00  0.00     0.010 A 
ATOM     52  C   UNL A   1      41.899  22.586  28.534  1.00  0.00     0.010 A 
ATOM     53  C   UNL A   1      42.633  22.142  25.870  1.00  0.00     0.020 A 
ATOM     54  C   UNL A   1      41.805  21.301  27.995  1.00  0.00     0.020 A 
ATOM     55  C   UNL A   1      42.172  21.088  26.665  1.00  0.00     0.054 A 
BRANCH  55  56
ATOM     56  S   UNL A   1      42.139  19.413  25.967  1.00  0.00     0.124 S 
ATOM     57  O   UNL A   1      40.715  19.216  25.716  1.00  0.00    -0.237 OA
ATOM     58  O   UNL A   1      42.977  19.548  24.778  1.00  0.00    -0.237 OA
ATOM     59  O   UNL A   1      42.711  18.589  27.030  1.00  0.00    -0.744 OA
ENDBRANCH  55  56
ENDBRANCH  27  50
BRANCH  39  60
ATOM     60  C   UNL A   1      47.942  26.896  30.509  1.00  0.00    -0.014 A 
ATOM     61  C   UNL A   1      48.974  27.316  29.652  1.00  0.00     0.010 A 
ATOM     62  C   UNL A   1      48.258  26.144  31.654  1.00  0.00     0.010 A 
ATOM     63  C   UNL A   1      50.302  26.984  29.936  1.00  0.00     0.020 A 
ATOM     64  C   UNL A   1      49.586  25.825  31.949  1.00  0.00     0.020 A 
ATOM     65  C   UNL A   1      50.600  26.242  31.085  1.00  0.00     0.054 A 
BRANCH  65  66
ATOM     66  S   UNL A   1      52.336  25.891  31.477  1.00  0.00     0.124 S 
ATOM     67  O   UNL A   1      52.721  27.073  32.242  1.00  0.00    -0.237 OA
ATOM     68  O   UNL A   1      52.249  24.648  32.241  1.00  0.00    -0.237 OA
ATOM     69  O   UNL A   1      52.966  25.764  30.165  1.00  0.00    -0.744 OA
ENDBRANCH  65  66
ENDBRANCH  39  60
ENDBRANCH  13  14
ENDBRANCH   6   8
ENDBRANCH   3   4
ENDBRANCH   2   3
ENDBRANCH   1   2
BRANCH   1  70
ATOM     70  C   UNL A   1      31.385  29.146  24.405  1.00  0.00     0.002 C 
BRANCH  70  71
ATOM     71  C   UNL A   1      31.009  28.672  22.996  1.00  0.00     0.021 C 
BRANCH  71  72
ATOM     72  C   UNL A   1      30.981  27.154  22.828  1.00  0.00     0.116 C 
BRANCH  72  73
ATOM     73  N   UNL A   1      31.673  26.732  21.621  1.00  0.00    -0.356 N 
ATOM     74  C   UNL A   1      32.577  25.706  21.479  1.00  0.00     0.225 C 
ATOM     75  H   UNL A   1      31.469  27.245  20.806  1.00  0.00     0.163 HD
ATOM     76  O   UNL A   1      33.077  25.520  20.366  1.00  0.00    -0.275 OA
BRANCH  74  77
ATOM     77  C   UNL A   1      32.902  24.870  22.718  1.00  0.00     0.109 C 
ATOM     78  C   UNL A   1      31.939  23.713  23.061  1.00  0.00     0.117 C 
ATOM     79  C   UNL A   1      33.954  23.748  22.616  1.00  0.00     0.117 C 
ATOM     80  N   UNL A   1      33.116  22.903  23.551  1.00  0.00    -0.196 NA
BRANCH  80  81
ATOM     81  S   UNL A   1      33.419  22.806  25.239  1.00  0.00     0.243 S 
ATOM     82  O   UNL A   1      33.090  24.087  25.826  1.00  0.00    -0.207 OA
ATOM     83  O   UNL A   1      32.809  21.582  25.715  1.00  0.00    -0.207 OA
BRANCH  81  84
ATOM     84  C   UNL A   1      35.181  22.615  25.325  1.00  0.00     0.082 A 
ATOM     85  C   UNL A   1      35.967  23.678  25.786  1.00  0.00     0.025 A 
ATOM     86  C   UNL A   1      35.760  21.376  25.028  1.00  0.00     0.025 A 
ATOM     87  C   UNL A   1      37.344  23.505  25.924  1.00  0.00     0.040 A 
ATOM     88  C   UNL A   1      37.136  21.206  25.183  1.00  0.00     0.040 A 
ATOM     89  C   UNL A   1      37.915  22.271  25.625  1.00  0.00     0.123 A 
ATOM     90  F   UNL A   1      39.235  22.104  25.779  1.00  0.00    -0.207 F 
ENDBRANCH  81  84
ENDBRANCH  80  81
ENDBRANCH  74  77
ENDBRANCH  72  73
ENDBRANCH  71  72
ENDBRANCH  70  71
ENDBRANCH   1  70
TORSDOF 18
ENDMDL
MODEL 2
REMARK VINA RESULT:     -10.5      1.376      1.983
REMARK SMILES O=C(NCCCCCCNC(=O)C1CN(S(=O)(=O)c2ccc(F)cc2)C1)c1ccc(-c2c3nc(c(-c4ccc(S(=O)(=O)[O-])cc4)c4ccc([nH]4)c(-c4ccc(S(=O)(=O)[O-])cc4)c4nc(c(-c5ccc(S(=O)(=O)[O-])cc5)c5ccc2[nH]5)C=C4)C=C3)cc1
REMARK SMILES IDX 6 1 5 2 4 3 3 4 1 5 2 6 27 8 28 9 86 10 29 11 85 12 30 13
REMARK SMILES IDX 31 14 32 15 79 16 33 17 84 18 78 19 80 20 34 21 83 22 77 23
REMARK SMILES IDX 76 24 35 26 65 27 46 28 64 29 47 30 50 31 63 32 81 33 48 34
REMARK SMILES IDX 49 35 62 37 82 38 51 39 36 40 37 41 45 42 38 43 44 44 39 45
REMARK SMILES IDX 40 46 41 47 42 48 43 49 66 50 67 51 75 52 68 53 74 54 69 55
REMARK SMILES IDX 70 56 71 57 72 58 73 59 52 60 53 61 61 62 54 63 60 64 55 65
REMARK SMILES IDX 56 66 57 67 58 68 59 69 7 70 8 71 9 72 10 73 11 74 12 76
REMARK SMILES IDX 13 77 14 78 26 79 15 80 16 81 17 82 18 83 19 84 20 85 25 86
REMARK SMILES IDX 21 87 24 88 22 89 23 90
REMARK H PARENT 3 7 80 25 50 36 10 75
REMARK Flexibility Score: inf
ROOT
ATOM      1  C   UNL A   1      32.573  28.685  24.595  1.00  0.00     0.002 C 
ENDROOT
BRANCH   1   2
ATOM      2  C   UNL A   1      32.880  27.657  25.688  1.00  0.00     0.021 C 
BRANCH   2   3
ATOM      3  C   UNL A   1      33.687  28.194  26.868  1.00  0.00     0.116 C 
BRANCH   3   4
ATOM      4  N   UNL A   1      33.574  29.637  26.993  1.00  0.00    -0.352 N 
ATOM      5  O   UNL A   1      34.047  31.685  27.795  1.00  0.00    -0.269 OA
ATOM      6  C   UNL A   1      34.412  30.526  27.616  1.00  0.00     0.251 C 
ATOM      7  H   UNL A   1      32.780  30.034  26.569  1.00  0.00     0.163 HD
BRANCH   6   8
ATOM      8  C   UNL A   1      35.745  30.089  28.083  1.00  0.00     0.039 A 
ATOM      9  C   UNL A   1      35.940  29.648  29.397  1.00  0.00     0.014 A 
ATOM     10  C   UNL A   1      36.807  30.081  27.175  1.00  0.00     0.014 A 
ATOM     11  C   UNL A   1      37.217  29.288  29.827  1.00  0.00     0.010 A 
ATOM     12  C   UNL A   1      38.074  29.669  27.594  1.00  0.00     0.010 A 
ATOM     13  C   UNL A   1      38.292  29.289  28.928  1.00  0.00    -0.014 A 
BRANCH  13  14
ATOM     14  C   UNL A   1      39.639  28.846  29.365  1.00  0.00     0.031 A 
ATOM     15  C   UNL A   1      40.540  29.775  30.128  1.00  0.00     0.074 A 
ATOM     16  C   UNL A   1      40.063  27.612  29.035  1.00  0.00     0.049 A 
ATOM     17  N   UNL A   1      41.775  29.587  30.518  1.00  0.00    -0.248 NA
ATOM     18  C   UNL A   1      39.985  31.087  30.492  1.00  0.00     0.031 C 
ATOM     19  C   UNL A   1      39.279  26.622  28.294  1.00  0.00     0.029 A 
ATOM     20  N   UNL A   1      41.262  26.987  29.265  1.00  0.00    -0.354 N 
ATOM     21  C   UNL A   1      42.155  30.764  31.151  1.00  0.00     0.074 A 
ATOM     22  C   UNL A   1      41.024  31.665  31.079  1.00  0.00     0.031 C 
ATOM     23  C   UNL A   1      40.015  25.511  28.135  1.00  0.00     0.029 A 
ATOM     24  C   UNL A   1      41.336  25.730  28.717  1.00  0.00     0.049 A 
ATOM     25  H   UNL A   1      41.996  27.398  29.776  1.00  0.00     0.167 HD
ATOM     26  C   UNL A   1      43.341  31.067  31.734  1.00  0.00     0.031 A 
ATOM     27  C   UNL A   1      42.360  24.857  28.657  1.00  0.00     0.031 A 
ATOM     28  C   UNL A   1      44.465  30.170  31.795  1.00  0.00     0.049 A 
ATOM     29  C   UNL A   1      43.672  25.219  29.287  1.00  0.00     0.074 A 
ATOM     30  C   UNL A   1      45.698  30.374  32.389  1.00  0.00     0.029 A 
ATOM     31  N   UNL A   1      44.496  28.902  31.232  1.00  0.00    -0.354 N 
ATOM     32  N   UNL A   1      44.005  26.325  29.910  1.00  0.00    -0.248 NA
ATOM     33  C   UNL A   1      44.746  24.220  29.212  1.00  0.00     0.031 C 
ATOM     34  C   UNL A   1      46.489  29.244  32.151  1.00  0.00     0.029 A 
ATOM     35  C   UNL A   1      45.733  28.319  31.449  1.00  0.00     0.049 A 
ATOM     36  H   UNL A   1      43.749  28.479  30.751  1.00  0.00     0.167 HD
ATOM     37  C   UNL A   1      45.320  26.148  30.319  1.00  0.00     0.074 A 
ATOM     38  C   UNL A   1      45.722  24.827  29.877  1.00  0.00     0.031 C 
ATOM     39  C   UNL A   1      46.119  27.002  31.004  1.00  0.00     0.031 A 
BRANCH  26  40
ATOM     40  C   UNL A   1      43.488  32.447  32.314  1.00  0.00    -0.014 A 
ATOM     41  C   UNL A   1      44.005  33.508  31.549  1.00  0.00     0.010 A 
ATOM     42  C   UNL A   1      43.105  32.687  33.646  1.00  0.00     0.010 A 
ATOM     43  C   UNL A   1      44.191  34.769  32.124  1.00  0.00     0.020 A 
ATOM     44  C   UNL A   1      43.267  33.951  34.218  1.00  0.00     0.020 A 
ATOM     45  C   UNL A   1      43.835  34.978  33.460  1.00  0.00     0.054 A 
BRANCH  45  46
ATOM     46  S   UNL A   1      44.114  36.613  34.196  1.00  0.00     0.124 S 
ATOM     47  O   UNL A   1      44.984  37.241  33.205  1.00  0.00    -0.237 OA
ATOM     48  O   UNL A   1      42.764  37.164  34.284  1.00  0.00    -0.237 OA
ATOM     49  O   UNL A   1      44.744  36.312  35.479  1.00  0.00    -0.744 OA
ENDBRANCH  45  46
ENDBRANCH  26  40
BRANCH  27  50
ATOM     50  C   UNL A   1      42.159  23.561  27.958  1.00  0.00    -0.014 A 
ATOM     51  C   UNL A   1      42.580  23.395  26.629  1.00  0.00     0.010 A 
ATOM     52  C   UNL A   1      41.631  22.459  28.656  1.00  0.00     0.010 A 
ATOM     53  C   UNL A   1      42.491  22.144  26.012  1.00  0.00     0.020 A 
ATOM     54  C   UNL A   1      41.560  21.202  28.050  1.00  0.00     0.020 A 
ATOM     55  C   UNL A   1      41.990  21.053  26.730  1.00  0.00     0.054 A 
BRANCH  55  56
ATOM     56  S   UNL A   1      41.989  19.415  25.949  1.00  0.00     0.124 S 
ATOM     57  O   UNL A   1      42.887  19.618  24.816  1.00  0.00    -0.237 OA
ATOM     58  O   UNL A   1      42.499  18.555  27.014  1.00  0.00    -0.237 OA
ATOM     59  O   UNL A   1      40.584  19.202  25.607  1.00  0.00    -0.744 OA
ENDBRANCH  55  56
ENDBRANCH  27  50
BRANCH  39  60
ATOM     60  C   UNL A   1      47.503  26.532  31.354  1.00  0.00    -0.014 A 
ATOM     61  C   UNL A   1      47.778  25.954  32.606  1.00  0.00     0.010 A 
ATOM     62  C   UNL A   1      48.518  26.590  30.382  1.00  0.00     0.010 A 
ATOM     63  C   UNL A   1      49.051  25.447  32.881  1.00  0.00     0.020 A 
ATOM     64  C   UNL A   1      49.786  26.068  30.648  1.00  0.00     0.020 A 
ATOM     65  C   UNL A   1      50.046  25.504  31.899  1.00  0.00     0.054 A 
BRANCH  65  66
ATOM     66  S   UNL A   1      51.667  24.768  32.249  1.00  0.00     0.124 S 
ATOM     67  O   UNL A   1      52.524  25.444  31.279  1.00  0.00    -0.237 OA
ATOM     68  O   UNL A   1      51.892  25.131  33.646  1.00  0.00    -0.237 OA
ATOM     69  O   UNL A   1      51.457  23.342  32.010  1.00  0.00    -0.744 OA
ENDBRANCH  65  66
ENDBRANCH  39  60
ENDBRANCH  13  14
ENDBRANCH   6   8
ENDBRANCH   3   4
ENDBRANCH   2   3
ENDBRANCH   1   2
BRANCH   1  70
ATOM     70  C   UNL A   1      31.086  28.962  24.351  1.00  0.00     0.002 C 
BRANCH  70  71
ATOM     71  C   UNL A   1      30.556  28.536  22.977  1.00  0.00     0.021 C 
BRANCH  71  72
ATOM     72  C   UNL A   1      30.669  27.038  22.694  1.00  0.00     0.116 C 
BRANCH  72  73
ATOM     73  N   UNL A   1      31.576  26.764  21.592  1.00  0.00    -0.356 N 
ATOM     74  C   UNL A   1      32.525  25.774  21.502  1.00  0.00     0.225 C 
ATOM     75  H   UNL A   1      31.501  27.363  20.814  1.00  0.00     0.163 HD
ATOM     76  O   UNL A   1      33.218  25.721  20.483  1.00  0.00    -0.275 OA
BRANCH  74  77
ATOM     77  C   UNL A   1      32.654  24.808  22.682  1.00  0.00     0.109 C 
ATOM     78  C   UNL A   1      32.981  23.335  22.355  1.00  0.00     0.117 C 
ATOM     79  C   UNL A   1      33.977  24.756  23.472  1.00  0.00     0.117 C 
ATOM     80  N   UNL A   1      33.811  23.258  23.615  1.00  0.00    -0.196 NA
BRANCH  80  81
ATOM     81  S   UNL A   1      33.137  22.527  25.016  1.00  0.00     0.243 S 
ATOM     82  O   UNL A   1      33.923  22.943  26.158  1.00  0.00    -0.207 OA
ATOM     83  O   UNL A   1      31.707  22.745  24.968  1.00  0.00    -0.207 OA
BRANCH  81  84
ATOM     84  C   UNL A   1      33.441  20.798  24.758  1.00  0.00     0.082 A 
ATOM     85  C   UNL A   1      32.406  19.980  24.290  1.00  0.00     0.025 A 
ATOM     86  C   UNL A   1      34.733  20.287  24.930  1.00  0.00     0.025 A 
ATOM     87  C   UNL A   1      32.662  18.636  24.016  1.00  0.00     0.040 A 
ATOM     88  C   UNL A   1      34.985  18.945  24.641  1.00  0.00     0.040 A 
ATOM     89  C   UNL A   1      33.948  18.133  24.191  1.00  0.00     0.123 A 
ATOM     90  F   UNL A   1      34.193  16.847  23.907  1.00  0.00    -0.207 F 
ENDBRANCH  81  84
ENDBRANCH  80  81
ENDBRANCH  74  77
ENDBRANCH  72  73
ENDBRANCH  71  72
ENDBRANCH  70  71
ENDBRANCH   1  70
TORSDOF 18
ENDMDL
MODEL 3
REMARK VINA RESULT:     -10.1      2.966      9.070
REMARK SMILES O=C(NCCCCCCNC(=O)C1CN(S(=O)(=O)c2ccc(F)cc2)C1)c1ccc(-c2c3nc(c(-c4ccc(S(=O)(=O)[O-])cc4)c4ccc([nH]4)c(-c4ccc(S(=O)(=O)[O-])cc4)c4nc(c(-c5ccc(S(=O)(=O)[O-])cc5)c5ccc2[nH]5)C=C4)C=C3)cc1
REMARK SMILES IDX 6 1 5 2 4 3 3 4 1 5 2 6 27 8 28 9 86 10 29 11 85 12 30 13
REMARK SMILES IDX 31 14 32 15 79 16 33 17 84 18 78 19 80 20 34 21 83 22 77 23
REMARK SMILES IDX 76 24 35 26 65 27 46 28 64 29 47 30 50 31 63 32 81 33 48 34
REMARK SMILES IDX 49 35 62 37 82 38 51 39 36 40 37 41 45 42 38 43 44 44 39 45
REMARK SMILES IDX 40 46 41 47 42 48 43 49 66 50 67 51 75 52 68 53 74 54 69 55
REMARK SMILES IDX 70 56 71 57 72 58 73 59 52 60 53 61 61 62 54 63 60 64 55 65
REMARK SMILES IDX 56 66 57 67 58 68 59 69 7 70 8 71 9 72 10 73 11 74 12 76
REMARK SMILES IDX 13 77 14 78 26 79 15 80 16 81 17 82 18 83 19 84 20 85 25 86
REMARK SMILES IDX 21 87 24 88 22 89 23 90
REMARK H PARENT 3 7 80 25 50 36 10 75
REMARK Flexibility Score: inf
ROOT
ATOM      1  C   UNL A   1      36.138  23.116  23.864  1.00  0.00     0.002 C 
ENDROOT
BRANCH   1   2
ATOM      2  C   UNL A   1      35.907  24.065  25.044  1.00  0.00     0.021 C 
BRANCH   2   3
ATOM      3  C   UNL A   1      36.370  23.533  26.398  1.00  0.00     0.116 C 
BRANCH   3   4
ATOM      4  N   UNL A   1      37.376  22.495  26.259  1.00  0.00    -0.352 N 
ATOM      5  O   UNL A   1      39.432  21.639  25.938  1.00  0.00    -0.269 OA
ATOM      6  C   UNL A   1      38.744  22.598  26.278  1.00  0.00     0.251 C 
ATOM      7  H   UNL A   1      37.026  21.584  26.132  1.00  0.00     0.163 HD
BRANCH   6   8
ATOM      8  C   UNL A   1      39.389  23.864  26.690  1.00  0.00     0.039 A 
ATOM      9  C   UNL A   1      39.784  24.814  25.742  1.00  0.00     0.014 A 
ATOM     10  C   UNL A   1      39.558  24.119  28.053  1.00  0.00     0.014 A 
ATOM     11  C   UNL A   1      40.435  25.977  26.153  1.00  0.00     0.010 A 
ATOM     12  C   UNL A   1      40.162  25.309  28.466  1.00  0.00     0.010 A 
ATOM     13  C   UNL A   1      40.623  26.237  27.518  1.00  0.00    -0.014 A 
BRANCH  13  14
ATOM     14  C   UNL A   1      41.256  27.502  27.963  1.00  0.00     0.031 A 
ATOM     15  C   UNL A   1      42.749  27.668  27.915  1.00  0.00     0.074 A 
ATOM     16  C   UNL A   1      40.482  28.489  28.449  1.00  0.00     0.049 A 
ATOM     17  N   UNL A   1      43.478  28.669  28.337  1.00  0.00    -0.248 NA
ATOM     18  C   UNL A   1      43.520  26.565  27.325  1.00  0.00     0.031 C 
ATOM     19  C   UNL A   1      39.021  28.443  28.547  1.00  0.00     0.029 A 
ATOM     20  N   UNL A   1      40.814  29.715  28.966  1.00  0.00    -0.354 N 
ATOM     21  C   UNL A   1      44.797  28.307  28.089  1.00  0.00     0.074 A 
ATOM     22  C   UNL A   1      44.766  26.988  27.492  1.00  0.00     0.031 C 
ATOM     23  C   UNL A   1      38.582  29.590  29.087  1.00  0.00     0.029 A 
ATOM     24  C   UNL A   1      39.731  30.429  29.417  1.00  0.00     0.049 A 
ATOM     25  H   UNL A   1      41.738  30.052  29.007  1.00  0.00     0.167 HD
ATOM     26  C   UNL A   1      45.929  29.009  28.339  1.00  0.00     0.031 A 
ATOM     27  C   UNL A   1      39.663  31.613  30.056  1.00  0.00     0.031 A 
ATOM     28  C   UNL A   1      45.954  30.317  28.940  1.00  0.00     0.049 A 
ATOM     29  C   UNL A   1      40.929  32.365  30.346  1.00  0.00     0.074 A 
ATOM     30  C   UNL A   1      47.049  31.121  29.208  1.00  0.00     0.029 A 
ATOM     31  N   UNL A   1      44.834  31.008  29.377  1.00  0.00    -0.354 N 
ATOM     32  N   UNL A   1      42.165  32.022  30.075  1.00  0.00    -0.248 NA
ATOM     33  C   UNL A   1      40.794  33.661  31.023  1.00  0.00     0.031 C 
ATOM     34  C   UNL A   1      46.592  32.281  29.843  1.00  0.00     0.029 A 
ATOM     35  C   UNL A   1      45.210  32.220  29.929  1.00  0.00     0.049 A 
ATOM     36  H   UNL A   1      43.907  30.684  29.304  1.00  0.00     0.167 HD
ATOM     37  C   UNL A   1      42.957  33.069  30.530  1.00  0.00     0.074 A 
ATOM     38  C   UNL A   1      42.059  34.060  31.091  1.00  0.00     0.031 C 
ATOM     39  C   UNL A   1      44.305  33.198  30.481  1.00  0.00     0.031 A 
BRANCH  26  40
ATOM     40  C   UNL A   1      47.237  28.347  27.998  1.00  0.00    -0.014 A 
ATOM     41  C   UNL A   1      47.847  28.538  26.745  1.00  0.00     0.010 A 
ATOM     42  C   UNL A   1      47.865  27.520  28.946  1.00  0.00     0.010 A 
ATOM     43  C   UNL A   1      49.031  27.867  26.425  1.00  0.00     0.020 A 
ATOM     44  C   UNL A   1      49.061  26.865  28.639  1.00  0.00     0.020 A 
ATOM     45  C   UNL A   1      49.622  27.022  27.369  1.00  0.00     0.054 A 
BRANCH  45  46
ATOM     46  S   UNL A   1      51.141  26.136  26.923  1.00  0.00     0.124 S 
ATOM     47  O   UNL A   1      52.140  26.833  27.728  1.00  0.00    -0.237 OA
ATOM     48  O   UNL A   1      50.850  24.765  27.336  1.00  0.00    -0.237 OA
ATOM     49  O   UNL A   1      51.248  26.338  25.480  1.00  0.00    -0.744 OA
ENDBRANCH  45  46
ENDBRANCH  26  40
BRANCH  27  50
ATOM     50  C   UNL A   1      38.333  32.136  30.462  1.00  0.00    -0.014 A 
ATOM     51  C   UNL A   1      37.758  31.751  31.684  1.00  0.00     0.010 A 
ATOM     52  C   UNL A   1      37.680  33.097  29.665  1.00  0.00     0.010 A 
ATOM     53  C   UNL A   1      36.560  32.330  32.113  1.00  0.00     0.020 A 
ATOM     54  C   UNL A   1      36.494  33.692  30.101  1.00  0.00     0.020 A 
ATOM     55  C   UNL A   1      35.941  33.304  31.323  1.00  0.00     0.054 A 
BRANCH  55  56
ATOM     56  S   UNL A   1      34.448  34.123  31.950  1.00  0.00     0.124 S 
ATOM     57  O   UNL A   1      33.856  33.080  32.782  1.00  0.00    -0.237 OA
ATOM     58  O   UNL A   1      34.995  35.271  32.670  1.00  0.00    -0.237 OA
ATOM     59  O   UNL A   1      33.706  34.457  30.736  1.00  0.00    -0.744 OA
ENDBRANCH  55  56
ENDBRANCH  27  50
BRANCH  39  60
ATOM     60  C   UNL A   1      44.903  34.468  31.018  1.00  0.00    -0.014 A 
ATOM     61  C   UNL A   1      45.054  35.601  30.199  1.00  0.00     0.010 A 
ATOM     62  C   UNL A   1      45.234  34.554  32.382  1.00  0.00     0.010 A 
ATOM     63  C   UNL A   1      45.534  36.798  30.738  1.00  0.00     0.020 A 
ATOM     64  C   UNL A   1      45.696  35.754  32.926  1.00  0.00     0.020 A 
ATOM     65  C   UNL A   1      45.849  36.868  32.099  1.00  0.00     0.054 A 
BRANCH  65  66
ATOM     66  S   UNL A   1      46.393  38.454  32.793  1.00  0.00     0.124 S 
ATOM     67  O   UNL A   1      46.812  39.181  31.598  1.00  0.00    -0.237 OA
ATOM     68  O   UNL A   1      45.183  38.955  33.441  1.00  0.00    -0.237 OA
ATOM     69  O   UNL A   1      47.470  38.079  33.706  1.00  0.00    -0.744 OA
ENDBRANCH  65  66
ENDBRANCH  39  60
ENDBRANCH  13  14
ENDBRANCH   6   8
ENDBRANCH   3   4
ENDBRANCH   2   3
ENDBRANCH   1   2
BRANCH   1  70
ATOM     70  C   UNL A   1      34.954  22.963  22.903  1.00  0.00     0.002 C 
BRANCH  70  71
ATOM     71  C   UNL A   1      33.618  22.598  23.561  1.00  0.00     0.021 C 
BRANCH  71  72
ATOM     72  C   UNL A   1      32.397  23.249  22.914  1.00  0.00     0.116 C 
BRANCH  72  73
ATOM     73  N   UNL A   1      32.737  23.908  21.663  1.00  0.00    -0.356 N 
ATOM     74  C   UNL A   1      32.742  25.255  21.391  1.00  0.00     0.225 C 
ATOM     75  H   UNL A   1      32.993  23.316  20.920  1.00  0.00     0.163 HD
ATOM     76  O   UNL A   1      33.040  25.618  20.249  1.00  0.00    -0.275 OA
BRANCH  74  77
ATOM     77  C   UNL A   1      32.373  26.210  22.528  1.00  0.00     0.109 C 
ATOM     78  C   UNL A   1      33.498  26.612  23.506  1.00  0.00     0.117 C 
ATOM     79  C   UNL A   1      32.299  27.724  22.246  1.00  0.00     0.117 C 
ATOM     80  N   UNL A   1      32.885  27.988  23.617  1.00  0.00    -0.196 NA
BRANCH  80  81
ATOM     81  S   UNL A   1      31.915  28.363  24.985  1.00  0.00     0.243 S 
ATOM     82  O   UNL A   1      30.926  29.338  24.578  1.00  0.00    -0.207 OA
ATOM     83  O   UNL A   1      31.528  27.108  25.593  1.00  0.00    -0.207 OA
BRANCH  81  84
ATOM     84  C   UNL A   1      33.052  29.178  26.077  1.00  0.00     0.082 A 
ATOM     85  C   UNL A   1      32.707  30.417  26.630  1.00  0.00     0.025 A 
ATOM     86  C   UNL A   1      34.236  28.534  26.454  1.00  0.00     0.025 A 
ATOM     87  C   UNL A   1      33.566  31.025  27.546  1.00  0.00     0.040 A 
ATOM     88  C   UNL A   1      35.083  29.141  27.381  1.00  0.00     0.040 A 
ATOM     89  C   UNL A   1      34.743  30.380  27.914  1.00  0.00     0.123 A 
ATOM     90  F   UNL A   1      35.555  30.958  28.810  1.00  0.00    -0.207 F 
ENDBRANCH  81  84
ENDBRANCH  80  81
ENDBRANCH  74  77
ENDBRANCH  72  73
ENDBRANCH  71  72
ENDBRANCH  70  71
ENDBRANCH   1  70
TORSDOF 18
ENDMDL
