MODEL 1
REMARK VINA RESULT:      -9.8      0.000      0.000
REMARK SMILES CC[C@@H]1CC[C@](O)([C@H](F)C(=O)NCCCCCCNC(=O)c2ccc(-c3c4nc(c(-c5ccc(S(=O)(=O)[O-])cc5)c5ccc([nH]5)c(-c5ccc(S(=O)(=O)[O-])cc5)c5nc(c(-c6ccc(S(=O)(=O)[O-])cc6)c6ccc3[nH]6)C=C5)C=C4)cc2)C1
REMARK SMILES IDX 16 1 15 2 14 3 13 4 12 5 10 6 11 7 8 9 9 10 6 11 3 12 4 13
REMARK SMILES IDX 82 14 5 15 2 16 1 17 7 18 17 20 18 21 19 22 20 23 21 25
REMARK SMILES IDX 22 26 23 27 81 28 24 29 80 30 25 31 26 32 27 33 74 34 28 35
REMARK SMILES IDX 79 36 73 37 75 38 29 39 78 40 72 41 71 42 30 44 60 45 41 46
REMARK SMILES IDX 59 47 42 48 45 49 58 50 76 51 43 52 44 53 57 55 77 56 46 57
REMARK SMILES IDX 31 58 32 59 40 60 33 61 39 62 34 63 35 64 36 65 37 66 38 67
REMARK SMILES IDX 61 68 62 69 70 70 63 71 69 72 64 73 65 74 66 75 67 76 68 77
REMARK SMILES IDX 47 78 48 79 56 80 49 81 55 82 50 83 51 84 52 85 53 86 54 87
REMARK H PARENT 12 8 7 19 19 24 75 43 45 54
REMARK Flexibility Score: inf
ROOT
ATOM      1  C   UNL A   1      31.631  27.720  26.389  1.00  0.00     0.002 C 
ENDROOT
BRANCH   1   2
ATOM      2  C   UNL A   1      31.290  27.716  24.895  1.00  0.00     0.002 C 
BRANCH   2   3
ATOM      3  C   UNL A   1      30.180  26.751  24.465  1.00  0.00     0.021 C 
BRANCH   3   4
ATOM      4  C   UNL A   1      30.625  25.612  23.555  1.00  0.00     0.116 C 
BRANCH   4   5
ATOM      5  N   UNL A   1      31.662  26.011  22.623  1.00  0.00    -0.353 N 
ATOM      6  C   UNL A   1      32.800  25.343  22.267  1.00  0.00     0.257 C 
ATOM      7  O   UNL A   1      33.467  25.806  21.337  1.00  0.00    -0.272 OA
ATOM      8  H   UNL A   1      31.528  26.884  22.187  1.00  0.00     0.163 HD
BRANCH   6   9
ATOM      9  C   UNL A   1      33.203  24.050  22.972  1.00  0.00     0.286 C 
ATOM     10  F   UNL A   1      33.637  23.101  22.081  1.00  0.00    -0.234 F 
BRANCH   9  11
ATOM     11  C   UNL A   1      34.228  24.194  24.128  1.00  0.00     0.105 C 
ATOM     12  C   UNL A   1      36.072  23.117  25.398  1.00  0.00    -0.008 C 
ATOM     13  C   UNL A   1      34.934  23.535  26.338  1.00  0.00     0.007 C 
ATOM     14  C   UNL A   1      35.602  23.515  23.971  1.00  0.00     0.042 C 
ATOM     15  C   UNL A   1      33.701  23.632  25.453  1.00  0.00     0.039 C 
BRANCH  12  16
ATOM     16  C   UNL A   1      36.554  21.646  25.466  1.00  0.00     0.000 C 
ATOM     17  C   UNL A   1      35.613  20.576  24.935  1.00  0.00     0.004 C 
ENDBRANCH  12  16
BRANCH  11  18
ATOM     18  O   UNL A   1      34.464  25.610  24.317  1.00  0.00    -0.386 OA
ATOM     19  H   UNL A   1      33.614  26.074  24.378  1.00  0.00     0.211 HD
ENDBRANCH  11  18
ENDBRANCH   9  11
ENDBRANCH   6   9
ENDBRANCH   4   5
ENDBRANCH   3   4
ENDBRANCH   2   3
ENDBRANCH   1   2
BRANCH   1  20
ATOM     20  C   UNL A   1      33.118  27.597  26.728  1.00  0.00     0.021 C 
BRANCH  20  21
ATOM     21  C   UNL A   1      33.992  28.747  26.238  1.00  0.00     0.116 C 
BRANCH  21  22
ATOM     22  N   UNL A   1      33.754  29.983  26.965  1.00  0.00    -0.352 N 
ATOM     23  C   UNL A   1      34.540  30.598  27.907  1.00  0.00     0.251 C 
ATOM     24  H   UNL A   1      32.910  30.443  26.753  1.00  0.00     0.163 HD
ATOM     25  O   UNL A   1      34.108  31.566  28.530  1.00  0.00    -0.269 OA
BRANCH  23  26
ATOM     26  C   UNL A   1      35.895  30.078  28.189  1.00  0.00     0.039 A 
ATOM     27  C   UNL A   1      36.853  30.101  27.173  1.00  0.00     0.014 A 
ATOM     28  C   UNL A   1      36.224  29.575  29.452  1.00  0.00     0.014 A 
ATOM     29  C   UNL A   1      38.157  29.680  27.441  1.00  0.00     0.010 A 
ATOM     30  C   UNL A   1      37.542  29.230  29.739  1.00  0.00     0.010 A 
ATOM     31  C   UNL A   1      38.523  29.274  28.735  1.00  0.00    -0.014 A 
BRANCH  31  32
ATOM     32  C   UNL A   1      39.921  28.887  29.056  1.00  0.00     0.031 A 
ATOM     33  C   UNL A   1      40.847  29.875  29.714  1.00  0.00     0.074 A 
ATOM     34  C   UNL A   1      40.372  27.663  28.711  1.00  0.00     0.049 A 
ATOM     35  N   UNL A   1      42.112  29.740  30.023  1.00  0.00    -0.248 NA
ATOM     36  C   UNL A   1      40.286  31.195  30.050  1.00  0.00     0.031 C 
ATOM     37  C   UNL A   1      39.582  26.625  28.044  1.00  0.00     0.029 A 
ATOM     38  N   UNL A   1      41.605  27.085  28.874  1.00  0.00    -0.354 N 
ATOM     39  C   UNL A   1      42.496  30.953  30.583  1.00  0.00     0.074 A 
ATOM     40  C   UNL A   1      41.350  31.832  30.514  1.00  0.00     0.031 C 
ATOM     41  C   UNL A   1      40.340  25.529  27.886  1.00  0.00     0.029 A 
ATOM     42  C   UNL A   1      41.682  25.797  28.395  1.00  0.00     0.049 A 
ATOM     43  H   UNL A   1      42.366  27.547  29.295  1.00  0.00     0.167 HD
ATOM     44  C   UNL A   1      43.687  31.297  31.130  1.00  0.00     0.031 A 
ATOM     45  C   UNL A   1      42.714  24.934  28.362  1.00  0.00     0.031 A 
ATOM     46  C   UNL A   1      44.826  30.420  31.197  1.00  0.00     0.049 A 
ATOM     47  C   UNL A   1      44.042  25.358  28.934  1.00  0.00     0.074 A 
ATOM     48  C   UNL A   1      46.067  30.665  31.757  1.00  0.00     0.029 A 
ATOM     49  N   UNL A   1      44.864  29.131  30.691  1.00  0.00    -0.354 N 
ATOM     50  N   UNL A   1      44.369  26.492  29.505  1.00  0.00    -0.248 NA
ATOM     51  C   UNL A   1      45.135  24.378  28.867  1.00  0.00     0.031 C 
ATOM     52  C   UNL A   1      46.874  29.543  31.540  1.00  0.00     0.029 A 
ATOM     53  C   UNL A   1      46.114  28.575  30.906  1.00  0.00     0.049 A 
ATOM     54  H   UNL A   1      44.113  28.677  30.243  1.00  0.00     0.167 HD
ATOM     55  C   UNL A   1      45.696  26.348  29.898  1.00  0.00     0.074 A 
ATOM     56  C   UNL A   1      46.104  25.013  29.512  1.00  0.00     0.031 C 
ATOM     57  C   UNL A   1      46.503  27.240  30.524  1.00  0.00     0.031 A 
BRANCH  44  58
ATOM     58  C   UNL A   1      43.814  32.685  31.704  1.00  0.00    -0.014 A 
ATOM     59  C   UNL A   1      44.185  33.773  30.891  1.00  0.00     0.010 A 
ATOM     60  C   UNL A   1      43.517  32.917  33.059  1.00  0.00     0.010 A 
ATOM     61  C   UNL A   1      44.296  35.057  31.431  1.00  0.00     0.020 A 
ATOM     62  C   UNL A   1      43.595  34.206  33.596  1.00  0.00     0.020 A 
ATOM     63  C   UNL A   1      44.000  35.265  32.782  1.00  0.00     0.054 A 
BRANCH  63  64
ATOM     64  S   UNL A   1      44.126  36.947  33.445  1.00  0.00     0.124 S 
ATOM     65  O   UNL A   1      45.193  36.802  34.433  1.00  0.00    -0.237 OA
ATOM     66  O   UNL A   1      44.468  37.732  32.262  1.00  0.00    -0.237 OA
ATOM     67  O   UNL A   1      42.798  37.204  33.999  1.00  0.00    -0.744 OA
ENDBRANCH  63  64
ENDBRANCH  44  58
BRANCH  45  68
ATOM     68  C   UNL A   1      42.540  23.575  27.773  1.00  0.00    -0.014 A 
ATOM     69  C   UNL A   1      42.077  22.508  28.565  1.00  0.00     0.010 A 
ATOM     70  C   UNL A   1      42.852  23.336  26.423  1.00  0.00     0.010 A 
ATOM     71  C   UNL A   1      41.962  21.223  28.025  1.00  0.00     0.020 A 
ATOM     72  C   UNL A   1      42.706  22.061  25.871  1.00  0.00     0.020 A 
ATOM     73  C   UNL A   1      42.279  21.008  26.682  1.00  0.00     0.054 A 
BRANCH  73  74
ATOM     74  S   UNL A   1      42.098  19.337  25.997  1.00  0.00     0.124 S 
ATOM     75  O   UNL A   1      40.669  19.281  25.707  1.00  0.00    -0.237 OA
ATOM     76  O   UNL A   1      42.980  19.377  24.834  1.00  0.00    -0.237 OA
ATOM     77  O   UNL A   1      42.551  18.472  27.084  1.00  0.00    -0.744 OA
ENDBRANCH  73  74
ENDBRANCH  45  68
BRANCH  57  78
ATOM     78  C   UNL A   1      47.897  26.788  30.876  1.00  0.00    -0.014 A 
ATOM     79  C   UNL A   1      48.985  27.033  30.022  1.00  0.00     0.010 A 
ATOM     80  C   UNL A   1      48.124  26.155  32.112  1.00  0.00     0.010 A 
ATOM     81  C   UNL A   1      50.272  26.620  30.382  1.00  0.00     0.020 A 
ATOM     82  C   UNL A   1      49.413  25.770  32.491  1.00  0.00     0.020 A 
ATOM     83  C   UNL A   1      50.477  25.993  31.616  1.00  0.00     0.054 A 
BRANCH  83  84
ATOM     84  S   UNL A   1      52.163  25.510  32.078  1.00  0.00     0.124 S 
ATOM     85  O   UNL A   1      52.005  24.086  32.358  1.00  0.00    -0.237 OA
ATOM     86  O   UNL A   1      52.928  25.834  30.877  1.00  0.00    -0.237 OA
ATOM     87  O   UNL A   1      52.457  26.344  33.241  1.00  0.00    -0.744 OA
ENDBRANCH  83  84
ENDBRANCH  57  78
ENDBRANCH  31  32
ENDBRANCH  23  26
ENDBRANCH  21  22
ENDBRANCH  20  21
ENDBRANCH   1  20
TORSDOF 19
ENDMDL
MODEL 2
REMARK VINA RESULT:      -9.7      1.127      1.592
REMARK SMILES CC[C@@H]1CC[C@](O)([C@H](F)C(=O)NCCCCCCNC(=O)c2ccc(-c3c4nc(c(-c5ccc(S(=O)(=O)[O-])cc5)c5ccc([nH]5)c(-c5ccc(S(=O)(=O)[O-])cc5)c5nc(c(-c6ccc(S(=O)(=O)[O-])cc6)c6ccc3[nH]6)C=C5)C=C4)cc2)C1
REMARK SMILES IDX 16 1 15 2 14 3 13 4 12 5 10 6 11 7 8 9 9 10 6 11 3 12 4 13
REMARK SMILES IDX 82 14 5 15 2 16 1 17 7 18 17 20 18 21 19 22 20 23 21 25
REMARK SMILES IDX 22 26 23 27 81 28 24 29 80 30 25 31 26 32 27 33 74 34 28 35
REMARK SMILES IDX 79 36 73 37 75 38 29 39 78 40 72 41 71 42 30 44 60 45 41 46
REMARK SMILES IDX 59 47 42 48 45 49 58 50 76 51 43 52 44 53 57 55 77 56 46 57
REMARK SMILES IDX 31 58 32 59 40 60 33 61 39 62 34 63 35 64 36 65 37 66 38 67
REMARK SMILES IDX 61 68 62 69 70 70 63 71 69 72 64 73 65 74 66 75 67 76 68 77
REMARK SMILES IDX 47 78 48 79 56 80 49 81 55 82 50 83 51 84 52 85 53 86 54 87
REMARK H PARENT 12 8 7 19 19 24 75 43 45 54
REMARK Flexibility Score: inf
ROOT
ATOM      1  C   UNL A   1      31.952  27.764  26.932  1.00  0.00     0.002 C 
ENDROOT
BRANCH   1   2
ATOM      2  C   UNL A   1      30.968  26.717  26.401  1.00  0.00     0.002 C 
BRANCH   2   3
ATOM      3  C   UNL A   1      30.697  26.758  24.893  1.00  0.00     0.021 C 
BRANCH   3   4
ATOM      4  C   UNL A   1      31.198  25.550  24.109  1.00  0.00     0.116 C 
BRANCH   4   5
ATOM      5  N   UNL A   1      30.769  24.291  24.685  1.00  0.00    -0.353 N 
ATOM      6  C   UNL A   1      31.473  23.422  25.469  1.00  0.00     0.257 C 
ATOM      7  O   UNL A   1      30.856  22.479  25.974  1.00  0.00    -0.272 OA
ATOM      8  H   UNL A   1      29.842  24.025  24.483  1.00  0.00     0.163 HD
BRANCH   6   9
ATOM      9  C   UNL A   1      32.961  23.637  25.739  1.00  0.00     0.286 C 
ATOM     10  F   UNL A   1      33.286  23.353  27.041  1.00  0.00    -0.234 F 
BRANCH   9  11
ATOM     11  C   UNL A   1      33.941  22.908  24.781  1.00  0.00     0.105 C 
ATOM     12  C   UNL A   1      36.243  22.031  24.460  1.00  0.00    -0.008 C 
ATOM     13  C   UNL A   1      35.878  23.025  23.351  1.00  0.00     0.007 C 
ATOM     14  C   UNL A   1      35.004  21.980  25.398  1.00  0.00     0.042 C 
ATOM     15  C   UNL A   1      34.764  23.882  23.932  1.00  0.00     0.039 C 
BRANCH  12  16
ATOM     16  C   UNL A   1      37.558  22.279  25.241  1.00  0.00     0.000 C 
ATOM     17  C   UNL A   1      37.719  23.624  25.931  1.00  0.00     0.004 C 
ENDBRANCH  12  16
BRANCH  11  18
ATOM     18  O   UNL A   1      33.141  22.109  23.877  1.00  0.00    -0.386 OA
ATOM     19  H   UNL A   1      32.515  22.682  23.406  1.00  0.00     0.211 HD
ENDBRANCH  11  18
ENDBRANCH   9  11
ENDBRANCH   6   9
ENDBRANCH   4   5
ENDBRANCH   3   4
ENDBRANCH   2   3
ENDBRANCH   1   2
BRANCH   1  20
ATOM     20  C   UNL A   1      33.412  27.570  26.520  1.00  0.00     0.021 C 
BRANCH  20  21
ATOM     21  C   UNL A   1      34.082  28.795  25.907  1.00  0.00     0.116 C 
BRANCH  21  22
ATOM     22  N   UNL A   1      33.807  30.015  26.648  1.00  0.00    -0.352 N 
ATOM     23  C   UNL A   1      34.540  30.604  27.648  1.00  0.00     0.251 C 
ATOM     24  H   UNL A   1      32.979  30.484  26.398  1.00  0.00     0.163 HD
ATOM     25  O   UNL A   1      34.075  31.559  28.268  1.00  0.00    -0.269 OA
BRANCH  23  26
ATOM     26  C   UNL A   1      35.874  30.069  27.997  1.00  0.00     0.039 A 
ATOM     27  C   UNL A   1      36.901  30.149  27.054  1.00  0.00     0.014 A 
ATOM     28  C   UNL A   1      36.115  29.499  29.250  1.00  0.00     0.014 A 
ATOM     29  C   UNL A   1      38.184  29.714  27.390  1.00  0.00     0.010 A 
ATOM     30  C   UNL A   1      37.411  29.139  29.610  1.00  0.00     0.010 A 
ATOM     31  C   UNL A   1      38.460  29.238  28.682  1.00  0.00    -0.014 A 
BRANCH  31  32
ATOM     32  C   UNL A   1      39.833  28.836  29.079  1.00  0.00     0.031 A 
ATOM     33  C   UNL A   1      40.722  29.802  29.817  1.00  0.00     0.074 A 
ATOM     34  C   UNL A   1      40.300  27.618  28.733  1.00  0.00     0.049 A 
ATOM     35  N   UNL A   1      41.964  29.651  30.200  1.00  0.00    -0.248 NA
ATOM     36  C   UNL A   1      40.147  31.116  30.150  1.00  0.00     0.031 C 
ATOM     37  C   UNL A   1      39.547  26.600  27.993  1.00  0.00     0.029 A 
ATOM     38  N   UNL A   1      41.518  27.028  28.958  1.00  0.00    -0.354 N 
ATOM     39  C   UNL A   1      42.319  30.848  30.813  1.00  0.00     0.074 A 
ATOM     40  C   UNL A   1      41.183  31.736  30.694  1.00  0.00     0.031 C 
ATOM     41  C   UNL A   1      40.309  25.504  27.856  1.00  0.00     0.029 A 
ATOM     42  C   UNL A   1      41.617  25.752  28.453  1.00  0.00     0.049 A 
ATOM     43  H   UNL A   1      42.253  27.475  29.436  1.00  0.00     0.167 HD
ATOM     44  C   UNL A   1      43.475  31.172  31.441  1.00  0.00     0.031 A 
ATOM     45  C   UNL A   1      42.646  24.883  28.462  1.00  0.00     0.031 A 
ATOM     46  C   UNL A   1      44.603  30.287  31.557  1.00  0.00     0.049 A 
ATOM     47  C   UNL A   1      43.938  25.285  29.126  1.00  0.00     0.074 A 
ATOM     48  C   UNL A   1      45.809  30.510  32.198  1.00  0.00     0.029 A 
ATOM     49  N   UNL A   1      44.667  29.009  31.022  1.00  0.00    -0.354 N 
ATOM     50  N   UNL A   1      44.234  26.403  29.744  1.00  0.00    -0.248 NA
ATOM     51  C   UNL A   1      45.028  24.301  29.103  1.00  0.00     0.031 C 
ATOM     52  C   UNL A   1      46.622  29.389  32.004  1.00  0.00     0.029 A 
ATOM     53  C   UNL A   1      45.898  28.441  31.300  1.00  0.00     0.049 A 
ATOM     54  H   UNL A   1      43.943  28.571  30.518  1.00  0.00     0.167 HD
ATOM     55  C   UNL A   1      45.533  26.242  30.214  1.00  0.00     0.074 A 
ATOM     56  C   UNL A   1      45.958  24.914  29.822  1.00  0.00     0.031 C 
ATOM     57  C   UNL A   1      46.304  27.113  30.910  1.00  0.00     0.031 A 
BRANCH  44  58
ATOM     58  C   UNL A   1      43.573  32.545  32.055  1.00  0.00    -0.014 A 
ATOM     59  C   UNL A   1      43.209  32.764  33.397  1.00  0.00     0.010 A 
ATOM     60  C   UNL A   1      44.076  33.619  31.300  1.00  0.00     0.010 A 
ATOM     61  C   UNL A   1      43.307  34.040  33.959  1.00  0.00     0.020 A 
ATOM     62  C   UNL A   1      44.207  34.891  31.869  1.00  0.00     0.020 A 
ATOM     63  C   UNL A   1      43.806  35.096  33.190  1.00  0.00     0.054 A 
BRANCH  63  64
ATOM     64  S   UNL A   1      43.948  36.732  33.958  1.00  0.00     0.124 S 
ATOM     65  O   UNL A   1      45.359  36.767  34.335  1.00  0.00    -0.237 OA
ATOM     66  O   UNL A   1      43.567  37.629  32.870  1.00  0.00    -0.237 OA
ATOM     67  O   UNL A   1      43.007  36.675  35.075  1.00  0.00    -0.744 OA
ENDBRANCH  63  64
ENDBRANCH  44  58
BRANCH  45  68
ATOM     68  C   UNL A   1      42.502  23.540  27.831  1.00  0.00    -0.014 A 
ATOM     69  C   UNL A   1      41.936  22.471  28.549  1.00  0.00     0.010 A 
ATOM     70  C   UNL A   1      42.946  23.318  26.516  1.00  0.00     0.010 A 
ATOM     71  C   UNL A   1      41.848  21.199  27.974  1.00  0.00     0.020 A 
ATOM     72  C   UNL A   1      42.829  22.057  25.925  1.00  0.00     0.020 A 
ATOM     73  C   UNL A   1      42.296  21.000  26.666  1.00  0.00     0.054 A 
BRANCH  73  74
ATOM     74  S   UNL A   1      42.149  19.348  25.932  1.00  0.00     0.124 S 
ATOM     75  O   UNL A   1      40.712  19.246  25.700  1.00  0.00    -0.237 OA
ATOM     76  O   UNL A   1      42.978  19.460  24.734  1.00  0.00    -0.237 OA
ATOM     77  O   UNL A   1      42.681  18.465  26.968  1.00  0.00    -0.744 OA
ENDBRANCH  73  74
ENDBRANCH  45  68
BRANCH  57  78
ATOM     78  C   UNL A   1      47.671  26.645  31.337  1.00  0.00    -0.014 A 
ATOM     79  C   UNL A   1      48.818  26.940  30.581  1.00  0.00     0.010 A 
ATOM     80  C   UNL A   1      47.812  25.940  32.548  1.00  0.00     0.010 A 
ATOM     81  C   UNL A   1      50.077  26.510  31.009  1.00  0.00     0.020 A 
ATOM     82  C   UNL A   1      49.072  25.537  32.997  1.00  0.00     0.020 A 
ATOM     83  C   UNL A   1      50.196  25.813  32.217  1.00  0.00     0.054 A 
BRANCH  83  84
ATOM     84  S   UNL A   1      51.846  25.307  32.772  1.00  0.00     0.124 S 
ATOM     85  O   UNL A   1      52.052  26.164  33.936  1.00  0.00    -0.237 OA
ATOM     86  O   UNL A   1      51.664  23.887  33.062  1.00  0.00    -0.237 OA
ATOM     87  O   UNL A   1      52.703  25.599  31.625  1.00  0.00    -0.744 OA
ENDBRANCH  83  84
ENDBRANCH  57  78
ENDBRANCH  31  32
ENDBRANCH  23  26
ENDBRANCH  21  22
ENDBRANCH  20  21
ENDBRANCH   1  20
TORSDOF 19
ENDMDL
MODEL 3
REMARK VINA RESULT:      -9.3      2.791      3.493
REMARK SMILES CC[C@@H]1CC[C@](O)([C@H](F)C(=O)NCCCCCCNC(=O)c2ccc(-c3c4nc(c(-c5ccc(S(=O)(=O)[O-])cc5)c5ccc([nH]5)c(-c5ccc(S(=O)(=O)[O-])cc5)c5nc(c(-c6ccc(S(=O)(=O)[O-])cc6)c6ccc3[nH]6)C=C5)C=C4)cc2)C1
REMARK SMILES IDX 16 1 15 2 14 3 13 4 12 5 10 6 11 7 8 9 9 10 6 11 3 12 4 13
REMARK SMILES IDX 82 14 5 15 2 16 1 17 7 18 17 20 18 21 19 22 20 23 21 25
REMARK SMILES IDX 22 26 23 27 81 28 24 29 80 30 25 31 26 32 27 33 74 34 28 35
REMARK SMILES IDX 79 36 73 37 75 38 29 39 78 40 72 41 71 42 30 44 60 45 41 46
REMARK SMILES IDX 59 47 42 48 45 49 58 50 76 51 43 52 44 53 57 55 77 56 46 57
REMARK SMILES IDX 31 58 32 59 40 60 33 61 39 62 34 63 35 64 36 65 37 66 38 67
REMARK SMILES IDX 61 68 62 69 70 70 63 71 69 72 64 73 65 74 66 75 67 76 68 77
REMARK SMILES IDX 47 78 48 79 56 80 49 81 55 82 50 83 51 84 52 85 53 86 54 87
REMARK H PARENT 12 8 7 19 19 24 75 43 45 54
REMARK Flexibility Score: inf
ROOT
ATOM      1  C   UNL A   1      32.110  29.133  24.465  1.00  0.00     0.002 C 
ENDROOT
BRANCH   1   2
ATOM      2  C   UNL A   1      30.634  29.210  24.062  1.00  0.00     0.002 C 
BRANCH   2   3
ATOM      3  C   UNL A   1      30.277  28.592  22.706  1.00  0.00     0.021 C 
BRANCH   3   4
ATOM      4  C   UNL A   1      30.585  27.106  22.567  1.00  0.00     0.116 C 
BRANCH   4   5
ATOM      5  N   UNL A   1      31.548  26.829  21.518  1.00  0.00    -0.353 N 
ATOM      6  C   UNL A   1      32.386  25.758  21.384  1.00  0.00     0.257 C 
ATOM      7  O   UNL A   1      33.016  25.655  20.327  1.00  0.00    -0.272 OA
ATOM      8  H   UNL A   1      31.605  27.505  20.804  1.00  0.00     0.163 HD
BRANCH   6   9
ATOM      9  C   UNL A   1      32.505  24.711  22.489  1.00  0.00     0.286 C 
ATOM     10  F   UNL A   1      32.801  23.472  21.983  1.00  0.00    -0.234 F 
BRANCH   9  11
ATOM     11  C   UNL A   1      33.478  25.052  23.650  1.00  0.00     0.105 C 
ATOM     12  C   UNL A   1      35.046  24.158  25.358  1.00  0.00    -0.008 C 
ATOM     13  C   UNL A   1      33.946  25.001  26.015  1.00  0.00     0.007 C 
ATOM     14  C   UNL A   1      34.725  24.167  23.836  1.00  0.00     0.042 C 
ATOM     15  C   UNL A   1      32.795  25.001  25.021  1.00  0.00     0.039 C 
BRANCH  12  16
ATOM     16  C   UNL A   1      35.271  22.724  25.899  1.00  0.00     0.000 C 
ATOM     17  C   UNL A   1      34.418  22.279  27.077  1.00  0.00     0.004 C 
ENDBRANCH  12  16
BRANCH  11  18
ATOM     18  O   UNL A   1      33.937  26.409  23.440  1.00  0.00    -0.386 OA
ATOM     19  H   UNL A   1      34.344  26.742  24.255  1.00  0.00     0.211 HD
ENDBRANCH  11  18
ENDBRANCH   9  11
ENDBRANCH   6   9
ENDBRANCH   4   5
ENDBRANCH   3   4
ENDBRANCH   2   3
ENDBRANCH   1   2
BRANCH   1  20
ATOM     20  C   UNL A   1      32.378  28.940  25.959  1.00  0.00     0.021 C 
BRANCH  20  21
ATOM     21  C   UNL A   1      33.650  29.601  26.480  1.00  0.00     0.116 C 
BRANCH  21  22
ATOM     22  N   UNL A   1      33.431  30.968  26.923  1.00  0.00    -0.352 N 
ATOM     23  C   UNL A   1      34.141  31.705  27.838  1.00  0.00     0.251 C 
ATOM     24  H   UNL A   1      32.667  31.430  26.510  1.00  0.00     0.163 HD
ATOM     25  O   UNL A   1      33.720  32.801  28.202  1.00  0.00    -0.269 OA
BRANCH  23  26
ATOM     26  C   UNL A   1      35.396  31.165  28.404  1.00  0.00     0.039 A 
ATOM     27  C   UNL A   1      36.596  31.831  28.145  1.00  0.00     0.014 A 
ATOM     28  C   UNL A   1      35.391  30.011  29.194  1.00  0.00     0.014 A 
ATOM     29  C   UNL A   1      37.780  31.377  28.729  1.00  0.00     0.010 A 
ATOM     30  C   UNL A   1      36.558  29.607  29.838  1.00  0.00     0.010 A 
ATOM     31  C   UNL A   1      37.766  30.282  29.609  1.00  0.00    -0.014 A 
BRANCH  31  32
ATOM     32  C   UNL A   1      39.004  29.827  30.292  1.00  0.00     0.031 A 
ATOM     33  C   UNL A   1      39.466  30.507  31.554  1.00  0.00     0.074 A 
ATOM     34  C   UNL A   1      39.740  28.833  29.752  1.00  0.00     0.049 A 
ATOM     35  N   UNL A   1      40.545  30.286  32.262  1.00  0.00    -0.248 NA
ATOM     36  C   UNL A   1      38.617  31.591  32.077  1.00  0.00     0.031 C 
ATOM     37  C   UNL A   1      39.415  28.112  28.518  1.00  0.00     0.029 A 
ATOM     38  N   UNL A   1      40.912  28.257  30.171  1.00  0.00    -0.354 N 
ATOM     39  C   UNL A   1      40.505  31.203  33.307  1.00  0.00     0.074 A 
ATOM     40  C   UNL A   1      39.331  32.023  33.105  1.00  0.00     0.031 C 
ATOM     41  C   UNL A   1      40.347  27.171  28.301  1.00  0.00     0.029 A 
ATOM     42  C   UNL A   1      41.360  27.249  29.348  1.00  0.00     0.049 A 
ATOM     43  H   UNL A   1      41.390  28.538  30.985  1.00  0.00     0.167 HD
ATOM     44  C   UNL A   1      41.353  31.334  34.355  1.00  0.00     0.031 A 
ATOM     45  C   UNL A   1      42.463  26.481  29.424  1.00  0.00     0.031 A 
ATOM     46  C   UNL A   1      42.521  30.517  34.553  1.00  0.00     0.049 A 
ATOM     47  C   UNL A   1      43.416  26.678  30.574  1.00  0.00     0.074 A 
ATOM     48  C   UNL A   1      43.428  30.553  35.597  1.00  0.00     0.029 A 
ATOM     49  N   UNL A   1      42.944  29.517  33.691  1.00  0.00    -0.354 N 
ATOM     50  N   UNL A   1      43.333  27.517  31.578  1.00  0.00    -0.248 NA
ATOM     51  C   UNL A   1      44.605  25.817  30.604  1.00  0.00     0.031 C 
ATOM     52  C   UNL A   1      44.430  29.611  35.339  1.00  0.00     0.029 A 
ATOM     53  C   UNL A   1      44.110  28.942  34.169  1.00  0.00     0.049 A 
ATOM     54  H   UNL A   1      42.483  29.254  32.861  1.00  0.00     0.167 HD
ATOM     55  C   UNL A   1      44.440  27.258  32.379  1.00  0.00     0.074 A 
ATOM     56  C   UNL A   1      45.168  26.176  31.750  1.00  0.00     0.031 C 
ATOM     57  C   UNL A   1      44.819  27.859  33.534  1.00  0.00     0.031 A 
BRANCH  44  58
ATOM     58  C   UNL A   1      41.044  32.403  35.372  1.00  0.00    -0.014 A 
ATOM     59  C   UNL A   1      40.287  32.110  36.521  1.00  0.00     0.010 A 
ATOM     60  C   UNL A   1      41.551  33.704  35.203  1.00  0.00     0.010 A 
ATOM     61  C   UNL A   1      40.009  33.106  37.461  1.00  0.00     0.020 A 
ATOM     62  C   UNL A   1      41.303  34.696  36.157  1.00  0.00     0.020 A 
ATOM     63  C   UNL A   1      40.519  34.394  37.272  1.00  0.00     0.054 A 
BRANCH  63  64
ATOM     64  S   UNL A   1      40.164  35.657  38.523  1.00  0.00     0.124 S 
ATOM     65  O   UNL A   1      39.002  35.089  39.203  1.00  0.00    -0.237 OA
ATOM     66  O   UNL A   1      41.397  35.687  39.306  1.00  0.00    -0.237 OA
ATOM     67  O   UNL A   1      39.897  36.860  37.737  1.00  0.00    -0.744 OA
ENDBRANCH  63  64
ENDBRANCH  44  58
BRANCH  45  68
ATOM     68  C   UNL A   1      42.730  25.444  28.386  1.00  0.00    -0.014 A 
ATOM     69  C   UNL A   1      42.147  24.167  28.486  1.00  0.00     0.010 A 
ATOM     70  C   UNL A   1      43.581  25.721  27.302  1.00  0.00     0.010 A 
ATOM     71  C   UNL A   1      42.438  23.180  27.540  1.00  0.00     0.020 A 
ATOM     72  C   UNL A   1      43.847  24.748  26.335  1.00  0.00     0.020 A 
ATOM     73  C   UNL A   1      43.288  23.476  26.471  1.00  0.00     0.054 A 
BRANCH  73  74
ATOM     74  S   UNL A   1      43.631  22.186  25.242  1.00  0.00     0.124 S 
ATOM     75  O   UNL A   1      45.004  21.816  25.566  1.00  0.00    -0.237 OA
ATOM     76  O   UNL A   1      42.614  21.183  25.547  1.00  0.00    -0.237 OA
ATOM     77  O   UNL A   1      43.452  22.875  23.965  1.00  0.00    -0.744 OA
ENDBRANCH  73  74
ENDBRANCH  45  68
BRANCH  57  78
ATOM     78  C   UNL A   1      46.052  27.332  34.221  1.00  0.00    -0.014 A 
ATOM     79  C   UNL A   1      45.981  26.278  35.149  1.00  0.00     0.010 A 
ATOM     80  C   UNL A   1      47.310  27.868  33.889  1.00  0.00     0.010 A 
ATOM     81  C   UNL A   1      47.143  25.794  35.758  1.00  0.00     0.020 A 
ATOM     82  C   UNL A   1      48.477  27.366  34.469  1.00  0.00     0.020 A 
ATOM     83  C   UNL A   1      48.383  26.340  35.412  1.00  0.00     0.054 A 
BRANCH  83  84
ATOM     84  S   UNL A   1      49.879  25.662  36.182  1.00  0.00     0.124 S 
ATOM     85  O   UNL A   1      50.927  26.492  35.595  1.00  0.00    -0.237 OA
ATOM     86  O   UNL A   1      49.630  25.877  37.605  1.00  0.00    -0.237 OA
ATOM     87  O   UNL A   1      49.883  24.263  35.761  1.00  0.00    -0.744 OA
ENDBRANCH  83  84
ENDBRANCH  57  78
ENDBRANCH  31  32
ENDBRANCH  23  26
ENDBRANCH  21  22
ENDBRANCH  20  21
ENDBRANCH   1  20
TORSDOF 19
ENDMDL
