MODEL 1
REMARK VINA RESULT:     -13.7      0.000      0.000
REMARK SMILES Cc1ccc(S(=O)(=O)n2cc(C(=O)C(=O)N[C@@H](Cc3c[nH]c4ccccc34)C(=O)NCCCCCCNC(=O)c3ccc(-c4c5nc(c(-c6ccc(S(=O)(=O)[O-])cc6)c6ccc([nH]6)c(-c6ccc(S(=O)(=O)[O-])cc6)c6nc(c(-c7ccc(S(=O)(=O)[O-])cc7)c7ccc4[nH]7)C=C6)C=C5)cc3)c3ccccc32)cc1
REMARK SMILES IDX 32 1 31 2 30 3 28 4 29 5 17 7 16 8 14 9 15 10 12 12 13 13
REMARK SMILES IDX 11 14 9 15 10 16 105 17 100 18 104 19 101 20 103 21 102 22
REMARK SMILES IDX 6 23 7 24 8 25 5 26 1 27 2 28 3 29 107 30 4 31 106 32 18 33
REMARK SMILES IDX 19 34 20 35 27 36 21 37 22 38 26 39 23 41 25 42 24 43 33 44
REMARK SMILES IDX 34 45 35 46 36 47 37 48 38 49 39 51 40 52 41 53 99 54 42 55
REMARK SMILES IDX 98 56 43 57 44 58 45 59 92 60 46 61 97 62 91 63 93 64 47 65
REMARK SMILES IDX 96 66 90 67 89 68 48 70 78 71 59 72 77 73 60 74 63 75 76 76
REMARK SMILES IDX 94 77 61 78 62 79 75 81 95 82 64 83 49 84 50 85 58 86 51 87
REMARK SMILES IDX 57 88 52 89 53 90 54 91 55 92 56 93 79 94 80 95 88 96 81 97
REMARK SMILES IDX 87 98 82 99 83 100 84 101 85 102 86 103 65 104 66 105 74 106
REMARK SMILES IDX 67 107 73 108 68 109 69 110 70 111 71 112 72 113
REMARK H PARENT 30 6 16 11 21 40 37 50 93 69 63 80
REMARK Flexibility Score: inf
ROOT
ATOM      1  C   UNL A   1      38.611  24.265  26.711  1.00  0.00     0.021 C 
ENDROOT
BRANCH   1   2
ATOM      2  C   UNL A   1      37.326  23.836  26.013  1.00  0.00     0.116 C 
BRANCH   2   3
ATOM      3  N   UNL A   1      37.438  23.448  24.624  1.00  0.00    -0.354 N 
ATOM      4  C   UNL A   1      36.453  22.963  23.806  1.00  0.00     0.242 C 
ATOM      5  O   UNL A   1      36.532  23.270  22.607  1.00  0.00    -0.273 OA
ATOM      6  H   UNL A   1      38.330  23.544  24.219  1.00  0.00     0.163 HD
BRANCH   4   7
ATOM      7  C   UNL A   1      35.198  22.185  24.312  1.00  0.00     0.176 C 
BRANCH   7   8
ATOM      8  N   UNL A   1      33.984  22.236  23.469  1.00  0.00    -0.337 N 
ATOM      9  C   UNL A   1      32.717  22.738  23.751  1.00  0.00     0.293 C 
ATOM     10  O   UNL A   1      31.775  22.521  22.996  1.00  0.00    -0.265 OA
ATOM     11  H   UNL A   1      34.090  21.857  22.566  1.00  0.00     0.164 HD
BRANCH   9  12
ATOM     12  C   UNL A   1      32.477  23.587  25.007  1.00  0.00     0.252 C 
ATOM     13  O   UNL A   1      31.883  23.028  25.928  1.00  0.00    -0.283 OA
BRANCH  12  14
ATOM     14  C   UNL A   1      32.816  25.026  25.086  1.00  0.00     0.054 A 
ATOM     15  N   UNL A   1      33.253  27.168  25.699  1.00  0.00    -0.240 N 
ATOM     16  C   UNL A   1      32.909  25.902  26.178  1.00  0.00     0.117 A 
ATOM     17  C   UNL A   1      33.561  27.040  24.335  1.00  0.00     0.065 A 
ATOM     18  C   UNL A   1      32.994  25.838  23.922  1.00  0.00     0.012 A 
ATOM     19  C   UNL A   1      34.057  27.976  23.404  1.00  0.00     0.028 A 
ATOM     20  C   UNL A   1      32.747  25.651  22.543  1.00  0.00     0.011 A 
ATOM     21  C   UNL A   1      33.758  27.790  22.056  1.00  0.00     0.002 A 
ATOM     22  C   UNL A   1      33.073  26.661  21.634  1.00  0.00     0.001 A 
BRANCH  15  23
ATOM     23  S   UNL A   1      32.421  28.665  26.051  1.00  0.00     0.268 S 
ATOM     24  O   UNL A   1      33.503  29.625  26.193  1.00  0.00    -0.201 OA
ATOM     25  O   UNL A   1      31.586  28.311  27.193  1.00  0.00    -0.201 OA
BRANCH  23  26
ATOM     26  C   UNL A   1      31.245  29.436  24.996  1.00  0.00     0.088 A 
ATOM     27  C   UNL A   1      28.238  31.946  23.164  1.00  0.00     0.044 C 
ATOM     28  C   UNL A   1      29.304  31.066  23.752  1.00  0.00    -0.051 A 
ATOM     29  C   UNL A   1      30.055  31.576  24.805  1.00  0.00     0.005 A 
ATOM     30  C   UNL A   1      29.541  29.740  23.326  1.00  0.00     0.005 A 
ATOM     31  C   UNL A   1      31.013  30.775  25.402  1.00  0.00     0.022 A 
ATOM     32  C   UNL A   1      30.511  28.910  23.946  1.00  0.00     0.022 A 
ENDBRANCH  23  26
ENDBRANCH  15  23
ENDBRANCH  12  14
ENDBRANCH   9  12
ENDBRANCH   7   8
BRANCH   7  33
ATOM     33  C   UNL A   1      35.533  20.757  24.842  1.00  0.00     0.072 C 
BRANCH  33  34
ATOM     34  C   UNL A   1      34.398  19.858  25.260  1.00  0.00    -0.020 A 
ATOM     35  C   UNL A   1      33.484  20.126  26.266  1.00  0.00     0.087 A 
ATOM     36  C   UNL A   1      34.041  18.571  24.729  1.00  0.00     0.003 A 
ATOM     37  N   UNL A   1      32.683  19.027  26.435  1.00  0.00    -0.361 N 
ATOM     38  C   UNL A   1      33.058  18.033  25.562  1.00  0.00     0.046 A 
ATOM     39  C   UNL A   1      34.526  17.768  23.676  1.00  0.00     0.010 A 
ATOM     40  H   UNL A   1      31.947  18.959  27.085  1.00  0.00     0.166 HD
ATOM     41  C   UNL A   1      32.615  16.709  25.463  1.00  0.00     0.026 A 
ATOM     42  C   UNL A   1      34.110  16.435  23.573  1.00  0.00     0.001 A 
ATOM     43  C   UNL A   1      33.185  15.910  24.469  1.00  0.00     0.002 A 
ENDBRANCH  33  34
ENDBRANCH   7  33
ENDBRANCH   4   7
ENDBRANCH   2   3
ENDBRANCH   1   2
BRANCH   1  44
ATOM     44  C   UNL A   1      39.782  23.276  26.745  1.00  0.00     0.002 C 
BRANCH  44  45
ATOM     45  C   UNL A   1      40.913  23.491  27.764  1.00  0.00     0.002 C 
BRANCH  45  46
ATOM     46  C   UNL A   1      42.134  24.301  27.328  1.00  0.00     0.021 C 
BRANCH  46  47
ATOM     47  C   UNL A   1      41.942  25.812  27.295  1.00  0.00     0.116 C 
BRANCH  47  48
ATOM     48  N   UNL A   1      42.530  26.443  26.121  1.00  0.00    -0.352 N 
ATOM     49  C   UNL A   1      42.225  27.691  25.600  1.00  0.00     0.251 C 
ATOM     50  H   UNL A   1      43.220  25.926  25.644  1.00  0.00     0.163 HD
ATOM     51  O   UNL A   1      42.529  28.035  24.472  1.00  0.00    -0.269 OA
BRANCH  49  52
ATOM     52  C   UNL A   1      41.615  28.652  26.540  1.00  0.00     0.039 A 
ATOM     53  C   UNL A   1      42.488  29.400  27.340  1.00  0.00     0.014 A 
ATOM     54  C   UNL A   1      40.254  28.582  26.823  1.00  0.00     0.014 A 
ATOM     55  C   UNL A   1      42.024  29.941  28.534  1.00  0.00     0.010 A 
ATOM     56  C   UNL A   1      39.818  29.044  28.050  1.00  0.00     0.010 A 
ATOM     57  C   UNL A   1      40.710  29.682  28.926  1.00  0.00    -0.014 A 
BRANCH  57  58
ATOM     58  C   UNL A   1      40.203  29.954  30.267  1.00  0.00     0.031 A 
ATOM     59  C   UNL A   1      39.387  31.162  30.529  1.00  0.00     0.074 A 
ATOM     60  C   UNL A   1      40.404  29.075  31.275  1.00  0.00     0.049 A 
ATOM     61  N   UNL A   1      39.256  31.713  31.692  1.00  0.00    -0.248 NA
ATOM     62  C   UNL A   1      38.688  31.882  29.470  1.00  0.00     0.031 C 
ATOM     63  C   UNL A   1      39.690  29.037  32.548  1.00  0.00     0.029 A 
ATOM     64  N   UNL A   1      41.451  28.170  31.450  1.00  0.00    -0.354 N 
ATOM     65  C   UNL A   1      38.234  32.630  31.598  1.00  0.00     0.074 A 
ATOM     66  C   UNL A   1      37.981  32.766  30.180  1.00  0.00     0.031 C 
ATOM     67  C   UNL A   1      40.464  28.423  33.455  1.00  0.00     0.029 A 
ATOM     68  C   UNL A   1      41.746  28.171  32.824  1.00  0.00     0.049 A 
ATOM     69  H   UNL A   1      41.895  27.637  30.751  1.00  0.00     0.167 HD
ATOM     70  C   UNL A   1      37.598  33.061  32.724  1.00  0.00     0.031 A 
ATOM     71  C   UNL A   1      42.964  28.475  33.359  1.00  0.00     0.031 A 
ATOM     72  C   UNL A   1      38.193  32.514  33.942  1.00  0.00     0.049 A 
ATOM     73  C   UNL A   1      42.913  29.573  34.399  1.00  0.00     0.074 A 
ATOM     74  C   UNL A   1      37.812  31.505  34.813  1.00  0.00     0.029 A 
ATOM     75  N   UNL A   1      39.496  32.851  34.281  1.00  0.00    -0.354 N 
ATOM     76  N   UNL A   1      41.884  30.348  34.594  1.00  0.00    -0.248 NA
ATOM     77  C   UNL A   1      44.041  29.930  35.253  1.00  0.00     0.031 C 
ATOM     78  C   UNL A   1      38.905  31.227  35.674  1.00  0.00     0.029 A 
ATOM     79  C   UNL A   1      39.945  32.071  35.330  1.00  0.00     0.049 A 
ATOM     80  H   UNL A   1      40.028  33.550  33.836  1.00  0.00     0.167 HD
ATOM     81  C   UNL A   1      42.185  31.299  35.538  1.00  0.00     0.074 A 
ATOM     82  C   UNL A   1      43.544  30.978  35.934  1.00  0.00     0.031 C 
ATOM     83  C   UNL A   1      41.284  32.272  35.876  1.00  0.00     0.031 A 
BRANCH  70  84
ATOM     84  C   UNL A   1      36.245  33.743  32.698  1.00  0.00    -0.014 A 
ATOM     85  C   UNL A   1      35.401  33.576  31.579  1.00  0.00     0.010 A 
ATOM     86  C   UNL A   1      35.769  34.602  33.706  1.00  0.00     0.010 A 
ATOM     87  C   UNL A   1      34.221  34.318  31.415  1.00  0.00     0.020 A 
ATOM     88  C   UNL A   1      34.614  35.382  33.540  1.00  0.00     0.020 A 
ATOM     89  C   UNL A   1      33.853  35.246  32.383  1.00  0.00     0.054 A 
BRANCH  89  90
ATOM     90  S   UNL A   1      32.391  36.279  32.105  1.00  0.00     0.124 S 
ATOM     91  O   UNL A   1      31.304  35.418  32.566  1.00  0.00    -0.237 OA
ATOM     92  O   UNL A   1      32.668  37.445  32.938  1.00  0.00    -0.237 OA
ATOM     93  O   UNL A   1      32.410  36.524  30.664  1.00  0.00    -0.744 OA
ENDBRANCH  89  90
ENDBRANCH  70  84
BRANCH  71  94
ATOM     94  C   UNL A   1      44.115  28.217  32.454  1.00  0.00    -0.014 A 
ATOM     95  C   UNL A   1      44.649  26.911  32.438  1.00  0.00     0.010 A 
ATOM     96  C   UNL A   1      44.356  29.068  31.362  1.00  0.00     0.010 A 
ATOM     97  C   UNL A   1      45.252  26.407  31.285  1.00  0.00     0.020 A 
ATOM     98  C   UNL A   1      44.967  28.565  30.205  1.00  0.00     0.020 A 
ATOM     99  C   UNL A   1      45.345  27.219  30.154  1.00  0.00     0.054 A 
BRANCH  99 100
ATOM    100  S   UNL A   1      45.782  26.433  28.574  1.00  0.00     0.124 S 
ATOM    101  O   UNL A   1      45.117  27.293  27.600  1.00  0.00    -0.237 OA
ATOM    102  O   UNL A   1      47.243  26.511  28.589  1.00  0.00    -0.237 OA
ATOM    103  O   UNL A   1      45.233  25.087  28.705  1.00  0.00    -0.744 OA
ENDBRANCH  99 100
ENDBRANCH  71  94
BRANCH  83 104
ATOM    104  C   UNL A   1      41.501  33.482  36.770  1.00  0.00    -0.014 A 
ATOM    105  C   UNL A   1      42.353  34.560  36.491  1.00  0.00     0.010 A 
ATOM    106  C   UNL A   1      40.732  33.590  37.961  1.00  0.00     0.010 A 
ATOM    107  C   UNL A   1      42.456  35.663  37.358  1.00  0.00     0.020 A 
ATOM    108  C   UNL A   1      40.799  34.697  38.813  1.00  0.00     0.020 A 
ATOM    109  C   UNL A   1      41.679  35.725  38.513  1.00  0.00     0.054 A 
BRANCH 109 110
ATOM    110  S   UNL A   1      41.777  37.184  39.579  1.00  0.00     0.124 S 
ATOM    111  O   UNL A   1      41.976  36.585  40.895  1.00  0.00    -0.237 OA
ATOM    112  O   UNL A   1      42.928  37.904  39.038  1.00  0.00    -0.237 OA
ATOM    113  O   UNL A   1      40.490  37.846  39.379  1.00  0.00    -0.744 OA
ENDBRANCH 109 110
ENDBRANCH  83 104
ENDBRANCH  57  58
ENDBRANCH  49  52
ENDBRANCH  47  48
ENDBRANCH  46  47
ENDBRANCH  45  46
ENDBRANCH  44  45
ENDBRANCH   1  44
TORSDOF 23
ENDMDL
MODEL 2
REMARK VINA RESULT:     -12.6      1.280      1.934
REMARK SMILES Cc1ccc(S(=O)(=O)n2cc(C(=O)C(=O)N[C@@H](Cc3c[nH]c4ccccc34)C(=O)NCCCCCCNC(=O)c3ccc(-c4c5nc(c(-c6ccc(S(=O)(=O)[O-])cc6)c6ccc([nH]6)c(-c6ccc(S(=O)(=O)[O-])cc6)c6nc(c(-c7ccc(S(=O)(=O)[O-])cc7)c7ccc4[nH]7)C=C6)C=C5)cc3)c3ccccc32)cc1
REMARK SMILES IDX 32 1 31 2 30 3 28 4 29 5 17 7 16 8 14 9 15 10 12 12 13 13
REMARK SMILES IDX 11 14 9 15 10 16 105 17 100 18 104 19 101 20 103 21 102 22
REMARK SMILES IDX 6 23 7 24 8 25 5 26 1 27 2 28 3 29 107 30 4 31 106 32 18 33
REMARK SMILES IDX 19 34 20 35 27 36 21 37 22 38 26 39 23 41 25 42 24 43 33 44
REMARK SMILES IDX 34 45 35 46 36 47 37 48 38 49 39 51 40 52 41 53 99 54 42 55
REMARK SMILES IDX 98 56 43 57 44 58 45 59 92 60 46 61 97 62 91 63 93 64 47 65
REMARK SMILES IDX 96 66 90 67 89 68 48 70 78 71 59 72 77 73 60 74 63 75 76 76
REMARK SMILES IDX 94 77 61 78 62 79 75 81 95 82 64 83 49 84 50 85 58 86 51 87
REMARK SMILES IDX 57 88 52 89 53 90 54 91 55 92 56 93 79 94 80 95 88 96 81 97
REMARK SMILES IDX 87 98 82 99 83 100 84 101 85 102 86 103 65 104 66 105 74 106
REMARK SMILES IDX 67 107 73 108 68 109 69 110 70 111 71 112 72 113
REMARK H PARENT 30 6 16 11 21 40 37 50 93 69 63 80
REMARK Flexibility Score: inf
ROOT
ATOM      1  C   UNL A   1      38.146  24.740  26.783  1.00  0.00     0.021 C 
ENDROOT
BRANCH   1   2
ATOM      2  C   UNL A   1      36.857  23.954  26.573  1.00  0.00     0.116 C 
BRANCH   2   3
ATOM      3  N   UNL A   1      36.973  22.680  25.899  1.00  0.00    -0.354 N 
ATOM      4  C   UNL A   1      36.243  22.223  24.835  1.00  0.00     0.242 C 
ATOM      5  O   UNL A   1      36.834  21.478  24.040  1.00  0.00    -0.273 OA
ATOM      6  H   UNL A   1      37.661  22.068  26.248  1.00  0.00     0.163 HD
BRANCH   4   7
ATOM      7  C   UNL A   1      34.790  22.690  24.506  1.00  0.00     0.176 C 
BRANCH   7   8
ATOM      8  N   UNL A   1      34.527  23.164  23.130  1.00  0.00    -0.337 N 
ATOM      9  C   UNL A   1      33.443  23.871  22.618  1.00  0.00     0.293 C 
ATOM     10  O   UNL A   1      33.303  24.013  21.408  1.00  0.00    -0.265 OA
ATOM     11  H   UNL A   1      35.229  22.947  22.475  1.00  0.00     0.164 HD
BRANCH   9  12
ATOM     12  C   UNL A   1      32.408  24.502  23.560  1.00  0.00     0.252 C 
ATOM     13  O   UNL A   1      31.399  23.830  23.778  1.00  0.00    -0.283 OA
BRANCH  12  14
ATOM     14  C   UNL A   1      32.529  25.879  24.088  1.00  0.00     0.054 A 
ATOM     15  N   UNL A   1      33.098  27.798  25.160  1.00  0.00    -0.240 N 
ATOM     16  C   UNL A   1      33.435  26.453  24.992  1.00  0.00     0.117 A 
ATOM     17  C   UNL A   1      32.104  28.110  24.219  1.00  0.00     0.065 A 
ATOM     18  C   UNL A   1      31.560  26.895  23.812  1.00  0.00     0.012 A 
ATOM     19  C   UNL A   1      31.487  29.336  23.893  1.00  0.00     0.028 A 
ATOM     20  C   UNL A   1      30.272  26.897  23.230  1.00  0.00     0.011 A 
ATOM     21  C   UNL A   1      30.199  29.307  23.361  1.00  0.00     0.002 A 
ATOM     22  C   UNL A   1      29.580  28.100  23.073  1.00  0.00     0.001 A 
BRANCH  15  23
ATOM     23  S   UNL A   1      32.843  28.615  26.686  1.00  0.00     0.268 S 
ATOM     24  O   UNL A   1      34.000  28.223  27.473  1.00  0.00    -0.201 OA
ATOM     25  O   UNL A   1      31.503  28.183  27.065  1.00  0.00    -0.201 OA
BRANCH  23  26
ATOM     26  C   UNL A   1      32.709  30.357  26.884  1.00  0.00     0.088 A 
ATOM     27  C   UNL A   1      33.106  34.508  28.026  1.00  0.00     0.044 C 
ATOM     28  C   UNL A   1      32.954  33.081  27.580  1.00  0.00    -0.051 A 
ATOM     29  C   UNL A   1      34.024  32.221  27.793  1.00  0.00     0.005 A 
ATOM     30  C   UNL A   1      31.768  32.566  27.010  1.00  0.00     0.005 A 
ATOM     31  C   UNL A   1      33.901  30.889  27.438  1.00  0.00     0.022 A 
ATOM     32  C   UNL A   1      31.632  31.198  26.660  1.00  0.00     0.022 A 
ENDBRANCH  23  26
ENDBRANCH  15  23
ENDBRANCH  12  14
ENDBRANCH   9  12
ENDBRANCH   7   8
BRANCH   7  33
ATOM     33  C   UNL A   1      33.696  21.724  25.056  1.00  0.00     0.072 C 
BRANCH  33  34
ATOM     34  C   UNL A   1      33.249  20.572  24.192  1.00  0.00    -0.020 A 
ATOM     35  C   UNL A   1      32.180  20.591  23.311  1.00  0.00     0.087 A 
ATOM     36  C   UNL A   1      33.812  19.253  24.109  1.00  0.00     0.003 A 
ATOM     37  N   UNL A   1      32.011  19.330  22.800  1.00  0.00    -0.361 N 
ATOM     38  C   UNL A   1      32.946  18.476  23.336  1.00  0.00     0.046 A 
ATOM     39  C   UNL A   1      34.926  18.615  24.695  1.00  0.00     0.010 A 
ATOM     40  H   UNL A   1      31.322  19.073  22.146  1.00  0.00     0.166 HD
ATOM     41  C   UNL A   1      33.074  17.088  23.208  1.00  0.00     0.026 A 
ATOM     42  C   UNL A   1      35.060  17.225  24.595  1.00  0.00     0.001 A 
ATOM     43  C   UNL A   1      34.133  16.473  23.879  1.00  0.00     0.002 A 
ENDBRANCH  33  34
ENDBRANCH   7  33
ENDBRANCH   4   7
ENDBRANCH   2   3
ENDBRANCH   1   2
BRANCH   1  44
ATOM     44  C   UNL A   1      39.479  24.014  26.574  1.00  0.00     0.002 C 
BRANCH  44  45
ATOM     45  C   UNL A   1      40.502  23.982  27.721  1.00  0.00     0.002 C 
BRANCH  45  46
ATOM     46  C   UNL A   1      41.952  24.347  27.407  1.00  0.00     0.021 C 
BRANCH  46  47
ATOM     47  C   UNL A   1      42.297  25.827  27.520  1.00  0.00     0.116 C 
BRANCH  47  48
ATOM     48  N   UNL A   1      42.831  26.391  26.287  1.00  0.00    -0.352 N 
ATOM     49  C   UNL A   1      42.441  27.569  25.669  1.00  0.00     0.251 C 
ATOM     50  H   UNL A   1      43.546  25.879  25.844  1.00  0.00     0.163 HD
ATOM     51  O   UNL A   1      42.710  27.834  24.511  1.00  0.00    -0.269 OA
BRANCH  49  52
ATOM     52  C   UNL A   1      41.783  28.567  26.535  1.00  0.00     0.039 A 
ATOM     53  C   UNL A   1      42.611  29.331  27.367  1.00  0.00     0.014 A 
ATOM     54  C   UNL A   1      40.406  28.520  26.730  1.00  0.00     0.014 A 
ATOM     55  C   UNL A   1      42.076  29.916  28.510  1.00  0.00     0.010 A 
ATOM     56  C   UNL A   1      39.896  29.027  27.910  1.00  0.00     0.010 A 
ATOM     57  C   UNL A   1      40.736  29.684  28.823  1.00  0.00    -0.014 A 
BRANCH  57  58
ATOM     58  C   UNL A   1      40.145  30.005  30.117  1.00  0.00     0.031 A 
ATOM     59  C   UNL A   1      39.403  31.273  30.309  1.00  0.00     0.074 A 
ATOM     60  C   UNL A   1      40.201  29.123  31.141  1.00  0.00     0.049 A 
ATOM     61  N   UNL A   1      39.221  31.842  31.456  1.00  0.00    -0.248 NA
ATOM     62  C   UNL A   1      38.846  32.031  29.195  1.00  0.00     0.031 C 
ATOM     63  C   UNL A   1      39.386  29.150  32.353  1.00  0.00     0.029 A 
ATOM     64  N   UNL A   1      41.161  28.145  31.403  1.00  0.00    -0.354 N 
ATOM     65  C   UNL A   1      38.280  32.831  31.277  1.00  0.00     0.074 A 
ATOM     66  C   UNL A   1      38.152  32.972  29.843  1.00  0.00     0.031 C 
ATOM     67  C   UNL A   1      40.038  28.490  33.322  1.00  0.00     0.029 A 
ATOM     68  C   UNL A   1      41.345  28.138  32.796  1.00  0.00     0.049 A 
ATOM     69  H   UNL A   1      41.618  27.575  30.744  1.00  0.00     0.167 HD
ATOM     70  C   UNL A   1      37.591  33.318  32.347  1.00  0.00     0.031 A 
ATOM     71  C   UNL A   1      42.535  28.356  33.426  1.00  0.00     0.031 A 
ATOM     72  C   UNL A   1      38.044  32.741  33.611  1.00  0.00     0.049 A 
ATOM     73  C   UNL A   1      42.483  29.465  34.455  1.00  0.00     0.074 A 
ATOM     74  C   UNL A   1      37.522  31.771  34.452  1.00  0.00     0.029 A 
ATOM     75  N   UNL A   1      39.338  32.984  34.051  1.00  0.00    -0.354 N 
ATOM     76  N   UNL A   1      41.502  30.316  34.564  1.00  0.00    -0.248 NA
ATOM     77  C   UNL A   1      43.562  29.746  35.394  1.00  0.00     0.031 C 
ATOM     78  C   UNL A   1      38.519  31.421  35.398  1.00  0.00     0.029 A 
ATOM     79  C   UNL A   1      39.643  32.183  35.136  1.00  0.00     0.049 A 
ATOM     80  H   UNL A   1      39.954  33.638  33.648  1.00  0.00     0.167 HD
ATOM     81  C   UNL A   1      41.796  31.251  35.525  1.00  0.00     0.074 A 
ATOM     82  C   UNL A   1      43.092  30.834  36.030  1.00  0.00     0.031 C 
ATOM     83  C   UNL A   1      40.946  32.291  35.786  1.00  0.00     0.031 A 
BRANCH  70  84
ATOM     84  C   UNL A   1      36.298  34.098  32.210  1.00  0.00    -0.014 A 
ATOM     85  C   UNL A   1      35.872  34.933  33.265  1.00  0.00     0.010 A 
ATOM     86  C   UNL A   1      35.433  34.011  31.104  1.00  0.00     0.010 A 
ATOM     87  C   UNL A   1      34.606  35.539  33.273  1.00  0.00     0.020 A 
ATOM     88  C   UNL A   1      34.147  34.575  31.113  1.00  0.00     0.020 A 
ATOM     89  C   UNL A   1      33.734  35.324  32.210  1.00  0.00     0.054 A 
BRANCH  89  90
ATOM     90  S   UNL A   1      32.062  36.016  32.287  1.00  0.00     0.124 S 
ATOM     91  O   UNL A   1      31.277  34.891  32.789  1.00  0.00    -0.237 OA
ATOM     92  O   UNL A   1      32.226  37.133  33.213  1.00  0.00    -0.237 OA
ATOM     93  O   UNL A   1      31.779  36.392  30.903  1.00  0.00    -0.744 OA
ENDBRANCH  89  90
ENDBRANCH  70  84
BRANCH  71  94
ATOM     94  C   UNL A   1      43.732  28.006  32.616  1.00  0.00    -0.014 A 
ATOM     95  C   UNL A   1      44.400  26.804  32.931  1.00  0.00     0.010 A 
ATOM     96  C   UNL A   1      43.914  28.577  31.345  1.00  0.00     0.010 A 
ATOM     97  C   UNL A   1      45.085  26.095  31.944  1.00  0.00     0.020 A 
ATOM     98  C   UNL A   1      44.607  27.869  30.354  1.00  0.00     0.020 A 
ATOM     99  C   UNL A   1      45.125  26.603  30.644  1.00  0.00     0.054 A 
BRANCH  99 100
ATOM    100  S   UNL A   1      45.688  25.498  29.315  1.00  0.00     0.124 S 
ATOM    101  O   UNL A   1      47.095  25.298  29.646  1.00  0.00    -0.237 OA
ATOM    102  O   UNL A   1      44.824  24.332  29.503  1.00  0.00    -0.237 OA
ATOM    103  O   UNL A   1      45.428  26.271  28.104  1.00  0.00    -0.744 OA
ENDBRANCH  99 100
ENDBRANCH  71  94
BRANCH  83 104
ATOM    104  C   UNL A   1      41.180  33.490  36.691  1.00  0.00    -0.014 A 
ATOM    105  C   UNL A   1      40.179  34.261  37.297  1.00  0.00     0.010 A 
ATOM    106  C   UNL A   1      42.518  33.836  37.024  1.00  0.00     0.010 A 
ATOM    107  C   UNL A   1      40.489  35.328  38.159  1.00  0.00     0.020 A 
ATOM    108  C   UNL A   1      42.839  34.871  37.906  1.00  0.00     0.020 A 
ATOM    109  C   UNL A   1      41.816  35.627  38.458  1.00  0.00     0.054 A 
BRANCH 109 110
ATOM    110  S   UNL A   1      42.192  36.961  39.623  1.00  0.00     0.124 S 
ATOM    111  O   UNL A   1      43.281  36.384  40.404  1.00  0.00    -0.237 OA
ATOM    112  O   UNL A   1      42.569  38.064  38.741  1.00  0.00    -0.237 OA
ATOM    113  O   UNL A   1      40.936  37.155  40.344  1.00  0.00    -0.744 OA
ENDBRANCH 109 110
ENDBRANCH  83 104
ENDBRANCH  57  58
ENDBRANCH  49  52
ENDBRANCH  47  48
ENDBRANCH  46  47
ENDBRANCH  45  46
ENDBRANCH  44  45
ENDBRANCH   1  44
TORSDOF 23
ENDMDL
MODEL 3
REMARK VINA RESULT:     -12.3      5.822     13.425
REMARK SMILES Cc1ccc(S(=O)(=O)n2cc(C(=O)C(=O)N[C@@H](Cc3c[nH]c4ccccc34)C(=O)NCCCCCCNC(=O)c3ccc(-c4c5nc(c(-c6ccc(S(=O)(=O)[O-])cc6)c6ccc([nH]6)c(-c6ccc(S(=O)(=O)[O-])cc6)c6nc(c(-c7ccc(S(=O)(=O)[O-])cc7)c7ccc4[nH]7)C=C6)C=C5)cc3)c3ccccc32)cc1
REMARK SMILES IDX 32 1 31 2 30 3 28 4 29 5 17 7 16 8 14 9 15 10 12 12 13 13
REMARK SMILES IDX 11 14 9 15 10 16 105 17 100 18 104 19 101 20 103 21 102 22
REMARK SMILES IDX 6 23 7 24 8 25 5 26 1 27 2 28 3 29 107 30 4 31 106 32 18 33
REMARK SMILES IDX 19 34 20 35 27 36 21 37 22 38 26 39 23 41 25 42 24 43 33 44
REMARK SMILES IDX 34 45 35 46 36 47 37 48 38 49 39 51 40 52 41 53 99 54 42 55
REMARK SMILES IDX 98 56 43 57 44 58 45 59 92 60 46 61 97 62 91 63 93 64 47 65
REMARK SMILES IDX 96 66 90 67 89 68 48 70 78 71 59 72 77 73 60 74 63 75 76 76
REMARK SMILES IDX 94 77 61 78 62 79 75 81 95 82 64 83 49 84 50 85 58 86 51 87
REMARK SMILES IDX 57 88 52 89 53 90 54 91 55 92 56 93 79 94 80 95 88 96 81 97
REMARK SMILES IDX 87 98 82 99 83 100 84 101 85 102 86 103 65 104 66 105 74 106
REMARK SMILES IDX 67 107 73 108 68 109 69 110 70 111 71 112 72 113
REMARK H PARENT 30 6 16 11 21 40 37 50 93 69 63 80
REMARK Flexibility Score: inf
ROOT
ATOM      1  C   UNL A   1      41.931  34.664  29.640  1.00  0.00     0.021 C 
ENDROOT
BRANCH   1   2
ATOM      2  C   UNL A   1      42.180  33.175  29.852  1.00  0.00     0.116 C 
BRANCH   2   3
ATOM      3  N   UNL A   1      43.555  32.763  30.027  1.00  0.00    -0.354 N 
ATOM      4  C   UNL A   1      44.541  32.702  29.078  1.00  0.00     0.242 C 
ATOM      5  O   UNL A   1      45.694  32.943  29.465  1.00  0.00    -0.273 OA
ATOM      6  H   UNL A   1      43.814  32.493  30.938  1.00  0.00     0.163 HD
BRANCH   4   7
ATOM      7  C   UNL A   1      44.277  32.492  27.554  1.00  0.00     0.176 C 
BRANCH   7   8
ATOM      8  N   UNL A   1      45.188  33.173  26.609  1.00  0.00    -0.337 N 
ATOM      9  C   UNL A   1      44.935  34.195  25.698  1.00  0.00     0.293 C 
ATOM     10  O   UNL A   1      45.772  34.505  24.857  1.00  0.00    -0.265 OA
ATOM     11  H   UNL A   1      46.119  32.853  26.627  1.00  0.00     0.164 HD
BRANCH   9  12
ATOM     12  C   UNL A   1      43.608  34.965  25.740  1.00  0.00     0.252 C 
ATOM     13  O   UNL A   1      42.764  34.627  24.911  1.00  0.00    -0.283 OA
BRANCH  12  14
ATOM     14  C   UNL A   1      43.377  36.128  26.626  1.00  0.00     0.054 A 
ATOM     15  N   UNL A   1      42.620  37.984  27.694  1.00  0.00    -0.240 N 
ATOM     16  C   UNL A   1      42.354  37.087  26.656  1.00  0.00     0.117 A 
ATOM     17  C   UNL A   1      43.701  37.476  28.431  1.00  0.00     0.065 A 
ATOM     18  C   UNL A   1      44.333  36.550  27.604  1.00  0.00     0.012 A 
ATOM     19  C   UNL A   1      44.306  37.926  29.623  1.00  0.00     0.028 A 
ATOM     20  C   UNL A   1      45.677  36.211  27.879  1.00  0.00     0.011 A 
ATOM     21  C   UNL A   1      45.646  37.614  29.845  1.00  0.00     0.002 A 
ATOM     22  C   UNL A   1      46.337  36.801  28.960  1.00  0.00     0.001 A 
BRANCH  15  23
ATOM     23  S   UNL A   1      42.670  39.727  27.564  1.00  0.00     0.268 S 
ATOM     24  O   UNL A   1      41.346  40.064  27.066  1.00  0.00    -0.201 OA
ATOM     25  O   UNL A   1      43.854  39.957  26.745  1.00  0.00    -0.201 OA
BRANCH  23  26
ATOM     26  C   UNL A   1      42.962  40.829  28.903  1.00  0.00     0.088 A 
ATOM     27  C   UNL A   1      44.626  43.443  31.919  1.00  0.00     0.044 C 
ATOM     28  C   UNL A   1      44.004  42.564  30.870  1.00  0.00    -0.051 A 
ATOM     29  C   UNL A   1      44.734  42.325  29.713  1.00  0.00     0.005 A 
ATOM     30  C   UNL A   1      42.749  41.935  31.027  1.00  0.00     0.005 A 
ATOM     31  C   UNL A   1      44.212  41.481  28.747  1.00  0.00     0.022 A 
ATOM     32  C   UNL A   1      42.217  41.057  30.047  1.00  0.00     0.022 A 
ENDBRANCH  23  26
ENDBRANCH  15  23
ENDBRANCH  12  14
ENDBRANCH   9  12
ENDBRANCH   7   8
BRANCH   7  33
ATOM     33  C   UNL A   1      43.983  31.006  27.181  1.00  0.00     0.072 C 
BRANCH  33  34
ATOM     34  C   UNL A   1      45.148  30.079  26.941  1.00  0.00    -0.020 A 
ATOM     35  C   UNL A   1      46.483  30.397  27.122  1.00  0.00     0.087 A 
ATOM     36  C   UNL A   1      45.119  28.718  26.479  1.00  0.00     0.003 A 
ATOM     37  N   UNL A   1      47.247  29.345  26.688  1.00  0.00    -0.361 N 
ATOM     38  C   UNL A   1      46.437  28.340  26.214  1.00  0.00     0.046 A 
ATOM     39  C   UNL A   1      44.094  27.801  26.169  1.00  0.00     0.010 A 
ATOM     40  H   UNL A   1      48.231  29.313  26.711  1.00  0.00     0.166 HD
ATOM     41  C   UNL A   1      46.772  27.147  25.562  1.00  0.00     0.026 A 
ATOM     42  C   UNL A   1      44.407  26.613  25.499  1.00  0.00     0.001 A 
ATOM     43  C   UNL A   1      45.726  26.304  25.182  1.00  0.00     0.002 A 
ENDBRANCH  33  34
ENDBRANCH   7  33
ENDBRANCH   4   7
ENDBRANCH   2   3
ENDBRANCH   1   2
BRANCH   1  44
ATOM     44  C   UNL A   1      40.519  35.114  29.252  1.00  0.00     0.002 C 
BRANCH  44  45
ATOM     45  C   UNL A   1      39.310  34.474  29.954  1.00  0.00     0.002 C 
BRANCH  45  46
ATOM     46  C   UNL A   1      38.248  33.795  29.090  1.00  0.00     0.021 C 
BRANCH  46  47
ATOM     47  C   UNL A   1      37.684  32.493  29.643  1.00  0.00     0.116 C 
BRANCH  47  48
ATOM     48  N   UNL A   1      36.317  32.227  29.213  1.00  0.00    -0.352 N 
ATOM     49  C   UNL A   1      35.886  31.207  28.379  1.00  0.00     0.251 C 
ATOM     50  H   UNL A   1      35.624  32.840  29.551  1.00  0.00     0.163 HD
ATOM     51  O   UNL A   1      34.799  31.212  27.829  1.00  0.00    -0.269 OA
BRANCH  49  52
ATOM     52  C   UNL A   1      36.770  30.028  28.290  1.00  0.00     0.039 A 
ATOM     53  C   UNL A   1      36.871  29.222  29.430  1.00  0.00     0.014 A 
ATOM     54  C   UNL A   1      37.677  29.916  27.241  1.00  0.00     0.014 A 
ATOM     55  C   UNL A   1      37.993  28.416  29.598  1.00  0.00     0.010 A 
ATOM     56  C   UNL A   1      38.829  29.184  27.449  1.00  0.00     0.010 A 
ATOM     57  C   UNL A   1      39.011  28.471  28.645  1.00  0.00    -0.014 A 
BRANCH  57  58
ATOM     58  C   UNL A   1      40.335  27.895  28.851  1.00  0.00     0.031 A 
ATOM     59  C   UNL A   1      40.600  26.480  28.502  1.00  0.00     0.074 A 
ATOM     60  C   UNL A   1      41.361  28.659  29.292  1.00  0.00     0.049 A 
ATOM     61  N   UNL A   1      41.553  25.771  29.015  1.00  0.00    -0.248 NA
ATOM     62  C   UNL A   1      39.763  25.732  27.571  1.00  0.00     0.031 C 
ATOM     63  C   UNL A   1      42.782  28.326  29.223  1.00  0.00     0.029 A 
ATOM     64  N   UNL A   1      41.321  29.797  30.098  1.00  0.00    -0.354 N 
ATOM     65  C   UNL A   1      41.652  24.619  28.269  1.00  0.00     0.074 A 
ATOM     66  C   UNL A   1      40.460  24.599  27.449  1.00  0.00     0.031 C 
ATOM     67  C   UNL A   1      43.429  29.016  30.174  1.00  0.00     0.029 A 
ATOM     68  C   UNL A   1      42.424  29.704  30.963  1.00  0.00     0.049 A 
ATOM     69  H   UNL A   1      40.653  30.520  30.067  1.00  0.00     0.167 HD
ATOM     70  C   UNL A   1      42.800  23.883  28.300  1.00  0.00     0.031 A 
ATOM     71  C   UNL A   1      42.348  29.699  32.325  1.00  0.00     0.031 A 
ATOM     72  C   UNL A   1      43.778  24.417  29.245  1.00  0.00     0.049 A 
ATOM     73  C   UNL A   1      43.029  28.508  32.966  1.00  0.00     0.074 A 
ATOM     74  C   UNL A   1      44.942  25.154  29.091  1.00  0.00     0.029 A 
ATOM     75  N   UNL A   1      43.485  24.429  30.602  1.00  0.00    -0.354 N 
ATOM     76  N   UNL A   1      43.422  27.451  32.313  1.00  0.00    -0.248 NA
ATOM     77  C   UNL A   1      43.258  28.385  34.401  1.00  0.00     0.031 C 
ATOM     78  C   UNL A   1      45.342  25.622  30.369  1.00  0.00     0.029 A 
ATOM     79  C   UNL A   1      44.426  25.165  31.298  1.00  0.00     0.049 A 
ATOM     80  H   UNL A   1      42.714  23.976  31.013  1.00  0.00     0.167 HD
ATOM     81  C   UNL A   1      43.914  26.515  33.188  1.00  0.00     0.074 A 
ATOM     82  C   UNL A   1      43.808  27.160  34.484  1.00  0.00     0.031 C 
ATOM     83  C   UNL A   1      44.336  25.289  32.750  1.00  0.00     0.031 A 
BRANCH  70  84
ATOM     84  C   UNL A   1      43.145  22.849  27.247  1.00  0.00    -0.014 A 
ATOM     85  C   UNL A   1      42.432  21.632  27.203  1.00  0.00     0.010 A 
ATOM     86  C   UNL A   1      44.190  22.986  26.314  1.00  0.00     0.010 A 
ATOM     87  C   UNL A   1      42.819  20.569  26.372  1.00  0.00     0.020 A 
ATOM     88  C   UNL A   1      44.615  21.919  25.506  1.00  0.00     0.020 A 
ATOM     89  C   UNL A   1      43.935  20.707  25.553  1.00  0.00     0.054 A 
BRANCH  89  90
ATOM     90  S   UNL A   1      44.491  19.289  24.573  1.00  0.00     0.124 S 
ATOM     91  O   UNL A   1      45.825  19.036  25.114  1.00  0.00    -0.237 OA
ATOM     92  O   UNL A   1      43.483  18.280  24.882  1.00  0.00    -0.237 OA
ATOM     93  O   UNL A   1      44.471  19.789  23.200  1.00  0.00    -0.744 OA
ENDBRANCH  89  90
ENDBRANCH  70  84
BRANCH  71  94
ATOM     94  C   UNL A   1      41.153  30.390  32.877  1.00  0.00    -0.014 A 
ATOM     95  C   UNL A   1      40.020  29.599  33.164  1.00  0.00     0.010 A 
ATOM     96  C   UNL A   1      41.289  31.642  33.500  1.00  0.00     0.010 A 
ATOM     97  C   UNL A   1      39.140  29.967  34.183  1.00  0.00     0.020 A 
ATOM     98  C   UNL A   1      40.402  32.016  34.519  1.00  0.00     0.020 A 
ATOM     99  C   UNL A   1      39.378  31.142  34.898  1.00  0.00     0.054 A 
BRANCH  99 100
ATOM    100  S   UNL A   1      38.453  31.402  36.441  1.00  0.00     0.124 S 
ATOM    101  O   UNL A   1      39.438  32.067  37.289  1.00  0.00    -0.237 OA
ATOM    102  O   UNL A   1      37.341  32.238  35.992  1.00  0.00    -0.237 OA
ATOM    103  O   UNL A   1      38.086  30.048  36.845  1.00  0.00    -0.744 OA
ENDBRANCH  99 100
ENDBRANCH  71  94
BRANCH  83 104
ATOM    104  C   UNL A   1      44.755  24.088  33.583  1.00  0.00    -0.014 A 
ATOM    105  C   UNL A   1      43.896  23.093  34.070  1.00  0.00     0.010 A 
ATOM    106  C   UNL A   1      46.140  23.896  33.844  1.00  0.00     0.010 A 
ATOM    107  C   UNL A   1      44.381  21.990  34.795  1.00  0.00     0.020 A 
ATOM    108  C   UNL A   1      46.638  22.786  34.533  1.00  0.00     0.020 A 
ATOM    109  C   UNL A   1      45.747  21.843  35.022  1.00  0.00     0.054 A 
BRANCH 109 110
ATOM    110  S   UNL A   1      46.355  20.381  35.899  1.00  0.00     0.124 S 
ATOM    111  O   UNL A   1      45.677  20.496  37.187  1.00  0.00    -0.237 OA
ATOM    112  O   UNL A   1      45.903  19.282  35.049  1.00  0.00    -0.237 OA
ATOM    113  O   UNL A   1      47.803  20.575  35.934  1.00  0.00    -0.744 OA
ENDBRANCH 109 110
ENDBRANCH  83 104
ENDBRANCH  57  58
ENDBRANCH  49  52
ENDBRANCH  47  48
ENDBRANCH  46  47
ENDBRANCH  45  46
ENDBRANCH  44  45
ENDBRANCH   1  44
TORSDOF 23
ENDMDL
