MODEL 1
REMARK VINA RESULT:      -9.2      0.000      0.000
REMARK SMILES O=C(NCCCCCCNC(=O)[C@H]1CC=CC[C@H]1C(=O)N[C@@H]1CCN(c2cccc(Cl)c2)C1)c1ccc(-c2c3nc(c(-c4ccc(S(=O)(=O)[O-])cc4)c4ccc([nH]4)c(-c4ccc(S(=O)(=O)[O-])cc4)c4nc(c(-c5ccc(S(=O)(=O)[O-])cc5)c5ccc2[nH]5)C=C4)C=C3)cc1
REMARK SMILES IDX 6 1 5 2 4 3 3 4 1 5 2 6 34 8 35 9 93 10 36 11 92 12 37 13
REMARK SMILES IDX 38 14 39 15 86 16 40 17 91 18 85 19 87 20 41 21 90 22 84 23
REMARK SMILES IDX 83 24 42 26 72 27 53 28 71 29 54 30 57 31 70 32 88 33 55 34
REMARK SMILES IDX 56 35 69 37 89 38 58 39 43 40 44 41 52 42 45 43 51 44 46 45
REMARK SMILES IDX 47 46 48 47 49 48 50 49 73 50 74 51 82 52 75 53 81 54 76 55
REMARK SMILES IDX 77 56 78 57 79 58 80 59 59 60 60 61 68 62 61 63 67 64 62 65
REMARK SMILES IDX 63 66 64 67 65 68 66 69 7 70 8 71 9 72 10 73 11 74 12 76
REMARK SMILES IDX 13 77 14 78 18 79 15 80 17 81 16 82 19 83 20 84 21 85 22 87
REMARK SMILES IDX 23 88 33 89 24 90 25 91 26 92 27 93 32 94 28 95 30 96 29 97
REMARK SMILES IDX 31 98
REMARK H PARENT 3 7 87 25 57 36 10 75 21 86
REMARK Flexibility Score: inf
ROOT
ATOM      1  C   UNL A   1      34.436  34.028  30.337  1.00  0.00     0.002 C 
ENDROOT
BRANCH   1   2
ATOM      2  C   UNL A   1      34.141  33.984  28.841  1.00  0.00     0.021 C 
BRANCH   2   3
ATOM      3  C   UNL A   1      34.855  32.885  28.068  1.00  0.00     0.116 C 
BRANCH   3   4
ATOM      4  N   UNL A   1      34.001  31.743  27.795  1.00  0.00    -0.352 N 
ATOM      5  O   UNL A   1      33.500  29.591  27.342  1.00  0.00    -0.269 OA
ATOM      6  C   UNL A   1      34.327  30.406  27.733  1.00  0.00     0.251 C 
ATOM      7  H   UNL A   1      33.053  31.954  27.631  1.00  0.00     0.163 HD
BRANCH   6   8
ATOM      8  C   UNL A   1      35.691  29.963  28.106  1.00  0.00     0.039 A 
ATOM      9  C   UNL A   1      35.970  29.511  29.398  1.00  0.00     0.014 A 
ATOM     10  C   UNL A   1      36.709  30.015  27.151  1.00  0.00     0.014 A 
ATOM     11  C   UNL A   1      37.288  29.279  29.779  1.00  0.00     0.010 A 
ATOM     12  C   UNL A   1      38.022  29.692  27.513  1.00  0.00     0.010 A 
ATOM     13  C   UNL A   1      38.330  29.366  28.843  1.00  0.00    -0.014 A 
BRANCH  13  14
ATOM     14  C   UNL A   1      39.725  29.087  29.277  1.00  0.00     0.031 A 
ATOM     15  C   UNL A   1      40.415  27.801  28.903  1.00  0.00     0.074 A 
ATOM     16  C   UNL A   1      40.389  30.025  29.980  1.00  0.00     0.049 A 
ATOM     17  N   UNL A   1      41.646  27.427  29.150  1.00  0.00    -0.248 NA
ATOM     18  C   UNL A   1      39.626  26.803  28.165  1.00  0.00     0.031 C 
ATOM     19  C   UNL A   1      39.830  31.310  30.410  1.00  0.00     0.029 A 
ATOM     20  N   UNL A   1      41.683  30.059  30.433  1.00  0.00    -0.354 N 
ATOM     21  C   UNL A   1      41.771  26.144  28.626  1.00  0.00     0.074 A 
ATOM     22  C   UNL A   1      40.484  25.796  28.064  1.00  0.00     0.031 C 
ATOM     23  C   UNL A   1      40.791  32.030  31.008  1.00  0.00     0.029 A 
ATOM     24  C   UNL A   1      42.015  31.239  31.057  1.00  0.00     0.049 A 
ATOM     25  H   UNL A   1      42.314  29.312  30.322  1.00  0.00     0.167 HD
ATOM     26  C   UNL A   1      42.856  25.332  28.613  1.00  0.00     0.031 A 
ATOM     27  C   UNL A   1      43.173  31.643  31.612  1.00  0.00     0.031 A 
ATOM     28  C   UNL A   1      44.140  25.684  29.164  1.00  0.00     0.049 A 
ATOM     29  C   UNL A   1      44.359  30.725  31.585  1.00  0.00     0.074 A 
ATOM     30  C   UNL A   1      45.309  24.942  29.164  1.00  0.00     0.029 A 
ATOM     31  N   UNL A   1      44.424  26.876  29.812  1.00  0.00    -0.354 N 
ATOM     32  N   UNL A   1      44.462  29.530  31.055  1.00  0.00    -0.248 NA
ATOM     33  C   UNL A   1      45.587  31.213  32.225  1.00  0.00     0.031 C 
ATOM     34  C   UNL A   1      46.289  25.668  29.852  1.00  0.00     0.029 A 
ATOM     35  C   UNL A   1      45.744  26.883  30.234  1.00  0.00     0.049 A 
ATOM     36  H   UNL A   1      43.782  27.609  29.954  1.00  0.00     0.167 HD
ATOM     37  C   UNL A   1      45.775  29.132  31.278  1.00  0.00     0.074 A 
ATOM     38  C   UNL A   1      46.430  30.219  31.977  1.00  0.00     0.031 C 
ATOM     39  C   UNL A   1      46.383  27.971  30.930  1.00  0.00     0.031 A 
BRANCH  26  40
ATOM     40  C   UNL A   1      42.693  23.960  28.010  1.00  0.00    -0.014 A 
ATOM     41  C   UNL A   1      43.000  23.713  26.660  1.00  0.00     0.010 A 
ATOM     42  C   UNL A   1      42.257  22.894  28.818  1.00  0.00     0.010 A 
ATOM     43  C   UNL A   1      42.831  22.435  26.118  1.00  0.00     0.020 A 
ATOM     44  C   UNL A   1      42.109  21.609  28.287  1.00  0.00     0.020 A 
ATOM     45  C   UNL A   1      42.377  21.393  26.935  1.00  0.00     0.054 A 
BRANCH  45  46
ATOM     46  S   UNL A   1      42.168  19.743  26.209  1.00  0.00     0.124 S 
ATOM     47  O   UNL A   1      40.739  19.729  25.906  1.00  0.00    -0.237 OA
ATOM     48  O   UNL A   1      43.054  19.785  25.049  1.00  0.00    -0.237 OA
ATOM     49  O   UNL A   1      42.588  18.839  27.277  1.00  0.00    -0.744 OA
ENDBRANCH  45  46
ENDBRANCH  26  40
BRANCH  27  50
ATOM     50  C   UNL A   1      43.262  32.996  32.225  1.00  0.00    -0.014 A 
ATOM     51  C   UNL A   1      43.693  34.096  31.464  1.00  0.00     0.010 A 
ATOM     52  C   UNL A   1      42.883  33.194  33.565  1.00  0.00     0.010 A 
ATOM     53  C   UNL A   1      43.752  35.370  32.035  1.00  0.00     0.020 A 
ATOM     54  C   UNL A   1      42.916  34.471  34.132  1.00  0.00     0.020 A 
ATOM     55  C   UNL A   1      43.360  35.550  33.365  1.00  0.00     0.054 A 
BRANCH  55  56
ATOM     56  S   UNL A   1      43.383  37.222  34.068  1.00  0.00     0.124 S 
ATOM     57  O   UNL A   1      43.394  38.053  32.867  1.00  0.00    -0.237 OA
ATOM     58  O   UNL A   1      42.150  37.255  34.849  1.00  0.00    -0.237 OA
ATOM     59  O   UNL A   1      44.612  37.242  34.857  1.00  0.00    -0.744 OA
ENDBRANCH  55  56
ENDBRANCH  27  50
BRANCH  39  60
ATOM     60  C   UNL A   1      47.844  27.837  31.265  1.00  0.00    -0.014 A 
ATOM     61  C   UNL A   1      48.266  27.267  32.478  1.00  0.00     0.010 A 
ATOM     62  C   UNL A   1      48.807  28.266  30.334  1.00  0.00     0.010 A 
ATOM     63  C   UNL A   1      49.629  27.168  32.774  1.00  0.00     0.020 A 
ATOM     64  C   UNL A   1      50.170  28.145  30.615  1.00  0.00     0.020 A 
ATOM     65  C   UNL A   1      50.573  27.613  31.842  1.00  0.00     0.054 A 
BRANCH  65  66
ATOM     66  S   UNL A   1      52.336  27.455  32.234  1.00  0.00     0.124 S 
ATOM     67  O   UNL A   1      52.864  26.846  31.016  1.00  0.00    -0.237 OA
ATOM     68  O   UNL A   1      52.740  28.838  32.471  1.00  0.00    -0.237 OA
ATOM     69  O   UNL A   1      52.350  26.597  33.417  1.00  0.00    -0.744 OA
ENDBRANCH  65  66
ENDBRANCH  39  60
ENDBRANCH  13  14
ENDBRANCH   6   8
ENDBRANCH   3   4
ENDBRANCH   2   3
ENDBRANCH   1   2
BRANCH   1  70
ATOM     70  C   UNL A   1      34.828  32.700  30.993  1.00  0.00     0.002 C 
BRANCH  70  71
ATOM     71  C   UNL A   1      36.258  32.584  31.542  1.00  0.00     0.021 C 
BRANCH  71  72
ATOM     72  C   UNL A   1      36.758  33.756  32.385  1.00  0.00     0.116 C 
BRANCH  72  73
ATOM     73  N   UNL A   1      36.279  33.708  33.751  1.00  0.00    -0.356 N 
ATOM     74  C   UNL A   1      36.945  33.471  34.912  1.00  0.00     0.224 C 
ATOM     75  H   UNL A   1      35.314  33.872  33.855  1.00  0.00     0.163 HD
ATOM     76  O   UNL A   1      36.315  33.643  35.958  1.00  0.00    -0.275 OA
BRANCH  74  77
ATOM     77  C   UNL A   1      38.407  33.048  34.872  1.00  0.00     0.095 C 
ATOM     78  C   UNL A   1      39.203  34.316  34.482  1.00  0.00     0.041 C 
ATOM     79  C   UNL A   1      38.978  32.496  36.192  1.00  0.00     0.095 C 
ATOM     80  C   UNL A   1      39.450  35.242  35.649  1.00  0.00    -0.030 C 
ATOM     81  C   UNL A   1      38.910  33.481  37.358  1.00  0.00     0.041 C 
ATOM     82  C   UNL A   1      39.299  34.874  36.932  1.00  0.00    -0.030 C 
BRANCH  79  83
ATOM     83  C   UNL A   1      38.692  31.028  36.525  1.00  0.00     0.224 C 
ATOM     84  O   UNL A   1      37.655  30.747  37.143  1.00  0.00    -0.275 OA
ATOM     85  N   UNL A   1      39.468  29.968  36.200  1.00  0.00    -0.351 N 
ATOM     86  H   UNL A   1      39.086  29.100  36.466  1.00  0.00     0.163 HD
BRANCH  85  87
ATOM     87  C   UNL A   1      40.758  29.861  35.536  1.00  0.00     0.103 C 
ATOM     88  C   UNL A   1      40.644  29.833  34.012  1.00  0.00     0.048 C 
ATOM     89  C   UNL A   1      41.566  28.595  35.922  1.00  0.00     0.141 C 
ATOM     90  C   UNL A   1      40.979  28.410  33.601  1.00  0.00     0.119 C 
ATOM     91  N   UNL A   1      41.858  27.935  34.653  1.00  0.00    -0.369 N 
BRANCH  91  92
ATOM     92  C   UNL A   1      43.076  27.333  34.445  1.00  0.00     0.038 A 
ATOM     93  C   UNL A   1      44.271  27.875  34.940  1.00  0.00     0.026 A 
ATOM     94  C   UNL A   1      43.158  26.129  33.733  1.00  0.00     0.046 A 
ATOM     95  C   UNL A   1      45.505  27.251  34.723  1.00  0.00     0.004 A 
ATOM     96  C   UNL A   1      44.390  25.514  33.497  1.00  0.00     0.043 A 
ATOM     97  C   UNL A   1      45.566  26.070  33.989  1.00  0.00     0.020 A 
ATOM     98  Cl  UNL A   1      44.457  24.062  32.573  1.00  0.00    -0.084 Cl
ENDBRANCH  91  92
ENDBRANCH  85  87
ENDBRANCH  79  83
ENDBRANCH  74  77
ENDBRANCH  72  73
ENDBRANCH  71  72
ENDBRANCH  70  71
ENDBRANCH   1  70
TORSDOF 19
ENDMDL
MODEL 2
REMARK VINA RESULT:      -9.1      4.843     11.980
REMARK SMILES O=C(NCCCCCCNC(=O)[C@H]1CC=CC[C@H]1C(=O)N[C@@H]1CCN(c2cccc(Cl)c2)C1)c1ccc(-c2c3nc(c(-c4ccc(S(=O)(=O)[O-])cc4)c4ccc([nH]4)c(-c4ccc(S(=O)(=O)[O-])cc4)c4nc(c(-c5ccc(S(=O)(=O)[O-])cc5)c5ccc2[nH]5)C=C4)C=C3)cc1
REMARK SMILES IDX 6 1 5 2 4 3 3 4 1 5 2 6 34 8 35 9 93 10 36 11 92 12 37 13
REMARK SMILES IDX 38 14 39 15 86 16 40 17 91 18 85 19 87 20 41 21 90 22 84 23
REMARK SMILES IDX 83 24 42 26 72 27 53 28 71 29 54 30 57 31 70 32 88 33 55 34
REMARK SMILES IDX 56 35 69 37 89 38 58 39 43 40 44 41 52 42 45 43 51 44 46 45
REMARK SMILES IDX 47 46 48 47 49 48 50 49 73 50 74 51 82 52 75 53 81 54 76 55
REMARK SMILES IDX 77 56 78 57 79 58 80 59 59 60 60 61 68 62 61 63 67 64 62 65
REMARK SMILES IDX 63 66 64 67 65 68 66 69 7 70 8 71 9 72 10 73 11 74 12 76
REMARK SMILES IDX 13 77 14 78 18 79 15 80 17 81 16 82 19 83 20 84 21 85 22 87
REMARK SMILES IDX 23 88 33 89 24 90 25 91 26 92 27 93 32 94 28 95 30 96 29 97
REMARK SMILES IDX 31 98
REMARK H PARENT 3 7 87 25 57 36 10 75 21 86
REMARK Flexibility Score: inf
ROOT
ATOM      1  C   UNL A   1      38.570  23.499  26.471  1.00  0.00     0.002 C 
ENDROOT
BRANCH   1   2
ATOM      2  C   UNL A   1      39.703  22.542  26.826  1.00  0.00     0.021 C 
BRANCH   2   3
ATOM      3  C   UNL A   1      41.043  23.200  27.121  1.00  0.00     0.116 C 
BRANCH   3   4
ATOM      4  N   UNL A   1      41.494  24.065  26.045  1.00  0.00    -0.352 N 
ATOM      5  O   UNL A   1      41.923  26.014  24.994  1.00  0.00    -0.269 OA
ATOM      6  C   UNL A   1      41.676  25.431  26.043  1.00  0.00     0.251 C 
ATOM      7  H   UNL A   1      41.701  23.611  25.197  1.00  0.00     0.163 HD
BRANCH   6   8
ATOM      8  C   UNL A   1      41.535  26.195  27.305  1.00  0.00     0.039 A 
ATOM      9  C   UNL A   1      40.445  25.984  28.153  1.00  0.00     0.014 A 
ATOM     10  C   UNL A   1      42.502  27.148  27.636  1.00  0.00     0.014 A 
ATOM     11  C   UNL A   1      40.234  26.837  29.232  1.00  0.00     0.010 A 
ATOM     12  C   UNL A   1      42.334  27.945  28.774  1.00  0.00     0.010 A 
ATOM     13  C   UNL A   1      41.175  27.828  29.557  1.00  0.00    -0.014 A 
BRANCH  13  14
ATOM     14  C   UNL A   1      40.932  28.707  30.731  1.00  0.00     0.031 A 
ATOM     15  C   UNL A   1      41.822  28.650  31.945  1.00  0.00     0.074 A 
ATOM     16  C   UNL A   1      39.921  29.597  30.681  1.00  0.00     0.049 A 
ATOM     17  N   UNL A   1      41.784  29.387  33.028  1.00  0.00    -0.248 NA
ATOM     18  C   UNL A   1      42.886  27.634  31.953  1.00  0.00     0.031 C 
ATOM     19  C   UNL A   1      38.984  29.747  29.564  1.00  0.00     0.029 A 
ATOM     20  N   UNL A   1      39.528  30.561  31.575  1.00  0.00    -0.354 N 
ATOM     21  C   UNL A   1      42.794  28.907  33.855  1.00  0.00     0.074 A 
ATOM     22  C   UNL A   1      43.416  27.803  33.157  1.00  0.00     0.031 C 
ATOM     23  C   UNL A   1      38.167  30.783  29.811  1.00  0.00     0.029 A 
ATOM     24  C   UNL A   1      38.482  31.331  31.125  1.00  0.00     0.049 A 
ATOM     25  H   UNL A   1      39.955  30.690  32.452  1.00  0.00     0.167 HD
ATOM     26  C   UNL A   1      43.170  29.346  35.081  1.00  0.00     0.031 A 
ATOM     27  C   UNL A   1      37.840  32.363  31.704  1.00  0.00     0.031 A 
ATOM     28  C   UNL A   1      42.557  30.453  35.770  1.00  0.00     0.049 A 
ATOM     29  C   UNL A   1      38.275  32.829  33.062  1.00  0.00     0.074 A 
ATOM     30  C   UNL A   1      42.894  30.995  37.000  1.00  0.00     0.029 A 
ATOM     31  N   UNL A   1      41.481  31.186  35.293  1.00  0.00    -0.354 N 
ATOM     32  N   UNL A   1      39.254  32.381  33.811  1.00  0.00    -0.248 NA
ATOM     33  C   UNL A   1      37.523  33.945  33.650  1.00  0.00     0.031 C 
ATOM     34  C   UNL A   1      41.993  32.028  37.284  1.00  0.00     0.029 A 
ATOM     35  C   UNL A   1      41.129  32.162  36.211  1.00  0.00     0.049 A 
ATOM     36  H   UNL A   1      41.032  31.033  34.430  1.00  0.00     0.167 HD
ATOM     37  C   UNL A   1      39.250  33.176  34.950  1.00  0.00     0.074 A 
ATOM     38  C   UNL A   1      38.181  34.141  34.784  1.00  0.00     0.031 C 
ATOM     39  C   UNL A   1      40.062  33.115  36.034  1.00  0.00     0.031 A 
BRANCH  26  40
ATOM     40  C   UNL A   1      44.282  28.603  35.777  1.00  0.00    -0.014 A 
ATOM     41  C   UNL A   1      45.629  28.963  35.594  1.00  0.00     0.010 A 
ATOM     42  C   UNL A   1      43.969  27.549  36.655  1.00  0.00     0.010 A 
ATOM     43  C   UNL A   1      46.645  28.253  36.241  1.00  0.00     0.020 A 
ATOM     44  C   UNL A   1      44.980  26.851  37.322  1.00  0.00     0.020 A 
ATOM     45  C   UNL A   1      46.314  27.195  37.095  1.00  0.00     0.054 A 
BRANCH  45  46
ATOM     46  S   UNL A   1      47.650  26.291  37.924  1.00  0.00     0.124 S 
ATOM     47  O   UNL A   1      46.902  25.372  38.780  1.00  0.00    -0.237 OA
ATOM     48  O   UNL A   1      48.362  25.670  36.811  1.00  0.00    -0.237 OA
ATOM     49  O   UNL A   1      48.390  27.336  38.629  1.00  0.00    -0.744 OA
ENDBRANCH  45  46
ENDBRANCH  26  40
BRANCH  27  50
ATOM     50  C   UNL A   1      36.725  33.033  30.982  1.00  0.00    -0.014 A 
ATOM     51  C   UNL A   1      35.399  32.883  31.423  1.00  0.00     0.010 A 
ATOM     52  C   UNL A   1      36.990  33.852  29.869  1.00  0.00     0.010 A 
ATOM     53  C   UNL A   1      34.356  33.533  30.758  1.00  0.00     0.020 A 
ATOM     54  C   UNL A   1      35.953  34.524  29.218  1.00  0.00     0.020 A 
ATOM     55  C   UNL A   1      34.640  34.353  29.661  1.00  0.00     0.054 A 
BRANCH  55  56
ATOM     56  S   UNL A   1      33.279  35.239  28.852  1.00  0.00     0.124 S 
ATOM     57  O   UNL A   1      32.520  35.735  29.996  1.00  0.00    -0.237 OA
ATOM     58  O   UNL A   1      33.982  36.253  28.070  1.00  0.00    -0.237 OA
ATOM     59  O   UNL A   1      32.620  34.201  28.063  1.00  0.00    -0.744 OA
ENDBRANCH  55  56
ENDBRANCH  27  50
BRANCH  39  60
ATOM     60  C   UNL A   1      39.851  34.148  37.107  1.00  0.00    -0.014 A 
ATOM     61  C   UNL A   1      39.082  33.869  38.250  1.00  0.00     0.010 A 
ATOM     62  C   UNL A   1      40.456  35.412  36.977  1.00  0.00     0.010 A 
ATOM     63  C   UNL A   1      38.887  34.852  39.225  1.00  0.00     0.020 A 
ATOM     64  C   UNL A   1      40.285  36.387  37.962  1.00  0.00     0.020 A 
ATOM     65  C   UNL A   1      39.486  36.107  39.072  1.00  0.00     0.054 A 
BRANCH  65  66
ATOM     66  S   UNL A   1      39.240  37.360  40.360  1.00  0.00     0.124 S 
ATOM     67  O   UNL A   1      38.207  38.205  39.767  1.00  0.00    -0.237 OA
ATOM     68  O   UNL A   1      38.818  36.563  41.509  1.00  0.00    -0.237 OA
ATOM     69  O   UNL A   1      40.556  37.981  40.491  1.00  0.00    -0.744 OA
ENDBRANCH  65  66
ENDBRANCH  39  60
ENDBRANCH  13  14
ENDBRANCH   6   8
ENDBRANCH   3   4
ENDBRANCH   2   3
ENDBRANCH   1   2
BRANCH   1  70
ATOM     70  C   UNL A   1      37.612  23.039  25.365  1.00  0.00     0.002 C 
BRANCH  70  71
ATOM     71  C   UNL A   1      37.091  21.597  25.444  1.00  0.00     0.021 C 
BRANCH  71  72
ATOM     72  C   UNL A   1      35.702  21.409  26.054  1.00  0.00     0.116 C 
BRANCH  72  73
ATOM     73  N   UNL A   1      34.731  20.925  25.096  1.00  0.00    -0.356 N 
ATOM     74  C   UNL A   1      33.719  21.573  24.460  1.00  0.00     0.224 C 
ATOM     75  H   UNL A   1      34.817  19.971  24.868  1.00  0.00     0.163 HD
ATOM     76  O   UNL A   1      33.135  20.953  23.569  1.00  0.00    -0.275 OA
BRANCH  74  77
ATOM     77  C   UNL A   1      33.381  23.008  24.844  1.00  0.00     0.095 C 
ATOM     78  C   UNL A   1      34.414  23.895  24.107  1.00  0.00     0.041 C 
ATOM     79  C   UNL A   1      31.966  23.483  24.468  1.00  0.00     0.095 C 
ATOM     80  C   UNL A   1      34.055  24.144  22.662  1.00  0.00    -0.030 C 
ATOM     81  C   UNL A   1      31.668  23.421  22.970  1.00  0.00     0.041 C 
ATOM     82  C   UNL A   1      32.834  23.912  22.150  1.00  0.00    -0.030 C 
BRANCH  79  83
ATOM     83  C   UNL A   1      30.819  23.095  25.405  1.00  0.00     0.224 C 
ATOM     84  O   UNL A   1      30.547  21.894  25.550  1.00  0.00    -0.275 OA
ATOM     85  N   UNL A   1      30.049  23.946  26.123  1.00  0.00    -0.351 N 
ATOM     86  H   UNL A   1      29.392  23.495  26.702  1.00  0.00     0.163 HD
BRANCH  85  87
ATOM     87  C   UNL A   1      30.002  25.397  26.205  1.00  0.00     0.103 C 
ATOM     88  C   UNL A   1      29.799  26.065  24.846  1.00  0.00     0.048 C 
ATOM     89  C   UNL A   1      31.281  26.039  26.804  1.00  0.00     0.141 C 
ATOM     90  C   UNL A   1      31.127  26.718  24.506  1.00  0.00     0.119 C 
ATOM     91  N   UNL A   1      31.725  26.999  25.798  1.00  0.00    -0.369 N 
BRANCH  91  92
ATOM     92  C   UNL A   1      32.240  28.216  26.175  1.00  0.00     0.038 A 
ATOM     93  C   UNL A   1      31.601  29.426  25.867  1.00  0.00     0.026 A 
ATOM     94  C   UNL A   1      33.433  28.284  26.907  1.00  0.00     0.046 A 
ATOM     95  C   UNL A   1      32.136  30.659  26.259  1.00  0.00     0.004 A 
ATOM     96  C   UNL A   1      33.980  29.513  27.282  1.00  0.00     0.043 A 
ATOM     97  C   UNL A   1      33.336  30.703  26.961  1.00  0.00     0.020 A 
ATOM     98  Cl  UNL A   1      35.475  29.558  28.135  1.00  0.00    -0.084 Cl
ENDBRANCH  91  92
ENDBRANCH  85  87
ENDBRANCH  79  83
ENDBRANCH  74  77
ENDBRANCH  72  73
ENDBRANCH  71  72
ENDBRANCH  70  71
ENDBRANCH   1  70
TORSDOF 19
ENDMDL
MODEL 3
REMARK VINA RESULT:      -8.9      1.075      7.955
REMARK SMILES O=C(NCCCCCCNC(=O)[C@H]1CC=CC[C@H]1C(=O)N[C@@H]1CCN(c2cccc(Cl)c2)C1)c1ccc(-c2c3nc(c(-c4ccc(S(=O)(=O)[O-])cc4)c4ccc([nH]4)c(-c4ccc(S(=O)(=O)[O-])cc4)c4nc(c(-c5ccc(S(=O)(=O)[O-])cc5)c5ccc2[nH]5)C=C4)C=C3)cc1
REMARK SMILES IDX 6 1 5 2 4 3 3 4 1 5 2 6 34 8 35 9 93 10 36 11 92 12 37 13
REMARK SMILES IDX 38 14 39 15 86 16 40 17 91 18 85 19 87 20 41 21 90 22 84 23
REMARK SMILES IDX 83 24 42 26 72 27 53 28 71 29 54 30 57 31 70 32 88 33 55 34
REMARK SMILES IDX 56 35 69 37 89 38 58 39 43 40 44 41 52 42 45 43 51 44 46 45
REMARK SMILES IDX 47 46 48 47 49 48 50 49 73 50 74 51 82 52 75 53 81 54 76 55
REMARK SMILES IDX 77 56 78 57 79 58 80 59 59 60 60 61 68 62 61 63 67 64 62 65
REMARK SMILES IDX 63 66 64 67 65 68 66 69 7 70 8 71 9 72 10 73 11 74 12 76
REMARK SMILES IDX 13 77 14 78 18 79 15 80 17 81 16 82 19 83 20 84 21 85 22 87
REMARK SMILES IDX 23 88 33 89 24 90 25 91 26 92 27 93 32 94 28 95 30 96 29 97
REMARK SMILES IDX 31 98
REMARK H PARENT 3 7 87 25 57 36 10 75 21 86
REMARK Flexibility Score: inf
ROOT
ATOM      1  C   UNL A   1      35.398  33.717  31.596  1.00  0.00     0.002 C 
ENDROOT
BRANCH   1   2
ATOM      2  C   UNL A   1      34.409  33.329  30.501  1.00  0.00     0.021 C 
BRANCH   2   3
ATOM      3  C   UNL A   1      35.032  32.780  29.226  1.00  0.00     0.116 C 
BRANCH   3   4
ATOM      4  N   UNL A   1      34.207  31.772  28.585  1.00  0.00    -0.352 N 
ATOM      5  O   UNL A   1      33.759  29.876  27.449  1.00  0.00    -0.269 OA
ATOM      6  C   UNL A   1      34.565  30.536  28.094  1.00  0.00     0.251 C 
ATOM      7  H   UNL A   1      33.255  32.005  28.487  1.00  0.00     0.163 HD
BRANCH   6   8
ATOM      8  C   UNL A   1      35.937  30.024  28.318  1.00  0.00     0.039 A 
ATOM      9  C   UNL A   1      36.316  29.506  29.558  1.00  0.00     0.014 A 
ATOM     10  C   UNL A   1      36.864  30.080  27.273  1.00  0.00     0.014 A 
ATOM     11  C   UNL A   1      37.652  29.205  29.803  1.00  0.00     0.010 A 
ATOM     12  C   UNL A   1      38.189  29.691  27.496  1.00  0.00     0.010 A 
ATOM     13  C   UNL A   1      38.606  29.294  28.776  1.00  0.00    -0.014 A 
BRANCH  13  14
ATOM     14  C   UNL A   1      40.022  28.942  29.064  1.00  0.00     0.031 A 
ATOM     15  C   UNL A   1      40.925  29.889  29.810  1.00  0.00     0.074 A 
ATOM     16  C   UNL A   1      40.484  27.734  28.683  1.00  0.00     0.049 A 
ATOM     17  N   UNL A   1      42.165  29.712  30.193  1.00  0.00    -0.248 NA
ATOM     18  C   UNL A   1      40.373  31.204  30.167  1.00  0.00     0.031 C 
ATOM     19  C   UNL A   1      39.710  26.728  27.949  1.00  0.00     0.029 A 
ATOM     20  N   UNL A   1      41.701  27.134  28.884  1.00  0.00    -0.354 N 
ATOM     21  C   UNL A   1      42.551  30.899  30.807  1.00  0.00     0.074 A 
ATOM     22  C   UNL A   1      41.418  31.796  30.730  1.00  0.00     0.031 C 
ATOM     23  C   UNL A   1      40.448  25.616  27.816  1.00  0.00     0.029 A 
ATOM     24  C   UNL A   1      41.764  25.848  28.401  1.00  0.00     0.049 A 
ATOM     25  H   UNL A   1      42.456  27.580  29.331  1.00  0.00     0.167 HD
ATOM     26  C   UNL A   1      43.737  31.212  31.384  1.00  0.00     0.031 A 
ATOM     27  C   UNL A   1      42.768  24.951  28.421  1.00  0.00     0.031 A 
ATOM     28  C   UNL A   1      44.860  30.314  31.471  1.00  0.00     0.049 A 
ATOM     29  C   UNL A   1      44.071  25.323  29.065  1.00  0.00     0.074 A 
ATOM     30  C   UNL A   1      46.090  30.529  32.070  1.00  0.00     0.029 A 
ATOM     31  N   UNL A   1      44.892  29.032  30.943  1.00  0.00    -0.354 N 
ATOM     32  N   UNL A   1      44.401  26.440  29.668  1.00  0.00    -0.248 NA
ATOM     33  C   UNL A   1      45.135  24.311  29.036  1.00  0.00     0.031 C 
ATOM     34  C   UNL A   1      46.881  29.392  31.865  1.00  0.00     0.029 A 
ATOM     35  C   UNL A   1      46.127  28.451  31.185  1.00  0.00     0.049 A 
ATOM     36  H   UNL A   1      44.148  28.599  30.465  1.00  0.00     0.167 HD
ATOM     37  C   UNL A   1      45.704  26.256  30.113  1.00  0.00     0.074 A 
ATOM     38  C   UNL A   1      46.096  24.916  29.720  1.00  0.00     0.031 C 
ATOM     39  C   UNL A   1      46.504  27.118  30.788  1.00  0.00     0.031 A 
BRANCH  26  40
ATOM     40  C   UNL A   1      43.895  32.604  31.942  1.00  0.00    -0.014 A 
ATOM     41  C   UNL A   1      43.608  32.890  33.289  1.00  0.00     0.010 A 
ATOM     42  C   UNL A   1      44.370  33.634  31.110  1.00  0.00     0.010 A 
ATOM     43  C   UNL A   1      43.752  34.190  33.782  1.00  0.00     0.020 A 
ATOM     44  C   UNL A   1      44.538  34.932  31.605  1.00  0.00     0.020 A 
ATOM     45  C   UNL A   1      44.207  35.205  32.933  1.00  0.00     0.054 A 
BRANCH  45  46
ATOM     46  S   UNL A   1      44.387  36.883  33.598  1.00  0.00     0.124 S 
ATOM     47  O   UNL A   1      43.794  36.744  34.926  1.00  0.00    -0.237 OA
ATOM     48  O   UNL A   1      45.833  37.087  33.576  1.00  0.00    -0.237 OA
ATOM     49  O   UNL A   1      43.630  37.710  32.661  1.00  0.00    -0.744 OA
ENDBRANCH  45  46
ENDBRANCH  26  40
BRANCH  27  50
ATOM     50  C   UNL A   1      42.563  23.605  27.821  1.00  0.00    -0.014 A 
ATOM     51  C   UNL A   1      42.836  23.382  26.461  1.00  0.00     0.010 A 
ATOM     52  C   UNL A   1      42.126  22.532  28.619  1.00  0.00     0.010 A 
ATOM     53  C   UNL A   1      42.666  22.111  25.906  1.00  0.00     0.020 A 
ATOM     54  C   UNL A   1      41.981  21.254  28.073  1.00  0.00     0.020 A 
ATOM     55  C   UNL A   1      42.243  21.053  26.716  1.00  0.00     0.054 A 
BRANCH  55  56
ATOM     56  S   UNL A   1      42.091  19.398  25.991  1.00  0.00     0.124 S 
ATOM     57  O   UNL A   1      42.921  19.515  24.795  1.00  0.00    -0.237 OA
ATOM     58  O   UNL A   1      42.620  18.539  27.047  1.00  0.00    -0.237 OA
ATOM     59  O   UNL A   1      40.657  19.263  25.749  1.00  0.00    -0.744 OA
ENDBRANCH  55  56
ENDBRANCH  27  50
BRANCH  39  60
ATOM     60  C   UNL A   1      47.868  26.621  31.183  1.00  0.00    -0.014 A 
ATOM     61  C   UNL A   1      48.051  25.813  32.318  1.00  0.00     0.010 A 
ATOM     62  C   UNL A   1      48.979  26.951  30.386  1.00  0.00     0.010 A 
ATOM     63  C   UNL A   1      49.331  25.376  32.672  1.00  0.00     0.020 A 
ATOM     64  C   UNL A   1      50.256  26.495  30.723  1.00  0.00     0.020 A 
ATOM     65  C   UNL A   1      50.427  25.725  31.875  1.00  0.00     0.054 A 
BRANCH  65  66
ATOM     66  S   UNL A   1      52.075  25.130  32.340  1.00  0.00     0.124 S 
ATOM     67  O   UNL A   1      52.340  25.891  33.557  1.00  0.00    -0.237 OA
ATOM     68  O   UNL A   1      51.861  23.697  32.528  1.00  0.00    -0.237 OA
ATOM     69  O   UNL A   1      52.905  25.482  31.190  1.00  0.00    -0.744 OA
ENDBRANCH  65  66
ENDBRANCH  39  60
ENDBRANCH  13  14
ENDBRANCH   6   8
ENDBRANCH   3   4
ENDBRANCH   2   3
ENDBRANCH   1   2
BRANCH   1  70
ATOM     70  C   UNL A   1      36.849  33.265  31.395  1.00  0.00     0.002 C 
BRANCH  70  71
ATOM     71  C   UNL A   1      37.386  32.188  32.350  1.00  0.00     0.021 C 
BRANCH  71  72
ATOM     72  C   UNL A   1      38.630  32.556  33.158  1.00  0.00     0.116 C 
BRANCH  72  73
ATOM     73  N   UNL A   1      38.509  33.840  33.816  1.00  0.00    -0.356 N 
ATOM     74  C   UNL A   1      39.187  34.356  34.876  1.00  0.00     0.224 C 
ATOM     75  H   UNL A   1      37.824  34.436  33.436  1.00  0.00     0.163 HD
ATOM     76  O   UNL A   1      38.988  35.543  35.138  1.00  0.00    -0.275 OA
BRANCH  74  77
ATOM     77  C   UNL A   1      40.158  33.476  35.652  1.00  0.00     0.095 C 
ATOM     78  C   UNL A   1      41.222  34.437  36.237  1.00  0.00     0.041 C 
ATOM     79  C   UNL A   1      39.544  32.661  36.806  1.00  0.00     0.095 C 
ATOM     80  C   UNL A   1      40.763  35.130  37.498  1.00  0.00    -0.030 C 
ATOM     81  C   UNL A   1      38.877  33.515  37.883  1.00  0.00     0.041 C 
ATOM     82  C   UNL A   1      39.703  34.731  38.220  1.00  0.00    -0.030 C 
BRANCH  79  83
ATOM     83  C   UNL A   1      38.840  31.349  36.445  1.00  0.00     0.224 C 
ATOM     84  O   UNL A   1      37.631  31.234  36.690  1.00  0.00    -0.275 OA
ATOM     85  N   UNL A   1      39.411  30.269  35.862  1.00  0.00    -0.351 N 
ATOM     86  H   UNL A   1      38.777  29.540  35.671  1.00  0.00     0.163 HD
BRANCH  85  87
ATOM     87  C   UNL A   1      40.779  29.975  35.464  1.00  0.00     0.103 C 
ATOM     88  C   UNL A   1      40.984  30.028  33.951  1.00  0.00     0.048 C 
ATOM     89  C   UNL A   1      41.281  28.576  35.909  1.00  0.00     0.141 C 
ATOM     90  C   UNL A   1      41.173  28.587  33.510  1.00  0.00     0.119 C 
ATOM     91  N   UNL A   1      41.727  27.929  34.678  1.00  0.00    -0.369 N 
BRANCH  91  92
ATOM     92  C   UNL A   1      42.853  27.140  34.675  1.00  0.00     0.038 A 
ATOM     93  C   UNL A   1      44.136  27.672  34.486  1.00  0.00     0.026 A 
ATOM     94  C   UNL A   1      42.749  25.758  34.879  1.00  0.00     0.046 A 
ATOM     95  C   UNL A   1      45.275  26.859  34.486  1.00  0.00     0.004 A 
ATOM     96  C   UNL A   1      43.881  24.941  34.859  1.00  0.00     0.043 A 
ATOM     97  C   UNL A   1      45.146  25.485  34.663  1.00  0.00     0.020 A 
ATOM     98  Cl  UNL A   1      43.710  23.239  35.062  1.00  0.00    -0.084 Cl
ENDBRANCH  91  92
ENDBRANCH  85  87
ENDBRANCH  79  83
ENDBRANCH  74  77
ENDBRANCH  72  73
ENDBRANCH  71  72
ENDBRANCH  70  71
ENDBRANCH   1  70
TORSDOF 19
ENDMDL
