MODEL 1
REMARK VINA RESULT:      -9.5      0.000      0.000
REMARK SMILES CCC[NH2+]CC(=O)N1CCC(CC(=O)NCCCCCCNC(=O)c2ccc(-c3c4nc(c(-c5ccc(S(=O)(=O)[O-])cc5)c5ccc([nH]5)c(-c5ccc(S(=O)(=O)[O-])cc5)c5nc(c(-c6ccc(S(=O)(=O)[O-])cc6)c6ccc3[nH]6)C=C5)C=C4)cc2)CC1
REMARK SMILES IDX 17 1 16 2 15 3 13 4 14 5 12 7 11 8 6 9 7 10 8 11 9 12 86 13
REMARK SMILES IDX 10 14 85 15 5 16 4 17 3 20 2 21 1 22 18 23 19 24 20 25 21 26
REMARK SMILES IDX 22 27 23 28 24 30 25 31 26 32 84 33 27 34 83 35 28 36 29 37
REMARK SMILES IDX 30 38 77 39 31 40 82 41 76 42 78 43 32 44 81 45 75 46 74 47
REMARK SMILES IDX 33 49 63 50 44 51 62 52 45 53 48 54 61 55 79 56 46 57 47 58
REMARK SMILES IDX 60 60 80 61 49 62 34 63 35 64 43 65 36 66 42 67 37 68 38 69
REMARK SMILES IDX 39 70 40 71 41 72 64 73 65 74 73 75 66 76 72 77 67 78 68 79
REMARK SMILES IDX 69 80 70 81 71 82 50 83 51 84 59 85 52 86 58 87 53 88 54 89
REMARK SMILES IDX 55 90 56 91 57 92
REMARK H PARENT 15 6 4 18 4 19 22 29 78 48 48 59
REMARK Flexibility Score: inf
ROOT
ATOM      1  C   UNL A   1      33.210  25.485  26.070  1.00  0.00     0.021 C 
ENDROOT
BRANCH   1   2
ATOM      2  C   UNL A   1      31.699  25.730  26.001  1.00  0.00     0.116 C 
BRANCH   2   3
ATOM      3  N   UNL A   1      30.995  24.837  26.909  1.00  0.00    -0.356 N 
ATOM      4  C   UNL A   1      30.535  23.569  26.713  1.00  0.00     0.220 C 
ATOM      5  O   UNL A   1      29.845  23.051  27.593  1.00  0.00    -0.275 OA
ATOM      6  H   UNL A   1      30.824  25.207  27.805  1.00  0.00     0.163 HD
BRANCH   4   7
ATOM      7  C   UNL A   1      30.874  22.810  25.445  1.00  0.00     0.103 C 
BRANCH   7   8
ATOM      8  C   UNL A   1      31.948  21.721  25.630  1.00  0.00     0.002 C 
ATOM      9  C   UNL A   1      35.826  21.554  24.667  1.00  0.00     0.277 C 
ATOM     10  O   UNL A   1      35.692  22.133  23.585  1.00  0.00    -0.268 OA
ATOM     11  N   UNL A   1      34.744  20.930  25.278  1.00  0.00    -0.338 N 
ATOM     12  C   UNL A   1      33.733  20.333  24.429  1.00  0.00     0.120 C 
ATOM     13  C   UNL A   1      34.260  21.299  26.598  1.00  0.00     0.120 C 
ATOM     14  C   UNL A   1      32.519  21.238  24.292  1.00  0.00     0.026 C 
ATOM     15  C   UNL A   1      33.078  22.264  26.515  1.00  0.00     0.026 C 
BRANCH   9  16
ATOM     16  C   UNL A   1      37.235  21.287  25.241  1.00  0.00     0.362 C 
BRANCH  16  17
ATOM     17  N   UNL A   1      38.125  22.457  25.291  1.00  0.00    -0.338 N 
ATOM     18  H   UNL A   1      38.986  22.194  25.772  1.00  0.00     0.346 HD
ATOM     19  H   UNL A   1      38.305  22.751  24.331  1.00  0.00     0.346 HD
BRANCH  17  20
ATOM     20  C   UNL A   1      37.527  23.587  25.992  1.00  0.00     0.260 C 
BRANCH  20  21
ATOM     21  C   UNL A   1      38.479  24.418  26.874  1.00  0.00     0.058 C 
ATOM     22  C   UNL A   1      39.845  24.776  26.298  1.00  0.00     0.010 C 
ENDBRANCH  20  21
ENDBRANCH  17  20
ENDBRANCH  16  17
ENDBRANCH   9  16
ENDBRANCH   7   8
ENDBRANCH   4   7
ENDBRANCH   2   3
ENDBRANCH   1   2
BRANCH   1  23
ATOM     23  C   UNL A   1      34.029  26.279  25.057  1.00  0.00     0.002 C 
BRANCH  23  24
ATOM     24  C   UNL A   1      33.251  27.364  24.315  1.00  0.00     0.002 C 
BRANCH  24  25
ATOM     25  C   UNL A   1      33.670  28.807  24.620  1.00  0.00     0.021 C 
BRANCH  25  26
ATOM     26  C   UNL A   1      34.081  29.080  26.066  1.00  0.00     0.116 C 
BRANCH  26  27
ATOM     27  N   UNL A   1      33.692  30.411  26.503  1.00  0.00    -0.352 N 
ATOM     28  C   UNL A   1      34.181  31.181  27.522  1.00  0.00     0.251 C 
ATOM     29  H   UNL A   1      32.963  30.823  25.983  1.00  0.00     0.163 HD
ATOM     30  O   UNL A   1      33.558  32.185  27.877  1.00  0.00    -0.269 OA
BRANCH  28  31
ATOM     31  C   UNL A   1      35.439  30.818  28.205  1.00  0.00     0.039 A 
ATOM     32  C   UNL A   1      36.576  31.597  27.980  1.00  0.00     0.014 A 
ATOM     33  C   UNL A   1      35.513  29.690  29.029  1.00  0.00     0.014 A 
ATOM     34  C   UNL A   1      37.775  31.272  28.617  1.00  0.00     0.010 A 
ATOM     35  C   UNL A   1      36.694  29.405  29.714  1.00  0.00     0.010 A 
ATOM     36  C   UNL A   1      37.839  30.188  29.508  1.00  0.00    -0.014 A 
BRANCH  36  37
ATOM     37  C   UNL A   1      39.097  29.880  30.236  1.00  0.00     0.031 A 
ATOM     38  C   UNL A   1      40.021  28.798  29.747  1.00  0.00     0.074 A 
ATOM     39  C   UNL A   1      39.384  30.552  31.366  1.00  0.00     0.049 A 
ATOM     40  N   UNL A   1      41.169  28.411  30.244  1.00  0.00    -0.248 NA
ATOM     41  C   UNL A   1      39.592  28.036  28.563  1.00  0.00     0.031 C 
ATOM     42  C   UNL A   1      38.536  31.578  31.978  1.00  0.00     0.029 A 
ATOM     43  N   UNL A   1      40.467  30.474  32.205  1.00  0.00    -0.354 N 
ATOM     44  C   UNL A   1      41.591  27.353  29.446  1.00  0.00     0.074 A 
ATOM     45  C   UNL A   1      40.554  27.130  28.460  1.00  0.00     0.031 C 
ATOM     46  C   UNL A   1      39.143  32.051  33.079  1.00  0.00     0.029 A 
ATOM     47  C   UNL A   1      40.406  31.345  33.266  1.00  0.00     0.049 A 
ATOM     48  H   UNL A   1      41.216  29.851  32.061  1.00  0.00     0.167 HD
ATOM     49  C   UNL A   1      42.742  26.641  29.517  1.00  0.00     0.031 A 
ATOM     50  C   UNL A   1      41.271  31.558  34.277  1.00  0.00     0.031 A 
ATOM     51  C   UNL A   1      43.773  26.869  30.495  1.00  0.00     0.049 A 
ATOM     52  C   UNL A   1      42.557  30.782  34.315  1.00  0.00     0.074 A 
ATOM     53  C   UNL A   1      45.008  26.254  30.605  1.00  0.00     0.029 A 
ATOM     54  N   UNL A   1      43.686  27.779  31.538  1.00  0.00    -0.354 N 
ATOM     55  N   UNL A   1      42.981  29.849  33.494  1.00  0.00    -0.248 NA
ATOM     56  C   UNL A   1      43.490  31.101  35.403  1.00  0.00     0.031 C 
ATOM     57  C   UNL A   1      45.648  26.758  31.744  1.00  0.00     0.029 A 
ATOM     58  C   UNL A   1      44.834  27.724  32.311  1.00  0.00     0.049 A 
ATOM     59  H   UNL A   1      42.922  28.377  31.704  1.00  0.00     0.167 HD
ATOM     60  C   UNL A   1      44.238  29.481  33.959  1.00  0.00     0.074 A 
ATOM     61  C   UNL A   1      44.514  30.309  35.116  1.00  0.00     0.031 C 
ATOM     62  C   UNL A   1      45.087  28.540  33.473  1.00  0.00     0.031 A 
BRANCH  49  63
ATOM     63  C   UNL A   1      42.937  25.535  28.510  1.00  0.00    -0.014 A 
ATOM     64  C   UNL A   1      42.579  24.207  28.807  1.00  0.00     0.010 A 
ATOM     65  C   UNL A   1      43.462  25.833  27.239  1.00  0.00     0.010 A 
ATOM     66  C   UNL A   1      42.788  23.190  27.871  1.00  0.00     0.020 A 
ATOM     67  C   UNL A   1      43.646  24.822  26.290  1.00  0.00     0.020 A 
ATOM     68  C   UNL A   1      43.327  23.504  26.620  1.00  0.00     0.054 A 
BRANCH  68  69
ATOM     69  S   UNL A   1      43.581  22.167  25.421  1.00  0.00     0.124 S 
ATOM     70  O   UNL A   1      42.443  21.294  25.698  1.00  0.00    -0.237 OA
ATOM     71  O   UNL A   1      43.534  22.870  24.140  1.00  0.00    -0.237 OA
ATOM     72  O   UNL A   1      44.887  21.620  25.780  1.00  0.00    -0.744 OA
ENDBRANCH  68  69
ENDBRANCH  49  63
BRANCH  50  73
ATOM     73  C   UNL A   1      40.951  32.571  35.318  1.00  0.00    -0.014 A 
ATOM     74  C   UNL A   1      40.238  32.209  36.474  1.00  0.00     0.010 A 
ATOM     75  C   UNL A   1      41.393  33.899  35.174  1.00  0.00     0.010 A 
ATOM     76  C   UNL A   1      39.963  33.159  37.463  1.00  0.00     0.020 A 
ATOM     77  C   UNL A   1      41.143  34.844  36.172  1.00  0.00     0.020 A 
ATOM     78  C   UNL A   1      40.422  34.470  37.307  1.00  0.00     0.054 A 
BRANCH  78  79
ATOM     79  S   UNL A   1      40.118  35.668  38.636  1.00  0.00     0.124 S 
ATOM     80  O   UNL A   1      39.718  36.856  37.888  1.00  0.00    -0.237 OA
ATOM     81  O   UNL A   1      39.062  35.021  39.410  1.00  0.00    -0.237 OA
ATOM     82  O   UNL A   1      41.409  35.759  39.315  1.00  0.00    -0.744 OA
ENDBRANCH  78  79
ENDBRANCH  50  73
BRANCH  62  83
ATOM     83  C   UNL A   1      46.398  28.368  34.192  1.00  0.00    -0.014 A 
ATOM     84  C   UNL A   1      47.529  29.123  33.833  1.00  0.00     0.010 A 
ATOM     85  C   UNL A   1      46.496  27.449  35.252  1.00  0.00     0.010 A 
ATOM     86  C   UNL A   1      48.748  28.925  34.487  1.00  0.00     0.020 A 
ATOM     87  C   UNL A   1      47.707  27.268  35.927  1.00  0.00     0.020 A 
ATOM     88  C   UNL A   1      48.830  27.992  35.526  1.00  0.00     0.054 A 
BRANCH  88  89
ATOM     89  S   UNL A   1      50.420  27.757  36.366  1.00  0.00     0.124 S 
ATOM     90  O   UNL A   1      51.342  27.631  35.240  1.00  0.00    -0.237 OA
ATOM     91  O   UNL A   1      50.553  28.978  37.155  1.00  0.00    -0.237 OA
ATOM     92  O   UNL A   1      50.220  26.538  37.147  1.00  0.00    -0.744 OA
ENDBRANCH  88  89
ENDBRANCH  62  83
ENDBRANCH  36  37
ENDBRANCH  28  31
ENDBRANCH  26  27
ENDBRANCH  25  26
ENDBRANCH  24  25
ENDBRANCH  23  24
ENDBRANCH   1  23
TORSDOF 21
ENDMDL
MODEL 2
REMARK VINA RESULT:      -9.4      0.909      8.284
REMARK SMILES CCC[NH2+]CC(=O)N1CCC(CC(=O)NCCCCCCNC(=O)c2ccc(-c3c4nc(c(-c5ccc(S(=O)(=O)[O-])cc5)c5ccc([nH]5)c(-c5ccc(S(=O)(=O)[O-])cc5)c5nc(c(-c6ccc(S(=O)(=O)[O-])cc6)c6ccc3[nH]6)C=C5)C=C4)cc2)CC1
REMARK SMILES IDX 17 1 16 2 15 3 13 4 14 5 12 7 11 8 6 9 7 10 8 11 9 12 86 13
REMARK SMILES IDX 10 14 85 15 5 16 4 17 3 20 2 21 1 22 18 23 19 24 20 25 21 26
REMARK SMILES IDX 22 27 23 28 24 30 25 31 26 32 84 33 27 34 83 35 28 36 29 37
REMARK SMILES IDX 30 38 77 39 31 40 82 41 76 42 78 43 32 44 81 45 75 46 74 47
REMARK SMILES IDX 33 49 63 50 44 51 62 52 45 53 48 54 61 55 79 56 46 57 47 58
REMARK SMILES IDX 60 60 80 61 49 62 34 63 35 64 43 65 36 66 42 67 37 68 38 69
REMARK SMILES IDX 39 70 40 71 41 72 64 73 65 74 73 75 66 76 72 77 67 78 68 79
REMARK SMILES IDX 69 80 70 81 71 82 50 83 51 84 59 85 52 86 58 87 53 88 54 89
REMARK SMILES IDX 55 90 56 91 57 92
REMARK H PARENT 15 6 4 18 4 19 22 29 78 48 48 59
REMARK Flexibility Score: inf
ROOT
ATOM      1  C   UNL A   1      33.363  25.208  26.076  1.00  0.00     0.021 C 
ENDROOT
BRANCH   1   2
ATOM      2  C   UNL A   1      31.890  25.630  26.050  1.00  0.00     0.116 C 
BRANCH   2   3
ATOM      3  N   UNL A   1      31.099  24.773  26.920  1.00  0.00    -0.356 N 
ATOM      4  C   UNL A   1      30.553  23.547  26.685  1.00  0.00     0.220 C 
ATOM      5  O   UNL A   1      29.804  23.063  27.536  1.00  0.00    -0.275 OA
ATOM      6  H   UNL A   1      30.932  25.136  27.820  1.00  0.00     0.163 HD
BRANCH   4   7
ATOM      7  C   UNL A   1      30.869  22.790  25.409  1.00  0.00     0.103 C 
BRANCH   7   8
ATOM      8  C   UNL A   1      31.911  21.669  25.583  1.00  0.00     0.002 C 
ATOM      9  C   UNL A   1      35.867  21.538  25.005  1.00  0.00     0.277 C 
ATOM     10  O   UNL A   1      35.848  22.232  23.983  1.00  0.00    -0.268 OA
ATOM     11  N   UNL A   1      34.723  20.871  25.432  1.00  0.00    -0.338 N 
ATOM     12  C   UNL A   1      33.801  20.387  24.426  1.00  0.00     0.120 C 
ATOM     13  C   UNL A   1      34.110  21.105  26.728  1.00  0.00     0.120 C 
ATOM     14  C   UNL A   1      32.614  21.322  24.265  1.00  0.00     0.026 C 
ATOM     15  C   UNL A   1      32.948  22.094  26.631  1.00  0.00     0.026 C 
BRANCH   9  16
ATOM     16  C   UNL A   1      37.208  21.186  25.686  1.00  0.00     0.362 C 
BRANCH  16  17
ATOM     17  N   UNL A   1      38.350  22.029  25.297  1.00  0.00    -0.338 N 
ATOM     18  H   UNL A   1      38.641  21.769  24.355  1.00  0.00     0.346 HD
ATOM     19  H   UNL A   1      38.046  23.001  25.342  1.00  0.00     0.346 HD
BRANCH  17  20
ATOM     20  C   UNL A   1      39.488  21.881  26.195  1.00  0.00     0.260 C 
BRANCH  20  21
ATOM     21  C   UNL A   1      40.165  20.497  26.208  1.00  0.00     0.058 C 
ATOM     22  C   UNL A   1      41.050  20.153  27.401  1.00  0.00     0.010 C 
ENDBRANCH  20  21
ENDBRANCH  17  20
ENDBRANCH  16  17
ENDBRANCH   9  16
ENDBRANCH   7   8
ENDBRANCH   4   7
ENDBRANCH   2   3
ENDBRANCH   1   2
BRANCH   1  23
ATOM     23  C   UNL A   1      34.296  26.112  25.275  1.00  0.00     0.002 C 
BRANCH  23  24
ATOM     24  C   UNL A   1      33.592  27.062  24.308  1.00  0.00     0.002 C 
BRANCH  24  25
ATOM     25  C   UNL A   1      33.794  28.557  24.583  1.00  0.00     0.021 C 
BRANCH  25  26
ATOM     26  C   UNL A   1      34.270  28.908  25.992  1.00  0.00     0.116 C 
BRANCH  26  27
ATOM     27  N   UNL A   1      33.842  30.237  26.398  1.00  0.00    -0.352 N 
ATOM     28  C   UNL A   1      34.283  31.029  27.422  1.00  0.00     0.251 C 
ATOM     29  H   UNL A   1      33.123  30.628  25.849  1.00  0.00     0.163 HD
ATOM     30  O   UNL A   1      33.630  32.025  27.743  1.00  0.00    -0.269 OA
BRANCH  28  31
ATOM     31  C   UNL A   1      35.524  30.697  28.151  1.00  0.00     0.039 A 
ATOM     32  C   UNL A   1      35.499  29.662  29.088  1.00  0.00     0.014 A 
ATOM     33  C   UNL A   1      36.698  31.430  27.947  1.00  0.00     0.014 A 
ATOM     34  C   UNL A   1      36.661  29.330  29.786  1.00  0.00     0.010 A 
ATOM     35  C   UNL A   1      37.874  31.056  28.597  1.00  0.00     0.010 A 
ATOM     36  C   UNL A   1      37.865  30.008  29.530  1.00  0.00    -0.014 A 
BRANCH  36  37
ATOM     37  C   UNL A   1      39.117  29.615  30.225  1.00  0.00     0.031 A 
ATOM     38  C   UNL A   1      39.528  30.288  31.506  1.00  0.00     0.074 A 
ATOM     39  C   UNL A   1      39.907  28.674  29.674  1.00  0.00     0.049 A 
ATOM     40  N   UNL A   1      40.574  30.057  32.258  1.00  0.00    -0.248 NA
ATOM     41  C   UNL A   1      38.667  31.378  31.995  1.00  0.00     0.031 C 
ATOM     42  C   UNL A   1      39.651  27.995  28.402  1.00  0.00     0.029 A 
ATOM     43  N   UNL A   1      41.088  28.128  30.111  1.00  0.00    -0.354 N 
ATOM     44  C   UNL A   1      40.508  30.979  33.297  1.00  0.00     0.074 A 
ATOM     45  C   UNL A   1      39.343  31.802  33.054  1.00  0.00     0.031 C 
ATOM     46  C   UNL A   1      40.631  27.105  28.175  1.00  0.00     0.029 A 
ATOM     47  C   UNL A   1      41.596  27.169  29.267  1.00  0.00     0.049 A 
ATOM     48  H   UNL A   1      41.529  28.398  30.948  1.00  0.00     0.167 HD
ATOM     49  C   UNL A   1      41.332  31.118  34.364  1.00  0.00     0.031 A 
ATOM     50  C   UNL A   1      42.712  26.420  29.362  1.00  0.00     0.031 A 
ATOM     51  C   UNL A   1      42.486  30.293  34.606  1.00  0.00     0.049 A 
ATOM     52  C   UNL A   1      43.591  26.567  30.571  1.00  0.00     0.074 A 
ATOM     53  C   UNL A   1      43.341  30.304  35.694  1.00  0.00     0.029 A 
ATOM     54  N   UNL A   1      42.954  29.314  33.741  1.00  0.00    -0.354 N 
ATOM     55  N   UNL A   1      43.459  27.382  31.591  1.00  0.00    -0.248 NA
ATOM     56  C   UNL A   1      44.759  25.681  30.651  1.00  0.00     0.031 C 
ATOM     57  C   UNL A   1      44.354  29.365  35.465  1.00  0.00     0.029 A 
ATOM     58  C   UNL A   1      44.100  28.732  34.259  1.00  0.00     0.049 A 
ATOM     59  H   UNL A   1      42.533  29.069  32.886  1.00  0.00     0.167 HD
ATOM     60  C   UNL A   1      44.519  27.095  32.443  1.00  0.00     0.074 A 
ATOM     61  C   UNL A   1      45.266  26.015  31.829  1.00  0.00     0.031 C 
ATOM     62  C   UNL A   1      44.846  27.673  33.626  1.00  0.00     0.031 A 
BRANCH  49  63
ATOM     63  C   UNL A   1      41.015  32.218  35.346  1.00  0.00    -0.014 A 
ATOM     64  C   UNL A   1      40.143  32.000  36.429  1.00  0.00     0.010 A 
ATOM     65  C   UNL A   1      41.620  33.480  35.200  1.00  0.00     0.010 A 
ATOM     66  C   UNL A   1      39.843  33.036  37.317  1.00  0.00     0.020 A 
ATOM     67  C   UNL A   1      41.344  34.511  36.103  1.00  0.00     0.020 A 
ATOM     68  C   UNL A   1      40.440  34.289  37.144  1.00  0.00     0.054 A 
BRANCH  68  69
ATOM     69  S   UNL A   1      40.040  35.615  38.315  1.00  0.00     0.124 S 
ATOM     70  O   UNL A   1      41.267  35.699  39.104  1.00  0.00    -0.237 OA
ATOM     71  O   UNL A   1      39.779  36.753  37.437  1.00  0.00    -0.237 OA
ATOM     72  O   UNL A   1      38.873  35.105  39.032  1.00  0.00    -0.744 OA
ENDBRANCH  68  69
ENDBRANCH  49  63
BRANCH  50  73
ATOM     73  C   UNL A   1      43.038  25.448  28.285  1.00  0.00    -0.014 A 
ATOM     74  C   UNL A   1      43.841  25.828  27.195  1.00  0.00     0.010 A 
ATOM     75  C   UNL A   1      42.576  24.121  28.364  1.00  0.00     0.010 A 
ATOM     76  C   UNL A   1      44.168  24.902  26.199  1.00  0.00     0.020 A 
ATOM     77  C   UNL A   1      42.922  23.187  27.385  1.00  0.00     0.020 A 
ATOM     78  C   UNL A   1      43.710  23.586  26.304  1.00  0.00     0.054 A 
BRANCH  78  79
ATOM     79  S   UNL A   1      44.207  22.383  25.038  1.00  0.00     0.124 S 
ATOM     80  O   UNL A   1      43.847  21.115  25.667  1.00  0.00    -0.237 OA
ATOM     81  O   UNL A   1      43.391  22.775  23.892  1.00  0.00    -0.237 OA
ATOM     82  O   UNL A   1      45.640  22.623  24.884  1.00  0.00    -0.744 OA
ENDBRANCH  78  79
ENDBRANCH  50  73
BRANCH  62  83
ATOM     83  C   UNL A   1      46.061  27.138  34.335  1.00  0.00    -0.014 A 
ATOM     84  C   UNL A   1      45.961  26.078  35.253  1.00  0.00     0.010 A 
ATOM     85  C   UNL A   1      47.325  27.695  34.067  1.00  0.00     0.010 A 
ATOM     86  C   UNL A   1      47.094  25.617  35.928  1.00  0.00     0.020 A 
ATOM     87  C   UNL A   1      48.465  27.218  34.719  1.00  0.00     0.020 A 
ATOM     88  C   UNL A   1      48.339  26.197  35.661  1.00  0.00     0.054 A 
BRANCH  88  89
ATOM     89  S   UNL A   1      49.798  25.579  36.544  1.00  0.00     0.124 S 
ATOM     90  O   UNL A   1      49.246  24.451  37.290  1.00  0.00    -0.237 OA
ATOM     91  O   UNL A   1      50.709  25.228  35.457  1.00  0.00    -0.237 OA
ATOM     92  O   UNL A   1      50.218  26.718  37.356  1.00  0.00    -0.744 OA
ENDBRANCH  88  89
ENDBRANCH  62  83
ENDBRANCH  36  37
ENDBRANCH  28  31
ENDBRANCH  26  27
ENDBRANCH  25  26
ENDBRANCH  24  25
ENDBRANCH  23  24
ENDBRANCH   1  23
TORSDOF 21
ENDMDL
MODEL 3
REMARK VINA RESULT:      -8.6      5.245      8.458
REMARK SMILES CCC[NH2+]CC(=O)N1CCC(CC(=O)NCCCCCCNC(=O)c2ccc(-c3c4nc(c(-c5ccc(S(=O)(=O)[O-])cc5)c5ccc([nH]5)c(-c5ccc(S(=O)(=O)[O-])cc5)c5nc(c(-c6ccc(S(=O)(=O)[O-])cc6)c6ccc3[nH]6)C=C5)C=C4)cc2)CC1
REMARK SMILES IDX 17 1 16 2 15 3 13 4 14 5 12 7 11 8 6 9 7 10 8 11 9 12 86 13
REMARK SMILES IDX 10 14 85 15 5 16 4 17 3 20 2 21 1 22 18 23 19 24 20 25 21 26
REMARK SMILES IDX 22 27 23 28 24 30 25 31 26 32 84 33 27 34 83 35 28 36 29 37
REMARK SMILES IDX 30 38 77 39 31 40 82 41 76 42 78 43 32 44 81 45 75 46 74 47
REMARK SMILES IDX 33 49 63 50 44 51 62 52 45 53 48 54 61 55 79 56 46 57 47 58
REMARK SMILES IDX 60 60 80 61 49 62 34 63 35 64 43 65 36 66 42 67 37 68 38 69
REMARK SMILES IDX 39 70 40 71 41 72 64 73 65 74 73 75 66 76 72 77 67 78 68 79
REMARK SMILES IDX 69 80 70 81 71 82 50 83 51 84 59 85 52 86 58 87 53 88 54 89
REMARK SMILES IDX 55 90 56 91 57 92
REMARK H PARENT 15 6 4 18 4 19 22 29 78 48 48 59
REMARK Flexibility Score: inf
ROOT
ATOM      1  C   UNL A   1      36.647  22.566  23.605  1.00  0.00     0.021 C 
ENDROOT
BRANCH   1   2
ATOM      2  C   UNL A   1      35.194  23.041  23.701  1.00  0.00     0.116 C 
BRANCH   2   3
ATOM      3  N   UNL A   1      34.360  22.011  24.302  1.00  0.00    -0.356 N 
ATOM      4  C   UNL A   1      33.068  21.663  24.039  1.00  0.00     0.220 C 
ATOM      5  O   UNL A   1      32.521  20.837  24.772  1.00  0.00    -0.275 OA
ATOM      6  H   UNL A   1      34.797  21.482  25.008  1.00  0.00     0.163 HD
BRANCH   4   7
ATOM      7  C   UNL A   1      32.326  22.272  22.865  1.00  0.00     0.103 C 
BRANCH   7   8
ATOM      8  C   UNL A   1      31.697  23.647  23.163  1.00  0.00     0.002 C 
ATOM      9  C   UNL A   1      33.168  27.003  24.766  1.00  0.00     0.277 C 
ATOM     10  O   UNL A   1      33.855  26.424  25.614  1.00  0.00    -0.268 OA
ATOM     11  N   UNL A   1      32.082  26.366  24.176  1.00  0.00    -0.338 N 
ATOM     12  C   UNL A   1      31.331  25.419  24.974  1.00  0.00     0.120 C 
ATOM     13  C   UNL A   1      31.982  26.138  22.744  1.00  0.00     0.120 C 
ATOM     14  C   UNL A   1      31.730  23.987  24.658  1.00  0.00     0.026 C 
ATOM     15  C   UNL A   1      32.437  24.729  22.365  1.00  0.00     0.026 C 
BRANCH   9  16
ATOM     16  C   UNL A   1      33.335  28.520  24.529  1.00  0.00     0.362 C 
BRANCH  16  17
ATOM     17  N   UNL A   1      34.033  29.250  25.599  1.00  0.00    -0.338 N 
ATOM     18  H   UNL A   1      34.389  28.575  26.277  1.00  0.00     0.346 HD
ATOM     19  H   UNL A   1      34.788  29.784  25.168  1.00  0.00     0.346 HD
BRANCH  17  20
ATOM     20  C   UNL A   1      33.166  30.194  26.292  1.00  0.00     0.260 C 
BRANCH  20  21
ATOM     21  C   UNL A   1      31.773  29.669  26.688  1.00  0.00     0.058 C 
ATOM     22  C   UNL A   1      31.707  28.487  27.649  1.00  0.00     0.010 C 
ENDBRANCH  20  21
ENDBRANCH  17  20
ENDBRANCH  16  17
ENDBRANCH   9  16
ENDBRANCH   7   8
ENDBRANCH   4   7
ENDBRANCH   2   3
ENDBRANCH   1   2
BRANCH   1  23
ATOM     23  C   UNL A   1      36.938  21.259  24.336  1.00  0.00     0.002 C 
BRANCH  23  24
ATOM     24  C   UNL A   1      37.681  21.418  25.661  1.00  0.00     0.002 C 
BRANCH  24  25
ATOM     25  C   UNL A   1      39.188  21.139  25.614  1.00  0.00     0.021 C 
BRANCH  25  26
ATOM     26  C   UNL A   1      39.703  20.131  26.640  1.00  0.00     0.116 C 
BRANCH  26  27
ATOM     27  N   UNL A   1      40.840  19.375  26.139  1.00  0.00    -0.352 N 
ATOM     28  C   UNL A   1      42.080  19.803  25.753  1.00  0.00     0.251 C 
ATOM     29  H   UNL A   1      40.694  18.403  26.068  1.00  0.00     0.163 HD
ATOM     30  O   UNL A   1      42.823  19.034  25.138  1.00  0.00    -0.269 OA
BRANCH  28  31
ATOM     31  C   UNL A   1      42.532  21.176  26.057  1.00  0.00     0.039 A 
ATOM     32  C   UNL A   1      42.848  21.503  27.378  1.00  0.00     0.014 A 
ATOM     33  C   UNL A   1      42.604  22.151  25.057  1.00  0.00     0.014 A 
ATOM     34  C   UNL A   1      43.279  22.795  27.688  1.00  0.00     0.010 A 
ATOM     35  C   UNL A   1      43.096  23.421  25.356  1.00  0.00     0.010 A 
ATOM     36  C   UNL A   1      43.430  23.758  26.676  1.00  0.00    -0.014 A 
BRANCH  36  37
ATOM     37  C   UNL A   1      43.950  25.112  26.994  1.00  0.00     0.031 A 
ATOM     38  C   UNL A   1      45.410  25.433  26.827  1.00  0.00     0.074 A 
ATOM     39  C   UNL A   1      43.105  26.044  27.475  1.00  0.00     0.049 A 
ATOM     40  N   UNL A   1      46.032  26.566  27.035  1.00  0.00    -0.248 NA
ATOM     41  C   UNL A   1      46.291  24.336  26.395  1.00  0.00     0.031 C 
ATOM     42  C   UNL A   1      41.680  25.836  27.743  1.00  0.00     0.029 A 
ATOM     43  N   UNL A   1      43.321  27.353  27.828  1.00  0.00    -0.354 N 
ATOM     44  C   UNL A   1      47.375  26.316  26.775  1.00  0.00     0.074 A 
ATOM     45  C   UNL A   1      47.484  24.913  26.438  1.00  0.00     0.031 C 
ATOM     46  C   UNL A   1      41.146  26.982  28.193  1.00  0.00     0.029 A 
ATOM     47  C   UNL A   1      42.191  27.997  28.271  1.00  0.00     0.049 A 
ATOM     48  H   UNL A   1      44.202  27.788  27.769  1.00  0.00     0.167 HD
ATOM     49  C   UNL A   1      48.421  27.178  26.800  1.00  0.00     0.031 A 
ATOM     50  C   UNL A   1      42.012  29.265  28.690  1.00  0.00     0.031 A 
ATOM     51  C   UNL A   1      48.308  28.575  27.130  1.00  0.00     0.049 A 
ATOM     52  C   UNL A   1      43.178  30.212  28.675  1.00  0.00     0.074 A 
ATOM     53  C   UNL A   1      49.292  29.547  27.111  1.00  0.00     0.029 A 
ATOM     54  N   UNL A   1      47.141  29.197  27.549  1.00  0.00    -0.354 N 
ATOM     55  N   UNL A   1      44.424  29.979  28.335  1.00  0.00    -0.248 NA
ATOM     56  C   UNL A   1      42.911  31.597  29.082  1.00  0.00     0.031 C 
ATOM     57  C   UNL A   1      48.731  30.747  27.565  1.00  0.00     0.029 A 
ATOM     58  C   UNL A   1      47.386  30.534  27.815  1.00  0.00     0.049 A 
ATOM     59  H   UNL A   1      46.267  28.753  27.642  1.00  0.00     0.167 HD
ATOM     60  C   UNL A   1      45.086  31.193  28.472  1.00  0.00     0.074 A 
ATOM     61  C   UNL A   1      44.096  32.161  28.901  1.00  0.00     0.031 C 
ATOM     62  C   UNL A   1      46.395  31.482  28.263  1.00  0.00     0.031 A 
BRANCH  49  63
ATOM     63  C   UNL A   1      49.785  26.624  26.471  1.00  0.00    -0.014 A 
ATOM     64  C   UNL A   1      50.646  26.160  27.483  1.00  0.00     0.010 A 
ATOM     65  C   UNL A   1      50.200  26.542  25.130  1.00  0.00     0.010 A 
ATOM     66  C   UNL A   1      51.916  25.672  27.163  1.00  0.00     0.020 A 
ATOM     67  C   UNL A   1      51.459  26.027  24.804  1.00  0.00     0.020 A 
ATOM     68  C   UNL A   1      52.317  25.615  25.825  1.00  0.00     0.054 A 
BRANCH  68  69
ATOM     69  S   UNL A   1      53.967  24.969  25.436  1.00  0.00     0.124 S 
ATOM     70  O   UNL A   1      54.382  25.844  24.343  1.00  0.00    -0.237 OA
ATOM     71  O   UNL A   1      54.689  25.151  26.694  1.00  0.00    -0.237 OA
ATOM     72  O   UNL A   1      53.717  23.579  25.062  1.00  0.00    -0.744 OA
ENDBRANCH  68  69
ENDBRANCH  49  63
BRANCH  50  73
ATOM     73  C   UNL A   1      40.664  29.709  29.134  1.00  0.00    -0.014 A 
ATOM     74  C   UNL A   1      39.598  29.786  28.220  1.00  0.00     0.010 A 
ATOM     75  C   UNL A   1      40.430  30.023  30.485  1.00  0.00     0.010 A 
ATOM     76  C   UNL A   1      38.326  30.177  28.647  1.00  0.00     0.020 A 
ATOM     77  C   UNL A   1      39.154  30.389  30.921  1.00  0.00     0.020 A 
ATOM     78  C   UNL A   1      38.111  30.472  29.997  1.00  0.00     0.054 A 
BRANCH  78  79
ATOM     79  S   UNL A   1      36.436  30.908  30.543  1.00  0.00     0.124 S 
ATOM     80  O   UNL A   1      36.262  30.046  31.708  1.00  0.00    -0.237 OA
ATOM     81  O   UNL A   1      36.556  32.336  30.823  1.00  0.00    -0.237 OA
ATOM     82  O   UNL A   1      35.604  30.577  29.387  1.00  0.00    -0.744 OA
ENDBRANCH  78  79
ENDBRANCH  50  73
BRANCH  62  83
ATOM     83  C   UNL A   1      46.825  32.906  28.488  1.00  0.00    -0.014 A 
ATOM     84  C   UNL A   1      46.762  33.858  27.455  1.00  0.00     0.010 A 
ATOM     85  C   UNL A   1      47.285  33.303  29.757  1.00  0.00     0.010 A 
ATOM     86  C   UNL A   1      47.198  35.168  27.672  1.00  0.00     0.020 A 
ATOM     87  C   UNL A   1      47.696  34.619  29.986  1.00  0.00     0.020 A 
ATOM     88  C   UNL A   1      47.670  35.537  28.936  1.00  0.00     0.054 A 
BRANCH  88  89
ATOM     89  S   UNL A   1      48.224  37.244  29.198  1.00  0.00     0.124 S 
ATOM     90  O   UNL A   1      47.071  37.837  29.870  1.00  0.00    -0.237 OA
ATOM     91  O   UNL A   1      49.415  37.074  30.026  1.00  0.00    -0.237 OA
ATOM     92  O   UNL A   1      48.478  37.736  27.846  1.00  0.00    -0.744 OA
ENDBRANCH  88  89
ENDBRANCH  62  83
ENDBRANCH  36  37
ENDBRANCH  28  31
ENDBRANCH  26  27
ENDBRANCH  25  26
ENDBRANCH  24  25
ENDBRANCH  23  24
ENDBRANCH   1  23
TORSDOF 21
ENDMDL
