MODEL 1
REMARK VINA RESULT:     -11.3      0.000      0.000
REMARK SMILES Cc1cc(C)c2c(=O)n(CCCC(=O)NCCCCCCNC(=O)c3ccc(-c4c5nc(c(-c6ccc(S(=O)(=O)[O-])cc6)c6ccc([nH]6)c(-c6ccc(S(=O)(=O)[O-])cc6)c6nc(c(-c7ccc(S(=O)(=O)[O-])cc7)c7ccc4[nH]7)C=C6)C=C5)cc3)sc2n1
REMARK SMILES IDX 18 1 17 2 16 3 15 4 13 5 14 6 12 8 11 9 10 10 9 11 1 12 2 13
REMARK SMILES IDX 3 14 87 15 4 16 86 17 5 18 6 19 85 20 7 21 8 22 19 23 20 24
REMARK SMILES IDX 21 25 22 26 23 27 24 29 25 30 26 31 84 32 27 33 83 34 28 35
REMARK SMILES IDX 29 36 30 37 77 38 31 39 82 40 76 41 78 42 32 43 81 44 75 45
REMARK SMILES IDX 74 46 33 48 63 49 44 50 62 51 45 52 48 53 61 54 79 55 46 56
REMARK SMILES IDX 47 57 60 59 80 60 49 61 34 62 35 63 43 64 36 65 42 66 37 67
REMARK SMILES IDX 38 68 39 69 40 70 41 71 64 72 65 73 73 74 66 75 72 76 67 77
REMARK SMILES IDX 68 78 69 79 70 80 71 81 50 82 51 83 59 84 52 85 58 86 53 87
REMARK SMILES IDX 54 88 55 89 56 90 57 91
REMARK H PARENT 15 7 22 28 78 47 48 58
REMARK Flexibility Score: inf
ROOT
ATOM      1  C   UNL A   1      33.758  28.704  27.084  1.00  0.00     0.002 C 
ENDROOT
BRANCH   1   2
ATOM      2  C   UNL A   1      33.282  28.802  25.633  1.00  0.00     0.021 C 
BRANCH   2   3
ATOM      3  C   UNL A   1      31.787  29.097  25.511  1.00  0.00     0.116 C 
BRANCH   3   4
ATOM      4  N   UNL A   1      31.202  28.318  24.446  1.00  0.00    -0.356 N 
ATOM      5  C   UNL A   1      30.684  27.064  24.444  1.00  0.00     0.220 C 
ATOM      6  O   UNL A   1      30.293  26.621  23.361  1.00  0.00    -0.275 OA
ATOM      7  H   UNL A   1      31.174  28.773  23.573  1.00  0.00     0.163 HD
BRANCH   5   8
ATOM      8  C   UNL A   1      30.445  26.283  25.723  1.00  0.00     0.102 C 
BRANCH   8   9
ATOM      9  C   UNL A   1      31.592  25.567  26.448  1.00  0.00     0.033 C 
BRANCH   9  10
ATOM     10  C   UNL A   1      32.859  25.085  25.717  1.00  0.00     0.139 C 
BRANCH  10  11
ATOM     11  N   UNL A   1      32.974  23.717  25.221  1.00  0.00    -0.262 N 
ATOM     12  C   UNL A   1      32.462  17.631  24.809  1.00  0.00     0.067 C 
ATOM     13  C   UNL A   1      33.021  19.023  24.826  1.00  0.00     0.039 A 
ATOM     14  C   UNL A   1      34.406  19.239  24.853  1.00  0.00     0.027 A 
ATOM     15  N   UNL A   1      32.122  20.033  24.833  1.00  0.00    -0.241 NA
ATOM     16  C   UNL A   1      34.911  20.549  24.932  1.00  0.00    -0.033 A 
ATOM     17  C   UNL A   1      32.640  21.272  24.914  1.00  0.00     0.146 A 
ATOM     18  C   UNL A   1      36.384  20.812  24.861  1.00  0.00     0.045 C 
ATOM     19  C   UNL A   1      33.980  21.575  25.033  1.00  0.00     0.081 A 
ATOM     20  S   UNL A   1      31.647  22.728  24.797  1.00  0.00    -0.035 S 
ATOM     21  C   UNL A   1      34.187  23.019  25.304  1.00  0.00     0.270 A 
ATOM     22  O   UNL A   1      35.259  23.472  25.651  1.00  0.00    -0.268 OA
ENDBRANCH  10  11
ENDBRANCH   9  10
ENDBRANCH   8   9
ENDBRANCH   5   8
ENDBRANCH   3   4
ENDBRANCH   2   3
ENDBRANCH   1   2
BRANCH   1  23
ATOM     23  C   UNL A   1      34.755  29.792  27.516  1.00  0.00     0.002 C 
BRANCH  23  24
ATOM     24  C   UNL A   1      34.196  31.219  27.624  1.00  0.00     0.021 C 
BRANCH  24  25
ATOM     25  C   UNL A   1      35.220  32.215  28.137  1.00  0.00     0.116 C 
BRANCH  25  26
ATOM     26  N   UNL A   1      34.910  32.687  29.492  1.00  0.00    -0.352 N 
ATOM     27  C   UNL A   1      35.271  32.124  30.703  1.00  0.00     0.251 C 
ATOM     28  H   UNL A   1      34.377  33.514  29.546  1.00  0.00     0.163 HD
ATOM     29  O   UNL A   1      34.686  32.419  31.738  1.00  0.00    -0.269 OA
BRANCH  27  30
ATOM     30  C   UNL A   1      36.397  31.178  30.711  1.00  0.00     0.039 A 
ATOM     31  C   UNL A   1      36.236  29.791  30.720  1.00  0.00     0.014 A 
ATOM     32  C   UNL A   1      37.664  31.747  30.670  1.00  0.00     0.014 A 
ATOM     33  C   UNL A   1      37.378  28.996  30.652  1.00  0.00     0.010 A 
ATOM     34  C   UNL A   1      38.731  30.985  30.312  1.00  0.00     0.010 A 
ATOM     35  C   UNL A   1      38.621  29.616  30.454  1.00  0.00    -0.014 A 
BRANCH  35  36
ATOM     36  C   UNL A   1      39.872  28.887  30.374  1.00  0.00     0.031 A 
ATOM     37  C   UNL A   1      40.522  28.639  31.682  1.00  0.00     0.074 A 
ATOM     38  C   UNL A   1      40.257  28.277  29.229  1.00  0.00     0.049 A 
ATOM     39  N   UNL A   1      41.622  29.155  32.116  1.00  0.00    -0.248 NA
ATOM     40  C   UNL A   1      39.797  27.848  32.689  1.00  0.00     0.031 C 
ATOM     41  C   UNL A   1      39.542  28.152  27.947  1.00  0.00     0.029 A 
ATOM     42  N   UNL A   1      41.357  27.521  29.011  1.00  0.00    -0.354 N 
ATOM     43  C   UNL A   1      41.838  28.606  33.373  1.00  0.00     0.074 A 
ATOM     44  C   UNL A   1      40.609  27.950  33.744  1.00  0.00     0.031 C 
ATOM     45  C   UNL A   1      40.110  27.177  27.198  1.00  0.00     0.029 A 
ATOM     46  C   UNL A   1      41.330  26.748  27.856  1.00  0.00     0.049 A 
ATOM     47  H   UNL A   1      42.124  27.519  29.628  1.00  0.00     0.167 HD
ATOM     48  C   UNL A   1      43.083  28.560  33.924  1.00  0.00     0.031 A 
ATOM     49  C   UNL A   1      42.245  25.813  27.494  1.00  0.00     0.031 A 
ATOM     50  C   UNL A   1      44.018  29.363  33.175  1.00  0.00     0.049 A 
ATOM     51  C   UNL A   1      43.479  26.125  28.264  1.00  0.00     0.074 A 
ATOM     52  C   UNL A   1      44.139  30.712  32.914  1.00  0.00     0.029 A 
ATOM     53  N   UNL A   1      44.750  28.721  32.201  1.00  0.00    -0.354 N 
ATOM     54  N   UNL A   1      44.152  27.234  28.108  1.00  0.00    -0.248 NA
ATOM     55  C   UNL A   1      43.661  25.460  29.544  1.00  0.00     0.031 C 
ATOM     56  C   UNL A   1      44.510  30.786  31.539  1.00  0.00     0.029 A 
ATOM     57  C   UNL A   1      44.681  29.484  31.059  1.00  0.00     0.049 A 
ATOM     58  H   UNL A   1      45.235  27.870  32.303  1.00  0.00     0.167 HD
ATOM     59  C   UNL A   1      44.496  27.629  29.395  1.00  0.00     0.074 A 
ATOM     60  C   UNL A   1      44.230  26.456  30.231  1.00  0.00     0.031 C 
ATOM     61  C   UNL A   1      44.686  28.946  29.712  1.00  0.00     0.031 A 
BRANCH  48  62
ATOM     62  C   UNL A   1      43.538  27.530  34.921  1.00  0.00    -0.014 A 
ATOM     63  C   UNL A   1      44.052  27.964  36.159  1.00  0.00     0.010 A 
ATOM     64  C   UNL A   1      43.712  26.170  34.594  1.00  0.00     0.010 A 
ATOM     65  C   UNL A   1      44.762  27.094  36.996  1.00  0.00     0.020 A 
ATOM     66  C   UNL A   1      44.383  25.283  35.440  1.00  0.00     0.020 A 
ATOM     67  C   UNL A   1      44.933  25.760  36.623  1.00  0.00     0.054 A 
BRANCH  67  68
ATOM     68  S   UNL A   1      45.944  24.677  37.661  1.00  0.00     0.124 S 
ATOM     69  O   UNL A   1      46.920  25.611  38.214  1.00  0.00    -0.237 OA
ATOM     70  O   UNL A   1      44.962  24.153  38.607  1.00  0.00    -0.237 OA
ATOM     71  O   UNL A   1      46.478  23.698  36.718  1.00  0.00    -0.744 OA
ENDBRANCH  67  68
ENDBRANCH  48  62
BRANCH  49  72
ATOM     72  C   UNL A   1      41.996  24.480  26.881  1.00  0.00    -0.014 A 
ATOM     73  C   UNL A   1      42.989  23.831  26.120  1.00  0.00     0.010 A 
ATOM     74  C   UNL A   1      40.893  23.708  27.302  1.00  0.00     0.010 A 
ATOM     75  C   UNL A   1      42.916  22.450  25.852  1.00  0.00     0.020 A 
ATOM     76  C   UNL A   1      40.814  22.332  27.040  1.00  0.00     0.020 A 
ATOM     77  C   UNL A   1      41.840  21.703  26.339  1.00  0.00     0.054 A 
BRANCH  77  78
ATOM     78  S   UNL A   1      41.848  19.892  26.157  1.00  0.00     0.124 S 
ATOM     79  O   UNL A   1      42.797  19.689  25.068  1.00  0.00    -0.237 OA
ATOM     80  O   UNL A   1      42.294  19.444  27.475  1.00  0.00    -0.237 OA
ATOM     81  O   UNL A   1      40.458  19.571  25.836  1.00  0.00    -0.744 OA
ENDBRANCH  77  78
ENDBRANCH  49  72
BRANCH  61  82
ATOM     82  C   UNL A   1      44.700  29.963  28.585  1.00  0.00    -0.014 A 
ATOM     83  C   UNL A   1      43.549  30.375  27.879  1.00  0.00     0.010 A 
ATOM     84  C   UNL A   1      45.902  30.648  28.345  1.00  0.00     0.010 A 
ATOM     85  C   UNL A   1      43.610  31.426  26.945  1.00  0.00     0.020 A 
ATOM     86  C   UNL A   1      45.968  31.703  27.431  1.00  0.00     0.020 A 
ATOM     87  C   UNL A   1      44.824  32.082  26.727  1.00  0.00     0.054 A 
BRANCH  87  88
ATOM     88  S   UNL A   1      44.903  33.456  25.540  1.00  0.00     0.124 S 
ATOM     89  O   UNL A   1      46.324  33.798  25.545  1.00  0.00    -0.237 OA
ATOM     90  O   UNL A   1      44.407  32.850  24.307  1.00  0.00    -0.237 OA
ATOM     91  O   UNL A   1      44.024  34.470  26.120  1.00  0.00    -0.744 OA
ENDBRANCH  87  88
ENDBRANCH  61  82
ENDBRANCH  35  36
ENDBRANCH  27  30
ENDBRANCH  25  26
ENDBRANCH  24  25
ENDBRANCH  23  24
ENDBRANCH   1  23
TORSDOF 19
ENDMDL
MODEL 2
REMARK VINA RESULT:     -11.1      2.800      9.647
REMARK SMILES Cc1cc(C)c2c(=O)n(CCCC(=O)NCCCCCCNC(=O)c3ccc(-c4c5nc(c(-c6ccc(S(=O)(=O)[O-])cc6)c6ccc([nH]6)c(-c6ccc(S(=O)(=O)[O-])cc6)c6nc(c(-c7ccc(S(=O)(=O)[O-])cc7)c7ccc4[nH]7)C=C6)C=C5)cc3)sc2n1
REMARK SMILES IDX 18 1 17 2 16 3 15 4 13 5 14 6 12 8 11 9 10 10 9 11 1 12 2 13
REMARK SMILES IDX 3 14 87 15 4 16 86 17 5 18 6 19 85 20 7 21 8 22 19 23 20 24
REMARK SMILES IDX 21 25 22 26 23 27 24 29 25 30 26 31 84 32 27 33 83 34 28 35
REMARK SMILES IDX 29 36 30 37 77 38 31 39 82 40 76 41 78 42 32 43 81 44 75 45
REMARK SMILES IDX 74 46 33 48 63 49 44 50 62 51 45 52 48 53 61 54 79 55 46 56
REMARK SMILES IDX 47 57 60 59 80 60 49 61 34 62 35 63 43 64 36 65 42 66 37 67
REMARK SMILES IDX 38 68 39 69 40 70 41 71 64 72 65 73 73 74 66 75 72 76 67 77
REMARK SMILES IDX 68 78 69 79 70 80 71 81 50 82 51 83 59 84 52 85 58 86 53 87
REMARK SMILES IDX 54 88 55 89 56 90 57 91
REMARK H PARENT 15 7 22 28 78 47 48 58
REMARK Flexibility Score: inf
ROOT
ATOM      1  C   UNL A   1      36.609  20.702  24.962  1.00  0.00     0.002 C 
ENDROOT
BRANCH   1   2
ATOM      2  C   UNL A   1      35.191  20.125  24.983  1.00  0.00     0.021 C 
BRANCH   2   3
ATOM      3  C   UNL A   1      34.156  21.100  25.543  1.00  0.00     0.116 C 
BRANCH   3   4
ATOM      4  N   UNL A   1      33.065  21.271  24.615  1.00  0.00    -0.356 N 
ATOM      5  C   UNL A   1      32.916  22.118  23.565  1.00  0.00     0.220 C 
ATOM      6  O   UNL A   1      31.838  22.084  22.965  1.00  0.00    -0.275 OA
ATOM      7  H   UNL A   1      32.298  20.673  24.769  1.00  0.00     0.163 HD
BRANCH   5   8
ATOM      8  C   UNL A   1      34.059  22.966  23.039  1.00  0.00     0.102 C 
BRANCH   8   9
ATOM      9  C   UNL A   1      34.392  24.331  23.657  1.00  0.00     0.033 C 
BRANCH   9  10
ATOM     10  C   UNL A   1      34.133  25.657  22.920  1.00  0.00     0.139 C 
BRANCH  10  11
ATOM     11  N   UNL A   1      32.887  26.395  23.100  1.00  0.00    -0.262 N 
ATOM     12  C   UNL A   1      28.137  30.109  22.043  1.00  0.00     0.067 C 
ATOM     13  C   UNL A   1      29.317  29.440  22.684  1.00  0.00     0.039 A 
ATOM     14  C   UNL A   1      29.932  30.000  23.813  1.00  0.00     0.027 A 
ATOM     15  N   UNL A   1      29.751  28.299  22.104  1.00  0.00    -0.241 NA
ATOM     16  C   UNL A   1      31.075  29.394  24.363  1.00  0.00    -0.033 A 
ATOM     17  C   UNL A   1      30.849  27.749  22.653  1.00  0.00     0.146 A 
ATOM     18  C   UNL A   1      31.690  29.914  25.626  1.00  0.00     0.045 C 
ATOM     19  C   UNL A   1      31.569  28.274  23.706  1.00  0.00     0.081 A 
ATOM     20  S   UNL A   1      31.493  26.188  22.134  1.00  0.00    -0.035 S 
ATOM     21  C   UNL A   1      32.831  27.527  23.925  1.00  0.00     0.270 A 
ATOM     22  O   UNL A   1      33.715  27.936  24.652  1.00  0.00    -0.268 OA
ENDBRANCH  10  11
ENDBRANCH   9  10
ENDBRANCH   8   9
ENDBRANCH   5   8
ENDBRANCH   3   4
ENDBRANCH   2   3
ENDBRANCH   1   2
BRANCH   1  23
ATOM     23  C   UNL A   1      36.766  22.067  25.652  1.00  0.00     0.002 C 
BRANCH  23  24
ATOM     24  C   UNL A   1      38.135  22.749  25.503  1.00  0.00     0.021 C 
BRANCH  24  25
ATOM     25  C   UNL A   1      39.131  22.305  26.557  1.00  0.00     0.116 C 
BRANCH  25  26
ATOM     26  N   UNL A   1      40.472  22.084  26.001  1.00  0.00    -0.352 N 
ATOM     27  C   UNL A   1      41.522  22.979  25.904  1.00  0.00     0.251 C 
ATOM     28  H   UNL A   1      40.647  21.179  25.653  1.00  0.00     0.163 HD
ATOM     29  O   UNL A   1      42.456  22.779  25.137  1.00  0.00    -0.269 OA
BRANCH  27  30
ATOM     30  C   UNL A   1      41.491  24.168  26.769  1.00  0.00     0.039 A 
ATOM     31  C   UNL A   1      42.111  24.227  28.019  1.00  0.00     0.014 A 
ATOM     32  C   UNL A   1      40.827  25.274  26.252  1.00  0.00     0.014 A 
ATOM     33  C   UNL A   1      42.075  25.432  28.715  1.00  0.00     0.010 A 
ATOM     34  C   UNL A   1      41.047  26.502  26.791  1.00  0.00     0.010 A 
ATOM     35  C   UNL A   1      41.531  26.561  28.083  1.00  0.00    -0.014 A 
BRANCH  35  36
ATOM     36  C   UNL A   1      41.438  27.862  28.715  1.00  0.00     0.031 A 
ATOM     37  C   UNL A   1      42.488  28.822  28.303  1.00  0.00     0.074 A 
ATOM     38  C   UNL A   1      40.337  28.225  29.414  1.00  0.00     0.049 A 
ATOM     39  N   UNL A   1      43.451  29.282  29.026  1.00  0.00    -0.248 NA
ATOM     40  C   UNL A   1      42.574  29.202  26.883  1.00  0.00     0.031 C 
ATOM     41  C   UNL A   1      39.072  27.497  29.617  1.00  0.00     0.029 A 
ATOM     42  N   UNL A   1      40.077  29.410  30.011  1.00  0.00    -0.354 N 
ATOM     43  C   UNL A   1      44.157  30.164  28.217  1.00  0.00     0.074 A 
ATOM     44  C   UNL A   1      43.684  29.945  26.874  1.00  0.00     0.031 C 
ATOM     45  C   UNL A   1      38.120  28.348  30.065  1.00  0.00     0.029 A 
ATOM     46  C   UNL A   1      38.748  29.622  30.361  1.00  0.00     0.049 A 
ATOM     47  H   UNL A   1      40.780  30.077  30.185  1.00  0.00     0.167 HD
ATOM     48  C   UNL A   1      44.932  31.150  28.748  1.00  0.00     0.031 A 
ATOM     49  C   UNL A   1      38.219  30.776  30.841  1.00  0.00     0.031 A 
ATOM     50  C   UNL A   1      45.112  30.969  30.168  1.00  0.00     0.049 A 
ATOM     51  C   UNL A   1      39.361  31.561  31.380  1.00  0.00     0.074 A 
ATOM     52  C   UNL A   1      45.726  30.010  30.947  1.00  0.00     0.029 A 
ATOM     53  N   UNL A   1      44.230  31.625  30.997  1.00  0.00    -0.354 N 
ATOM     54  N   UNL A   1      40.086  31.159  32.388  1.00  0.00    -0.248 NA
ATOM     55  C   UNL A   1      40.007  32.511  30.487  1.00  0.00     0.031 C 
ATOM     56  C   UNL A   1      44.839  29.812  32.047  1.00  0.00     0.029 A 
ATOM     57  C   UNL A   1      43.780  30.717  31.926  1.00  0.00     0.049 A 
ATOM     58  H   UNL A   1      43.968  32.572  30.935  1.00  0.00     0.167 HD
ATOM     59  C   UNL A   1      41.396  31.457  32.031  1.00  0.00     0.074 A 
ATOM     60  C   UNL A   1      41.275  32.357  30.881  1.00  0.00     0.031 C 
ATOM     61  C   UNL A   1      42.451  30.729  32.507  1.00  0.00     0.031 A 
BRANCH  48  62
ATOM     62  C   UNL A   1      45.238  32.455  28.067  1.00  0.00    -0.014 A 
ATOM     63  C   UNL A   1      46.578  32.881  27.983  1.00  0.00     0.010 A 
ATOM     64  C   UNL A   1      44.243  33.396  27.730  1.00  0.00     0.010 A 
ATOM     65  C   UNL A   1      46.902  34.200  27.642  1.00  0.00     0.020 A 
ATOM     66  C   UNL A   1      44.557  34.703  27.349  1.00  0.00     0.020 A 
ATOM     67  C   UNL A   1      45.886  35.106  27.339  1.00  0.00     0.054 A 
BRANCH  67  68
ATOM     68  S   UNL A   1      46.314  36.832  27.008  1.00  0.00     0.124 S 
ATOM     69  O   UNL A   1      47.093  37.184  28.190  1.00  0.00    -0.237 OA
ATOM     70  O   UNL A   1      47.066  36.729  25.760  1.00  0.00    -0.237 OA
ATOM     71  O   UNL A   1      45.015  37.492  26.894  1.00  0.00    -0.744 OA
ENDBRANCH  67  68
ENDBRANCH  48  62
BRANCH  49  72
ATOM     72  C   UNL A   1      36.911  31.397  30.491  1.00  0.00    -0.014 A 
ATOM     73  C   UNL A   1      36.297  32.333  31.347  1.00  0.00     0.010 A 
ATOM     74  C   UNL A   1      36.418  31.302  29.174  1.00  0.00     0.010 A 
ATOM     75  C   UNL A   1      35.280  33.188  30.882  1.00  0.00     0.020 A 
ATOM     76  C   UNL A   1      35.406  32.151  28.702  1.00  0.00     0.020 A 
ATOM     77  C   UNL A   1      34.859  33.110  29.552  1.00  0.00     0.054 A 
BRANCH  77  78
ATOM     78  S   UNL A   1      33.686  34.343  28.906  1.00  0.00     0.124 S 
ATOM     79  O   UNL A   1      32.935  33.575  27.918  1.00  0.00    -0.237 OA
ATOM     80  O   UNL A   1      32.943  34.729  30.103  1.00  0.00    -0.237 OA
ATOM     81  O   UNL A   1      34.550  35.385  28.354  1.00  0.00    -0.744 OA
ENDBRANCH  77  78
ENDBRANCH  49  72
BRANCH  61  82
ATOM     82  C   UNL A   1      42.184  29.697  33.588  1.00  0.00    -0.014 A 
ATOM     83  C   UNL A   1      41.561  28.451  33.355  1.00  0.00     0.010 A 
ATOM     84  C   UNL A   1      42.735  29.931  34.858  1.00  0.00     0.010 A 
ATOM     85  C   UNL A   1      41.474  27.483  34.372  1.00  0.00     0.020 A 
ATOM     86  C   UNL A   1      42.667  28.969  35.870  1.00  0.00     0.020 A 
ATOM     87  C   UNL A   1      42.028  27.752  35.626  1.00  0.00     0.054 A 
BRANCH  87  88
ATOM     88  S   UNL A   1      41.941  26.496  36.937  1.00  0.00     0.124 S 
ATOM     89  O   UNL A   1      43.030  26.891  37.828  1.00  0.00    -0.237 OA
ATOM     90  O   UNL A   1      40.594  26.677  37.472  1.00  0.00    -0.237 OA
ATOM     91  O   UNL A   1      42.153  25.236  36.227  1.00  0.00    -0.744 OA
ENDBRANCH  87  88
ENDBRANCH  61  82
ENDBRANCH  35  36
ENDBRANCH  27  30
ENDBRANCH  25  26
ENDBRANCH  24  25
ENDBRANCH  23  24
ENDBRANCH   1  23
TORSDOF 19
ENDMDL
MODEL 3
REMARK VINA RESULT:     -10.6      2.664      9.051
REMARK SMILES Cc1cc(C)c2c(=O)n(CCCC(=O)NCCCCCCNC(=O)c3ccc(-c4c5nc(c(-c6ccc(S(=O)(=O)[O-])cc6)c6ccc([nH]6)c(-c6ccc(S(=O)(=O)[O-])cc6)c6nc(c(-c7ccc(S(=O)(=O)[O-])cc7)c7ccc4[nH]7)C=C6)C=C5)cc3)sc2n1
REMARK SMILES IDX 18 1 17 2 16 3 15 4 13 5 14 6 12 8 11 9 10 10 9 11 1 12 2 13
REMARK SMILES IDX 3 14 87 15 4 16 86 17 5 18 6 19 85 20 7 21 8 22 19 23 20 24
REMARK SMILES IDX 21 25 22 26 23 27 24 29 25 30 26 31 84 32 27 33 83 34 28 35
REMARK SMILES IDX 29 36 30 37 77 38 31 39 82 40 76 41 78 42 32 43 81 44 75 45
REMARK SMILES IDX 74 46 33 48 63 49 44 50 62 51 45 52 48 53 61 54 79 55 46 56
REMARK SMILES IDX 47 57 60 59 80 60 49 61 34 62 35 63 43 64 36 65 42 66 37 67
REMARK SMILES IDX 38 68 39 69 40 70 41 71 64 72 65 73 73 74 66 75 72 76 67 77
REMARK SMILES IDX 68 78 69 79 70 80 71 81 50 82 51 83 59 84 52 85 58 86 53 87
REMARK SMILES IDX 54 88 55 89 56 90 57 91
REMARK H PARENT 15 7 22 28 78 47 48 58
REMARK Flexibility Score: inf
ROOT
ATOM      1  C   UNL A   1      37.078  21.506  24.568  1.00  0.00     0.002 C 
ENDROOT
BRANCH   1   2
ATOM      2  C   UNL A   1      35.932  22.234  23.861  1.00  0.00     0.021 C 
BRANCH   2   3
ATOM      3  C   UNL A   1      35.553  23.552  24.535  1.00  0.00     0.116 C 
BRANCH   3   4
ATOM      4  N   UNL A   1      34.915  24.439  23.592  1.00  0.00    -0.356 N 
ATOM      5  C   UNL A   1      34.116  25.518  23.788  1.00  0.00     0.220 C 
ATOM      6  O   UNL A   1      33.659  26.067  22.782  1.00  0.00    -0.275 OA
ATOM      7  H   UNL A   1      35.088  24.224  22.646  1.00  0.00     0.163 HD
BRANCH   5   8
ATOM      8  C   UNL A   1      33.902  26.131  25.160  1.00  0.00     0.102 C 
BRANCH   8   9
ATOM      9  C   UNL A   1      32.852  25.574  26.129  1.00  0.00     0.033 C 
BRANCH   9  10
ATOM     10  C   UNL A   1      31.637  24.758  25.652  1.00  0.00     0.139 C 
BRANCH  10  11
ATOM     11  N   UNL A   1      31.734  23.322  25.411  1.00  0.00    -0.262 N 
ATOM     12  C   UNL A   1      33.995  17.650  24.989  1.00  0.00     0.067 C 
ATOM     13  C   UNL A   1      33.302  18.941  24.673  1.00  0.00     0.039 A 
ATOM     14  C   UNL A   1      32.900  19.237  23.363  1.00  0.00     0.027 A 
ATOM     15  N   UNL A   1      33.113  19.792  25.707  1.00  0.00    -0.241 NA
ATOM     16  C   UNL A   1      32.309  20.480  23.073  1.00  0.00    -0.033 A 
ATOM     17  C   UNL A   1      32.550  20.972  25.394  1.00  0.00     0.146 A 
ATOM     18  C   UNL A   1      31.779  20.781  21.705  1.00  0.00     0.045 C 
ATOM     19  C   UNL A   1      32.203  21.384  24.123  1.00  0.00     0.081 A 
ATOM     20  S   UNL A   1      32.092  22.163  26.615  1.00  0.00    -0.035 S 
ATOM     21  C   UNL A   1      31.798  22.811  24.108  1.00  0.00     0.270 A 
ATOM     22  O   UNL A   1      31.656  23.438  23.077  1.00  0.00    -0.268 OA
ENDBRANCH  10  11
ENDBRANCH   9  10
ENDBRANCH   8   9
ENDBRANCH   5   8
ENDBRANCH   3   4
ENDBRANCH   2   3
ENDBRANCH   1   2
BRANCH   1  23
ATOM     23  C   UNL A   1      37.476  22.091  25.933  1.00  0.00     0.002 C 
BRANCH  23  24
ATOM     24  C   UNL A   1      38.843  22.789  25.999  1.00  0.00     0.021 C 
BRANCH  24  25
ATOM     25  C   UNL A   1      39.903  21.942  26.678  1.00  0.00     0.116 C 
BRANCH  25  26
ATOM     26  N   UNL A   1      41.177  21.950  25.948  1.00  0.00    -0.352 N 
ATOM     27  C   UNL A   1      42.040  23.010  25.734  1.00  0.00     0.251 C 
ATOM     28  H   UNL A   1      41.454  21.087  25.562  1.00  0.00     0.163 HD
ATOM     29  O   UNL A   1      42.885  22.970  24.849  1.00  0.00    -0.269 OA
BRANCH  27  30
ATOM     30  C   UNL A   1      41.924  24.178  26.621  1.00  0.00     0.039 A 
ATOM     31  C   UNL A   1      42.458  24.221  27.911  1.00  0.00     0.014 A 
ATOM     32  C   UNL A   1      41.271  25.280  26.085  1.00  0.00     0.014 A 
ATOM     33  C   UNL A   1      42.348  25.409  28.629  1.00  0.00     0.010 A 
ATOM     34  C   UNL A   1      41.426  26.500  26.663  1.00  0.00     0.010 A 
ATOM     35  C   UNL A   1      41.822  26.540  27.986  1.00  0.00    -0.014 A 
BRANCH  35  36
ATOM     36  C   UNL A   1      41.656  27.824  28.639  1.00  0.00     0.031 A 
ATOM     37  C   UNL A   1      42.702  28.820  28.309  1.00  0.00     0.074 A 
ATOM     38  C   UNL A   1      40.508  28.142  29.279  1.00  0.00     0.049 A 
ATOM     39  N   UNL A   1      43.609  29.288  29.097  1.00  0.00    -0.248 NA
ATOM     40  C   UNL A   1      42.861  29.233  26.905  1.00  0.00     0.031 C 
ATOM     41  C   UNL A   1      39.253  27.378  29.392  1.00  0.00     0.029 A 
ATOM     42  N   UNL A   1      40.180  29.307  29.884  1.00  0.00    -0.354 N 
ATOM     43  C   UNL A   1      44.337  30.205  28.350  1.00  0.00     0.074 A 
ATOM     44  C   UNL A   1      43.948  30.005  26.976  1.00  0.00     0.031 C 
ATOM     45  C   UNL A   1      38.253  28.194  29.801  1.00  0.00     0.029 A 
ATOM     46  C   UNL A   1      38.828  29.477  30.159  1.00  0.00     0.049 A 
ATOM     47  H   UNL A   1      40.853  29.988  30.113  1.00  0.00     0.167 HD
ATOM     48  C   UNL A   1      45.053  31.199  28.946  1.00  0.00     0.031 A 
ATOM     49  C   UNL A   1      38.241  30.606  30.632  1.00  0.00     0.031 A 
ATOM     50  C   UNL A   1      45.154  30.991  30.369  1.00  0.00     0.049 A 
ATOM     51  C   UNL A   1      39.328  31.408  31.253  1.00  0.00     0.074 A 
ATOM     52  C   UNL A   1      45.747  30.031  31.164  1.00  0.00     0.029 A 
ATOM     53  N   UNL A   1      44.207  31.606  31.159  1.00  0.00    -0.354 N 
ATOM     54  N   UNL A   1      40.004  31.002  32.294  1.00  0.00    -0.248 NA
ATOM     55  C   UNL A   1      39.999  32.393  30.419  1.00  0.00     0.031 C 
ATOM     56  C   UNL A   1      44.803  29.786  32.205  1.00  0.00     0.029 A 
ATOM     57  C   UNL A   1      43.729  30.666  32.041  1.00  0.00     0.049 A 
ATOM     58  H   UNL A   1      43.924  32.547  31.102  1.00  0.00     0.167 HD
ATOM     59  C   UNL A   1      41.323  31.341  32.021  1.00  0.00     0.074 A 
ATOM     60  C   UNL A   1      41.246  32.264  30.884  1.00  0.00     0.031 C 
ATOM     61  C   UNL A   1      42.368  30.630  32.542  1.00  0.00     0.031 A 
BRANCH  48  62
ATOM     62  C   UNL A   1      45.361  32.527  28.311  1.00  0.00    -0.014 A 
ATOM     63  C   UNL A   1      46.460  32.621  27.435  1.00  0.00     0.010 A 
ATOM     64  C   UNL A   1      44.771  33.736  28.734  1.00  0.00     0.010 A 
ATOM     65  C   UNL A   1      46.981  33.864  27.052  1.00  0.00     0.020 A 
ATOM     66  C   UNL A   1      45.258  34.981  28.327  1.00  0.00     0.020 A 
ATOM     67  C   UNL A   1      46.382  35.037  27.513  1.00  0.00     0.054 A 
BRANCH  67  68
ATOM     68  S   UNL A   1      47.131  36.631  27.101  1.00  0.00     0.124 S 
ATOM     69  O   UNL A   1      48.220  36.234  26.213  1.00  0.00    -0.237 OA
ATOM     70  O   UNL A   1      46.021  37.338  26.466  1.00  0.00    -0.237 OA
ATOM     71  O   UNL A   1      47.543  37.163  28.398  1.00  0.00    -0.744 OA
ENDBRANCH  67  68
ENDBRANCH  48  62
BRANCH  49  72
ATOM     72  C   UNL A   1      36.940  31.200  30.218  1.00  0.00    -0.014 A 
ATOM     73  C   UNL A   1      36.106  31.849  31.151  1.00  0.00     0.010 A 
ATOM     74  C   UNL A   1      36.661  31.399  28.850  1.00  0.00     0.010 A 
ATOM     75  C   UNL A   1      35.082  32.720  30.731  1.00  0.00     0.020 A 
ATOM     76  C   UNL A   1      35.642  32.265  28.424  1.00  0.00     0.020 A 
ATOM     77  C   UNL A   1      34.874  32.943  29.368  1.00  0.00     0.054 A 
BRANCH  77  78
ATOM     78  S   UNL A   1      33.682  34.212  28.836  1.00  0.00     0.124 S 
ATOM     79  O   UNL A   1      32.860  33.487  27.873  1.00  0.00    -0.237 OA
ATOM     80  O   UNL A   1      33.021  34.568  30.089  1.00  0.00    -0.237 OA
ATOM     81  O   UNL A   1      34.526  35.261  28.265  1.00  0.00    -0.744 OA
ENDBRANCH  77  78
ENDBRANCH  49  72
BRANCH  61  82
ATOM     82  C   UNL A   1      42.067  29.568  33.584  1.00  0.00    -0.014 A 
ATOM     83  C   UNL A   1      41.689  28.243  33.275  1.00  0.00     0.010 A 
ATOM     84  C   UNL A   1      42.337  29.881  34.926  1.00  0.00     0.010 A 
ATOM     85  C   UNL A   1      41.565  27.271  34.285  1.00  0.00     0.020 A 
ATOM     86  C   UNL A   1      42.232  28.918  35.934  1.00  0.00     0.020 A 
ATOM     87  C   UNL A   1      41.836  27.619  35.611  1.00  0.00     0.054 A 
BRANCH  87  88
ATOM     88  S   UNL A   1      41.702  26.362  36.917  1.00  0.00     0.124 S 
ATOM     89  O   UNL A   1      40.427  26.695  37.548  1.00  0.00    -0.237 OA
ATOM     90  O   UNL A   1      41.722  25.109  36.165  1.00  0.00    -0.237 OA
ATOM     91  O   UNL A   1      42.881  26.595  37.748  1.00  0.00    -0.744 OA
ENDBRANCH  87  88
ENDBRANCH  61  82
ENDBRANCH  35  36
ENDBRANCH  27  30
ENDBRANCH  25  26
ENDBRANCH  24  25
ENDBRANCH  23  24
ENDBRANCH   1  23
TORSDOF 19
ENDMDL
