MODEL 1
REMARK VINA RESULT:     -11.4      0.000      0.000
REMARK SMILES CC(C)c1ccc([C@]2(C(=O)NCCCCCCNC(=O)c3ccc(-c4c5nc(c(-c6ccc(S(=O)(=O)[O-])cc6)c6ccc([nH]6)c(-c6ccc(S(=O)(=O)[O-])cc6)c6nc(c(-c7ccc(S(=O)(=O)[O-])cc7)c7ccc4[nH]7)C=C6)C=C5)cc3)CCC[C@@H]2C)cc1
REMARK SMILES IDX 15 1 14 2 13 3 12 4 11 5 9 6 10 7 8 9 81 10 84 11 82 12
REMARK SMILES IDX 83 13 85 14 7 15 4 16 5 17 87 18 6 19 86 20 2 21 1 22 3 23
REMARK SMILES IDX 16 24 17 25 18 26 19 27 20 29 21 30 22 31 80 32 23 33 79 34
REMARK SMILES IDX 24 35 25 36 26 37 73 38 27 39 78 40 72 41 74 42 28 43 77 44
REMARK SMILES IDX 71 45 70 46 29 48 59 49 40 50 58 51 41 52 44 53 57 54 75 55
REMARK SMILES IDX 42 56 43 57 56 59 76 60 45 61 30 62 31 63 39 64 32 65 38 66
REMARK SMILES IDX 33 67 34 68 35 69 36 70 37 71 60 72 61 73 69 74 62 75 68 76
REMARK SMILES IDX 63 77 64 78 65 79 66 80 67 81 46 82 47 83 55 84 48 85 54 86
REMARK SMILES IDX 49 87 50 88 51 89 52 90 53 91
REMARK H PARENT 11 8 18 28 74 47 44 58
REMARK Flexibility Score: inf
ROOT
ATOM      1  C   UNL A   1      31.799  28.705  25.406  1.00  0.00     0.002 C 
ENDROOT
BRANCH   1   2
ATOM      2  C   UNL A   1      31.009  27.455  25.000  1.00  0.00     0.002 C 
BRANCH   2   3
ATOM      3  C   UNL A   1      30.652  26.499  26.134  1.00  0.00     0.021 C 
BRANCH   3   4
ATOM      4  C   UNL A   1      30.364  25.070  25.706  1.00  0.00     0.116 C 
BRANCH   4   5
ATOM      5  N   UNL A   1      30.856  24.050  26.592  1.00  0.00    -0.355 N 
ATOM      6  C   UNL A   1      32.055  23.413  26.672  1.00  0.00     0.230 C 
ATOM      7  O   UNL A   1      32.260  22.929  27.797  1.00  0.00    -0.274 OA
ATOM      8  H   UNL A   1      30.201  23.759  27.269  1.00  0.00     0.163 HD
BRANCH   6   9
ATOM      9  C   UNL A   1      33.120  23.223  25.489  1.00  0.00     0.077 C 
ATOM     10  C   UNL A   1      32.822  24.126  24.261  1.00  0.00     0.022 C 
ATOM     11  C   UNL A   1      34.593  23.656  25.871  1.00  0.00     0.006 C 
ATOM     12  C   UNL A   1      33.827  25.286  24.255  1.00  0.00     0.002 C 
ATOM     13  C   UNL A   1      34.698  25.140  25.501  1.00  0.00     0.005 C 
ATOM     14  C   UNL A   1      35.780  23.009  25.117  1.00  0.00     0.009 C 
BRANCH   9  15
ATOM     15  C   UNL A   1      32.991  21.716  25.109  1.00  0.00    -0.032 A 
ATOM     16  C   UNL A   1      32.730  18.939  24.436  1.00  0.00    -0.045 A 
ATOM     17  C   UNL A   1      33.156  19.351  25.705  1.00  0.00     0.004 A 
ATOM     18  C   UNL A   1      32.381  19.948  23.528  1.00  0.00     0.004 A 
ATOM     19  C   UNL A   1      33.217  20.704  26.051  1.00  0.00     0.005 A 
ATOM     20  C   UNL A   1      32.510  21.309  23.855  1.00  0.00     0.005 A 
BRANCH  16  21
ATOM     21  C   UNL A   1      32.711  17.455  24.083  1.00  0.00     0.013 C 
ATOM     22  C   UNL A   1      33.847  17.050  23.128  1.00  0.00     0.012 C 
ATOM     23  C   UNL A   1      32.740  16.504  25.287  1.00  0.00     0.012 C 
ENDBRANCH  16  21
ENDBRANCH   9  15
ENDBRANCH   6   9
ENDBRANCH   4   5
ENDBRANCH   3   4
ENDBRANCH   2   3
ENDBRANCH   1   2
BRANCH   1  24
ATOM     24  C   UNL A   1      33.278  28.487  25.747  1.00  0.00     0.021 C 
BRANCH  24  25
ATOM     25  C   UNL A   1      33.640  28.676  27.218  1.00  0.00     0.116 C 
BRANCH  25  26
ATOM     26  N   UNL A   1      33.620  30.076  27.608  1.00  0.00    -0.352 N 
ATOM     27  C   UNL A   1      34.548  30.806  28.309  1.00  0.00     0.251 C 
ATOM     28  H   UNL A   1      32.820  30.578  27.328  1.00  0.00     0.163 HD
ATOM     29  O   UNL A   1      34.254  31.914  28.743  1.00  0.00    -0.269 OA
BRANCH  27  30
ATOM     30  C   UNL A   1      35.895  30.247  28.548  1.00  0.00     0.039 A 
ATOM     31  C   UNL A   1      36.828  30.262  27.507  1.00  0.00     0.014 A 
ATOM     32  C   UNL A   1      36.233  29.703  29.789  1.00  0.00     0.014 A 
ATOM     33  C   UNL A   1      38.125  29.799  27.736  1.00  0.00     0.010 A 
ATOM     34  C   UNL A   1      37.544  29.301  30.035  1.00  0.00     0.010 A 
ATOM     35  C   UNL A   1      38.505  29.356  29.015  1.00  0.00    -0.014 A 
BRANCH  35  36
ATOM     36  C   UNL A   1      39.914  28.995  29.317  1.00  0.00     0.031 A 
ATOM     37  C   UNL A   1      40.862  30.024  29.871  1.00  0.00     0.074 A 
ATOM     38  C   UNL A   1      40.357  27.761  29.005  1.00  0.00     0.049 A 
ATOM     39  N   UNL A   1      42.143  29.915  30.110  1.00  0.00    -0.248 NA
ATOM     40  C   UNL A   1      40.307  31.354  30.174  1.00  0.00     0.031 C 
ATOM     41  C   UNL A   1      39.542  26.691  28.422  1.00  0.00     0.029 A 
ATOM     42  N   UNL A   1      41.606  27.199  29.114  1.00  0.00    -0.354 N 
ATOM     43  C   UNL A   1      42.553  31.162  30.565  1.00  0.00     0.074 A 
ATOM     44  C   UNL A   1      41.391  32.024  30.545  1.00  0.00     0.031 C 
ATOM     45  C   UNL A   1      40.308  25.604  28.234  1.00  0.00     0.029 A 
ATOM     46  C   UNL A   1      41.677  25.911  28.635  1.00  0.00     0.049 A 
ATOM     47  H   UNL A   1      42.378  27.674  29.498  1.00  0.00     0.167 HD
ATOM     48  C   UNL A   1      43.785  31.550  30.969  1.00  0.00     0.031 A 
ATOM     49  C   UNL A   1      42.728  25.078  28.505  1.00  0.00     0.031 A 
ATOM     50  C   UNL A   1      44.931  30.680  31.006  1.00  0.00     0.049 A 
ATOM     51  C   UNL A   1      44.089  25.545  28.948  1.00  0.00     0.074 A 
ATOM     52  C   UNL A   1      46.199  30.956  31.490  1.00  0.00     0.029 A 
ATOM     53  N   UNL A   1      44.959  29.380  30.529  1.00  0.00    -0.354 N 
ATOM     54  N   UNL A   1      44.431  26.693  29.481  1.00  0.00    -0.248 NA
ATOM     55  C   UNL A   1      45.205  24.605  28.772  1.00  0.00     0.031 C 
ATOM     56  C   UNL A   1      47.011  29.847  31.238  1.00  0.00     0.029 A 
ATOM     57  C   UNL A   1      46.234  28.857  30.659  1.00  0.00     0.049 A 
ATOM     58  H   UNL A   1      44.186  28.898  30.153  1.00  0.00     0.167 HD
ATOM     59  C   UNL A   1      45.797  26.605  29.721  1.00  0.00     0.074 A 
ATOM     60  C   UNL A   1      46.215  25.286  29.300  1.00  0.00     0.031 C 
ATOM     61  C   UNL A   1      46.634  27.539  30.237  1.00  0.00     0.031 A 
BRANCH  48  62
ATOM     62  C   UNL A   1      43.981  32.981  31.395  1.00  0.00    -0.014 A 
ATOM     63  C   UNL A   1      44.250  33.992  30.456  1.00  0.00     0.010 A 
ATOM     64  C   UNL A   1      43.789  33.333  32.744  1.00  0.00     0.010 A 
ATOM     65  C   UNL A   1      44.338  35.327  30.862  1.00  0.00     0.020 A 
ATOM     66  C   UNL A   1      43.852  34.669  33.150  1.00  0.00     0.020 A 
ATOM     67  C   UNL A   1      44.132  35.657  32.206  1.00  0.00     0.054 A 
BRANCH  67  68
ATOM     68  S   UNL A   1      44.184  37.405  32.689  1.00  0.00     0.124 S 
ATOM     69  O   UNL A   1      43.055  37.497  33.610  1.00  0.00    -0.237 OA
ATOM     70  O   UNL A   1      45.505  37.527  33.301  1.00  0.00    -0.237 OA
ATOM     71  O   UNL A   1      44.016  38.121  31.426  1.00  0.00    -0.744 OA
ENDBRANCH  67  68
ENDBRANCH  48  62
BRANCH  49  72
ATOM     72  C   UNL A   1      42.549  23.730  27.895  1.00  0.00    -0.014 A 
ATOM     73  C   UNL A   1      42.296  22.604  28.697  1.00  0.00     0.010 A 
ATOM     74  C   UNL A   1      42.658  23.565  26.502  1.00  0.00     0.010 A 
ATOM     75  C   UNL A   1      42.193  21.333  28.122  1.00  0.00     0.020 A 
ATOM     76  C   UNL A   1      42.521  22.302  25.919  1.00  0.00     0.020 A 
ATOM     77  C   UNL A   1      42.309  21.191  26.736  1.00  0.00     0.054 A 
BRANCH  77  78
ATOM     78  S   UNL A   1      42.160  19.535  26.009  1.00  0.00     0.124 S 
ATOM     79  O   UNL A   1      43.075  19.620  24.875  1.00  0.00    -0.237 OA
ATOM     80  O   UNL A   1      42.588  18.670  27.105  1.00  0.00    -0.237 OA
ATOM     81  O   UNL A   1      40.743  19.440  25.667  1.00  0.00    -0.744 OA
ENDBRANCH  77  78
ENDBRANCH  49  72
BRANCH  61  82
ATOM     82  C   UNL A   1      48.084  27.167  30.392  1.00  0.00    -0.014 A 
ATOM     83  C   UNL A   1      49.001  27.379  29.348  1.00  0.00     0.010 A 
ATOM     84  C   UNL A   1      48.551  26.677  31.626  1.00  0.00     0.010 A 
ATOM     85  C   UNL A   1      50.356  27.093  29.529  1.00  0.00     0.020 A 
ATOM     86  C   UNL A   1      49.909  26.418  31.822  1.00  0.00     0.020 A 
ATOM     87  C   UNL A   1      50.803  26.620  30.768  1.00  0.00     0.054 A 
BRANCH  87  88
ATOM     88  S   UNL A   1      52.577  26.328  30.999  1.00  0.00     0.124 S 
ATOM     89  O   UNL A   1      52.979  27.491  31.784  1.00  0.00    -0.237 OA
ATOM     90  O   UNL A   1      52.601  25.051  31.709  1.00  0.00    -0.237 OA
ATOM     91  O   UNL A   1      53.102  26.285  29.636  1.00  0.00    -0.744 OA
ENDBRANCH  87  88
ENDBRANCH  61  82
ENDBRANCH  35  36
ENDBRANCH  27  30
ENDBRANCH  25  26
ENDBRANCH  24  25
ENDBRANCH   1  24
TORSDOF 18
ENDMDL
MODEL 2
REMARK VINA RESULT:     -11.2      3.187      4.945
REMARK SMILES CC(C)c1ccc([C@]2(C(=O)NCCCCCCNC(=O)c3ccc(-c4c5nc(c(-c6ccc(S(=O)(=O)[O-])cc6)c6ccc([nH]6)c(-c6ccc(S(=O)(=O)[O-])cc6)c6nc(c(-c7ccc(S(=O)(=O)[O-])cc7)c7ccc4[nH]7)C=C6)C=C5)cc3)CCC[C@@H]2C)cc1
REMARK SMILES IDX 15 1 14 2 13 3 12 4 11 5 9 6 10 7 8 9 81 10 84 11 82 12
REMARK SMILES IDX 83 13 85 14 7 15 4 16 5 17 87 18 6 19 86 20 2 21 1 22 3 23
REMARK SMILES IDX 16 24 17 25 18 26 19 27 20 29 21 30 22 31 80 32 23 33 79 34
REMARK SMILES IDX 24 35 25 36 26 37 73 38 27 39 78 40 72 41 74 42 28 43 77 44
REMARK SMILES IDX 71 45 70 46 29 48 59 49 40 50 58 51 41 52 44 53 57 54 75 55
REMARK SMILES IDX 42 56 43 57 56 59 76 60 45 61 30 62 31 63 39 64 32 65 38 66
REMARK SMILES IDX 33 67 34 68 35 69 36 70 37 71 60 72 61 73 69 74 62 75 68 76
REMARK SMILES IDX 63 77 64 78 65 79 66 80 67 81 46 82 47 83 55 84 48 85 54 86
REMARK SMILES IDX 49 87 50 88 51 89 52 90 53 91
REMARK H PARENT 11 8 18 28 74 47 44 58
REMARK Flexibility Score: inf
ROOT
ATOM      1  C   UNL A   1      33.150  30.454  26.901  1.00  0.00     0.002 C 
ENDROOT
BRANCH   1   2
ATOM      2  C   UNL A   1      31.979  29.588  26.419  1.00  0.00     0.002 C 
BRANCH   2   3
ATOM      3  C   UNL A   1      31.481  28.538  27.407  1.00  0.00     0.021 C 
BRANCH   3   4
ATOM      4  C   UNL A   1      32.051  27.144  27.208  1.00  0.00     0.116 C 
BRANCH   4   5
ATOM      5  N   UNL A   1      31.144  26.184  26.639  1.00  0.00    -0.355 N 
ATOM      6  C   UNL A   1      31.083  25.607  25.408  1.00  0.00     0.230 C 
ATOM      7  O   UNL A   1      30.455  24.535  25.419  1.00  0.00    -0.274 OA
ATOM      8  H   UNL A   1      30.436  25.889  27.256  1.00  0.00     0.163 HD
BRANCH   6   9
ATOM      9  C   UNL A   1      31.684  26.194  24.043  1.00  0.00     0.077 C 
ATOM     10  C   UNL A   1      33.090  26.825  24.228  1.00  0.00     0.022 C 
ATOM     11  C   UNL A   1      31.952  25.099  22.933  1.00  0.00     0.006 C 
ATOM     12  C   UNL A   1      34.136  25.863  23.646  1.00  0.00     0.002 C 
ATOM     13  C   UNL A   1      33.391  24.620  23.164  1.00  0.00     0.005 C 
ATOM     14  C   UNL A   1      31.948  25.529  21.446  1.00  0.00     0.009 C 
BRANCH   9  15
ATOM     15  C   UNL A   1      30.646  27.276  23.614  1.00  0.00    -0.032 A 
ATOM     16  C   UNL A   1      28.750  29.266  22.792  1.00  0.00    -0.045 A 
ATOM     17  C   UNL A   1      30.130  29.488  22.711  1.00  0.00     0.004 A 
ATOM     18  C   UNL A   1      28.337  28.004  23.241  1.00  0.00     0.004 A 
ATOM     19  C   UNL A   1      31.050  28.492  23.048  1.00  0.00     0.005 A 
ATOM     20  C   UNL A   1      29.265  27.028  23.645  1.00  0.00     0.005 A 
BRANCH  16  21
ATOM     21  C   UNL A   1      27.775  30.390  22.451  1.00  0.00     0.013 C 
ATOM     22  C   UNL A   1      27.635  31.428  23.578  1.00  0.00     0.012 C 
ATOM     23  C   UNL A   1      28.087  31.141  21.149  1.00  0.00     0.012 C 
ENDBRANCH  16  21
ENDBRANCH   9  15
ENDBRANCH   6   9
ENDBRANCH   4   5
ENDBRANCH   3   4
ENDBRANCH   2   3
ENDBRANCH   1   2
BRANCH   1  24
ATOM     24  C   UNL A   1      34.443  29.707  27.250  1.00  0.00     0.021 C 
BRANCH  24  25
ATOM     25  C   UNL A   1      35.561  30.575  27.821  1.00  0.00     0.116 C 
BRANCH  25  26
ATOM     26  N   UNL A   1      35.459  30.713  29.265  1.00  0.00    -0.352 N 
ATOM     27  C   UNL A   1      36.283  30.233  30.253  1.00  0.00     0.251 C 
ATOM     28  H   UNL A   1      34.682  31.228  29.583  1.00  0.00     0.163 HD
ATOM     29  O   UNL A   1      35.912  30.252  31.421  1.00  0.00    -0.269 OA
BRANCH  27  30
ATOM     30  C   UNL A   1      37.609  29.685  29.903  1.00  0.00     0.039 A 
ATOM     31  C   UNL A   1      38.057  29.788  28.583  1.00  0.00     0.014 A 
ATOM     32  C   UNL A   1      38.405  29.065  30.870  1.00  0.00     0.014 A 
ATOM     33  C   UNL A   1      39.336  29.336  28.250  1.00  0.00     0.010 A 
ATOM     34  C   UNL A   1      39.703  28.674  30.552  1.00  0.00     0.010 A 
ATOM     35  C   UNL A   1      40.185  28.815  29.242  1.00  0.00    -0.014 A 
BRANCH  35  36
ATOM     36  C   UNL A   1      41.595  28.462  28.940  1.00  0.00     0.031 A 
ATOM     37  C   UNL A   1      42.662  29.524  28.929  1.00  0.00     0.074 A 
ATOM     38  C   UNL A   1      41.894  27.195  28.586  1.00  0.00     0.049 A 
ATOM     39  N   UNL A   1      43.923  29.417  28.600  1.00  0.00    -0.248 NA
ATOM     40  C   UNL A   1      42.256  30.886  29.313  1.00  0.00     0.031 C 
ATOM     41  C   UNL A   1      40.937  26.087  28.517  1.00  0.00     0.029 A 
ATOM     42  N   UNL A   1      43.082  26.626  28.199  1.00  0.00    -0.354 N 
ATOM     43  C   UNL A   1      44.455  30.696  28.712  1.00  0.00     0.074 A 
ATOM     44  C   UNL A   1      43.374  31.571  29.114  1.00  0.00     0.031 C 
ATOM     45  C   UNL A   1      41.575  24.975  28.122  1.00  0.00     0.029 A 
ATOM     46  C   UNL A   1      42.975  25.296  27.862  1.00  0.00     0.049 A 
ATOM     47  H   UNL A   1      43.932  27.123  28.164  1.00  0.00     0.167 HD
ATOM     48  C   UNL A   1      45.730  31.100  28.506  1.00  0.00     0.031 A 
ATOM     49  C   UNL A   1      43.890  24.437  27.371  1.00  0.00     0.031 A 
ATOM     50  C   UNL A   1      46.803  30.219  28.128  1.00  0.00     0.049 A 
ATOM     51  C   UNL A   1      45.295  24.922  27.136  1.00  0.00     0.074 A 
ATOM     52  C   UNL A   1      48.148  30.519  27.989  1.00  0.00     0.029 A 
ATOM     53  N   UNL A   1      46.658  28.878  27.812  1.00  0.00    -0.354 N 
ATOM     54  N   UNL A   1      45.802  26.111  27.357  1.00  0.00    -0.248 NA
ATOM     55  C   UNL A   1      46.252  23.951  26.587  1.00  0.00     0.031 C 
ATOM     56  C   UNL A   1      48.802  29.378  27.518  1.00  0.00     0.029 A 
ATOM     57  C   UNL A   1      47.878  28.349  27.429  1.00  0.00     0.049 A 
ATOM     58  H   UNL A   1      45.811  28.375  27.855  1.00  0.00     0.167 HD
ATOM     59  C   UNL A   1      47.141  26.024  26.991  1.00  0.00     0.074 A 
ATOM     60  C   UNL A   1      47.372  24.662  26.560  1.00  0.00     0.031 C 
ATOM     61  C   UNL A   1      48.092  26.989  27.003  1.00  0.00     0.031 A 
BRANCH  48  62
ATOM     62  C   UNL A   1      46.052  32.563  28.666  1.00  0.00    -0.014 A 
ATOM     63  C   UNL A   1      46.535  33.076  29.882  1.00  0.00     0.010 A 
ATOM     64  C   UNL A   1      45.966  33.415  27.549  1.00  0.00     0.010 A 
ATOM     65  C   UNL A   1      46.914  34.418  29.981  1.00  0.00     0.020 A 
ATOM     66  C   UNL A   1      46.367  34.751  27.637  1.00  0.00     0.020 A 
ATOM     67  C   UNL A   1      46.833  35.245  28.856  1.00  0.00     0.054 A 
BRANCH  67  68
ATOM     68  S   UNL A   1      47.396  36.964  28.999  1.00  0.00     0.124 S 
ATOM     69  O   UNL A   1      46.151  37.664  29.306  1.00  0.00    -0.237 OA
ATOM     70  O   UNL A   1      48.362  36.893  30.092  1.00  0.00    -0.237 OA
ATOM     71  O   UNL A   1      47.964  37.255  27.685  1.00  0.00    -0.744 OA
ENDBRANCH  67  68
ENDBRANCH  48  62
BRANCH  49  72
ATOM     72  C   UNL A   1      43.501  23.039  27.030  1.00  0.00    -0.014 A 
ATOM     73  C   UNL A   1      42.788  22.246  27.945  1.00  0.00     0.010 A 
ATOM     74  C   UNL A   1      43.870  22.485  25.790  1.00  0.00     0.010 A 
ATOM     75  C   UNL A   1      42.484  20.915  27.643  1.00  0.00     0.020 A 
ATOM     76  C   UNL A   1      43.537  21.167  25.469  1.00  0.00     0.020 A 
ATOM     77  C   UNL A   1      42.863  20.383  26.407  1.00  0.00     0.054 A 
BRANCH  77  78
ATOM     78  S   UNL A   1      42.448  18.658  26.029  1.00  0.00     0.124 S 
ATOM     79  O   UNL A   1      41.032  18.756  25.689  1.00  0.00    -0.237 OA
ATOM     80  O   UNL A   1      43.346  18.353  24.919  1.00  0.00    -0.237 OA
ATOM     81  O   UNL A   1      42.747  17.955  27.275  1.00  0.00    -0.744 OA
ENDBRANCH  77  78
ENDBRANCH  49  72
BRANCH  61  82
ATOM     82  C   UNL A   1      49.478  26.610  26.552  1.00  0.00    -0.014 A 
ATOM     83  C   UNL A   1      50.366  25.952  27.421  1.00  0.00     0.010 A 
ATOM     84  C   UNL A   1      49.866  26.842  25.220  1.00  0.00     0.010 A 
ATOM     85  C   UNL A   1      51.624  25.546  26.969  1.00  0.00     0.020 A 
ATOM     86  C   UNL A   1      51.110  26.411  24.755  1.00  0.00     0.020 A 
ATOM     87  C   UNL A   1      51.985  25.772  25.636  1.00  0.00     0.054 A 
BRANCH  87  88
ATOM     88  S   UNL A   1      53.594  25.168  25.057  1.00  0.00     0.124 S 
ATOM     89  O   UNL A   1      53.591  25.586  23.658  1.00  0.00    -0.237 OA
ATOM     90  O   UNL A   1      54.532  25.879  25.924  1.00  0.00    -0.237 OA
ATOM     91  O   UNL A   1      53.523  23.726  25.276  1.00  0.00    -0.744 OA
ENDBRANCH  87  88
ENDBRANCH  61  82
ENDBRANCH  35  36
ENDBRANCH  27  30
ENDBRANCH  25  26
ENDBRANCH  24  25
ENDBRANCH   1  24
TORSDOF 18
ENDMDL
MODEL 3
REMARK VINA RESULT:     -11.1      4.547     10.541
REMARK SMILES CC(C)c1ccc([C@]2(C(=O)NCCCCCCNC(=O)c3ccc(-c4c5nc(c(-c6ccc(S(=O)(=O)[O-])cc6)c6ccc([nH]6)c(-c6ccc(S(=O)(=O)[O-])cc6)c6nc(c(-c7ccc(S(=O)(=O)[O-])cc7)c7ccc4[nH]7)C=C6)C=C5)cc3)CCC[C@@H]2C)cc1
REMARK SMILES IDX 15 1 14 2 13 3 12 4 11 5 9 6 10 7 8 9 81 10 84 11 82 12
REMARK SMILES IDX 83 13 85 14 7 15 4 16 5 17 87 18 6 19 86 20 2 21 1 22 3 23
REMARK SMILES IDX 16 24 17 25 18 26 19 27 20 29 21 30 22 31 80 32 23 33 79 34
REMARK SMILES IDX 24 35 25 36 26 37 73 38 27 39 78 40 72 41 74 42 28 43 77 44
REMARK SMILES IDX 71 45 70 46 29 48 59 49 40 50 58 51 41 52 44 53 57 54 75 55
REMARK SMILES IDX 42 56 43 57 56 59 76 60 45 61 30 62 31 63 39 64 32 65 38 66
REMARK SMILES IDX 33 67 34 68 35 69 36 70 37 71 60 72 61 73 69 74 62 75 68 76
REMARK SMILES IDX 63 77 64 78 65 79 66 80 67 81 46 82 47 83 55 84 48 85 54 86
REMARK SMILES IDX 49 87 50 88 51 89 52 90 53 91
REMARK H PARENT 11 8 18 28 74 47 44 58
REMARK Flexibility Score: inf
ROOT
ATOM      1  C   UNL A   1      36.235  23.747  25.756  1.00  0.00     0.002 C 
ENDROOT
BRANCH   1   2
ATOM      2  C   UNL A   1      35.153  22.710  26.084  1.00  0.00     0.002 C 
BRANCH   2   3
ATOM      3  C   UNL A   1      34.066  23.170  27.050  1.00  0.00     0.021 C 
BRANCH   3   4
ATOM      4  C   UNL A   1      32.698  22.548  26.824  1.00  0.00     0.116 C 
BRANCH   4   5
ATOM      5  N   UNL A   1      31.579  23.377  27.181  1.00  0.00    -0.355 N 
ATOM      6  C   UNL A   1      30.881  24.315  26.486  1.00  0.00     0.230 C 
ATOM      7  O   UNL A   1      29.744  24.500  26.951  1.00  0.00    -0.274 OA
ATOM      8  H   UNL A   1      31.257  23.238  28.102  1.00  0.00     0.163 HD
BRANCH   6   9
ATOM      9  C   UNL A   1      31.403  25.163  25.230  1.00  0.00     0.077 C 
ATOM     10  C   UNL A   1      32.366  24.354  24.318  1.00  0.00     0.022 C 
ATOM     11  C   UNL A   1      30.263  25.587  24.219  1.00  0.00     0.006 C 
ATOM     12  C   UNL A   1      31.606  23.950  23.046  1.00  0.00     0.002 C 
ATOM     13  C   UNL A   1      30.170  24.447  23.197  1.00  0.00     0.005 C 
ATOM     14  C   UNL A   1      30.475  26.844  23.340  1.00  0.00     0.009 C 
BRANCH   9  15
ATOM     15  C   UNL A   1      32.144  26.372  25.878  1.00  0.00    -0.032 A 
ATOM     16  C   UNL A   1      33.515  28.609  27.040  1.00  0.00    -0.045 A 
ATOM     17  C   UNL A   1      34.179  27.679  26.231  1.00  0.00     0.004 A 
ATOM     18  C   UNL A   1      32.135  28.428  27.209  1.00  0.00     0.004 A 
ATOM     19  C   UNL A   1      33.495  26.630  25.612  1.00  0.00     0.005 A 
ATOM     20  C   UNL A   1      31.462  27.332  26.642  1.00  0.00     0.005 A 
BRANCH  16  21
ATOM     21  C   UNL A   1      34.301  29.721  27.729  1.00  0.00     0.013 C 
ATOM     22  C   UNL A   1      35.761  29.808  27.252  1.00  0.00     0.012 C 
ATOM     23  C   UNL A   1      33.679  31.119  27.613  1.00  0.00     0.012 C 
ENDBRANCH  16  21
ENDBRANCH   9  15
ENDBRANCH   6   9
ENDBRANCH   4   5
ENDBRANCH   3   4
ENDBRANCH   2   3
ENDBRANCH   1   2
BRANCH   1  24
ATOM     24  C   UNL A   1      37.678  23.228  25.721  1.00  0.00     0.021 C 
BRANCH  24  25
ATOM     25  C   UNL A   1      38.613  23.839  26.761  1.00  0.00     0.116 C 
BRANCH  25  26
ATOM     26  N   UNL A   1      40.008  23.740  26.362  1.00  0.00    -0.352 N 
ATOM     27  C   UNL A   1      41.042  24.623  26.556  1.00  0.00     0.251 C 
ATOM     28  H   UNL A   1      40.249  22.916  25.879  1.00  0.00     0.163 HD
ATOM     29  O   UNL A   1      42.095  24.475  25.948  1.00  0.00    -0.269 OA
BRANCH  27  30
ATOM     30  C   UNL A   1      40.875  25.755  27.490  1.00  0.00     0.039 A 
ATOM     31  C   UNL A   1      39.916  25.662  28.503  1.00  0.00     0.014 A 
ATOM     32  C   UNL A   1      41.656  26.907  27.363  1.00  0.00     0.014 A 
ATOM     33  C   UNL A   1      39.793  26.695  29.434  1.00  0.00     0.010 A 
ATOM     34  C   UNL A   1      41.577  27.907  28.329  1.00  0.00     0.010 A 
ATOM     35  C   UNL A   1      40.653  27.806  29.380  1.00  0.00    -0.014 A 
BRANCH  35  36
ATOM     36  C   UNL A   1      40.636  28.845  30.441  1.00  0.00     0.031 A 
ATOM     37  C   UNL A   1      41.558  28.738  31.626  1.00  0.00     0.074 A 
ATOM     38  C   UNL A   1      39.723  29.835  30.377  1.00  0.00     0.049 A 
ATOM     39  N   UNL A   1      41.618  29.499  32.689  1.00  0.00    -0.248 NA
ATOM     40  C   UNL A   1      42.517  27.622  31.632  1.00  0.00     0.031 C 
ATOM     41  C   UNL A   1      38.747  30.017  29.298  1.00  0.00     0.029 A 
ATOM     42  N   UNL A   1      39.451  30.865  31.243  1.00  0.00    -0.354 N 
ATOM     43  C   UNL A   1      42.601  28.942  33.499  1.00  0.00     0.074 A 
ATOM     44  C   UNL A   1      43.092  27.763  32.819  1.00  0.00     0.031 C 
ATOM     45  C   UNL A   1      37.992  31.095  29.563  1.00  0.00     0.029 A 
ATOM     46  C   UNL A   1      38.393  31.654  30.850  1.00  0.00     0.049 A 
ATOM     47  H   UNL A   1      39.963  31.024  32.068  1.00  0.00     0.167 HD
ATOM     48  C   UNL A   1      43.055  29.380  34.696  1.00  0.00     0.031 A 
ATOM     49  C   UNL A   1      37.794  32.691  31.466  1.00  0.00     0.031 A 
ATOM     50  C   UNL A   1      42.575  30.567  35.355  1.00  0.00     0.049 A 
ATOM     51  C   UNL A   1      38.311  33.144  32.805  1.00  0.00     0.074 A 
ATOM     52  C   UNL A   1      43.040  31.144  36.524  1.00  0.00     0.029 A 
ATOM     53  N   UNL A   1      41.516  31.347  34.918  1.00  0.00    -0.354 N 
ATOM     54  N   UNL A   1      39.317  32.669  33.501  1.00  0.00    -0.248 NA
ATOM     55  C   UNL A   1      37.615  34.270  33.443  1.00  0.00     0.031 C 
ATOM     56  C   UNL A   1      42.215  32.228  36.832  1.00  0.00     0.029 A 
ATOM     57  C   UNL A   1      41.280  32.368  35.820  1.00  0.00     0.049 A 
ATOM     58  H   UNL A   1      41.008  31.196  34.087  1.00  0.00     0.167 HD
ATOM     59  C   UNL A   1      39.384  33.452  34.648  1.00  0.00     0.074 A 
ATOM     60  C   UNL A   1      38.337  34.445  34.543  1.00  0.00     0.031 C 
ATOM     61  C   UNL A   1      40.233  33.352  35.700  1.00  0.00     0.031 A 
BRANCH  48  62
ATOM     62  C   UNL A   1      44.118  28.575  35.396  1.00  0.00    -0.014 A 
ATOM     63  C   UNL A   1      43.799  27.402  36.103  1.00  0.00     0.010 A 
ATOM     64  C   UNL A   1      45.469  28.944  35.255  1.00  0.00     0.010 A 
ATOM     65  C   UNL A   1      44.812  26.621  36.667  1.00  0.00     0.020 A 
ATOM     66  C   UNL A   1      46.486  28.153  35.797  1.00  0.00     0.020 A 
ATOM     67  C   UNL A   1      46.150  26.999  36.506  1.00  0.00     0.054 A 
BRANCH  67  68
ATOM     68  S   UNL A   1      47.444  25.928  37.192  1.00  0.00     0.124 S 
ATOM     69  O   UNL A   1      47.069  24.622  36.656  1.00  0.00    -0.237 OA
ATOM     70  O   UNL A   1      48.664  26.508  36.637  1.00  0.00    -0.237 OA
ATOM     71  O   UNL A   1      47.287  26.075  38.637  1.00  0.00    -0.744 OA
ENDBRANCH  67  68
ENDBRANCH  48  62
BRANCH  49  72
ATOM     72  C   UNL A   1      36.611  33.353  30.846  1.00  0.00    -0.014 A 
ATOM     73  C   UNL A   1      36.712  33.981  29.592  1.00  0.00     0.010 A 
ATOM     74  C   UNL A   1      35.379  33.379  31.524  1.00  0.00     0.010 A 
ATOM     75  C   UNL A   1      35.615  34.655  29.047  1.00  0.00     0.020 A 
ATOM     76  C   UNL A   1      34.270  34.020  30.968  1.00  0.00     0.020 A 
ATOM     77  C   UNL A   1      34.401  34.673  29.740  1.00  0.00     0.054 A 
BRANCH  77  78
ATOM     78  S   UNL A   1      32.986  35.542  29.010  1.00  0.00     0.124 S 
ATOM     79  O   UNL A   1      32.195  35.877  30.190  1.00  0.00    -0.237 OA
ATOM     80  O   UNL A   1      33.623  36.668  28.333  1.00  0.00    -0.237 OA
ATOM     81  O   UNL A   1      32.395  34.543  28.121  1.00  0.00    -0.744 OA
ENDBRANCH  77  78
ENDBRANCH  49  72
BRANCH  61  82
ATOM     82  C   UNL A   1      40.081  34.348  36.818  1.00  0.00    -0.014 A 
ATOM     83  C   UNL A   1      40.830  35.537  36.834  1.00  0.00     0.010 A 
ATOM     84  C   UNL A   1      39.118  34.129  37.821  1.00  0.00     0.010 A 
ATOM     85  C   UNL A   1      40.630  36.484  37.842  1.00  0.00     0.020 A 
ATOM     86  C   UNL A   1      38.893  35.086  38.813  1.00  0.00     0.020 A 
ATOM     87  C   UNL A   1      39.657  36.255  38.822  1.00  0.00     0.054 A 
BRANCH  87  88
ATOM     88  S   UNL A   1      39.367  37.534  40.074  1.00  0.00     0.124 S 
ATOM     89  O   UNL A   1      38.249  38.276  39.498  1.00  0.00    -0.237 OA
ATOM     90  O   UNL A   1      39.054  36.749  41.265  1.00  0.00    -0.237 OA
ATOM     91  O   UNL A   1      40.634  38.260  40.129  1.00  0.00    -0.744 OA
ENDBRANCH  87  88
ENDBRANCH  61  82
ENDBRANCH  35  36
ENDBRANCH  27  30
ENDBRANCH  25  26
ENDBRANCH  24  25
ENDBRANCH   1  24
TORSDOF 18
ENDMDL
