MODEL 1
REMARK VINA RESULT:      -8.5      0.000      0.000
REMARK SMILES Cc1cccc(S(=O)(=O)Nc2cnc(N(C)Cc3ccccc3)c(C(=O)NCCCCCCNC(=O)c3ccc(-c4c5nc(c(-c6ccc(S(=O)(=O)[O-])cc6)c6ccc([nH]6)c(-c6ccc(S(=O)(=O)[O-])cc6)c6nc(c(-c7ccc(S(=O)(=O)[O-])cc7)c7ccc4[nH]7)C=C6)C=C5)cc3)c2)c1
REMARK SMILES IDX 30 1 29 2 28 3 27 4 25 5 26 6 24 8 11 9 12 10 97 11 13 12
REMARK SMILES IDX 14 13 10 14 7 16 8 17 9 18 6 19 1 20 2 21 3 22 98 23 4 24
REMARK SMILES IDX 5 25 15 26 16 27 17 28 18 29 19 30 23 31 20 32 22 33 21 34
REMARK SMILES IDX 31 35 32 36 33 37 34 38 35 39 36 41 37 42 38 43 96 44 39 45
REMARK SMILES IDX 95 46 40 47 41 48 42 49 89 50 43 51 94 52 88 53 90 54 44 55
REMARK SMILES IDX 93 56 87 57 86 58 45 60 75 61 56 62 74 63 57 64 60 65 73 66
REMARK SMILES IDX 91 67 58 68 59 69 72 71 92 72 61 73 46 74 47 75 55 76 48 77
REMARK SMILES IDX 54 78 49 79 50 80 51 81 52 82 53 83 76 84 77 85 85 86 78 87
REMARK SMILES IDX 84 88 79 89 80 90 81 91 82 92 83 93 62 94 63 95 71 96 64 97
REMARK SMILES IDX 70 98 65 99 66 100 67 101 68 102 69 103
REMARK H PARENT 27 7 10 15 34 40 90 59 60 70
REMARK Flexibility Score: inf
ROOT
ATOM      1  C   UNL A   1      45.097  24.758  32.384  1.00  0.00     0.002 C 
ENDROOT
BRANCH   1   2
ATOM      2  C   UNL A   1      44.192  25.062  31.181  1.00  0.00     0.021 C 
BRANCH   2   3
ATOM      3  C   UNL A   1      44.294  24.026  30.056  1.00  0.00     0.116 C 
BRANCH   3   4
ATOM      4  N   UNL A   1      45.482  24.297  29.255  1.00  0.00    -0.352 N 
ATOM      5  C   UNL A   1      45.792  24.020  27.944  1.00  0.00     0.255 C 
ATOM      6  O   UNL A   1      46.978  23.947  27.630  1.00  0.00    -0.269 OA
ATOM      7  H   UNL A   1      46.196  24.765  29.745  1.00  0.00     0.163 HD
BRANCH   5   8
ATOM      8  C   UNL A   1      44.748  23.839  26.910  1.00  0.00     0.084 A 
ATOM      9  C   UNL A   1      43.287  22.307  25.740  1.00  0.00     0.068 A 
ATOM     10  C   UNL A   1      42.896  23.381  24.966  1.00  0.00     0.140 A 
ATOM     11  C   UNL A   1      44.311  22.519  26.646  1.00  0.00     0.046 A 
ATOM     12  N   UNL A   1      43.359  24.635  25.135  1.00  0.00    -0.236 NA
ATOM     13  C   UNL A   1      44.272  24.907  26.112  1.00  0.00     0.141 A 
BRANCH   9  14
ATOM     14  N   UNL A   1      42.628  21.064  25.496  1.00  0.00    -0.278 N 
ATOM     15  H   UNL A   1      42.941  20.497  24.755  1.00  0.00     0.180 HD
BRANCH  14  16
ATOM     16  S   UNL A   1      41.325  20.533  26.442  1.00  0.00     0.261 S 
ATOM     17  O   UNL A   1      41.837  20.472  27.794  1.00  0.00    -0.201 OA
ATOM     18  O   UNL A   1      40.833  19.339  25.786  1.00  0.00    -0.201 OA
BRANCH  16  19
ATOM     19  C   UNL A   1      39.972  21.688  26.481  1.00  0.00     0.088 A 
ATOM     20  C   UNL A   1      36.905  22.697  24.509  1.00  0.00     0.044 C 
ATOM     21  C   UNL A   1      37.983  22.702  25.550  1.00  0.00    -0.050 A 
ATOM     22  C   UNL A   1      38.193  23.842  26.331  1.00  0.00     0.003 A 
ATOM     23  C   UNL A   1      38.830  21.594  25.692  1.00  0.00     0.025 A 
ATOM     24  C   UNL A   1      39.267  23.893  27.214  1.00  0.00     0.002 A 
ATOM     25  C   UNL A   1      40.169  22.831  27.270  1.00  0.00     0.022 A 
ENDBRANCH  16  19
ENDBRANCH  14  16
ENDBRANCH   9  14
BRANCH  13  26
ATOM     26  N   UNL A   1      44.618  26.239  26.176  1.00  0.00    -0.355 N 
ATOM     27  C   UNL A   1      45.371  26.802  25.055  1.00  0.00     0.145 C 
BRANCH  26  28
ATOM     28  C   UNL A   1      44.285  27.188  27.236  1.00  0.00     0.153 C 
BRANCH  28  29
ATOM     29  C   UNL A   1      42.803  27.345  27.501  1.00  0.00    -0.029 A 
ATOM     30  C   UNL A   1      42.017  28.063  26.584  1.00  0.00     0.005 A 
ATOM     31  C   UNL A   1      42.159  26.691  28.562  1.00  0.00     0.005 A 
ATOM     32  C   UNL A   1      40.631  28.135  26.731  1.00  0.00     0.000 A 
ATOM     33  C   UNL A   1      40.771  26.763  28.710  1.00  0.00     0.000 A 
ATOM     34  C   UNL A   1      40.008  27.485  27.793  1.00  0.00     0.000 A 
ENDBRANCH  28  29
ENDBRANCH  26  28
ENDBRANCH  13  26
ENDBRANCH   5   8
ENDBRANCH   3   4
ENDBRANCH   2   3
ENDBRANCH   1   2
BRANCH   1  35
ATOM     35  C   UNL A   1      44.396  24.687  33.751  1.00  0.00     0.002 C 
BRANCH  35  36
ATOM     36  C   UNL A   1      45.308  24.763  34.978  1.00  0.00     0.021 C 
BRANCH  36  37
ATOM     37  C   UNL A   1      45.028  25.972  35.867  1.00  0.00     0.116 C 
BRANCH  37  38
ATOM     38  N   UNL A   1      43.849  25.810  36.701  1.00  0.00    -0.352 N 
ATOM     39  C   UNL A   1      42.800  26.715  36.853  1.00  0.00     0.251 C 
ATOM     40  H   UNL A   1      43.785  24.972  37.215  1.00  0.00     0.163 HD
ATOM     41  O   UNL A   1      42.038  26.697  37.778  1.00  0.00    -0.269 OA
BRANCH  39  42
ATOM     42  C   UNL A   1      42.577  27.615  35.696  1.00  0.00     0.039 A 
ATOM     43  C   UNL A   1      41.900  27.072  34.597  1.00  0.00     0.014 A 
ATOM     44  C   UNL A   1      43.274  28.815  35.598  1.00  0.00     0.014 A 
ATOM     45  C   UNL A   1      42.061  27.651  33.342  1.00  0.00     0.010 A 
ATOM     46  C   UNL A   1      43.500  29.337  34.340  1.00  0.00     0.010 A 
ATOM     47  C   UNL A   1      42.933  28.729  33.208  1.00  0.00    -0.014 A 
BRANCH  47  48
ATOM     48  C   UNL A   1      43.357  29.275  31.924  1.00  0.00     0.031 A 
ATOM     49  C   UNL A   1      44.762  29.112  31.491  1.00  0.00     0.074 A 
ATOM     50  C   UNL A   1      42.459  29.831  31.081  1.00  0.00     0.049 A 
ATOM     51  N   UNL A   1      45.326  29.800  30.555  1.00  0.00    -0.248 NA
ATOM     52  C   UNL A   1      45.674  28.177  32.141  1.00  0.00     0.031 C 
ATOM     53  C   UNL A   1      42.647  30.099  29.657  1.00  0.00     0.029 A 
ATOM     54  N   UNL A   1      41.262  30.482  31.387  1.00  0.00    -0.354 N 
ATOM     55  C   UNL A   1      46.521  29.187  30.257  1.00  0.00     0.074 A 
ATOM     56  C   UNL A   1      46.739  28.255  31.340  1.00  0.00     0.031 C 
ATOM     57  C   UNL A   1      41.806  31.078  29.292  1.00  0.00     0.029 A 
ATOM     58  C   UNL A   1      41.188  31.578  30.507  1.00  0.00     0.049 A 
ATOM     59  H   UNL A   1      40.606  30.227  32.076  1.00  0.00     0.167 HD
ATOM     60  C   UNL A   1      47.119  29.428  29.055  1.00  0.00     0.031 A 
ATOM     61  C   UNL A   1      41.198  32.883  30.917  1.00  0.00     0.031 A 
ATOM     62  C   UNL A   1      46.439  30.486  28.303  1.00  0.00     0.049 A 
ATOM     63  C   UNL A   1      42.327  33.710  30.319  1.00  0.00     0.074 A 
ATOM     64  C   UNL A   1      45.633  30.524  27.177  1.00  0.00     0.029 A 
ATOM     65  N   UNL A   1      46.345  31.744  28.876  1.00  0.00    -0.354 N 
ATOM     66  N   UNL A   1      43.249  33.243  29.522  1.00  0.00    -0.248 NA
ATOM     67  C   UNL A   1      42.565  35.114  30.663  1.00  0.00     0.031 C 
ATOM     68  C   UNL A   1      45.063  31.827  27.078  1.00  0.00     0.029 A 
ATOM     69  C   UNL A   1      45.531  32.580  28.137  1.00  0.00     0.049 A 
ATOM     70  H   UNL A   1      46.804  32.010  29.706  1.00  0.00     0.167 HD
ATOM     71  C   UNL A   1      44.205  34.200  29.304  1.00  0.00     0.074 A 
ATOM     72  C   UNL A   1      43.724  35.362  30.027  1.00  0.00     0.031 C 
ATOM     73  C   UNL A   1      45.346  33.948  28.597  1.00  0.00     0.031 A 
BRANCH  60  74
ATOM     74  C   UNL A   1      48.183  28.530  28.454  1.00  0.00    -0.014 A 
ATOM     75  C   UNL A   1      49.546  28.865  28.597  1.00  0.00     0.010 A 
ATOM     76  C   UNL A   1      47.916  27.381  27.684  1.00  0.00     0.010 A 
ATOM     77  C   UNL A   1      50.564  28.172  27.921  1.00  0.00     0.020 A 
ATOM     78  C   UNL A   1      48.915  26.698  26.974  1.00  0.00     0.020 A 
ATOM     79  C   UNL A   1      50.236  27.110  27.083  1.00  0.00     0.054 A 
BRANCH  79  80
ATOM     80  S   UNL A   1      51.542  26.286  26.136  1.00  0.00     0.124 S 
ATOM     81  O   UNL A   1      51.066  26.422  24.761  1.00  0.00    -0.237 OA
ATOM     82  O   UNL A   1      52.723  27.073  26.477  1.00  0.00    -0.237 OA
ATOM     83  O   UNL A   1      51.537  24.919  26.656  1.00  0.00    -0.744 OA
ENDBRANCH  79  80
ENDBRANCH  60  74
BRANCH  61  84
ATOM     84  C   UNL A   1      40.620  33.090  32.277  1.00  0.00    -0.014 A 
ATOM     85  C   UNL A   1      39.213  33.077  32.398  1.00  0.00     0.010 A 
ATOM     86  C   UNL A   1      41.404  32.869  33.422  1.00  0.00     0.010 A 
ATOM     87  C   UNL A   1      38.607  32.672  33.590  1.00  0.00     0.020 A 
ATOM     88  C   UNL A   1      40.795  32.480  34.625  1.00  0.00     0.020 A 
ATOM     89  C   UNL A   1      39.407  32.315  34.675  1.00  0.00     0.054 A 
BRANCH  89  90
ATOM     90  S   UNL A   1      38.622  31.444  36.065  1.00  0.00     0.124 S 
ATOM     91  O   UNL A   1      38.438  30.100  35.529  1.00  0.00    -0.237 OA
ATOM     92  O   UNL A   1      39.633  31.571  37.115  1.00  0.00    -0.237 OA
ATOM     93  O   UNL A   1      37.397  32.207  36.290  1.00  0.00    -0.744 OA
ENDBRANCH  89  90
ENDBRANCH  61  84
BRANCH  73  94
ATOM     94  C   UNL A   1      46.439  34.955  28.326  1.00  0.00    -0.014 A 
ATOM     95  C   UNL A   1      47.430  35.289  29.262  1.00  0.00     0.010 A 
ATOM     96  C   UNL A   1      46.419  35.696  27.121  1.00  0.00     0.010 A 
ATOM     97  C   UNL A   1      48.400  36.265  28.973  1.00  0.00     0.020 A 
ATOM     98  C   UNL A   1      47.367  36.683  26.831  1.00  0.00     0.020 A 
ATOM     99  C   UNL A   1      48.367  36.947  27.755  1.00  0.00     0.054 A 
BRANCH  99 100
ATOM    100  S   UNL A   1      49.612  38.217  27.412  1.00  0.00     0.124 S 
ATOM    101  O   UNL A   1      50.323  38.318  28.685  1.00  0.00    -0.237 OA
ATOM    102  O   UNL A   1      50.368  37.611  26.319  1.00  0.00    -0.237 OA
ATOM    103  O   UNL A   1      48.827  39.392  27.049  1.00  0.00    -0.744 OA
ENDBRANCH  99 100
ENDBRANCH  73  94
ENDBRANCH  47  48
ENDBRANCH  39  42
ENDBRANCH  37  38
ENDBRANCH  36  37
ENDBRANCH  35  36
ENDBRANCH   1  35
TORSDOF 22
ENDMDL
MODEL 2
REMARK VINA RESULT:      -8.3      3.081      8.962
REMARK SMILES Cc1cccc(S(=O)(=O)Nc2cnc(N(C)Cc3ccccc3)c(C(=O)NCCCCCCNC(=O)c3ccc(-c4c5nc(c(-c6ccc(S(=O)(=O)[O-])cc6)c6ccc([nH]6)c(-c6ccc(S(=O)(=O)[O-])cc6)c6nc(c(-c7ccc(S(=O)(=O)[O-])cc7)c7ccc4[nH]7)C=C6)C=C5)cc3)c2)c1
REMARK SMILES IDX 30 1 29 2 28 3 27 4 25 5 26 6 24 8 11 9 12 10 97 11 13 12
REMARK SMILES IDX 14 13 10 14 7 16 8 17 9 18 6 19 1 20 2 21 3 22 98 23 4 24
REMARK SMILES IDX 5 25 15 26 16 27 17 28 18 29 19 30 23 31 20 32 22 33 21 34
REMARK SMILES IDX 31 35 32 36 33 37 34 38 35 39 36 41 37 42 38 43 96 44 39 45
REMARK SMILES IDX 95 46 40 47 41 48 42 49 89 50 43 51 94 52 88 53 90 54 44 55
REMARK SMILES IDX 93 56 87 57 86 58 45 60 75 61 56 62 74 63 57 64 60 65 73 66
REMARK SMILES IDX 91 67 58 68 59 69 72 71 92 72 61 73 46 74 47 75 55 76 48 77
REMARK SMILES IDX 54 78 49 79 50 80 51 81 52 82 53 83 76 84 77 85 85 86 78 87
REMARK SMILES IDX 84 88 79 89 80 90 81 91 82 92 83 93 62 94 63 95 71 96 64 97
REMARK SMILES IDX 70 98 65 99 66 100 67 101 68 102 69 103
REMARK H PARENT 27 7 10 15 34 40 90 59 60 70
REMARK Flexibility Score: inf
ROOT
ATOM      1  C   UNL A   1      43.184  34.077  32.137  1.00  0.00     0.002 C 
ENDROOT
BRANCH   1   2
ATOM      2  C   UNL A   1      41.836  34.334  31.449  1.00  0.00     0.021 C 
BRANCH   2   3
ATOM      3  C   UNL A   1      41.392  33.199  30.519  1.00  0.00     0.116 C 
BRANCH   3   4
ATOM      4  N   UNL A   1      40.084  33.516  29.958  1.00  0.00    -0.352 N 
ATOM      5  C   UNL A   1      38.907  32.806  29.906  1.00  0.00     0.255 C 
ATOM      6  O   UNL A   1      38.099  33.085  29.022  1.00  0.00    -0.269 OA
ATOM      7  H   UNL A   1      40.035  34.405  29.537  1.00  0.00     0.163 HD
BRANCH   5   8
ATOM      8  C   UNL A   1      38.581  31.751  30.890  1.00  0.00     0.084 A 
ATOM      9  C   UNL A   1      38.462  31.107  33.219  1.00  0.00     0.068 A 
ATOM     10  C   UNL A   1      38.099  29.850  32.780  1.00  0.00     0.140 A 
ATOM     11  C   UNL A   1      38.818  32.035  32.257  1.00  0.00     0.046 A 
ATOM     12  N   UNL A   1      37.949  29.522  31.482  1.00  0.00    -0.236 NA
ATOM     13  C   UNL A   1      38.161  30.454  30.508  1.00  0.00     0.141 A 
BRANCH   9  14
ATOM     14  N   UNL A   1      38.482  31.315  34.631  1.00  0.00    -0.278 N 
ATOM     15  H   UNL A   1      38.978  30.682  35.200  1.00  0.00     0.180 HD
BRANCH  14  16
ATOM     16  S   UNL A   1      37.678  32.617  35.362  1.00  0.00     0.261 S 
ATOM     17  O   UNL A   1      38.632  33.707  35.350  1.00  0.00    -0.201 OA
ATOM     18  O   UNL A   1      37.165  32.101  36.615  1.00  0.00    -0.201 OA
BRANCH  16  19
ATOM     19  C   UNL A   1      36.273  33.185  34.431  1.00  0.00     0.088 A 
ATOM     20  C   UNL A   1      34.578  32.718  31.080  1.00  0.00     0.044 C 
ATOM     21  C   UNL A   1      34.900  33.260  32.440  1.00  0.00    -0.050 A 
ATOM     22  C   UNL A   1      34.374  34.490  32.844  1.00  0.00     0.003 A 
ATOM     23  C   UNL A   1      35.788  32.572  33.280  1.00  0.00     0.025 A 
ATOM     24  C   UNL A   1      34.765  35.052  34.055  1.00  0.00     0.002 A 
ATOM     25  C   UNL A   1      35.731  34.415  34.834  1.00  0.00     0.022 A 
ENDBRANCH  16  19
ENDBRANCH  14  16
ENDBRANCH   9  14
BRANCH  13  26
ATOM     26  N   UNL A   1      37.933  29.972  29.237  1.00  0.00    -0.355 N 
ATOM     27  C   UNL A   1      36.564  29.595  28.886  1.00  0.00     0.145 C 
BRANCH  26  28
ATOM     28  C   UNL A   1      38.911  29.822  28.161  1.00  0.00     0.153 C 
BRANCH  28  29
ATOM     29  C   UNL A   1      39.568  28.460  28.089  1.00  0.00    -0.029 A 
ATOM     30  C   UNL A   1      39.097  27.430  28.921  1.00  0.00     0.005 A 
ATOM     31  C   UNL A   1      40.544  28.150  27.131  1.00  0.00     0.005 A 
ATOM     32  C   UNL A   1      39.598  26.132  28.807  1.00  0.00     0.000 A 
ATOM     33  C   UNL A   1      41.045  26.851  27.016  1.00  0.00     0.000 A 
ATOM     34  C   UNL A   1      40.571  25.842  27.853  1.00  0.00     0.000 A 
ENDBRANCH  28  29
ENDBRANCH  26  28
ENDBRANCH  13  26
ENDBRANCH   5   8
ENDBRANCH   3   4
ENDBRANCH   2   3
ENDBRANCH   1   2
BRANCH   1  35
ATOM     35  C   UNL A   1      43.133  33.865  33.659  1.00  0.00     0.002 C 
BRANCH  35  36
ATOM     36  C   UNL A   1      43.530  32.473  34.157  1.00  0.00     0.021 C 
BRANCH  36  37
ATOM     37  C   UNL A   1      42.652  31.357  33.599  1.00  0.00     0.116 C 
BRANCH  37  38
ATOM     38  N   UNL A   1      42.009  30.561  34.631  1.00  0.00    -0.352 N 
ATOM     39  C   UNL A   1      41.389  29.324  34.470  1.00  0.00     0.251 C 
ATOM     40  H   UNL A   1      42.011  30.937  35.542  1.00  0.00     0.163 HD
ATOM     41  O   UNL A   1      40.599  28.871  35.251  1.00  0.00    -0.269 OA
BRANCH  39  42
ATOM     42  C   UNL A   1      41.896  28.512  33.338  1.00  0.00     0.039 A 
ATOM     43  C   UNL A   1      43.247  28.147  33.381  1.00  0.00     0.014 A 
ATOM     44  C   UNL A   1      41.151  28.396  32.169  1.00  0.00     0.014 A 
ATOM     45  C   UNL A   1      43.904  27.820  32.200  1.00  0.00     0.010 A 
ATOM     46  C   UNL A   1      41.824  28.155  30.988  1.00  0.00     0.010 A 
ATOM     47  C   UNL A   1      43.207  27.913  30.997  1.00  0.00    -0.014 A 
BRANCH  47  48
ATOM     48  C   UNL A   1      43.836  27.816  29.685  1.00  0.00     0.031 A 
ATOM     49  C   UNL A   1      44.317  26.503  29.202  1.00  0.00     0.074 A 
ATOM     50  C   UNL A   1      43.884  28.888  28.863  1.00  0.00     0.049 A 
ATOM     51  N   UNL A   1      45.149  26.340  28.228  1.00  0.00    -0.248 NA
ATOM     52  C   UNL A   1      43.929  25.250  29.839  1.00  0.00     0.031 C 
ATOM     53  C   UNL A   1      44.151  28.877  27.426  1.00  0.00     0.029 A 
ATOM     54  N   UNL A   1      43.926  30.244  29.199  1.00  0.00    -0.354 N 
ATOM     55  C   UNL A   1      45.139  25.003  27.900  1.00  0.00     0.074 A 
ATOM     56  C   UNL A   1      44.455  24.357  28.996  1.00  0.00     0.031 C 
ATOM     57  C   UNL A   1      44.622  30.082  27.070  1.00  0.00     0.029 A 
ATOM     58  C   UNL A   1      44.831  30.832  28.295  1.00  0.00     0.049 A 
ATOM     59  H   UNL A   1      43.428  30.693  29.919  1.00  0.00     0.167 HD
ATOM     60  C   UNL A   1      45.579  24.611  26.670  1.00  0.00     0.031 A 
ATOM     61  C   UNL A   1      46.011  31.413  28.672  1.00  0.00     0.031 A 
ATOM     62  C   UNL A   1      46.178  25.718  25.918  1.00  0.00     0.049 A 
ATOM     63  C   UNL A   1      47.239  30.803  28.011  1.00  0.00     0.074 A 
ATOM     64  C   UNL A   1      45.798  26.476  24.823  1.00  0.00     0.029 A 
ATOM     65  N   UNL A   1      47.275  26.365  26.463  1.00  0.00    -0.354 N 
ATOM     66  N   UNL A   1      47.214  29.788  27.191  1.00  0.00    -0.248 NA
ATOM     67  C   UNL A   1      48.608  31.228  28.310  1.00  0.00     0.031 C 
ATOM     68  C   UNL A   1      46.690  27.584  24.714  1.00  0.00     0.029 A 
ATOM     69  C   UNL A   1      47.616  27.489  25.735  1.00  0.00     0.049 A 
ATOM     70  H   UNL A   1      47.754  26.061  27.268  1.00  0.00     0.167 HD
ATOM     71  C   UNL A   1      48.493  29.383  26.912  1.00  0.00     0.074 A 
ATOM     72  C   UNL A   1      49.334  30.327  27.624  1.00  0.00     0.031 C 
ATOM     73  C   UNL A   1      48.763  28.270  26.168  1.00  0.00     0.031 A 
BRANCH  60  74
ATOM     74  C   UNL A   1      45.245  23.267  26.050  1.00  0.00    -0.014 A 
ATOM     75  C   UNL A   1      43.920  22.784  26.096  1.00  0.00     0.010 A 
ATOM     76  C   UNL A   1      46.190  22.401  25.467  1.00  0.00     0.010 A 
ATOM     77  C   UNL A   1      43.584  21.480  25.696  1.00  0.00     0.020 A 
ATOM     78  C   UNL A   1      45.879  21.084  25.095  1.00  0.00     0.020 A 
ATOM     79  C   UNL A   1      44.576  20.624  25.228  1.00  0.00     0.054 A 
BRANCH  79  80
ATOM     80  S   UNL A   1      44.154  18.913  24.809  1.00  0.00     0.124 S 
ATOM     81  O   UNL A   1      45.239  18.160  25.434  1.00  0.00    -0.237 OA
ATOM     82  O   UNL A   1      42.839  18.755  25.423  1.00  0.00    -0.237 OA
ATOM     83  O   UNL A   1      44.160  18.902  23.348  1.00  0.00    -0.744 OA
ENDBRANCH  79  80
ENDBRANCH  60  74
BRANCH  61  84
ATOM     84  C   UNL A   1      45.984  31.990  30.047  1.00  0.00    -0.014 A 
ATOM     85  C   UNL A   1      46.146  31.101  31.133  1.00  0.00     0.010 A 
ATOM     86  C   UNL A   1      46.228  33.360  30.247  1.00  0.00     0.010 A 
ATOM     87  C   UNL A   1      46.713  31.540  32.331  1.00  0.00     0.020 A 
ATOM     88  C   UNL A   1      46.781  33.805  31.457  1.00  0.00     0.020 A 
ATOM     89  C   UNL A   1      47.085  32.878  32.460  1.00  0.00     0.054 A 
BRANCH  89  90
ATOM     90  S   UNL A   1      48.150  33.337  33.861  1.00  0.00     0.124 S 
ATOM     91  O   UNL A   1      49.308  33.924  33.195  1.00  0.00    -0.237 OA
ATOM     92  O   UNL A   1      47.301  34.276  34.594  1.00  0.00    -0.237 OA
ATOM     93  O   UNL A   1      48.388  32.063  34.533  1.00  0.00    -0.744 OA
ENDBRANCH  89  90
ENDBRANCH  61  84
BRANCH  73  94
ATOM     94  C   UNL A   1      50.148  27.768  25.830  1.00  0.00    -0.014 A 
ATOM     95  C   UNL A   1      50.610  27.602  24.516  1.00  0.00     0.010 A 
ATOM     96  C   UNL A   1      51.000  27.326  26.870  1.00  0.00     0.010 A 
ATOM     97  C   UNL A   1      51.893  27.090  24.258  1.00  0.00     0.020 A 
ATOM     98  C   UNL A   1      52.271  26.798  26.625  1.00  0.00     0.020 A 
ATOM     99  C   UNL A   1      52.719  26.701  25.315  1.00  0.00     0.054 A 
BRANCH  99 100
ATOM    100  S   UNL A   1      54.360  26.024  24.960  1.00  0.00     0.124 S 
ATOM    101  O   UNL A   1      54.422  26.086  23.502  1.00  0.00    -0.237 OA
ATOM    102  O   UNL A   1      55.232  26.960  25.665  1.00  0.00    -0.237 OA
ATOM    103  O   UNL A   1      54.313  24.676  25.519  1.00  0.00    -0.744 OA
ENDBRANCH  99 100
ENDBRANCH  73  94
ENDBRANCH  47  48
ENDBRANCH  39  42
ENDBRANCH  37  38
ENDBRANCH  36  37
ENDBRANCH  35  36
ENDBRANCH   1  35
TORSDOF 22
ENDMDL
MODEL 3
REMARK VINA RESULT:      -8.1      4.726     12.773
REMARK SMILES Cc1cccc(S(=O)(=O)Nc2cnc(N(C)Cc3ccccc3)c(C(=O)NCCCCCCNC(=O)c3ccc(-c4c5nc(c(-c6ccc(S(=O)(=O)[O-])cc6)c6ccc([nH]6)c(-c6ccc(S(=O)(=O)[O-])cc6)c6nc(c(-c7ccc(S(=O)(=O)[O-])cc7)c7ccc4[nH]7)C=C6)C=C5)cc3)c2)c1
REMARK SMILES IDX 30 1 29 2 28 3 27 4 25 5 26 6 24 8 11 9 12 10 97 11 13 12
REMARK SMILES IDX 14 13 10 14 7 16 8 17 9 18 6 19 1 20 2 21 3 22 98 23 4 24
REMARK SMILES IDX 5 25 15 26 16 27 17 28 18 29 19 30 23 31 20 32 22 33 21 34
REMARK SMILES IDX 31 35 32 36 33 37 34 38 35 39 36 41 37 42 38 43 96 44 39 45
REMARK SMILES IDX 95 46 40 47 41 48 42 49 89 50 43 51 94 52 88 53 90 54 44 55
REMARK SMILES IDX 93 56 87 57 86 58 45 60 75 61 56 62 74 63 57 64 60 65 73 66
REMARK SMILES IDX 91 67 58 68 59 69 72 71 92 72 61 73 46 74 47 75 55 76 48 77
REMARK SMILES IDX 54 78 49 79 50 80 51 81 52 82 53 83 76 84 77 85 85 86 78 87
REMARK SMILES IDX 84 88 79 89 80 90 81 91 82 92 83 93 62 94 63 95 71 96 64 97
REMARK SMILES IDX 70 98 65 99 66 100 67 101 68 102 69 103
REMARK H PARENT 27 7 10 15 34 40 90 59 60 70
REMARK Flexibility Score: inf
ROOT
ATOM      1  C   UNL A   1      40.713  35.625  29.176  1.00  0.00     0.002 C 
ENDROOT
BRANCH   1   2
ATOM      2  C   UNL A   1      41.645  35.626  27.955  1.00  0.00     0.021 C 
BRANCH   2   3
ATOM      3  C   UNL A   1      42.604  36.821  27.913  1.00  0.00     0.116 C 
BRANCH   3   4
ATOM      4  N   UNL A   1      41.843  38.058  28.045  1.00  0.00    -0.352 N 
ATOM      5  C   UNL A   1      42.184  39.303  28.520  1.00  0.00     0.255 C 
ATOM      6  O   UNL A   1      41.285  40.033  28.934  1.00  0.00    -0.269 OA
ATOM      7  H   UNL A   1      40.910  37.988  27.737  1.00  0.00     0.163 HD
BRANCH   5   8
ATOM      8  C   UNL A   1      43.581  39.790  28.518  1.00  0.00     0.084 A 
ATOM      9  C   UNL A   1      45.386  40.786  27.253  1.00  0.00     0.068 A 
ATOM     10  C   UNL A   1      46.169  40.628  28.379  1.00  0.00     0.140 A 
ATOM     11  C   UNL A   1      44.110  40.254  27.289  1.00  0.00     0.046 A 
ATOM     12  N   UNL A   1      45.719  40.110  29.538  1.00  0.00    -0.236 NA
ATOM     13  C   UNL A   1      44.423  39.699  29.652  1.00  0.00     0.141 A 
BRANCH   9  14
ATOM     14  N   UNL A   1      45.989  41.442  26.137  1.00  0.00    -0.278 N 
ATOM     15  H   UNL A   1      46.784  41.039  25.719  1.00  0.00     0.180 HD
BRANCH  14  16
ATOM     16  S   UNL A   1      45.380  42.894  25.508  1.00  0.00     0.261 S 
ATOM     17  O   UNL A   1      46.522  43.563  24.923  1.00  0.00    -0.201 OA
ATOM     18  O   UNL A   1      44.643  43.507  26.595  1.00  0.00    -0.201 OA
BRANCH  16  19
ATOM     19  C   UNL A   1      44.221  42.651  24.180  1.00  0.00     0.088 A 
ATOM     20  C   UNL A   1      43.548  43.749  20.622  1.00  0.00     0.044 C 
ATOM     21  C   UNL A   1      43.368  43.100  21.961  1.00  0.00    -0.050 A 
ATOM     22  C   UNL A   1      42.109  42.631  22.346  1.00  0.00     0.003 A 
ATOM     23  C   UNL A   1      44.442  43.029  22.859  1.00  0.00     0.025 A 
ATOM     24  C   UNL A   1      41.912  42.137  23.631  1.00  0.00     0.002 A 
ATOM     25  C   UNL A   1      42.957  42.171  24.554  1.00  0.00     0.022 A 
ENDBRANCH  16  19
ENDBRANCH  14  16
ENDBRANCH   9  14
BRANCH  13  26
ATOM     26  N   UNL A   1      44.112  39.225  30.908  1.00  0.00    -0.355 N 
ATOM     27  C   UNL A   1      44.434  37.830  31.210  1.00  0.00     0.145 C 
BRANCH  26  28
ATOM     28  C   UNL A   1      43.517  39.975  32.012  1.00  0.00     0.153 C 
BRANCH  28  29
ATOM     29  C   UNL A   1      43.696  41.476  31.926  1.00  0.00    -0.029 A 
ATOM     30  C   UNL A   1      44.862  42.057  32.453  1.00  0.00     0.005 A 
ATOM     31  C   UNL A   1      42.801  42.296  31.223  1.00  0.00     0.005 A 
ATOM     32  C   UNL A   1      45.118  43.419  32.293  1.00  0.00     0.000 A 
ATOM     33  C   UNL A   1      43.057  43.661  31.063  1.00  0.00     0.000 A 
ATOM     34  C   UNL A   1      44.217  44.221  31.598  1.00  0.00     0.000 A 
ENDBRANCH  28  29
ENDBRANCH  26  28
ENDBRANCH  13  26
ENDBRANCH   5   8
ENDBRANCH   3   4
ENDBRANCH   2   3
ENDBRANCH   1   2
BRANCH   1  35
ATOM     35  C   UNL A   1      40.008  34.293  29.481  1.00  0.00     0.002 C 
BRANCH  35  36
ATOM     36  C   UNL A   1      38.531  34.389  29.873  1.00  0.00     0.021 C 
BRANCH  36  37
ATOM     37  C   UNL A   1      37.597  33.690  28.890  1.00  0.00     0.116 C 
BRANCH  37  38
ATOM     38  N   UNL A   1      36.305  33.354  29.465  1.00  0.00    -0.352 N 
ATOM     39  C   UNL A   1      35.701  32.098  29.489  1.00  0.00     0.251 C 
ATOM     40  H   UNL A   1      35.803  34.092  29.881  1.00  0.00     0.163 HD
ATOM     41  O   UNL A   1      34.526  31.932  29.664  1.00  0.00    -0.269 OA
BRANCH  39  42
ATOM     42  C   UNL A   1      36.638  30.951  29.449  1.00  0.00     0.039 A 
ATOM     43  C   UNL A   1      36.836  30.257  30.649  1.00  0.00     0.014 A 
ATOM     44  C   UNL A   1      37.493  30.782  28.365  1.00  0.00     0.014 A 
ATOM     45  C   UNL A   1      37.999  29.514  30.825  1.00  0.00     0.010 A 
ATOM     46  C   UNL A   1      38.684  30.113  28.571  1.00  0.00     0.010 A 
ATOM     47  C   UNL A   1      38.958  29.520  29.814  1.00  0.00    -0.014 A 
BRANCH  47  48
ATOM     48  C   UNL A   1      40.300  28.971  29.965  1.00  0.00     0.031 A 
ATOM     49  C   UNL A   1      40.611  27.640  29.399  1.00  0.00     0.074 A 
ATOM     50  C   UNL A   1      41.288  29.708  30.518  1.00  0.00     0.049 A 
ATOM     51  N   UNL A   1      41.634  26.924  29.726  1.00  0.00    -0.248 NA
ATOM     52  C   UNL A   1      39.733  26.977  28.440  1.00  0.00     0.031 C 
ATOM     53  C   UNL A   1      42.724  29.454  30.428  1.00  0.00     0.029 A 
ATOM     54  N   UNL A   1      41.189  30.722  31.474  1.00  0.00    -0.354 N 
ATOM     55  C   UNL A   1      41.733  25.904  28.808  1.00  0.00     0.074 A 
ATOM     56  C   UNL A   1      40.472  25.917  28.103  1.00  0.00     0.031 C 
ATOM     57  C   UNL A   1      43.328  30.039  31.472  1.00  0.00     0.029 A 
ATOM     58  C   UNL A   1      42.278  30.532  32.346  1.00  0.00     0.049 A 
ATOM     59  H   UNL A   1      40.501  31.424  31.527  1.00  0.00     0.167 HD
ATOM     60  C   UNL A   1      42.923  25.258  28.647  1.00  0.00     0.031 A 
ATOM     61  C   UNL A   1      42.144  30.220  33.670  1.00  0.00     0.031 A 
ATOM     62  C   UNL A   1      43.913  25.667  29.648  1.00  0.00     0.049 A 
ATOM     63  C   UNL A   1      42.834  28.924  34.073  1.00  0.00     0.074 A 
ATOM     64  C   UNL A   1      45.067  26.433  29.627  1.00  0.00     0.029 A 
ATOM     65  N   UNL A   1      43.616  25.467  30.986  1.00  0.00    -0.354 N 
ATOM     66  N   UNL A   1      43.465  28.132  33.251  1.00  0.00    -0.248 NA
ATOM     67  C   UNL A   1      42.772  28.367  35.426  1.00  0.00     0.031 C 
ATOM     68  C   UNL A   1      45.462  26.682  30.975  1.00  0.00     0.029 A 
ATOM     69  C   UNL A   1      44.555  26.058  31.809  1.00  0.00     0.049 A 
ATOM     70  H   UNL A   1      42.834  24.965  31.311  1.00  0.00     0.167 HD
ATOM     71  C   UNL A   1      43.821  26.977  33.897  1.00  0.00     0.074 A 
ATOM     72  C   UNL A   1      43.379  27.177  35.264  1.00  0.00     0.031 C 
ATOM     73  C   UNL A   1      44.396  25.922  33.248  1.00  0.00     0.031 A 
BRANCH  60  74
ATOM     74  C   UNL A   1      43.267  24.429  27.424  1.00  0.00    -0.014 A 
ATOM     75  C   UNL A   1      43.037  23.037  27.434  1.00  0.00     0.010 A 
ATOM     76  C   UNL A   1      43.876  24.938  26.260  1.00  0.00     0.010 A 
ATOM     77  C   UNL A   1      43.491  22.195  26.404  1.00  0.00     0.020 A 
ATOM     78  C   UNL A   1      44.366  24.110  25.239  1.00  0.00     0.020 A 
ATOM     79  C   UNL A   1      44.185  22.736  25.326  1.00  0.00     0.054 A 
BRANCH  79  80
ATOM     80  S   UNL A   1      44.856  21.634  24.054  1.00  0.00     0.124 S 
ATOM     81  O   UNL A   1      44.354  22.235  22.821  1.00  0.00    -0.237 OA
ATOM     82  O   UNL A   1      46.295  21.744  24.270  1.00  0.00    -0.237 OA
ATOM     83  O   UNL A   1      44.277  20.333  24.383  1.00  0.00    -0.744 OA
ENDBRANCH  79  80
ENDBRANCH  60  74
BRANCH  61  84
ATOM     84  C   UNL A   1      40.890  30.743  34.287  1.00  0.00    -0.014 A 
ATOM     85  C   UNL A   1      40.822  32.128  34.555  1.00  0.00     0.010 A 
ATOM     86  C   UNL A   1      39.696  30.007  34.200  1.00  0.00     0.010 A 
ATOM     87  C   UNL A   1      39.593  32.791  34.553  1.00  0.00     0.020 A 
ATOM     88  C   UNL A   1      38.460  30.670  34.216  1.00  0.00     0.020 A 
ATOM     89  C   UNL A   1      38.426  32.064  34.319  1.00  0.00     0.054 A 
BRANCH  89  90
ATOM     90  S   UNL A   1      36.904  32.989  33.949  1.00  0.00     0.124 S 
ATOM     91  O   UNL A   1      36.414  33.332  35.280  1.00  0.00    -0.237 OA
ATOM     92  O   UNL A   1      37.412  34.109  33.157  1.00  0.00    -0.237 OA
ATOM     93  O   UNL A   1      36.096  32.024  33.209  1.00  0.00    -0.744 OA
ENDBRANCH  89  90
ENDBRANCH  61  84
BRANCH  73  94
ATOM     94  C   UNL A   1      44.805  24.621  33.900  1.00  0.00    -0.014 A 
ATOM     95  C   UNL A   1      46.142  24.232  34.076  1.00  0.00     0.010 A 
ATOM     96  C   UNL A   1      43.812  23.679  34.256  1.00  0.00     0.010 A 
ATOM     97  C   UNL A   1      46.467  22.992  34.650  1.00  0.00     0.020 A 
ATOM     98  C   UNL A   1      44.123  22.434  34.810  1.00  0.00     0.020 A 
ATOM     99  C   UNL A   1      45.454  22.105  35.023  1.00  0.00     0.054 A 
BRANCH  99 100
ATOM    100  S   UNL A   1      45.894  20.502  35.741  1.00  0.00     0.124 S 
ATOM    101  O   UNL A   1      44.872  19.615  35.190  1.00  0.00    -0.237 OA
ATOM    102  O   UNL A   1      47.244  20.300  35.224  1.00  0.00    -0.237 OA
ATOM    103  O   UNL A   1      45.806  20.726  37.182  1.00  0.00    -0.744 OA
ENDBRANCH  99 100
ENDBRANCH  73  94
ENDBRANCH  47  48
ENDBRANCH  39  42
ENDBRANCH  37  38
ENDBRANCH  36  37
ENDBRANCH  35  36
ENDBRANCH   1  35
TORSDOF 22
ENDMDL
