MODEL 1
REMARK VINA RESULT:     -12.2      0.000      0.000
REMARK SMILES Cn1cc(Cl)cc1C(=O)N[C@H]1C=C[C@H](C(=O)NCCCCCCNC(=O)c2ccc(-c3c4nc(c(-c5ccc(S(=O)(=O)[O-])cc5)c5ccc([nH]5)c(-c5ccc(S(=O)(=O)[O-])cc5)c5nc(c(-c6ccc(S(=O)(=O)[O-])cc6)c6ccc3[nH]6)C=C5)C=C4)cc2)C1
REMARK SMILES IDX 21 1 20 2 19 3 18 4 17 5 15 6 16 7 14 9 11 10 12 11 87 12
REMARK SMILES IDX 13 13 10 14 8 15 9 16 7 18 1 19 2 20 3 21 4 22 6 23 5 24
REMARK SMILES IDX 22 25 23 26 24 27 25 28 26 30 27 31 28 32 86 33 29 34 85 35
REMARK SMILES IDX 30 36 31 37 32 38 79 39 33 40 84 41 78 42 80 43 34 44 83 45
REMARK SMILES IDX 77 46 76 47 35 49 65 50 46 51 64 52 47 53 50 54 63 55 81 56
REMARK SMILES IDX 48 57 49 58 62 60 82 61 51 62 36 63 37 64 45 65 38 66 44 67
REMARK SMILES IDX 39 68 40 69 41 70 42 71 43 72 66 73 67 74 75 75 68 76 74 77
REMARK SMILES IDX 69 78 70 79 71 80 72 81 73 82 52 83 53 84 61 85 54 86 60 87
REMARK SMILES IDX 55 88 56 89 57 90 58 91 59 92
REMARK H PARENT 17 8 10 17 24 29 80 48 50 59
REMARK Flexibility Score: inf
ROOT
ATOM      1  C   UNL A   1      40.357  21.816  27.391  1.00  0.00     0.002 C 
ENDROOT
BRANCH   1   2
ATOM      2  C   UNL A   1      39.608  22.894  26.590  1.00  0.00     0.002 C 
BRANCH   2   3
ATOM      3  C   UNL A   1      38.408  22.418  25.767  1.00  0.00     0.021 C 
BRANCH   3   4
ATOM      4  C   UNL A   1      37.192  23.335  25.839  1.00  0.00     0.116 C 
BRANCH   4   5
ATOM      5  N   UNL A   1      36.521  23.454  24.558  1.00  0.00    -0.356 N 
ATOM      6  C   UNL A   1      35.553  22.733  23.936  1.00  0.00     0.227 C 
ATOM      7  O   UNL A   1      35.237  23.133  22.807  1.00  0.00    -0.274 OA
ATOM      8  H   UNL A   1      36.835  24.222  24.026  1.00  0.00     0.163 HD
BRANCH   6   9
ATOM      9  C   UNL A   1      34.734  21.594  24.576  1.00  0.00     0.103 C 
ATOM     10  C   UNL A   1      33.140  22.545  26.097  1.00  0.00     0.106 C 
ATOM     11  C   UNL A   1      34.050  21.604  26.826  1.00  0.00    -0.006 C 
ATOM     12  C   UNL A   1      33.257  22.016  24.674  1.00  0.00     0.047 C 
ATOM     13  C   UNL A   1      34.991  21.143  25.985  1.00  0.00    -0.016 C 
BRANCH  10  14
ATOM     14  N   UNL A   1      31.832  22.580  26.660  1.00  0.00    -0.345 N 
ATOM     15  C   UNL A   1      30.877  23.562  26.674  1.00  0.00     0.268 C 
ATOM     16  O   UNL A   1      29.880  23.302  27.354  1.00  0.00    -0.268 OA
ATOM     17  H   UNL A   1      31.567  21.751  27.120  1.00  0.00     0.164 HD
BRANCH  15  18
ATOM     18  C   UNL A   1      30.933  24.782  25.873  1.00  0.00     0.108 A 
ATOM     19  C   UNL A   1      30.566  24.169  23.413  1.00  0.00     0.150 C 
ATOM     20  N   UNL A   1      30.713  25.068  24.534  1.00  0.00    -0.345 N 
ATOM     21  C   UNL A   1      30.816  26.427  24.315  1.00  0.00     0.106 A 
ATOM     22  C   UNL A   1      31.296  27.007  25.457  1.00  0.00     0.059 A 
ATOM     23  C   UNL A   1      31.384  25.990  26.420  1.00  0.00     0.054 A 
ATOM     24  Cl  UNL A   1      31.727  28.629  25.683  1.00  0.00    -0.083 Cl
ENDBRANCH  15  18
ENDBRANCH  10  14
ENDBRANCH   6   9
ENDBRANCH   4   5
ENDBRANCH   3   4
ENDBRANCH   2   3
ENDBRANCH   1   2
BRANCH   1  25
ATOM     25  C   UNL A   1      40.855  20.589  26.612  1.00  0.00     0.021 C 
BRANCH  25  26
ATOM     26  C   UNL A   1      42.089  19.925  27.203  1.00  0.00     0.116 C 
BRANCH  26  27
ATOM     27  N   UNL A   1      43.188  19.836  26.250  1.00  0.00    -0.352 N 
ATOM     28  C   UNL A   1      43.776  20.853  25.520  1.00  0.00     0.251 C 
ATOM     29  H   UNL A   1      43.561  18.936  26.107  1.00  0.00     0.163 HD
ATOM     30  O   UNL A   1      44.383  20.595  24.491  1.00  0.00    -0.269 OA
BRANCH  28  31
ATOM     31  C   UNL A   1      43.657  22.248  25.996  1.00  0.00     0.039 A 
ATOM     32  C   UNL A   1      43.053  23.225  25.201  1.00  0.00     0.014 A 
ATOM     33  C   UNL A   1      44.168  22.581  27.250  1.00  0.00     0.014 A 
ATOM     34  C   UNL A   1      42.901  24.510  25.717  1.00  0.00     0.010 A 
ATOM     35  C   UNL A   1      43.893  23.805  27.813  1.00  0.00     0.010 A 
ATOM     36  C   UNL A   1      43.298  24.788  27.037  1.00  0.00    -0.014 A 
BRANCH  36  37
ATOM     37  C   UNL A   1      42.971  26.070  27.653  1.00  0.00     0.031 A 
ATOM     38  C   UNL A   1      43.999  27.117  27.433  1.00  0.00     0.074 A 
ATOM     39  C   UNL A   1      41.794  26.378  28.239  1.00  0.00     0.049 A 
ATOM     40  N   UNL A   1      44.914  27.478  28.266  1.00  0.00    -0.248 NA
ATOM     41  C   UNL A   1      44.153  27.695  26.089  1.00  0.00     0.031 C 
ATOM     42  C   UNL A   1      40.556  25.593  28.287  1.00  0.00     0.029 A 
ATOM     43  N   UNL A   1      41.435  27.535  28.862  1.00  0.00    -0.354 N 
ATOM     44  C   UNL A   1      45.601  28.514  27.650  1.00  0.00     0.074 A 
ATOM     45  C   UNL A   1      45.237  28.458  26.256  1.00  0.00     0.031 C 
ATOM     46  C   UNL A   1      39.536  26.377  28.707  1.00  0.00     0.029 A 
ATOM     47  C   UNL A   1      40.074  27.660  29.124  1.00  0.00     0.049 A 
ATOM     48  H   UNL A   1      42.088  28.229  29.108  1.00  0.00     0.167 HD
ATOM     49  C   UNL A   1      46.198  29.492  28.389  1.00  0.00     0.031 A 
ATOM     50  C   UNL A   1      39.441  28.742  29.647  1.00  0.00     0.031 A 
ATOM     51  C   UNL A   1      46.236  29.143  29.789  1.00  0.00     0.049 A 
ATOM     52  C   UNL A   1      40.465  29.529  30.377  1.00  0.00     0.074 A 
ATOM     53  C   UNL A   1      46.760  28.094  30.519  1.00  0.00     0.029 A 
ATOM     54  N   UNL A   1      45.290  29.735  30.594  1.00  0.00    -0.354 N 
ATOM     55  N   UNL A   1      41.055  29.101  31.457  1.00  0.00    -0.248 NA
ATOM     56  C   UNL A   1      41.161  30.584  29.662  1.00  0.00     0.031 C 
ATOM     57  C   UNL A   1      45.776  27.815  31.514  1.00  0.00     0.029 A 
ATOM     58  C   UNL A   1      44.756  28.762  31.398  1.00  0.00     0.049 A 
ATOM     59  H   UNL A   1      45.040  30.687  30.594  1.00  0.00     0.167 HD
ATOM     60  C   UNL A   1      42.378  29.489  31.312  1.00  0.00     0.074 A 
ATOM     61  C   UNL A   1      42.362  30.483  30.239  1.00  0.00     0.031 C 
ATOM     62  C   UNL A   1      43.390  28.768  31.879  1.00  0.00     0.031 A 
BRANCH  49  63
ATOM     63  C   UNL A   1      46.348  30.923  27.933  1.00  0.00    -0.014 A 
ATOM     64  C   UNL A   1      45.181  31.663  27.652  1.00  0.00     0.010 A 
ATOM     65  C   UNL A   1      47.573  31.472  27.507  1.00  0.00     0.010 A 
ATOM     66  C   UNL A   1      45.234  32.853  26.917  1.00  0.00     0.020 A 
ATOM     67  C   UNL A   1      47.642  32.681  26.813  1.00  0.00     0.020 A 
ATOM     68  C   UNL A   1      46.467  33.349  26.495  1.00  0.00     0.054 A 
BRANCH  68  69
ATOM     69  S   UNL A   1      46.517  34.846  25.482  1.00  0.00     0.124 S 
ATOM     70  O   UNL A   1      47.893  34.835  24.998  1.00  0.00    -0.237 OA
ATOM     71  O   UNL A   1      45.488  34.573  24.482  1.00  0.00    -0.237 OA
ATOM     72  O   UNL A   1      46.192  35.908  26.430  1.00  0.00    -0.744 OA
ENDBRANCH  68  69
ENDBRANCH  49  63
BRANCH  50  73
ATOM     73  C   UNL A   1      38.096  29.290  29.338  1.00  0.00    -0.014 A 
ATOM     74  C   UNL A   1      37.291  29.846  30.353  1.00  0.00     0.010 A 
ATOM     75  C   UNL A   1      37.736  29.554  28.002  1.00  0.00     0.010 A 
ATOM     76  C   UNL A   1      36.220  30.704  30.044  1.00  0.00     0.020 A 
ATOM     77  C   UNL A   1      36.666  30.403  27.687  1.00  0.00     0.020 A 
ATOM     78  C   UNL A   1      35.932  30.999  28.711  1.00  0.00     0.054 A 
BRANCH  78  79
ATOM     79  S   UNL A   1      34.687  32.268  28.321  1.00  0.00     0.124 S 
ATOM     80  O   UNL A   1      34.255  32.698  29.647  1.00  0.00    -0.237 OA
ATOM     81  O   UNL A   1      35.458  33.247  27.558  1.00  0.00    -0.237 OA
ATOM     82  O   UNL A   1      33.684  31.538  27.547  1.00  0.00    -0.744 OA
ENDBRANCH  78  79
ENDBRANCH  50  73
BRANCH  62  83
ATOM     83  C   UNL A   1      43.050  27.764  32.958  1.00  0.00    -0.014 A 
ATOM     84  C   UNL A   1      43.664  26.505  33.107  1.00  0.00     0.010 A 
ATOM     85  C   UNL A   1      42.134  28.181  33.941  1.00  0.00     0.010 A 
ATOM     86  C   UNL A   1      43.333  25.672  34.189  1.00  0.00     0.020 A 
ATOM     87  C   UNL A   1      41.818  27.369  35.029  1.00  0.00     0.020 A 
ATOM     88  C   UNL A   1      42.405  26.110  35.140  1.00  0.00     0.054 A 
BRANCH  88  89
ATOM     89  S   UNL A   1      41.978  25.037  36.541  1.00  0.00     0.124 S 
ATOM     90  O   UNL A   1      40.838  25.731  37.134  1.00  0.00    -0.237 OA
ATOM     91  O   UNL A   1      41.672  23.763  35.893  1.00  0.00    -0.237 OA
ATOM     92  O   UNL A   1      43.191  25.031  37.358  1.00  0.00    -0.744 OA
ENDBRANCH  88  89
ENDBRANCH  62  83
ENDBRANCH  36  37
ENDBRANCH  28  31
ENDBRANCH  26  27
ENDBRANCH  25  26
ENDBRANCH   1  25
TORSDOF 18
ENDMDL
MODEL 2
REMARK VINA RESULT:     -12.1      1.494      2.187
REMARK SMILES Cn1cc(Cl)cc1C(=O)N[C@H]1C=C[C@H](C(=O)NCCCCCCNC(=O)c2ccc(-c3c4nc(c(-c5ccc(S(=O)(=O)[O-])cc5)c5ccc([nH]5)c(-c5ccc(S(=O)(=O)[O-])cc5)c5nc(c(-c6ccc(S(=O)(=O)[O-])cc6)c6ccc3[nH]6)C=C5)C=C4)cc2)C1
REMARK SMILES IDX 21 1 20 2 19 3 18 4 17 5 15 6 16 7 14 9 11 10 12 11 87 12
REMARK SMILES IDX 13 13 10 14 8 15 9 16 7 18 1 19 2 20 3 21 4 22 6 23 5 24
REMARK SMILES IDX 22 25 23 26 24 27 25 28 26 30 27 31 28 32 86 33 29 34 85 35
REMARK SMILES IDX 30 36 31 37 32 38 79 39 33 40 84 41 78 42 80 43 34 44 83 45
REMARK SMILES IDX 77 46 76 47 35 49 65 50 46 51 64 52 47 53 50 54 63 55 81 56
REMARK SMILES IDX 48 57 49 58 62 60 82 61 51 62 36 63 37 64 45 65 38 66 44 67
REMARK SMILES IDX 39 68 40 69 41 70 42 71 43 72 66 73 67 74 75 75 68 76 74 77
REMARK SMILES IDX 69 78 70 79 71 80 72 81 73 82 52 83 53 84 61 85 54 86 60 87
REMARK SMILES IDX 55 88 56 89 57 90 58 91 59 92
REMARK H PARENT 17 8 10 17 24 29 80 48 50 59
REMARK Flexibility Score: inf
ROOT
ATOM      1  C   UNL A   1      41.985  19.345  27.605  1.00  0.00     0.002 C 
ENDROOT
BRANCH   1   2
ATOM      2  C   UNL A   1      41.997  20.883  27.594  1.00  0.00     0.002 C 
BRANCH   2   3
ATOM      3  C   UNL A   1      40.630  21.573  27.633  1.00  0.00     0.021 C 
BRANCH   3   4
ATOM      4  C   UNL A   1      40.009  21.818  26.262  1.00  0.00     0.116 C 
BRANCH   4   5
ATOM      5  N   UNL A   1      38.931  22.786  26.316  1.00  0.00    -0.356 N 
ATOM      6  C   UNL A   1      37.780  22.948  25.613  1.00  0.00     0.227 C 
ATOM      7  O   UNL A   1      37.096  23.929  25.934  1.00  0.00    -0.274 OA
ATOM      8  H   UNL A   1      39.061  23.474  27.009  1.00  0.00     0.163 HD
BRANCH   6   9
ATOM      9  C   UNL A   1      37.203  21.941  24.597  1.00  0.00     0.103 C 
ATOM     10  C   UNL A   1      34.828  22.246  24.463  1.00  0.00     0.106 C 
ATOM     11  C   UNL A   1      35.144  20.846  24.891  1.00  0.00    -0.006 C 
ATOM     12  C   UNL A   1      36.117  22.630  23.751  1.00  0.00     0.047 C 
ATOM     13  C   UNL A   1      36.472  20.709  25.045  1.00  0.00    -0.016 C 
BRANCH  10  14
ATOM     14  N   UNL A   1      33.628  22.321  23.698  1.00  0.00    -0.345 N 
ATOM     15  C   UNL A   1      32.803  23.375  23.407  1.00  0.00     0.268 C 
ATOM     16  O   UNL A   1      31.773  23.072  22.799  1.00  0.00    -0.268 OA
ATOM     17  H   UNL A   1      33.342  21.464  23.308  1.00  0.00     0.164 HD
BRANCH  15  18
ATOM     18  C   UNL A   1      33.127  24.776  23.667  1.00  0.00     0.108 A 
ATOM     19  C   UNL A   1      32.701  25.272  26.144  1.00  0.00     0.150 C 
ATOM     20  N   UNL A   1      33.183  25.556  24.812  1.00  0.00    -0.345 N 
ATOM     21  C   UNL A   1      33.640  26.822  24.503  1.00  0.00     0.106 A 
ATOM     22  C   UNL A   1      33.695  26.934  23.141  1.00  0.00     0.059 A 
ATOM     23  C   UNL A   1      33.364  25.673  22.619  1.00  0.00     0.054 A 
ATOM     24  Cl  UNL A   1      34.066  28.317  22.238  1.00  0.00    -0.083 Cl
ENDBRANCH  15  18
ENDBRANCH  10  14
ENDBRANCH   6   9
ENDBRANCH   4   5
ENDBRANCH   3   4
ENDBRANCH   2   3
ENDBRANCH   1   2
BRANCH   1  25
ATOM     25  C   UNL A   1      42.871  18.633  26.573  1.00  0.00     0.021 C 
BRANCH  25  26
ATOM     26  C   UNL A   1      43.059  19.397  25.270  1.00  0.00     0.116 C 
BRANCH  26  27
ATOM     27  N   UNL A   1      44.463  19.592  24.933  1.00  0.00    -0.352 N 
ATOM     28  C   UNL A   1      45.169  20.778  24.848  1.00  0.00     0.251 C 
ATOM     29  H   UNL A   1      44.976  18.774  24.739  1.00  0.00     0.163 HD
ATOM     30  O   UNL A   1      46.190  20.836  24.179  1.00  0.00    -0.269 OA
BRANCH  28  31
ATOM     31  C   UNL A   1      44.673  21.969  25.572  1.00  0.00     0.039 A 
ATOM     32  C   UNL A   1      45.211  22.327  26.810  1.00  0.00     0.014 A 
ATOM     33  C   UNL A   1      43.648  22.727  25.005  1.00  0.00     0.014 A 
ATOM     34  C   UNL A   1      44.762  23.494  27.424  1.00  0.00     0.010 A 
ATOM     35  C   UNL A   1      43.307  23.948  25.539  1.00  0.00     0.010 A 
ATOM     36  C   UNL A   1      43.828  24.318  26.769  1.00  0.00    -0.014 A 
BRANCH  36  37
ATOM     37  C   UNL A   1      43.495  25.632  27.309  1.00  0.00     0.031 A 
ATOM     38  C   UNL A   1      44.475  26.688  26.952  1.00  0.00     0.074 A 
ATOM     39  C   UNL A   1      42.344  25.950  27.938  1.00  0.00     0.049 A 
ATOM     40  N   UNL A   1      45.424  27.135  27.702  1.00  0.00    -0.248 NA
ATOM     41  C   UNL A   1      44.534  27.168  25.563  1.00  0.00     0.031 C 
ATOM     42  C   UNL A   1      41.137  25.137  28.116  1.00  0.00     0.029 A 
ATOM     43  N   UNL A   1      41.984  27.140  28.495  1.00  0.00    -0.354 N 
ATOM     44  C   UNL A   1      46.041  28.142  26.972  1.00  0.00     0.074 A 
ATOM     45  C   UNL A   1      45.600  27.972  25.610  1.00  0.00     0.031 C 
ATOM     46  C   UNL A   1      40.117  25.922  28.537  1.00  0.00     0.029 A 
ATOM     47  C   UNL A   1      40.637  27.246  28.828  1.00  0.00     0.049 A 
ATOM     48  H   UNL A   1      42.627  27.868  28.652  1.00  0.00     0.167 HD
ATOM     49  C   UNL A   1      46.647  29.188  27.601  1.00  0.00     0.031 A 
ATOM     50  C   UNL A   1      40.000  28.347  29.306  1.00  0.00     0.031 A 
ATOM     51  C   UNL A   1      46.776  28.946  29.019  1.00  0.00     0.049 A 
ATOM     52  C   UNL A   1      41.037  29.214  29.915  1.00  0.00     0.074 A 
ATOM     53  C   UNL A   1      47.373  27.969  29.791  1.00  0.00     0.029 A 
ATOM     54  N   UNL A   1      45.858  29.569  29.833  1.00  0.00    -0.354 N 
ATOM     55  N   UNL A   1      41.701  28.884  30.987  1.00  0.00    -0.248 NA
ATOM     56  C   UNL A   1      41.658  30.232  29.086  1.00  0.00     0.031 C 
ATOM     57  C   UNL A   1      46.457  27.738  30.860  1.00  0.00     0.029 A 
ATOM     58  C   UNL A   1      45.402  28.644  30.736  1.00  0.00     0.049 A 
ATOM     59  H   UNL A   1      45.579  30.511  29.778  1.00  0.00     0.167 HD
ATOM     60  C   UNL A   1      43.001  29.297  30.736  1.00  0.00     0.074 A 
ATOM     61  C   UNL A   1      42.892  30.208  29.597  1.00  0.00     0.031 C 
ATOM     62  C   UNL A   1      44.066  28.649  31.295  1.00  0.00     0.031 A 
BRANCH  49  63
ATOM     63  C   UNL A   1      46.725  30.584  27.035  1.00  0.00    -0.014 A 
ATOM     64  C   UNL A   1      47.939  31.291  27.158  1.00  0.00     0.010 A 
ATOM     65  C   UNL A   1      45.591  31.324  26.646  1.00  0.00     0.010 A 
ATOM     66  C   UNL A   1      47.997  32.677  26.973  1.00  0.00     0.020 A 
ATOM     67  C   UNL A   1      45.647  32.699  26.414  1.00  0.00     0.020 A 
ATOM     68  C   UNL A   1      46.845  33.373  26.611  1.00  0.00     0.054 A 
BRANCH  68  69
ATOM     69  S   UNL A   1      46.914  35.172  26.448  1.00  0.00     0.124 S 
ATOM     70  O   UNL A   1      45.504  35.537  26.542  1.00  0.00    -0.237 OA
ATOM     71  O   UNL A   1      47.747  35.551  27.586  1.00  0.00    -0.237 OA
ATOM     72  O   UNL A   1      47.529  35.372  25.138  1.00  0.00    -0.744 OA
ENDBRANCH  68  69
ENDBRANCH  49  63
BRANCH  50  73
ATOM     73  C   UNL A   1      38.623  28.832  29.038  1.00  0.00    -0.014 A 
ATOM     74  C   UNL A   1      37.727  29.088  30.096  1.00  0.00     0.010 A 
ATOM     75  C   UNL A   1      38.294  29.345  27.768  1.00  0.00     0.010 A 
ATOM     76  C   UNL A   1      36.592  29.898  29.910  1.00  0.00     0.020 A 
ATOM     77  C   UNL A   1      37.163  30.149  27.573  1.00  0.00     0.020 A 
ATOM     78  C   UNL A   1      36.333  30.447  28.653  1.00  0.00     0.054 A 
BRANCH  78  79
ATOM     79  S   UNL A   1      34.990  31.660  28.463  1.00  0.00     0.124 S 
ATOM     80  O   UNL A   1      33.916  30.851  27.896  1.00  0.00    -0.237 OA
ATOM     81  O   UNL A   1      34.780  32.120  29.834  1.00  0.00    -0.237 OA
ATOM     82  O   UNL A   1      35.557  32.661  27.560  1.00  0.00    -0.744 OA
ENDBRANCH  78  79
ENDBRANCH  50  73
BRANCH  62  83
ATOM     83  C   UNL A   1      43.820  27.719  32.462  1.00  0.00    -0.014 A 
ATOM     84  C   UNL A   1      43.310  28.116  33.713  1.00  0.00     0.010 A 
ATOM     85  C   UNL A   1      44.012  26.346  32.223  1.00  0.00     0.010 A 
ATOM     86  C   UNL A   1      43.044  27.163  34.711  1.00  0.00     0.020 A 
ATOM     87  C   UNL A   1      43.728  25.393  33.201  1.00  0.00     0.020 A 
ATOM     88  C   UNL A   1      43.261  25.806  34.448  1.00  0.00     0.054 A 
BRANCH  88  89
ATOM     89  S   UNL A   1      42.915  24.573  35.733  1.00  0.00     0.124 S 
ATOM     90  O   UNL A   1      41.711  25.104  36.366  1.00  0.00    -0.237 OA
ATOM     91  O   UNL A   1      42.732  23.344  34.963  1.00  0.00    -0.237 OA
ATOM     92  O   UNL A   1      44.114  24.595  36.570  1.00  0.00    -0.744 OA
ENDBRANCH  88  89
ENDBRANCH  62  83
ENDBRANCH  36  37
ENDBRANCH  28  31
ENDBRANCH  26  27
ENDBRANCH  25  26
ENDBRANCH   1  25
TORSDOF 18
ENDMDL
MODEL 3
REMARK VINA RESULT:     -11.9      2.200      3.520
REMARK SMILES Cn1cc(Cl)cc1C(=O)N[C@H]1C=C[C@H](C(=O)NCCCCCCNC(=O)c2ccc(-c3c4nc(c(-c5ccc(S(=O)(=O)[O-])cc5)c5ccc([nH]5)c(-c5ccc(S(=O)(=O)[O-])cc5)c5nc(c(-c6ccc(S(=O)(=O)[O-])cc6)c6ccc3[nH]6)C=C5)C=C4)cc2)C1
REMARK SMILES IDX 21 1 20 2 19 3 18 4 17 5 15 6 16 7 14 9 11 10 12 11 87 12
REMARK SMILES IDX 13 13 10 14 8 15 9 16 7 18 1 19 2 20 3 21 4 22 6 23 5 24
REMARK SMILES IDX 22 25 23 26 24 27 25 28 26 30 27 31 28 32 86 33 29 34 85 35
REMARK SMILES IDX 30 36 31 37 32 38 79 39 33 40 84 41 78 42 80 43 34 44 83 45
REMARK SMILES IDX 77 46 76 47 35 49 65 50 46 51 64 52 47 53 50 54 63 55 81 56
REMARK SMILES IDX 48 57 49 58 62 60 82 61 51 62 36 63 37 64 45 65 38 66 44 67
REMARK SMILES IDX 39 68 40 69 41 70 42 71 43 72 66 73 67 74 75 75 68 76 74 77
REMARK SMILES IDX 69 78 70 79 71 80 72 81 73 82 52 83 53 84 61 85 54 86 60 87
REMARK SMILES IDX 55 88 56 89 57 90 58 91 59 92
REMARK H PARENT 17 8 10 17 24 29 80 48 50 59
REMARK Flexibility Score: inf
ROOT
ATOM      1  C   UNL A   1      36.655  22.010  24.247  1.00  0.00     0.002 C 
ENDROOT
BRANCH   1   2
ATOM      2  C   UNL A   1      35.929  20.942  25.082  1.00  0.00     0.002 C 
BRANCH   2   3
ATOM      3  C   UNL A   1      34.951  21.457  26.141  1.00  0.00     0.021 C 
BRANCH   3   4
ATOM      4  C   UNL A   1      33.576  20.798  26.102  1.00  0.00     0.116 C 
BRANCH   4   5
ATOM      5  N   UNL A   1      32.512  21.733  26.415  1.00  0.00    -0.356 N 
ATOM      6  C   UNL A   1      31.811  22.635  25.681  1.00  0.00     0.227 C 
ATOM      7  O   UNL A   1      30.969  23.291  26.309  1.00  0.00    -0.274 OA
ATOM      8  H   UNL A   1      32.241  21.710  27.362  1.00  0.00     0.163 HD
BRANCH   6   9
ATOM      9  C   UNL A   1      31.869  22.779  24.146  1.00  0.00     0.103 C 
ATOM     10  C   UNL A   1      32.581  25.003  23.600  1.00  0.00     0.106 C 
ATOM     11  C   UNL A   1      31.232  24.734  23.008  1.00  0.00    -0.006 C 
ATOM     12  C   UNL A   1      33.118  23.587  23.752  1.00  0.00     0.047 C 
ATOM     13  C   UNL A   1      30.804  23.519  23.389  1.00  0.00    -0.016 C 
BRANCH  10  14
ATOM     14  N   UNL A   1      33.354  25.898  22.804  1.00  0.00    -0.345 N 
ATOM     15  C   UNL A   1      33.224  27.239  22.563  1.00  0.00     0.268 C 
ATOM     16  O   UNL A   1      34.010  27.692  21.726  1.00  0.00    -0.268 OA
ATOM     17  H   UNL A   1      34.117  25.476  22.347  1.00  0.00     0.164 HD
BRANCH  15  18
ATOM     18  C   UNL A   1      32.326  28.129  23.296  1.00  0.00     0.108 A 
ATOM     19  C   UNL A   1      33.171  28.348  25.704  1.00  0.00     0.150 C 
ATOM     20  N   UNL A   1      32.339  28.676  24.570  1.00  0.00    -0.345 N 
ATOM     21  C   UNL A   1      31.272  29.539  24.727  1.00  0.00     0.106 A 
ATOM     22  C   UNL A   1      30.454  29.407  23.639  1.00  0.00     0.059 A 
ATOM     23  C   UNL A   1      31.096  28.524  22.756  1.00  0.00     0.054 A 
ATOM     24  Cl  UNL A   1      28.948  30.140  23.391  1.00  0.00    -0.083 Cl
ENDBRANCH  15  18
ENDBRANCH  10  14
ENDBRANCH   6   9
ENDBRANCH   4   5
ENDBRANCH   3   4
ENDBRANCH   2   3
ENDBRANCH   1   2
BRANCH   1  25
ATOM     25  C   UNL A   1      37.806  22.765  24.929  1.00  0.00     0.021 C 
BRANCH  25  26
ATOM     26  C   UNL A   1      38.430  22.033  26.107  1.00  0.00     0.116 C 
BRANCH  26  27
ATOM     27  N   UNL A   1      39.834  21.711  25.887  1.00  0.00    -0.352 N 
ATOM     28  C   UNL A   1      40.931  22.548  25.978  1.00  0.00     0.251 C 
ATOM     29  H   UNL A   1      40.027  20.778  25.642  1.00  0.00     0.163 HD
ATOM     30  O   UNL A   1      41.964  22.268  25.389  1.00  0.00    -0.269 OA
BRANCH  28  31
ATOM     31  C   UNL A   1      40.836  23.780  26.791  1.00  0.00     0.039 A 
ATOM     32  C   UNL A   1      41.564  23.911  27.975  1.00  0.00     0.014 A 
ATOM     33  C   UNL A   1      39.998  24.810  26.364  1.00  0.00     0.014 A 
ATOM     34  C   UNL A   1      41.499  25.115  28.673  1.00  0.00     0.010 A 
ATOM     35  C   UNL A   1      40.042  26.042  26.972  1.00  0.00     0.010 A 
ATOM     36  C   UNL A   1      40.756  26.190  28.151  1.00  0.00    -0.014 A 
BRANCH  36  37
ATOM     37  C   UNL A   1      40.833  27.511  28.768  1.00  0.00     0.031 A 
ATOM     38  C   UNL A   1      41.900  28.371  28.200  1.00  0.00     0.074 A 
ATOM     39  C   UNL A   1      39.948  28.012  29.655  1.00  0.00     0.049 A 
ATOM     40  N   UNL A   1      43.067  28.578  28.708  1.00  0.00    -0.248 NA
ATOM     41  C   UNL A   1      41.736  28.911  26.842  1.00  0.00     0.031 C 
ATOM     42  C   UNL A   1      38.673  27.444  30.105  1.00  0.00     0.029 A 
ATOM     43  N   UNL A   1      39.977  29.214  30.294  1.00  0.00    -0.354 N 
ATOM     44  C   UNL A   1      43.694  29.484  27.864  1.00  0.00     0.074 A 
ATOM     45  C   UNL A   1      42.927  29.484  26.644  1.00  0.00     0.031 C 
ATOM     46  C   UNL A   1      37.961  28.388  30.763  1.00  0.00     0.029 A 
ATOM     47  C   UNL A   1      38.794  29.565  30.937  1.00  0.00     0.049 A 
ATOM     48  H   UNL A   1      40.774  29.791  30.301  1.00  0.00     0.167 HD
ATOM     49  C   UNL A   1      44.629  30.352  28.343  1.00  0.00     0.031 A 
ATOM     50  C   UNL A   1      38.524  30.739  31.564  1.00  0.00     0.031 A 
ATOM     51  C   UNL A   1      45.027  30.007  29.687  1.00  0.00     0.049 A 
ATOM     52  C   UNL A   1      39.829  31.348  31.919  1.00  0.00     0.074 A 
ATOM     53  C   UNL A   1      45.572  28.888  30.286  1.00  0.00     0.029 A 
ATOM     54  N   UNL A   1      44.469  30.750  30.701  1.00  0.00    -0.354 N 
ATOM     55  N   UNL A   1      40.638  30.832  32.799  1.00  0.00    -0.248 NA
ATOM     56  C   UNL A   1      40.438  32.270  30.976  1.00  0.00     0.031 C 
ATOM     57  C   UNL A   1      44.899  28.780  31.539  1.00  0.00     0.029 A 
ATOM     58  C   UNL A   1      44.053  29.882  31.677  1.00  0.00     0.049 A 
ATOM     59  H   UNL A   1      44.384  31.730  30.724  1.00  0.00     0.167 HD
ATOM     60  C   UNL A   1      41.902  30.995  32.253  1.00  0.00     0.074 A 
ATOM     61  C   UNL A   1      41.724  31.973  31.181  1.00  0.00     0.031 C 
ATOM     62  C   UNL A   1      42.911  30.118  32.536  1.00  0.00     0.031 A 
BRANCH  49  63
ATOM     63  C   UNL A   1      44.860  31.736  27.788  1.00  0.00    -0.014 A 
ATOM     64  C   UNL A   1      46.101  32.016  27.181  1.00  0.00     0.010 A 
ATOM     65  C   UNL A   1      44.030  32.835  28.086  1.00  0.00     0.010 A 
ATOM     66  C   UNL A   1      46.519  33.333  26.952  1.00  0.00     0.020 A 
ATOM     67  C   UNL A   1      44.418  34.149  27.821  1.00  0.00     0.020 A 
ATOM     68  C   UNL A   1      45.676  34.391  27.284  1.00  0.00     0.054 A 
BRANCH  68  69
ATOM     69  S   UNL A   1      46.256  36.088  27.055  1.00  0.00     0.124 S 
ATOM     70  O   UNL A   1      47.108  36.275  28.225  1.00  0.00    -0.237 OA
ATOM     71  O   UNL A   1      46.947  36.005  25.771  1.00  0.00    -0.237 OA
ATOM     72  O   UNL A   1      45.022  36.871  27.044  1.00  0.00    -0.744 OA
ENDBRANCH  68  69
ENDBRANCH  49  63
BRANCH  50  73
ATOM     73  C   UNL A   1      37.251  31.501  31.634  1.00  0.00    -0.014 A 
ATOM     74  C   UNL A   1      36.565  31.652  32.856  1.00  0.00     0.010 A 
ATOM     75  C   UNL A   1      36.879  32.346  30.569  1.00  0.00     0.010 A 
ATOM     76  C   UNL A   1      35.605  32.665  33.032  1.00  0.00     0.020 A 
ATOM     77  C   UNL A   1      35.920  33.353  30.735  1.00  0.00     0.020 A 
ATOM     78  C   UNL A   1      35.308  33.527  31.975  1.00  0.00     0.054 A 
BRANCH  78  79
ATOM     79  S   UNL A   1      34.227  34.963  32.266  1.00  0.00     0.124 S 
ATOM     80  O   UNL A   1      33.926  35.406  30.908  1.00  0.00    -0.237 OA
ATOM     81  O   UNL A   1      33.111  34.376  33.003  1.00  0.00    -0.237 OA
ATOM     82  O   UNL A   1      35.066  35.872  33.044  1.00  0.00    -0.744 OA
ENDBRANCH  78  79
ENDBRANCH  50  73
BRANCH  62  83
ATOM     83  C   UNL A   1      42.754  29.188  33.719  1.00  0.00    -0.014 A 
ATOM     84  C   UNL A   1      43.086  29.513  35.048  1.00  0.00     0.010 A 
ATOM     85  C   UNL A   1      42.122  27.956  33.471  1.00  0.00     0.010 A 
ATOM     86  C   UNL A   1      42.831  28.607  36.091  1.00  0.00     0.020 A 
ATOM     87  C   UNL A   1      41.846  27.061  34.504  1.00  0.00     0.020 A 
ATOM     88  C   UNL A   1      42.217  27.382  35.808  1.00  0.00     0.054 A 
BRANCH  88  89
ATOM     89  S   UNL A   1      41.884  26.210  37.153  1.00  0.00     0.124 S 
ATOM     90  O   UNL A   1      40.560  26.623  37.612  1.00  0.00    -0.237 OA
ATOM     91  O   UNL A   1      41.940  24.915  36.478  1.00  0.00    -0.237 OA
ATOM     92  O   UNL A   1      42.969  26.452  38.103  1.00  0.00    -0.744 OA
ENDBRANCH  88  89
ENDBRANCH  62  83
ENDBRANCH  36  37
ENDBRANCH  28  31
ENDBRANCH  26  27
ENDBRANCH  25  26
ENDBRANCH   1  25
TORSDOF 18
ENDMDL
