MODEL 1
REMARK VINA RESULT:     -10.6      0.000      0.000
REMARK SMILES CCC[NH2+][C@@](C)(C[N@H+]1CCC(C)(C)C1)C(=O)NCCCCCCNC(=O)c1ccc(-c2c3nc(c(-c4ccc(S(=O)(=O)[O-])cc4)c4ccc([nH]4)c(-c4ccc(S(=O)(=O)[O-])cc4)c4nc(c(-c5ccc(S(=O)(=O)[O-])cc5)c5ccc2[nH]5)C=C4)C=C3)cc1
REMARK SMILES IDX 20 1 19 2 18 3 17 4 15 5 16 6 5 8 6 9 4 10 3 13 2 14 1 15
REMARK SMILES IDX 7 16 8 17 9 18 14 19 10 21 11 22 12 23 13 24 21 25 22 26
REMARK SMILES IDX 23 27 24 28 25 29 26 31 27 32 28 33 86 34 29 35 85 36 30 37
REMARK SMILES IDX 31 38 32 39 79 40 33 41 84 42 78 43 80 44 34 45 83 46 77 47
REMARK SMILES IDX 76 48 35 50 65 51 46 52 64 53 47 54 50 55 63 56 81 57 48 58
REMARK SMILES IDX 49 59 62 61 82 62 51 63 36 64 37 65 45 66 38 67 44 68 39 69
REMARK SMILES IDX 40 70 41 71 42 72 43 73 66 74 67 75 75 76 68 77 74 78 69 79
REMARK SMILES IDX 70 80 71 81 72 82 73 83 52 84 53 85 61 86 54 87 60 88 55 89
REMARK SMILES IDX 56 90 57 91 58 92 59 93
REMARK H PARENT 17 7 4 11 4 12 8 20 24 30 80 49 50 60
REMARK Flexibility Score: inf
ROOT
ATOM      1  C   UNL A   1      35.618  22.303  25.346  1.00  0.00     0.002 C 
ENDROOT
BRANCH   1   2
ATOM      2  C   UNL A   1      34.925  22.817  24.079  1.00  0.00     0.021 C 
BRANCH   2   3
ATOM      3  C   UNL A   1      34.143  24.114  24.276  1.00  0.00     0.116 C 
BRANCH   3   4
ATOM      4  N   UNL A   1      34.097  24.892  23.054  1.00  0.00    -0.350 N 
ATOM      5  C   UNL A   1      33.460  26.048  22.709  1.00  0.00     0.287 C 
ATOM      6  O   UNL A   1      33.546  26.338  21.509  1.00  0.00    -0.268 OA
ATOM      7  H   UNL A   1      34.636  24.508  22.324  1.00  0.00     0.163 HD
BRANCH   5   8
ATOM      8  C   UNL A   1      32.728  26.951  23.763  1.00  0.00     0.221 C 
ATOM      9  C   UNL A   1      31.635  26.158  24.513  1.00  0.00     0.097 C 
BRANCH   8  10
ATOM     10  N   UNL A   1      33.679  27.468  24.806  1.00  0.00    -0.329 N 
ATOM     11  H   UNL A   1      33.855  26.706  25.461  1.00  0.00     0.347 HD
ATOM     12  H   UNL A   1      34.490  27.791  24.278  1.00  0.00     0.347 HD
BRANCH  10  13
ATOM     13  C   UNL A   1      33.266  28.628  25.587  1.00  0.00     0.261 C 
BRANCH  13  14
ATOM     14  C   UNL A   1      33.184  28.250  27.072  1.00  0.00     0.058 C 
ATOM     15  C   UNL A   1      31.761  28.217  27.616  1.00  0.00     0.010 C 
ENDBRANCH  13  14
ENDBRANCH  10  13
ENDBRANCH   8  10
BRANCH   8  16
ATOM     16  C   UNL A   1      32.087  28.201  23.048  1.00  0.00     0.341 C 
BRANCH  16  17
ATOM     17  N   UNL A   1      30.655  28.481  23.289  1.00  0.00    -0.329 N 
ATOM     18  C   UNL A   1      30.446  29.605  24.213  1.00  0.00     0.263 C 
ATOM     19  C   UNL A   1      29.905  28.765  22.058  1.00  0.00     0.269 C 
ATOM     20  H   UNL A   1      30.302  27.619  23.707  1.00  0.00     0.348 HD
ATOM     21  C   UNL A   1      29.465  30.556  23.535  1.00  0.00     0.073 C 
ATOM     22  C   UNL A   1      28.770  29.702  22.477  1.00  0.00     0.019 C 
ATOM     23  C   UNL A   1      27.587  28.927  23.077  1.00  0.00     0.017 C 
ATOM     24  C   UNL A   1      28.282  30.542  21.294  1.00  0.00     0.017 C 
ENDBRANCH  16  17
ENDBRANCH   8  16
ENDBRANCH   5   8
ENDBRANCH   3   4
ENDBRANCH   2   3
ENDBRANCH   1   2
BRANCH   1  25
ATOM     25  C   UNL A   1      36.229  23.386  26.241  1.00  0.00     0.002 C 
BRANCH  25  26
ATOM     26  C   UNL A   1      37.569  23.953  25.762  1.00  0.00     0.021 C 
BRANCH  26  27
ATOM     27  C   UNL A   1      38.688  23.923  26.799  1.00  0.00     0.116 C 
BRANCH  27  28
ATOM     28  N   UNL A   1      39.998  24.093  26.195  1.00  0.00    -0.352 N 
ATOM     29  C   UNL A   1      40.917  25.094  26.371  1.00  0.00     0.251 C 
ATOM     30  H   UNL A   1      40.265  23.384  25.565  1.00  0.00     0.163 HD
ATOM     31  O   UNL A   1      41.891  25.166  25.622  1.00  0.00    -0.269 OA
BRANCH  29  32
ATOM     32  C   UNL A   1      40.734  26.096  27.443  1.00  0.00     0.039 A 
ATOM     33  C   UNL A   1      39.790  25.845  28.442  1.00  0.00     0.014 A 
ATOM     34  C   UNL A   1      41.468  27.287  27.456  1.00  0.00     0.014 A 
ATOM     35  C   UNL A   1      39.622  26.761  29.483  1.00  0.00     0.010 A 
ATOM     36  C   UNL A   1      41.346  28.168  28.530  1.00  0.00     0.010 A 
ATOM     37  C   UNL A   1      40.420  27.916  29.552  1.00  0.00    -0.014 A 
BRANCH  37  38
ATOM     38  C   UNL A   1      40.302  28.851  30.699  1.00  0.00     0.031 A 
ATOM     39  C   UNL A   1      41.170  28.683  31.917  1.00  0.00     0.074 A 
ATOM     40  C   UNL A   1      39.380  29.834  30.659  1.00  0.00     0.049 A 
ATOM     41  N   UNL A   1      41.201  29.402  33.010  1.00  0.00    -0.248 NA
ATOM     42  C   UNL A   1      42.107  27.548  31.918  1.00  0.00     0.031 C 
ATOM     43  C   UNL A   1      38.447  30.072  29.554  1.00  0.00     0.029 A 
ATOM     44  N   UNL A   1      39.074  30.814  31.568  1.00  0.00    -0.354 N 
ATOM     45  C   UNL A   1      42.152  28.805  33.831  1.00  0.00     0.074 A 
ATOM     46  C   UNL A   1      42.638  27.636  33.130  1.00  0.00     0.031 C 
ATOM     47  C   UNL A   1      37.699  31.151  29.837  1.00  0.00     0.029 A 
ATOM     48  C   UNL A   1      38.071  31.657  31.153  1.00  0.00     0.049 A 
ATOM     49  H   UNL A   1      39.531  30.906  32.436  1.00  0.00     0.167 HD
ATOM     50  C   UNL A   1      42.595  29.203  35.048  1.00  0.00     0.031 A 
ATOM     51  C   UNL A   1      37.511  32.720  31.763  1.00  0.00     0.031 A 
ATOM     52  C   UNL A   1      42.113  30.370  35.740  1.00  0.00     0.049 A 
ATOM     53  C   UNL A   1      38.016  33.141  33.115  1.00  0.00     0.074 A 
ATOM     54  C   UNL A   1      42.538  30.889  36.952  1.00  0.00     0.029 A 
ATOM     55  N   UNL A   1      41.097  31.197  35.287  1.00  0.00    -0.354 N 
ATOM     56  N   UNL A   1      38.967  32.604  33.842  1.00  0.00    -0.248 NA
ATOM     57  C   UNL A   1      37.382  34.320  33.722  1.00  0.00     0.031 C 
ATOM     58  C   UNL A   1      41.744  32.000  37.254  1.00  0.00     0.029 A 
ATOM     59  C   UNL A   1      40.863  32.207  36.206  1.00  0.00     0.049 A 
ATOM     60  H   UNL A   1      40.613  31.084  34.437  1.00  0.00     0.167 HD
ATOM     61  C   UNL A   1      39.059  33.392  34.985  1.00  0.00     0.074 A 
ATOM     62  C   UNL A   1      38.082  34.452  34.840  1.00  0.00     0.031 C 
ATOM     63  C   UNL A   1      39.879  33.249  36.056  1.00  0.00     0.031 A 
BRANCH  50  64
ATOM     64  C   UNL A   1      43.656  28.364  35.712  1.00  0.00    -0.014 A 
ATOM     65  C   UNL A   1      43.312  27.304  36.569  1.00  0.00     0.010 A 
ATOM     66  C   UNL A   1      45.014  28.611  35.442  1.00  0.00     0.010 A 
ATOM     67  C   UNL A   1      44.306  26.535  37.179  1.00  0.00     0.020 A 
ATOM     68  C   UNL A   1      46.012  27.826  36.028  1.00  0.00     0.020 A 
ATOM     69  C   UNL A   1      45.651  26.804  36.908  1.00  0.00     0.054 A 
BRANCH  69  70
ATOM     70  S   UNL A   1      46.921  25.777  37.698  1.00  0.00     0.124 S 
ATOM     71  O   UNL A   1      47.213  26.540  38.909  1.00  0.00    -0.237 OA
ATOM     72  O   UNL A   1      46.225  24.510  37.908  1.00  0.00    -0.237 OA
ATOM     73  O   UNL A   1      47.998  25.737  36.712  1.00  0.00    -0.744 OA
ENDBRANCH  69  70
ENDBRANCH  50  64
BRANCH  51  74
ATOM     74  C   UNL A   1      36.418  33.472  31.086  1.00  0.00    -0.014 A 
ATOM     75  C   UNL A   1      36.551  33.871  29.745  1.00  0.00     0.010 A 
ATOM     76  C   UNL A   1      35.231  33.775  31.777  1.00  0.00     0.010 A 
ATOM     77  C   UNL A   1      35.522  34.574  29.111  1.00  0.00     0.020 A 
ATOM     78  C   UNL A   1      34.189  34.453  31.139  1.00  0.00     0.020 A 
ATOM     79  C   UNL A   1      34.347  34.858  29.812  1.00  0.00     0.054 A 
BRANCH  79  80
ATOM     80  S   UNL A   1      33.002  35.722  28.952  1.00  0.00     0.124 S 
ATOM     81  O   UNL A   1      32.455  34.666  28.108  1.00  0.00    -0.237 OA
ATOM     82  O   UNL A   1      32.149  36.157  30.055  1.00  0.00    -0.237 OA
ATOM     83  O   UNL A   1      33.689  36.800  28.244  1.00  0.00    -0.744 OA
ENDBRANCH  79  80
ENDBRANCH  51  74
BRANCH  63  84
ATOM     84  C   UNL A   1      39.766  34.277  37.149  1.00  0.00    -0.014 A 
ATOM     85  C   UNL A   1      38.993  34.034  38.298  1.00  0.00     0.010 A 
ATOM     86  C   UNL A   1      40.474  35.489  37.042  1.00  0.00     0.010 A 
ATOM     87  C   UNL A   1      38.899  35.001  39.304  1.00  0.00     0.020 A 
ATOM     88  C   UNL A   1      40.405  36.445  38.057  1.00  0.00     0.020 A 
ATOM     89  C   UNL A   1      39.605  36.201  39.175  1.00  0.00     0.054 A 
BRANCH  89  90
ATOM     90  S   UNL A   1      39.491  37.427  40.507  1.00  0.00     0.124 S 
ATOM     91  O   UNL A   1      40.887  37.822  40.675  1.00  0.00    -0.237 OA
ATOM     92  O   UNL A   1      38.615  38.445  39.934  1.00  0.00    -0.237 OA
ATOM     93  O   UNL A   1      38.918  36.675  41.621  1.00  0.00    -0.744 OA
ENDBRANCH  89  90
ENDBRANCH  63  84
ENDBRANCH  37  38
ENDBRANCH  29  32
ENDBRANCH  27  28
ENDBRANCH  26  27
ENDBRANCH  25  26
ENDBRANCH   1  25
TORSDOF 21
ENDMDL
MODEL 2
REMARK VINA RESULT:     -10.6      3.518      4.534
REMARK SMILES CCC[NH2+][C@@](C)(C[N@H+]1CCC(C)(C)C1)C(=O)NCCCCCCNC(=O)c1ccc(-c2c3nc(c(-c4ccc(S(=O)(=O)[O-])cc4)c4ccc([nH]4)c(-c4ccc(S(=O)(=O)[O-])cc4)c4nc(c(-c5ccc(S(=O)(=O)[O-])cc5)c5ccc2[nH]5)C=C4)C=C3)cc1
REMARK SMILES IDX 20 1 19 2 18 3 17 4 15 5 16 6 5 8 6 9 4 10 3 13 2 14 1 15
REMARK SMILES IDX 7 16 8 17 9 18 14 19 10 21 11 22 12 23 13 24 21 25 22 26
REMARK SMILES IDX 23 27 24 28 25 29 26 31 27 32 28 33 86 34 29 35 85 36 30 37
REMARK SMILES IDX 31 38 32 39 79 40 33 41 84 42 78 43 80 44 34 45 83 46 77 47
REMARK SMILES IDX 76 48 35 50 65 51 46 52 64 53 47 54 50 55 63 56 81 57 48 58
REMARK SMILES IDX 49 59 62 61 82 62 51 63 36 64 37 65 45 66 38 67 44 68 39 69
REMARK SMILES IDX 40 70 41 71 42 72 43 73 66 74 67 75 75 76 68 77 74 78 69 79
REMARK SMILES IDX 70 80 71 81 72 82 73 83 52 84 53 85 61 86 54 87 60 88 55 89
REMARK SMILES IDX 56 90 57 91 58 92 59 93
REMARK H PARENT 17 7 4 11 4 12 8 20 24 30 80 49 50 60
REMARK Flexibility Score: inf
ROOT
ATOM      1  C   UNL A   1      34.074  23.291  22.391  1.00  0.00     0.002 C 
ENDROOT
BRANCH   1   2
ATOM      2  C   UNL A   1      32.892  24.257  22.248  1.00  0.00     0.021 C 
BRANCH   2   3
ATOM      3  C   UNL A   1      33.273  25.641  21.727  1.00  0.00     0.116 C 
BRANCH   3   4
ATOM      4  N   UNL A   1      32.109  26.493  21.593  1.00  0.00    -0.350 N 
ATOM      5  C   UNL A   1      31.503  27.381  22.433  1.00  0.00     0.287 C 
ATOM      6  O   UNL A   1      30.427  27.825  22.014  1.00  0.00    -0.268 OA
ATOM      7  H   UNL A   1      31.664  26.415  20.717  1.00  0.00     0.163 HD
BRANCH   5   8
ATOM      8  C   UNL A   1      32.152  27.834  23.788  1.00  0.00     0.221 C 
ATOM      9  C   UNL A   1      33.683  27.624  23.769  1.00  0.00     0.097 C 
BRANCH   8  10
ATOM     10  N   UNL A   1      31.919  29.294  24.054  1.00  0.00    -0.329 N 
ATOM     11  H   UNL A   1      32.808  29.775  23.914  1.00  0.00     0.347 HD
ATOM     12  H   UNL A   1      31.171  29.557  23.411  1.00  0.00     0.347 HD
BRANCH  10  13
ATOM     13  C   UNL A   1      31.421  29.674  25.371  1.00  0.00     0.261 C 
BRANCH  13  14
ATOM     14  C   UNL A   1      32.508  30.442  26.135  1.00  0.00     0.058 C 
ATOM     15  C   UNL A   1      33.401  29.547  26.987  1.00  0.00     0.010 C 
ENDBRANCH  13  14
ENDBRANCH  10  13
ENDBRANCH   8  10
BRANCH   8  16
ATOM     16  C   UNL A   1      31.517  27.028  24.985  1.00  0.00     0.341 C 
BRANCH  16  17
ATOM     17  N   UNL A   1      31.732  25.566  25.030  1.00  0.00    -0.329 N 
ATOM     18  C   UNL A   1      32.749  25.174  26.016  1.00  0.00     0.263 C 
ATOM     19  C   UNL A   1      30.507  24.810  25.324  1.00  0.00     0.269 C 
ATOM     20  H   UNL A   1      32.054  25.335  24.090  1.00  0.00     0.348 HD
ATOM     21  C   UNL A   1      32.129  24.080  26.878  1.00  0.00     0.073 C 
ATOM     22  C   UNL A   1      30.971  23.540  26.041  1.00  0.00     0.019 C 
ATOM     23  C   UNL A   1      31.453  22.471  25.049  1.00  0.00     0.017 C 
ATOM     24  C   UNL A   1      29.856  22.961  26.915  1.00  0.00     0.017 C 
ENDBRANCH  16  17
ENDBRANCH   8  16
ENDBRANCH   5   8
ENDBRANCH   3   4
ENDBRANCH   2   3
ENDBRANCH   1   2
BRANCH   1  25
ATOM     25  C   UNL A   1      34.697  23.225  23.789  1.00  0.00     0.002 C 
BRANCH  25  26
ATOM     26  C   UNL A   1      36.170  23.640  23.870  1.00  0.00     0.021 C 
BRANCH  26  27
ATOM     27  C   UNL A   1      36.721  23.781  25.286  1.00  0.00     0.116 C 
BRANCH  27  28
ATOM     28  N   UNL A   1      37.732  22.782  25.581  1.00  0.00    -0.352 N 
ATOM     29  C   UNL A   1      38.958  22.930  26.176  1.00  0.00     0.251 C 
ATOM     30  H   UNL A   1      37.504  21.861  25.314  1.00  0.00     0.163 HD
ATOM     31  O   UNL A   1      39.758  21.995  26.164  1.00  0.00    -0.269 OA
BRANCH  29  32
ATOM     32  C   UNL A   1      39.328  24.211  26.816  1.00  0.00     0.039 A 
ATOM     33  C   UNL A   1      38.910  24.452  28.127  1.00  0.00     0.014 A 
ATOM     34  C   UNL A   1      40.063  25.180  26.125  1.00  0.00     0.014 A 
ATOM     35  C   UNL A   1      39.275  25.640  28.763  1.00  0.00     0.010 A 
ATOM     36  C   UNL A   1      40.481  26.336  26.784  1.00  0.00     0.010 A 
ATOM     37  C   UNL A   1      40.089  26.579  28.107  1.00  0.00    -0.014 A 
BRANCH  37  38
ATOM     38  C   UNL A   1      40.547  27.806  28.808  1.00  0.00     0.031 A 
ATOM     39  C   UNL A   1      41.927  27.879  29.403  1.00  0.00     0.074 A 
ATOM     40  C   UNL A   1      39.698  28.845  28.943  1.00  0.00     0.049 A 
ATOM     41  N   UNL A   1      42.493  28.865  30.049  1.00  0.00    -0.248 NA
ATOM     42  C   UNL A   1      42.774  26.682  29.274  1.00  0.00     0.031 C 
ATOM     43  C   UNL A   1      38.319  28.879  28.452  1.00  0.00     0.029 A 
ATOM     44  N   UNL A   1      39.871  30.071  29.533  1.00  0.00    -0.354 N 
ATOM     45  C   UNL A   1      43.756  28.408  30.411  1.00  0.00     0.074 A 
ATOM     46  C   UNL A   1      43.854  27.038  29.955  1.00  0.00     0.031 C 
ATOM     47  C   UNL A   1      37.783  30.078  28.730  1.00  0.00     0.029 A 
ATOM     48  C   UNL A   1      38.764  30.883  29.450  1.00  0.00     0.049 A 
ATOM     49  H   UNL A   1      40.708  30.345  29.974  1.00  0.00     0.167 HD
ATOM     50  C   UNL A   1      44.750  29.073  31.048  1.00  0.00     0.031 A 
ATOM     51  C   UNL A   1      38.561  32.136  29.902  1.00  0.00     0.031 A 
ATOM     52  C   UNL A   1      44.652  30.439  31.495  1.00  0.00     0.049 A 
ATOM     53  C   UNL A   1      39.677  32.852  30.608  1.00  0.00     0.074 A 
ATOM     54  C   UNL A   1      45.623  31.218  32.099  1.00  0.00     0.029 A 
ATOM     55  N   UNL A   1      43.515  31.226  31.392  1.00  0.00    -0.354 N 
ATOM     56  N   UNL A   1      40.888  32.426  30.877  1.00  0.00    -0.248 NA
ATOM     57  C   UNL A   1      39.404  34.223  31.060  1.00  0.00     0.031 C 
ATOM     58  C   UNL A   1      45.057  32.460  32.407  1.00  0.00     0.029 A 
ATOM     59  C   UNL A   1      43.751  32.474  31.944  1.00  0.00     0.049 A 
ATOM     60  H   UNL A   1      42.664  30.940  30.986  1.00  0.00     0.167 HD
ATOM     61  C   UNL A   1      41.529  33.485  31.512  1.00  0.00     0.074 A 
ATOM     62  C   UNL A   1      40.577  34.576  31.568  1.00  0.00     0.031 C 
ATOM     63  C   UNL A   1      42.791  33.547  32.004  1.00  0.00     0.031 A 
BRANCH  50  64
ATOM     64  C   UNL A   1      46.035  28.328  31.301  1.00  0.00    -0.014 A 
ATOM     65  C   UNL A   1      47.120  28.427  30.412  1.00  0.00     0.010 A 
ATOM     66  C   UNL A   1      46.175  27.551  32.466  1.00  0.00     0.010 A 
ATOM     67  C   UNL A   1      48.304  27.729  30.659  1.00  0.00     0.020 A 
ATOM     68  C   UNL A   1      47.369  26.873  32.731  1.00  0.00     0.020 A 
ATOM     69  C   UNL A   1      48.420  26.953  31.815  1.00  0.00     0.054 A 
BRANCH  69  70
ATOM     70  S   UNL A   1      49.977  26.073  32.121  1.00  0.00     0.124 S 
ATOM     71  O   UNL A   1      50.961  27.007  31.580  1.00  0.00    -0.237 OA
ATOM     72  O   UNL A   1      49.984  25.929  33.576  1.00  0.00    -0.237 OA
ATOM     73  O   UNL A   1      49.824  24.827  31.376  1.00  0.00    -0.744 OA
ENDBRANCH  69  70
ENDBRANCH  50  64
BRANCH  51  74
ATOM     74  C   UNL A   1      37.245  32.798  29.680  1.00  0.00    -0.014 A 
ATOM     75  C   UNL A   1      37.019  33.566  28.525  1.00  0.00     0.010 A 
ATOM     76  C   UNL A   1      36.207  32.647  30.618  1.00  0.00     0.010 A 
ATOM     77  C   UNL A   1      35.782  34.185  28.318  1.00  0.00     0.020 A 
ATOM     78  C   UNL A   1      34.961  33.241  30.401  1.00  0.00     0.020 A 
ATOM     79  C   UNL A   1      34.760  34.016  29.257  1.00  0.00     0.054 A 
BRANCH  79  80
ATOM     80  S   UNL A   1      33.145  34.781  28.941  1.00  0.00     0.124 S 
ATOM     81  O   UNL A   1      33.526  36.070  28.375  1.00  0.00    -0.237 OA
ATOM     82  O   UNL A   1      32.525  33.839  28.013  1.00  0.00    -0.237 OA
ATOM     83  O   UNL A   1      32.530  34.834  30.266  1.00  0.00    -0.744 OA
ENDBRANCH  79  80
ENDBRANCH  51  74
BRANCH  63  84
ATOM     84  C   UNL A   1      43.221  34.846  32.631  1.00  0.00    -0.014 A 
ATOM     85  C   UNL A   1      43.166  35.035  34.023  1.00  0.00     0.010 A 
ATOM     86  C   UNL A   1      43.723  35.878  31.817  1.00  0.00     0.010 A 
ATOM     87  C   UNL A   1      43.570  36.248  34.588  1.00  0.00     0.020 A 
ATOM     88  C   UNL A   1      44.154  37.082  32.380  1.00  0.00     0.020 A 
ATOM     89  C   UNL A   1      44.059  37.265  33.761  1.00  0.00     0.054 A 
BRANCH  89  90
ATOM     90  S   UNL A   1      44.605  38.820  34.520  1.00  0.00     0.124 S 
ATOM     91  O   UNL A   1      46.053  38.748  34.350  1.00  0.00    -0.237 OA
ATOM     92  O   UNL A   1      43.927  39.829  33.711  1.00  0.00    -0.237 OA
ATOM     93  O   UNL A   1      44.133  38.715  35.899  1.00  0.00    -0.744 OA
ENDBRANCH  89  90
ENDBRANCH  63  84
ENDBRANCH  37  38
ENDBRANCH  29  32
ENDBRANCH  27  28
ENDBRANCH  26  27
ENDBRANCH  25  26
ENDBRANCH   1  25
TORSDOF 21
ENDMDL
MODEL 3
REMARK VINA RESULT:     -10.5      3.185      9.791
REMARK SMILES CCC[NH2+][C@@](C)(C[N@H+]1CCC(C)(C)C1)C(=O)NCCCCCCNC(=O)c1ccc(-c2c3nc(c(-c4ccc(S(=O)(=O)[O-])cc4)c4ccc([nH]4)c(-c4ccc(S(=O)(=O)[O-])cc4)c4nc(c(-c5ccc(S(=O)(=O)[O-])cc5)c5ccc2[nH]5)C=C4)C=C3)cc1
REMARK SMILES IDX 20 1 19 2 18 3 17 4 15 5 16 6 5 8 6 9 4 10 3 13 2 14 1 15
REMARK SMILES IDX 7 16 8 17 9 18 14 19 10 21 11 22 12 23 13 24 21 25 22 26
REMARK SMILES IDX 23 27 24 28 25 29 26 31 27 32 28 33 86 34 29 35 85 36 30 37
REMARK SMILES IDX 31 38 32 39 79 40 33 41 84 42 78 43 80 44 34 45 83 46 77 47
REMARK SMILES IDX 76 48 35 50 65 51 46 52 64 53 47 54 50 55 63 56 81 57 48 58
REMARK SMILES IDX 49 59 62 61 82 62 51 63 36 64 37 65 45 66 38 67 44 68 39 69
REMARK SMILES IDX 40 70 41 71 42 72 43 73 66 74 67 75 75 76 68 77 74 78 69 79
REMARK SMILES IDX 70 80 71 81 72 82 73 83 52 84 53 85 61 86 54 87 60 88 55 89
REMARK SMILES IDX 56 90 57 91 58 92 59 93
REMARK H PARENT 17 7 4 11 4 12 8 20 24 30 80 49 50 60
REMARK Flexibility Score: inf
ROOT
ATOM      1  C   UNL A   1      31.200  27.385  24.855  1.00  0.00     0.002 C 
ENDROOT
BRANCH   1   2
ATOM      2  C   UNL A   1      31.875  26.085  25.308  1.00  0.00     0.021 C 
BRANCH   2   3
ATOM      3  C   UNL A   1      30.902  24.999  25.761  1.00  0.00     0.116 C 
BRANCH   3   4
ATOM      4  N   UNL A   1      31.449  24.226  26.858  1.00  0.00    -0.350 N 
ATOM      5  C   UNL A   1      32.229  23.108  26.910  1.00  0.00     0.287 C 
ATOM      6  O   UNL A   1      32.381  22.647  28.049  1.00  0.00    -0.268 OA
ATOM      7  H   UNL A   1      31.208  24.579  27.745  1.00  0.00     0.163 HD
BRANCH   5   8
ATOM      8  C   UNL A   1      32.915  22.500  25.637  1.00  0.00     0.221 C 
ATOM      9  C   UNL A   1      31.908  22.370  24.471  1.00  0.00     0.097 C 
BRANCH   8  10
ATOM     10  N   UNL A   1      34.038  23.366  25.144  1.00  0.00    -0.329 N 
ATOM     11  H   UNL A   1      34.221  23.106  24.175  1.00  0.00     0.347 HD
ATOM     12  H   UNL A   1      33.709  24.322  25.288  1.00  0.00     0.347 HD
BRANCH  10  13
ATOM     13  C   UNL A   1      35.308  23.305  25.858  1.00  0.00     0.261 C 
BRANCH  13  14
ATOM     14  C   UNL A   1      36.468  23.486  24.870  1.00  0.00     0.058 C 
ATOM     15  C   UNL A   1      36.214  22.847  23.509  1.00  0.00     0.010 C 
ENDBRANCH  13  14
ENDBRANCH  10  13
ENDBRANCH   8  10
BRANCH   8  16
ATOM     16  C   UNL A   1      33.523  21.085  25.976  1.00  0.00     0.341 C 
BRANCH  16  17
ATOM     17  N   UNL A   1      33.524  20.056  24.915  1.00  0.00    -0.329 N 
ATOM     18  C   UNL A   1      34.870  19.540  24.628  1.00  0.00     0.263 C 
ATOM     19  C   UNL A   1      32.659  18.908  25.221  1.00  0.00     0.269 C 
ATOM     20  H   UNL A   1      33.159  20.545  24.097  1.00  0.00     0.348 HD
ATOM     21  C   UNL A   1      34.781  18.019  24.684  1.00  0.00     0.073 C 
ATOM     22  C   UNL A   1      33.295  17.713  24.506  1.00  0.00     0.019 C 
ATOM     23  C   UNL A   1      32.910  17.671  23.020  1.00  0.00     0.017 C 
ATOM     24  C   UNL A   1      32.898  16.395  25.175  1.00  0.00     0.017 C 
ENDBRANCH  16  17
ENDBRANCH   8  16
ENDBRANCH   5   8
ENDBRANCH   3   4
ENDBRANCH   2   3
ENDBRANCH   1   2
BRANCH   1  25
ATOM     25  C   UNL A   1      32.099  28.625  24.865  1.00  0.00     0.002 C 
BRANCH  25  26
ATOM     26  C   UNL A   1      33.604  28.344  24.878  1.00  0.00     0.021 C 
BRANCH  26  27
ATOM     27  C   UNL A   1      34.349  28.888  26.094  1.00  0.00     0.116 C 
BRANCH  27  28
ATOM     28  N   UNL A   1      33.855  30.192  26.499  1.00  0.00    -0.352 N 
ATOM     29  C   UNL A   1      34.279  31.009  27.514  1.00  0.00     0.251 C 
ATOM     30  H   UNL A   1      33.104  30.541  25.965  1.00  0.00     0.163 HD
ATOM     31  O   UNL A   1      33.608  31.992  27.826  1.00  0.00    -0.269 OA
BRANCH  29  32
ATOM     32  C   UNL A   1      35.527  30.705  28.246  1.00  0.00     0.039 A 
ATOM     33  C   UNL A   1      35.518  29.673  29.188  1.00  0.00     0.014 A 
ATOM     34  C   UNL A   1      36.696  31.443  28.026  1.00  0.00     0.014 A 
ATOM     35  C   UNL A   1      36.693  29.345  29.869  1.00  0.00     0.010 A 
ATOM     36  C   UNL A   1      37.882  31.072  28.659  1.00  0.00     0.010 A 
ATOM     37  C   UNL A   1      37.892  30.022  29.588  1.00  0.00    -0.014 A 
BRANCH  37  38
ATOM     38  C   UNL A   1      39.161  29.624  30.249  1.00  0.00     0.031 A 
ATOM     39  C   UNL A   1      39.635  30.333  31.489  1.00  0.00     0.074 A 
ATOM     40  C   UNL A   1      39.909  28.643  29.705  1.00  0.00     0.049 A 
ATOM     41  N   UNL A   1      40.715  30.121  32.196  1.00  0.00    -0.248 NA
ATOM     42  C   UNL A   1      38.799  31.437  31.988  1.00  0.00     0.031 C 
ATOM     43  C   UNL A   1      39.582  27.911  28.479  1.00  0.00     0.029 A 
ATOM     44  N   UNL A   1      41.099  28.094  30.111  1.00  0.00    -0.354 N 
ATOM     45  C   UNL A   1      40.695  31.066  33.215  1.00  0.00     0.074 A 
ATOM     46  C   UNL A   1      39.520  31.885  33.005  1.00  0.00     0.031 C 
ATOM     47  C   UNL A   1      40.529  26.987  28.253  1.00  0.00     0.029 A 
ATOM     48  C   UNL A   1      41.547  27.084  29.294  1.00  0.00     0.049 A 
ATOM     49  H   UNL A   1      41.586  28.394  30.913  1.00  0.00     0.167 HD
ATOM     50  C   UNL A   1      41.564  31.227  34.242  1.00  0.00     0.031 A 
ATOM     51  C   UNL A   1      42.653  26.319  29.371  1.00  0.00     0.031 A 
ATOM     52  C   UNL A   1      42.729  30.406  34.451  1.00  0.00     0.049 A 
ATOM     53  C   UNL A   1      43.604  26.518  30.518  1.00  0.00     0.074 A 
ATOM     54  C   UNL A   1      43.639  30.454  35.493  1.00  0.00     0.029 A 
ATOM     55  N   UNL A   1      43.148  29.394  33.601  1.00  0.00    -0.354 N 
ATOM     56  N   UNL A   1      43.528  27.371  31.511  1.00  0.00    -0.248 NA
ATOM     57  C   UNL A   1      44.783  25.641  30.562  1.00  0.00     0.031 C 
ATOM     58  C   UNL A   1      44.636  29.504  35.246  1.00  0.00     0.029 A 
ATOM     59  C   UNL A   1      44.317  28.827  34.080  1.00  0.00     0.049 A 
ATOM     60  H   UNL A   1      42.683  29.119  32.778  1.00  0.00     0.167 HD
ATOM     61  C   UNL A   1      44.639  27.121  32.310  1.00  0.00     0.074 A 
ATOM     62  C   UNL A   1      45.358  26.023  31.694  1.00  0.00     0.031 C 
ATOM     63  C   UNL A   1      45.028  27.744  33.450  1.00  0.00     0.031 A 
BRANCH  50  64
ATOM     64  C   UNL A   1      41.286  32.338  35.221  1.00  0.00    -0.014 A 
ATOM     65  C   UNL A   1      41.836  33.620  35.039  1.00  0.00     0.010 A 
ATOM     66  C   UNL A   1      40.430  32.111  36.314  1.00  0.00     0.010 A 
ATOM     67  C   UNL A   1      41.571  34.641  35.956  1.00  0.00     0.020 A 
ATOM     68  C   UNL A   1      40.141  33.138  37.219  1.00  0.00     0.020 A 
ATOM     69  C   UNL A   1      40.728  34.392  37.043  1.00  0.00     0.054 A 
BRANCH  69  70
ATOM     70  S   UNL A   1      40.385  35.740  38.206  1.00  0.00     0.124 S 
ATOM     71  O   UNL A   1      39.447  35.108  39.131  1.00  0.00    -0.237 OA
ATOM     72  O   UNL A   1      41.707  36.033  38.757  1.00  0.00    -0.237 OA
ATOM     73  O   UNL A   1      39.818  36.790  37.365  1.00  0.00    -0.744 OA
ENDBRANCH  69  70
ENDBRANCH  50  64
BRANCH  51  74
ATOM     74  C   UNL A   1      42.910  25.280  28.336  1.00  0.00    -0.014 A 
ATOM     75  C   UNL A   1      43.702  25.572  27.213  1.00  0.00     0.010 A 
ATOM     76  C   UNL A   1      42.376  23.986  28.480  1.00  0.00     0.010 A 
ATOM     77  C   UNL A   1      43.944  24.594  26.243  1.00  0.00     0.020 A 
ATOM     78  C   UNL A   1      42.638  22.998  27.528  1.00  0.00     0.020 A 
ATOM     79  C   UNL A   1      43.412  23.312  26.409  1.00  0.00     0.054 A 
BRANCH  79  80
ATOM     80  S   UNL A   1      43.785  22.042  25.168  1.00  0.00     0.124 S 
ATOM     81  O   UNL A   1      42.875  20.967  25.550  1.00  0.00    -0.237 OA
ATOM     82  O   UNL A   1      43.471  22.722  23.914  1.00  0.00    -0.237 OA
ATOM     83  O   UNL A   1      45.204  21.767  25.379  1.00  0.00    -0.744 OA
ENDBRANCH  79  80
ENDBRANCH  51  74
BRANCH  63  84
ATOM     84  C   UNL A   1      46.280  27.239  34.116  1.00  0.00    -0.014 A 
ATOM     85  C   UNL A   1      46.230  26.209  35.073  1.00  0.00     0.010 A 
ATOM     86  C   UNL A   1      47.528  27.778  33.752  1.00  0.00     0.010 A 
ATOM     87  C   UNL A   1      47.403  25.753  35.681  1.00  0.00     0.020 A 
ATOM     88  C   UNL A   1      48.705  27.305  34.338  1.00  0.00     0.020 A 
ATOM     89  C   UNL A   1      48.633  26.307  35.311  1.00  0.00     0.054 A 
BRANCH  89  90
ATOM     90  S   UNL A   1      50.144  25.676  36.093  1.00  0.00     0.124 S 
ATOM     91  O   UNL A   1      49.635  24.552  36.874  1.00  0.00    -0.237 OA
ATOM     92  O   UNL A   1      50.975  25.320  34.947  1.00  0.00    -0.237 OA
ATOM     93  O   UNL A   1      50.626  26.811  36.877  1.00  0.00    -0.744 OA
ENDBRANCH  89  90
ENDBRANCH  63  84
ENDBRANCH  37  38
ENDBRANCH  29  32
ENDBRANCH  27  28
ENDBRANCH  26  27
ENDBRANCH  25  26
ENDBRANCH   1  25
TORSDOF 21
ENDMDL
