MODEL 1
REMARK VINA RESULT:      -9.8      0.000      0.000
REMARK SMILES CC(C)C[C@H](NC(=O)[C@@H](NC(=O)[C@H](C)NC(=O)CNC(=O)OCc1ccccc1)C(C)C)C(=O)NCCCCCCNC(=O)c1ccc(-c2c3nc(c(-c4ccc(S(=O)(=O)[O-])cc4)c4ccc([nH]4)c(-c4ccc(S(=O)(=O)[O-])cc4)c4nc(c(-c5ccc(S(=O)(=O)[O-])cc5)c5ccc2[nH]5)C=C4)C=C3)cc1
REMARK SMILES IDX 33 1 34 2 35 3 5 5 4 6 2 7 1 8 3 9 6 10 7 11 8 13 9 14 10 15
REMARK SMILES IDX 11 16 12 18 13 19 14 20 15 21 16 22 17 24 18 25 19 26 20 27
REMARK SMILES IDX 21 29 22 30 23 31 24 32 25 33 29 34 26 35 28 36 27 37 30 38
REMARK SMILES IDX 31 39 32 40 36 41 37 42 38 43 39 44 40 45 41 46 42 47 43 48
REMARK SMILES IDX 44 50 45 51 46 52 104 53 47 54 103 55 48 56 49 57 50 58
REMARK SMILES IDX 97 59 51 60 102 61 96 62 98 63 52 64 101 65 95 66 94 67
REMARK SMILES IDX 53 69 83 70 64 71 82 72 65 73 68 74 81 75 99 76 66 77 67 78
REMARK SMILES IDX 80 80 100 81 69 82 54 83 55 84 63 85 56 86 62 87 57 88 58 89
REMARK SMILES IDX 59 90 60 91 61 92 84 93 85 94 93 95 86 96 92 97 87 98 88 99
REMARK SMILES IDX 89 100 90 101 91 102 70 103 71 104 79 105 72 106 78 107
REMARK SMILES IDX 73 108 74 109 75 110 76 111 77 112
REMARK H PARENT 35 4 6 12 10 17 15 23 19 28 42 49 98 68 68 79
REMARK Flexibility Score: inf
ROOT
ATOM      1  C   UNL A   1      32.929  22.812  27.217  1.00  0.00     0.242 C 
ATOM      2  O   UNL A   1      32.571  22.580  28.372  1.00  0.00    -0.273 OA
ATOM      3  N   UNL A   1      34.247  23.068  26.960  1.00  0.00    -0.354 N 
ATOM      4  H   UNL A   1      34.746  23.522  27.678  1.00  0.00     0.163 HD
ENDROOT
BRANCH   1   5
ATOM      5  C   UNL A   1      31.928  22.581  26.091  1.00  0.00     0.171 C 
BRANCH   5   6
ATOM      6  C   UNL A   1      32.714  23.080  24.845  1.00  0.00     0.038 C 
BRANCH   6   7
ATOM      7  C   UNL A   1      33.180  22.210  23.671  1.00  0.00    -0.015 C 
ATOM      8  C   UNL A   1      32.161  21.179  23.188  1.00  0.00     0.007 C 
ATOM      9  C   UNL A   1      33.441  23.172  22.489  1.00  0.00     0.007 C 
ENDBRANCH   6   7
ENDBRANCH   5   6
BRANCH   5  10
ATOM     10  N   UNL A   1      30.637  23.140  26.456  1.00  0.00    -0.343 N 
ATOM     11  C   UNL A   1      30.163  24.416  26.303  1.00  0.00     0.243 C 
ATOM     12  H   UNL A   1      30.010  22.508  26.874  1.00  0.00     0.164 HD
ATOM     13  O   UNL A   1      29.108  24.656  26.908  1.00  0.00    -0.273 OA
BRANCH  11  14
ATOM     14  C   UNL A   1      30.750  25.521  25.331  1.00  0.00     0.174 C 
BRANCH  14  15
ATOM     15  N   UNL A   1      32.211  25.705  25.457  1.00  0.00    -0.342 N 
ATOM     16  C   UNL A   1      33.266  26.369  24.938  1.00  0.00     0.242 C 
ATOM     17  H   UNL A   1      32.535  25.134  26.192  1.00  0.00     0.164 HD
ATOM     18  O   UNL A   1      34.255  26.348  25.698  1.00  0.00    -0.273 OA
BRANCH  16  19
ATOM     19  C   UNL A   1      33.396  27.237  23.644  1.00  0.00     0.168 C 
ATOM     20  C   UNL A   1      34.338  28.425  23.877  1.00  0.00     0.041 C 
BRANCH  19  21
ATOM     21  N   UNL A   1      32.275  27.661  22.812  1.00  0.00    -0.343 N 
ATOM     22  C   UNL A   1      31.257  28.527  23.095  1.00  0.00     0.240 C 
ATOM     23  H   UNL A   1      32.248  27.263  21.913  1.00  0.00     0.164 HD
ATOM     24  O   UNL A   1      30.512  28.839  22.157  1.00  0.00    -0.273 OA
BRANCH  22  25
ATOM     25  C   UNL A   1      31.022  29.109  24.495  1.00  0.00     0.219 C 
BRANCH  25  26
ATOM     26  N   UNL A   1      30.705  30.511  24.365  1.00  0.00    -0.312 N 
ATOM     27  C   UNL A   1      30.773  31.417  25.377  1.00  0.00     0.407 C 
ATOM     28  H   UNL A   1      30.418  30.835  23.479  1.00  0.00     0.167 HD
ATOM     29  O   UNL A   1      30.190  32.489  25.303  1.00  0.00    -0.225 OA
BRANCH  27  30
ATOM     30  O   UNL A   1      31.504  30.970  26.427  1.00  0.00    -0.445 OA
BRANCH  30  31
ATOM     31  C   UNL A   1      32.361  31.923  27.072  1.00  0.00     0.270 C 
BRANCH  31  32
ATOM     32  C   UNL A   1      33.634  31.230  27.473  1.00  0.00    -0.011 A 
ATOM     33  C   UNL A   1      34.734  31.989  27.892  1.00  0.00     0.007 A 
ATOM     34  C   UNL A   1      33.788  29.854  27.263  1.00  0.00     0.007 A 
ATOM     35  C   UNL A   1      35.983  31.396  28.039  1.00  0.00     0.000 A 
ATOM     36  C   UNL A   1      35.038  29.258  27.424  1.00  0.00     0.000 A 
ATOM     37  C   UNL A   1      36.137  30.033  27.796  1.00  0.00     0.000 A 
ENDBRANCH  31  32
ENDBRANCH  30  31
ENDBRANCH  27  30
ENDBRANCH  25  26
ENDBRANCH  22  25
ENDBRANCH  19  21
ENDBRANCH  16  19
ENDBRANCH  14  15
BRANCH  14  38
ATOM     38  C   UNL A   1      30.132  25.551  23.917  1.00  0.00     0.015 C 
ATOM     39  C   UNL A   1      30.065  24.182  23.224  1.00  0.00     0.010 C 
ATOM     40  C   UNL A   1      28.684  26.073  23.942  1.00  0.00     0.010 C 
ENDBRANCH  14  38
ENDBRANCH  11  14
ENDBRANCH   5  10
ENDBRANCH   1   5
BRANCH   3  41
ATOM     41  C   UNL A   1      35.000  22.755  25.764  1.00  0.00     0.116 C 
BRANCH  41  42
ATOM     42  C   UNL A   1      36.227  23.624  25.558  1.00  0.00     0.021 C 
BRANCH  42  43
ATOM     43  C   UNL A   1      37.074  23.288  24.329  1.00  0.00     0.002 C 
BRANCH  43  44
ATOM     44  C   UNL A   1      37.391  21.802  24.144  1.00  0.00     0.002 C 
BRANCH  44  45
ATOM     45  C   UNL A   1      37.781  21.049  25.416  1.00  0.00     0.021 C 
BRANCH  45  46
ATOM     46  C   UNL A   1      39.178  21.345  25.948  1.00  0.00     0.116 C 
BRANCH  46  47
ATOM     47  N   UNL A   1      40.063  20.196  25.891  1.00  0.00    -0.352 N 
ATOM     48  C   UNL A   1      41.428  20.170  26.055  1.00  0.00     0.251 C 
ATOM     49  H   UNL A   1      39.633  19.329  25.712  1.00  0.00     0.163 HD
ATOM     50  O   UNL A   1      42.059  19.136  25.863  1.00  0.00    -0.269 OA
BRANCH  48  51
ATOM     51  C   UNL A   1      42.131  21.416  26.431  1.00  0.00     0.039 A 
ATOM     52  C   UNL A   1      42.416  22.356  25.438  1.00  0.00     0.014 A 
ATOM     53  C   UNL A   1      42.475  21.669  27.764  1.00  0.00     0.014 A 
ATOM     54  C   UNL A   1      42.996  23.577  25.790  1.00  0.00     0.010 A 
ATOM     55  C   UNL A   1      42.997  22.911  28.118  1.00  0.00     0.010 A 
ATOM     56  C   UNL A   1      43.265  23.877  27.135  1.00  0.00    -0.014 A 
BRANCH  56  57
ATOM     57  C   UNL A   1      43.843  25.187  27.532  1.00  0.00     0.031 A 
ATOM     58  C   UNL A   1      45.304  25.462  27.302  1.00  0.00     0.074 A 
ATOM     59  C   UNL A   1      43.070  26.107  28.143  1.00  0.00     0.049 A 
ATOM     60  N   UNL A   1      46.010  26.508  27.647  1.00  0.00    -0.248 NA
ATOM     61  C   UNL A   1      46.079  24.414  26.618  1.00  0.00     0.031 C 
ATOM     62  C   UNL A   1      41.646  25.950  28.457  1.00  0.00     0.029 A 
ATOM     63  N   UNL A   1      43.376  27.358  28.620  1.00  0.00    -0.354 N 
ATOM     64  C   UNL A   1      47.311  26.240  27.233  1.00  0.00     0.074 A 
ATOM     65  C   UNL A   1      47.305  24.913  26.656  1.00  0.00     0.031 C 
ATOM     66  C   UNL A   1      41.202  27.067  29.058  1.00  0.00     0.029 A 
ATOM     67  C   UNL A   1      42.311  28.005  29.202  1.00  0.00     0.049 A 
ATOM     68  H   UNL A   1      44.274  27.755  28.551  1.00  0.00     0.167 HD
ATOM     69  C   UNL A   1      48.405  27.033  27.306  1.00  0.00     0.031 A 
ATOM     70  C   UNL A   1      42.237  29.214  29.792  1.00  0.00     0.031 A 
ATOM     71  C   UNL A   1      48.408  28.360  27.861  1.00  0.00     0.049 A 
ATOM     72  C   UNL A   1      43.468  30.079  29.854  1.00  0.00     0.074 A 
ATOM     73  C   UNL A   1      49.461  29.253  27.952  1.00  0.00     0.029 A 
ATOM     74  N   UNL A   1      47.301  28.990  28.409  1.00  0.00    -0.354 N 
ATOM     75  N   UNL A   1      44.678  29.820  29.420  1.00  0.00    -0.248 NA
ATOM     76  C   UNL A   1      43.318  31.406  30.469  1.00  0.00     0.031 C 
ATOM     77  C   UNL A   1      48.998  30.412  28.582  1.00  0.00     0.029 A 
ATOM     78  C   UNL A   1      47.645  30.258  28.841  1.00  0.00     0.049 A 
ATOM     79  H   UNL A   1      46.402  28.593  28.479  1.00  0.00     0.167 HD
ATOM     80  C   UNL A   1      45.426  30.963  29.686  1.00  0.00     0.074 A 
ATOM     81  C   UNL A   1      44.530  31.918  30.302  1.00  0.00     0.031 C 
ATOM     82  C   UNL A   1      46.737  31.200  29.440  1.00  0.00     0.031 A 
BRANCH  69  83
ATOM     83  C   UNL A   1      49.695  26.490  26.754  1.00  0.00    -0.014 A 
ATOM     84  C   UNL A   1      50.061  26.726  25.417  1.00  0.00     0.010 A 
ATOM     85  C   UNL A   1      50.577  25.784  27.591  1.00  0.00     0.010 A 
ATOM     86  C   UNL A   1      51.270  26.239  24.917  1.00  0.00     0.020 A 
ATOM     87  C   UNL A   1      51.801  25.316  27.102  1.00  0.00     0.020 A 
ATOM     88  C   UNL A   1      52.132  25.536  25.763  1.00  0.00     0.054 A 
BRANCH  88  89
ATOM     89  S   UNL A   1      53.715  24.949  25.097  1.00  0.00     0.124 S 
ATOM     90  O   UNL A   1      54.660  25.432  26.101  1.00  0.00    -0.237 OA
ATOM     91  O   UNL A   1      53.529  23.501  25.056  1.00  0.00    -0.237 OA
ATOM     92  O   UNL A   1      53.804  25.600  23.793  1.00  0.00    -0.744 OA
ENDBRANCH  88  89
ENDBRANCH  69  83
BRANCH  70  93
ATOM     93  C   UNL A   1      40.951  29.689  30.373  1.00  0.00    -0.014 A 
ATOM     94  C   UNL A   1      40.573  29.314  31.674  1.00  0.00     0.010 A 
ATOM     95  C   UNL A   1      40.087  30.500  29.616  1.00  0.00     0.010 A 
ATOM     96  C   UNL A   1      39.339  29.713  32.196  1.00  0.00     0.020 A 
ATOM     97  C   UNL A   1      38.864  30.923  30.145  1.00  0.00     0.020 A 
ATOM     98  C   UNL A   1      38.489  30.511  31.425  1.00  0.00     0.054 A 
BRANCH  98  99
ATOM     99  S   UNL A   1      36.901  31.038  32.125  1.00  0.00     0.124 S 
ATOM    100  O   UNL A   1      36.652  32.284  31.405  1.00  0.00    -0.237 OA
ATOM    101  O   UNL A   1      36.017  29.924  31.789  1.00  0.00    -0.237 OA
ATOM    102  O   UNL A   1      37.191  31.184  33.550  1.00  0.00    -0.744 OA
ENDBRANCH  98  99
ENDBRANCH  70  93
BRANCH  82 103
ATOM    103  C   UNL A   1      47.274  32.560  29.795  1.00  0.00    -0.014 A 
ATOM    104  C   UNL A   1      47.843  32.813  31.054  1.00  0.00     0.010 A 
ATOM    105  C   UNL A   1      47.258  33.582  28.828  1.00  0.00     0.010 A 
ATOM    106  C   UNL A   1      48.362  34.076  31.351  1.00  0.00     0.020 A 
ATOM    107  C   UNL A   1      47.797  34.839  29.113  1.00  0.00     0.020 A 
ATOM    108  C   UNL A   1      48.334  35.082  30.380  1.00  0.00     0.054 A 
BRANCH 108 109
ATOM    109  S   UNL A   1      49.055  36.699  30.773  1.00  0.00     0.124 S 
ATOM    110  O   UNL A   1      49.915  36.380  31.908  1.00  0.00    -0.237 OA
ATOM    111  O   UNL A   1      49.751  37.051  29.537  1.00  0.00    -0.237 OA
ATOM    112  O   UNL A   1      47.892  37.529  31.083  1.00  0.00    -0.744 OA
ENDBRANCH 108 109
ENDBRANCH  82 103
ENDBRANCH  56  57
ENDBRANCH  48  51
ENDBRANCH  46  47
ENDBRANCH  45  46
ENDBRANCH  44  45
ENDBRANCH  43  44
ENDBRANCH  42  43
ENDBRANCH  41  42
ENDBRANCH   3  41
TORSDOF 29
ENDMDL
MODEL 2
REMARK VINA RESULT:      -9.3      7.333     17.017
REMARK SMILES CC(C)C[C@H](NC(=O)[C@@H](NC(=O)[C@H](C)NC(=O)CNC(=O)OCc1ccccc1)C(C)C)C(=O)NCCCCCCNC(=O)c1ccc(-c2c3nc(c(-c4ccc(S(=O)(=O)[O-])cc4)c4ccc([nH]4)c(-c4ccc(S(=O)(=O)[O-])cc4)c4nc(c(-c5ccc(S(=O)(=O)[O-])cc5)c5ccc2[nH]5)C=C4)C=C3)cc1
REMARK SMILES IDX 33 1 34 2 35 3 5 5 4 6 2 7 1 8 3 9 6 10 7 11 8 13 9 14 10 15
REMARK SMILES IDX 11 16 12 18 13 19 14 20 15 21 16 22 17 24 18 25 19 26 20 27
REMARK SMILES IDX 21 29 22 30 23 31 24 32 25 33 29 34 26 35 28 36 27 37 30 38
REMARK SMILES IDX 31 39 32 40 36 41 37 42 38 43 39 44 40 45 41 46 42 47 43 48
REMARK SMILES IDX 44 50 45 51 46 52 104 53 47 54 103 55 48 56 49 57 50 58
REMARK SMILES IDX 97 59 51 60 102 61 96 62 98 63 52 64 101 65 95 66 94 67
REMARK SMILES IDX 53 69 83 70 64 71 82 72 65 73 68 74 81 75 99 76 66 77 67 78
REMARK SMILES IDX 80 80 100 81 69 82 54 83 55 84 63 85 56 86 62 87 57 88 58 89
REMARK SMILES IDX 59 90 60 91 61 92 84 93 85 94 93 95 86 96 92 97 87 98 88 99
REMARK SMILES IDX 89 100 90 101 91 102 70 103 71 104 79 105 72 106 78 107
REMARK SMILES IDX 73 108 74 109 75 110 76 111 77 112
REMARK H PARENT 35 4 6 12 10 17 15 23 19 28 42 49 98 68 68 79
REMARK Flexibility Score: inf
ROOT
ATOM      1  C   UNL A   1      43.361  42.033  31.518  1.00  0.00     0.242 C 
ATOM      2  O   UNL A   1      42.290  42.615  31.346  1.00  0.00    -0.273 OA
ATOM      3  N   UNL A   1      43.381  40.668  31.579  1.00  0.00    -0.354 N 
ATOM      4  H   UNL A   1      42.579  40.240  31.957  1.00  0.00     0.163 HD
ENDROOT
BRANCH   1   5
ATOM      5  C   UNL A   1      44.646  42.847  31.431  1.00  0.00     0.171 C 
BRANCH   5   6
ATOM      6  C   UNL A   1      45.021  43.030  32.930  1.00  0.00     0.038 C 
BRANCH   6   7
ATOM      7  C   UNL A   1      46.354  42.634  33.577  1.00  0.00    -0.015 C 
ATOM      8  C   UNL A   1      46.659  43.327  34.904  1.00  0.00     0.007 C 
ATOM      9  C   UNL A   1      46.266  41.118  33.869  1.00  0.00     0.007 C 
ENDBRANCH   6   7
ENDBRANCH   5   6
BRANCH   5  10
ATOM     10  N   UNL A   1      44.454  43.982  30.547  1.00  0.00    -0.343 N 
ATOM     11  C   UNL A   1      44.896  44.177  29.265  1.00  0.00     0.243 C 
ATOM     12  H   UNL A   1      43.927  44.722  30.924  1.00  0.00     0.164 HD
ATOM     13  O   UNL A   1      44.769  45.334  28.839  1.00  0.00    -0.273 OA
BRANCH  11  14
ATOM     14  C   UNL A   1      45.399  43.051  28.269  1.00  0.00     0.174 C 
BRANCH  14  15
ATOM     15  N   UNL A   1      44.612  42.970  27.020  1.00  0.00    -0.342 N 
ATOM     16  C   UNL A   1      44.699  43.088  25.678  1.00  0.00     0.242 C 
ATOM     17  H   UNL A   1      43.681  42.747  27.253  1.00  0.00     0.164 HD
ATOM     18  O   UNL A   1      43.719  42.579  25.098  1.00  0.00    -0.273 OA
BRANCH  16  19
ATOM     19  C   UNL A   1      45.851  43.624  24.768  1.00  0.00     0.168 C 
ATOM     20  C   UNL A   1      45.850  45.157  24.730  1.00  0.00     0.041 C 
BRANCH  19  21
ATOM     21  N   UNL A   1      46.172  43.105  23.442  1.00  0.00    -0.343 N 
ATOM     22  C   UNL A   1      45.724  43.508  22.216  1.00  0.00     0.240 C 
ATOM     23  H   UNL A   1      46.805  42.353  23.430  1.00  0.00     0.164 HD
ATOM     24  O   UNL A   1      46.270  43.003  21.228  1.00  0.00    -0.273 OA
BRANCH  22  25
ATOM     25  C   UNL A   1      44.602  44.540  22.036  1.00  0.00     0.219 C 
BRANCH  25  26
ATOM     26  N   UNL A   1      43.332  43.868  22.170  1.00  0.00    -0.312 N 
ATOM     27  C   UNL A   1      42.576  43.427  21.129  1.00  0.00     0.407 C 
ATOM     28  H   UNL A   1      42.987  43.720  23.081  1.00  0.00     0.167 HD
ATOM     29  O   UNL A   1      41.389  43.175  21.275  1.00  0.00    -0.225 OA
BRANCH  27  30
ATOM     30  O   UNL A   1      43.278  43.348  19.972  1.00  0.00    -0.445 OA
BRANCH  30  31
ATOM     31  C   UNL A   1      42.552  43.574  18.757  1.00  0.00     0.270 C 
BRANCH  31  32
ATOM     32  C   UNL A   1      42.692  45.022  18.374  1.00  0.00    -0.011 A 
ATOM     33  C   UNL A   1      41.602  45.700  17.814  1.00  0.00     0.007 A 
ATOM     34  C   UNL A   1      43.946  45.645  18.408  1.00  0.00     0.007 A 
ATOM     35  C   UNL A   1      41.773  46.955  17.239  1.00  0.00     0.000 A 
ATOM     36  C   UNL A   1      44.113  46.909  17.844  1.00  0.00     0.000 A 
ATOM     37  C   UNL A   1      43.031  47.555  17.246  1.00  0.00     0.000 A 
ENDBRANCH  31  32
ENDBRANCH  30  31
ENDBRANCH  27  30
ENDBRANCH  25  26
ENDBRANCH  22  25
ENDBRANCH  19  21
ENDBRANCH  16  19
ENDBRANCH  14  15
BRANCH  14  38
ATOM     38  C   UNL A   1      46.930  42.890  28.176  1.00  0.00     0.015 C 
ATOM     39  C   UNL A   1      47.725  44.161  28.509  1.00  0.00     0.010 C 
ATOM     40  C   UNL A   1      47.447  41.814  29.148  1.00  0.00     0.010 C 
ENDBRANCH  14  38
ENDBRANCH  11  14
ENDBRANCH   5  10
ENDBRANCH   1   5
BRANCH   3  41
ATOM     41  C   UNL A   1      44.437  39.772  31.154  1.00  0.00     0.116 C 
BRANCH  41  42
ATOM     42  C   UNL A   1      44.075  38.300  31.243  1.00  0.00     0.021 C 
BRANCH  42  43
ATOM     43  C   UNL A   1      44.066  37.543  29.914  1.00  0.00     0.002 C 
BRANCH  43  44
ATOM     44  C   UNL A   1      44.128  38.422  28.663  1.00  0.00     0.002 C 
BRANCH  44  45
ATOM     45  C   UNL A   1      45.513  38.966  28.309  1.00  0.00     0.021 C 
BRANCH  45  46
ATOM     46  C   UNL A   1      46.491  37.944  27.742  1.00  0.00     0.116 C 
BRANCH  46  47
ATOM     47  N   UNL A   1      47.732  37.870  28.491  1.00  0.00    -0.352 N 
ATOM     48  C   UNL A   1      48.306  36.763  29.072  1.00  0.00     0.251 C 
ATOM     49  H   UNL A   1      48.223  38.716  28.597  1.00  0.00     0.163 HD
ATOM     50  O   UNL A   1      49.304  36.876  29.776  1.00  0.00    -0.269 OA
BRANCH  48  51
ATOM     51  C   UNL A   1      47.682  35.438  28.867  1.00  0.00     0.039 A 
ATOM     52  C   UNL A   1      47.485  34.980  27.562  1.00  0.00     0.014 A 
ATOM     53  C   UNL A   1      47.328  34.638  29.958  1.00  0.00     0.014 A 
ATOM     54  C   UNL A   1      46.984  33.693  27.351  1.00  0.00     0.010 A 
ATOM     55  C   UNL A   1      46.885  33.334  29.743  1.00  0.00     0.010 A 
ATOM     56  C   UNL A   1      46.706  32.849  28.439  1.00  0.00    -0.014 A 
BRANCH  56  57
ATOM     57  C   UNL A   1      46.212  31.464  28.232  1.00  0.00     0.031 A 
ATOM     58  C   UNL A   1      44.788  31.117  28.576  1.00  0.00     0.074 A 
ATOM     59  C   UNL A   1      47.051  30.508  27.786  1.00  0.00     0.049 A 
ATOM     60  N   UNL A   1      44.192  29.953  28.539  1.00  0.00    -0.248 NA
ATOM     61  C   UNL A   1      43.930  32.217  29.044  1.00  0.00     0.031 C 
ATOM     62  C   UNL A   1      48.465  30.706  27.451  1.00  0.00     0.029 A 
ATOM     63  N   UNL A   1      46.840  29.173  27.546  1.00  0.00    -0.354 N 
ATOM     64  C   UNL A   1      42.896  30.177  28.991  1.00  0.00     0.074 A 
ATOM     65  C   UNL A   1      42.807  31.579  29.340  1.00  0.00     0.031 C 
ATOM     66  C   UNL A   1      48.986  29.539  27.035  1.00  0.00     0.029 A 
ATOM     67  C   UNL A   1      47.958  28.505  27.103  1.00  0.00     0.049 A 
ATOM     68  H   UNL A   1      45.969  28.734  27.678  1.00  0.00     0.167 HD
ATOM     69  C   UNL A   1      41.866  29.304  29.085  1.00  0.00     0.031 A 
ATOM     70  C   UNL A   1      48.138  27.206  26.793  1.00  0.00     0.031 A 
ATOM     71  C   UNL A   1      41.947  27.915  28.720  1.00  0.00     0.049 A 
ATOM     72  C   UNL A   1      46.974  26.257  26.900  1.00  0.00     0.074 A 
ATOM     73  C   UNL A   1      40.949  26.957  28.751  1.00  0.00     0.029 A 
ATOM     74  N   UNL A   1      43.088  27.288  28.243  1.00  0.00    -0.354 N 
ATOM     75  N   UNL A   1      45.747  26.500  27.292  1.00  0.00    -0.248 NA
ATOM     76  C   UNL A   1      47.217  24.861  26.508  1.00  0.00     0.031 C 
ATOM     77  C   UNL A   1      41.495  25.743  28.322  1.00  0.00     0.029 A 
ATOM     78  C   UNL A   1      42.820  25.957  27.980  1.00  0.00     0.049 A 
ATOM     79  H   UNL A   1      43.961  27.726  28.112  1.00  0.00     0.167 HD
ATOM     80  C   UNL A   1      45.064  25.295  27.166  1.00  0.00     0.074 A 
ATOM     81  C   UNL A   1      46.010  24.328  26.648  1.00  0.00     0.031 C 
ATOM     82  C   UNL A   1      43.770  25.013  27.452  1.00  0.00     0.031 A 
BRANCH  69  83
ATOM     83  C   UNL A   1      40.551  29.831  29.591  1.00  0.00    -0.014 A 
ATOM     84  C   UNL A   1      40.256  29.828  30.966  1.00  0.00     0.010 A 
ATOM     85  C   UNL A   1      39.621  30.382  28.692  1.00  0.00     0.010 A 
ATOM     86  C   UNL A   1      39.044  30.339  31.431  1.00  0.00     0.020 A 
ATOM     87  C   UNL A   1      38.415  30.918  29.155  1.00  0.00     0.020 A 
ATOM     88  C   UNL A   1      38.129  30.880  30.522  1.00  0.00     0.054 A 
BRANCH  88  89
ATOM     89  S   UNL A   1      36.578  31.573  31.159  1.00  0.00     0.124 S 
ATOM     90  O   UNL A   1      35.881  30.375  31.620  1.00  0.00    -0.237 OA
ATOM     91  O   UNL A   1      37.037  32.476  32.211  1.00  0.00    -0.237 OA
ATOM     92  O   UNL A   1      35.988  32.227  29.994  1.00  0.00    -0.744 OA
ENDBRANCH  88  89
ENDBRANCH  69  83
BRANCH  70  93
ATOM     93  C   UNL A   1      49.472  26.718  26.347  1.00  0.00    -0.014 A 
ATOM     94  C   UNL A   1      49.889  26.895  25.016  1.00  0.00     0.010 A 
ATOM     95  C   UNL A   1      50.322  26.054  27.249  1.00  0.00     0.010 A 
ATOM     96  C   UNL A   1      51.117  26.384  24.585  1.00  0.00     0.020 A 
ATOM     97  C   UNL A   1      51.563  25.567  26.828  1.00  0.00     0.020 A 
ATOM     98  C   UNL A   1      51.945  25.718  25.494  1.00  0.00     0.054 A 
BRANCH  98  99
ATOM     99  S   UNL A   1      53.545  25.082  24.924  1.00  0.00     0.124 S 
ATOM    100  O   UNL A   1      53.343  23.639  25.006  1.00  0.00    -0.237 OA
ATOM    101  O   UNL A   1      53.646  25.632  23.575  1.00  0.00    -0.237 OA
ATOM    102  O   UNL A   1      54.493  25.639  25.887  1.00  0.00    -0.744 OA
ENDBRANCH  98  99
ENDBRANCH  70  93
BRANCH  82 103
ATOM    103  C   UNL A   1      43.286  23.617  27.169  1.00  0.00    -0.014 A 
ATOM    104  C   UNL A   1      43.066  23.175  25.854  1.00  0.00     0.010 A 
ATOM    105  C   UNL A   1      43.105  22.719  28.237  1.00  0.00     0.010 A 
ATOM    106  C   UNL A   1      42.644  21.865  25.613  1.00  0.00     0.020 A 
ATOM    107  C   UNL A   1      42.706  21.402  27.998  1.00  0.00     0.020 A 
ATOM    108  C   UNL A   1      42.465  20.987  26.686  1.00  0.00     0.054 A 
BRANCH 108 109
ATOM    109  S   UNL A   1      41.961  19.278  26.346  1.00  0.00     0.124 S 
ATOM    110  O   UNL A   1      42.895  18.891  25.292  1.00  0.00    -0.237 OA
ATOM    111  O   UNL A   1      42.161  18.620  27.635  1.00  0.00    -0.237 OA
ATOM    112  O   UNL A   1      40.566  19.405  25.928  1.00  0.00    -0.744 OA
ENDBRANCH 108 109
ENDBRANCH  82 103
ENDBRANCH  56  57
ENDBRANCH  48  51
ENDBRANCH  46  47
ENDBRANCH  45  46
ENDBRANCH  44  45
ENDBRANCH  43  44
ENDBRANCH  42  43
ENDBRANCH  41  42
ENDBRANCH   3  41
TORSDOF 29
ENDMDL
MODEL 3
REMARK VINA RESULT:      -9.1      5.296     11.700
REMARK SMILES CC(C)C[C@H](NC(=O)[C@@H](NC(=O)[C@H](C)NC(=O)CNC(=O)OCc1ccccc1)C(C)C)C(=O)NCCCCCCNC(=O)c1ccc(-c2c3nc(c(-c4ccc(S(=O)(=O)[O-])cc4)c4ccc([nH]4)c(-c4ccc(S(=O)(=O)[O-])cc4)c4nc(c(-c5ccc(S(=O)(=O)[O-])cc5)c5ccc2[nH]5)C=C4)C=C3)cc1
REMARK SMILES IDX 33 1 34 2 35 3 5 5 4 6 2 7 1 8 3 9 6 10 7 11 8 13 9 14 10 15
REMARK SMILES IDX 11 16 12 18 13 19 14 20 15 21 16 22 17 24 18 25 19 26 20 27
REMARK SMILES IDX 21 29 22 30 23 31 24 32 25 33 29 34 26 35 28 36 27 37 30 38
REMARK SMILES IDX 31 39 32 40 36 41 37 42 38 43 39 44 40 45 41 46 42 47 43 48
REMARK SMILES IDX 44 50 45 51 46 52 104 53 47 54 103 55 48 56 49 57 50 58
REMARK SMILES IDX 97 59 51 60 102 61 96 62 98 63 52 64 101 65 95 66 94 67
REMARK SMILES IDX 53 69 83 70 64 71 82 72 65 73 68 74 81 75 99 76 66 77 67 78
REMARK SMILES IDX 80 80 100 81 69 82 54 83 55 84 63 85 56 86 62 87 57 88 58 89
REMARK SMILES IDX 59 90 60 91 61 92 84 93 85 94 93 95 86 96 92 97 87 98 88 99
REMARK SMILES IDX 89 100 90 101 91 102 70 103 71 104 79 105 72 106 78 107
REMARK SMILES IDX 73 108 74 109 75 110 76 111 77 112
REMARK H PARENT 35 4 6 12 10 17 15 23 19 28 42 49 98 68 68 79
REMARK Flexibility Score: inf
ROOT
ATOM      1  C   UNL A   1      38.015  28.613  32.722  1.00  0.00     0.242 C 
ATOM      2  O   UNL A   1      37.810  27.411  32.890  1.00  0.00    -0.273 OA
ATOM      3  N   UNL A   1      37.634  29.501  33.689  1.00  0.00    -0.354 N 
ATOM      4  H   UNL A   1      36.835  29.256  34.210  1.00  0.00     0.163 HD
ENDROOT
BRANCH   1   5
ATOM      5  C   UNL A   1      38.883  29.040  31.545  1.00  0.00     0.171 C 
BRANCH   5   6
ATOM      6  C   UNL A   1      37.931  28.818  30.335  1.00  0.00     0.038 C 
BRANCH   6   7
ATOM      7  C   UNL A   1      37.420  29.907  29.384  1.00  0.00    -0.015 C 
ATOM      8  C   UNL A   1      36.544  29.404  28.238  1.00  0.00     0.007 C 
ATOM      9  C   UNL A   1      36.546  30.857  30.235  1.00  0.00     0.007 C 
ENDBRANCH   6   7
ENDBRANCH   5   6
BRANCH   5  10
ATOM     10  N   UNL A   1      40.180  28.391  31.627  1.00  0.00    -0.343 N 
ATOM     11  C   UNL A   1      41.285  28.542  30.831  1.00  0.00     0.243 C 
ATOM     12  H   UNL A   1      40.280  27.747  32.364  1.00  0.00     0.164 HD
ATOM     13  O   UNL A   1      42.173  27.695  31.005  1.00  0.00    -0.273 OA
BRANCH  11  14
ATOM     14  C   UNL A   1      41.573  29.755  29.852  1.00  0.00     0.174 C 
BRANCH  14  15
ATOM     15  N   UNL A   1      40.902  29.629  28.541  1.00  0.00    -0.342 N 
ATOM     16  C   UNL A   1      40.448  28.732  27.640  1.00  0.00     0.242 C 
ATOM     17  H   UNL A   1      40.715  30.534  28.198  1.00  0.00     0.164 HD
ATOM     18  O   UNL A   1      39.656  29.244  26.824  1.00  0.00    -0.273 OA
BRANCH  16  19
ATOM     19  C   UNL A   1      40.650  27.184  27.542  1.00  0.00     0.168 C 
ATOM     20  C   UNL A   1      39.434  26.439  28.108  1.00  0.00     0.041 C 
BRANCH  19  21
ATOM     21  N   UNL A   1      41.871  26.481  27.918  1.00  0.00    -0.343 N 
ATOM     22  C   UNL A   1      42.332  25.258  27.518  1.00  0.00     0.240 C 
ATOM     23  H   UNL A   1      42.449  26.957  28.556  1.00  0.00     0.164 HD
ATOM     24  O   UNL A   1      43.479  24.953  27.866  1.00  0.00    -0.273 OA
BRANCH  22  25
ATOM     25  C   UNL A   1      41.496  24.287  26.674  1.00  0.00     0.219 C 
BRANCH  25  26
ATOM     26  N   UNL A   1      40.967  23.260  27.539  1.00  0.00    -0.312 N 
ATOM     27  C   UNL A   1      41.269  21.937  27.442  1.00  0.00     0.407 C 
ATOM     28  H   UNL A   1      40.343  23.536  28.250  1.00  0.00     0.167 HD
ATOM     29  O   UNL A   1      40.559  21.090  27.965  1.00  0.00    -0.225 OA
BRANCH  27  30
ATOM     30  O   UNL A   1      42.379  21.708  26.700  1.00  0.00    -0.445 OA
BRANCH  30  31
ATOM     31  C   UNL A   1      42.490  20.420  26.080  1.00  0.00     0.270 C 
BRANCH  31  32
ATOM     32  C   UNL A   1      43.886  20.262  25.544  1.00  0.00    -0.011 A 
ATOM     33  C   UNL A   1      44.800  21.316  25.671  1.00  0.00     0.007 A 
ATOM     34  C   UNL A   1      44.225  19.147  24.768  1.00  0.00     0.007 A 
ATOM     35  C   UNL A   1      46.009  21.285  24.983  1.00  0.00     0.000 A 
ATOM     36  C   UNL A   1      45.443  19.112  24.090  1.00  0.00     0.000 A 
ATOM     37  C   UNL A   1      46.325  20.188  24.185  1.00  0.00     0.000 A 
ENDBRANCH  31  32
ENDBRANCH  30  31
ENDBRANCH  27  30
ENDBRANCH  25  26
ENDBRANCH  22  25
ENDBRANCH  19  21
ENDBRANCH  16  19
ENDBRANCH  14  15
BRANCH  14  38
ATOM     38  C   UNL A   1      41.613  31.145  30.519  1.00  0.00     0.015 C 
ATOM     39  C   UNL A   1      42.328  32.225  29.694  1.00  0.00     0.010 C 
ATOM     40  C   UNL A   1      40.197  31.692  30.776  1.00  0.00     0.010 C 
ENDBRANCH  14  38
ENDBRANCH  11  14
ENDBRANCH   5  10
ENDBRANCH   1   5
BRANCH   3  41
ATOM     41  C   UNL A   1      38.262  30.757  34.044  1.00  0.00     0.116 C 
BRANCH  41  42
ATOM     42  C   UNL A   1      39.324  30.637  35.121  1.00  0.00     0.021 C 
BRANCH  42  43
ATOM     43  C   UNL A   1      39.182  31.606  36.296  1.00  0.00     0.002 C 
BRANCH  43  44
ATOM     44  C   UNL A   1      37.772  32.155  36.520  1.00  0.00     0.002 C 
BRANCH  44  45
ATOM     45  C   UNL A   1      37.589  33.007  37.777  1.00  0.00     0.021 C 
BRANCH  45  46
ATOM     46  C   UNL A   1      38.870  33.580  38.370  1.00  0.00     0.116 C 
BRANCH  46  47
ATOM     47  N   UNL A   1      38.962  35.023  38.234  1.00  0.00    -0.352 N 
ATOM     48  C   UNL A   1      39.790  35.744  37.406  1.00  0.00     0.251 C 
ATOM     49  H   UNL A   1      38.357  35.549  38.804  1.00  0.00     0.163 HD
ATOM     50  O   UNL A   1      39.838  36.967  37.485  1.00  0.00    -0.269 OA
BRANCH  48  51
ATOM     51  C   UNL A   1      40.652  35.023  36.445  1.00  0.00     0.039 A 
ATOM     52  C   UNL A   1      40.132  34.689  35.192  1.00  0.00     0.014 A 
ATOM     53  C   UNL A   1      41.978  34.712  36.766  1.00  0.00     0.014 A 
ATOM     54  C   UNL A   1      40.960  34.092  34.239  1.00  0.00     0.010 A 
ATOM     55  C   UNL A   1      42.815  34.172  35.792  1.00  0.00     0.010 A 
ATOM     56  C   UNL A   1      42.316  33.854  34.521  1.00  0.00    -0.014 A 
BRANCH  56  57
ATOM     57  C   UNL A   1      43.220  33.257  33.504  1.00  0.00     0.031 A 
ATOM     58  C   UNL A   1      43.722  31.850  33.681  1.00  0.00     0.074 A 
ATOM     59  C   UNL A   1      43.632  33.994  32.453  1.00  0.00     0.049 A 
ATOM     60  N   UNL A   1      44.575  31.181  32.948  1.00  0.00    -0.248 NA
ATOM     61  C   UNL A   1      43.217  31.105  34.846  1.00  0.00     0.031 C 
ATOM     62  C   UNL A   1      43.248  35.384  32.185  1.00  0.00     0.029 A 
ATOM     63  N   UNL A   1      44.474  33.680  31.415  1.00  0.00    -0.354 N 
ATOM     64  C   UNL A   1      44.718  29.944  33.569  1.00  0.00     0.074 A 
ATOM     65  C   UNL A   1      43.902  29.973  34.763  1.00  0.00     0.031 C 
ATOM     66  C   UNL A   1      43.841  35.793  31.051  1.00  0.00     0.029 A 
ATOM     67  C   UNL A   1      44.669  34.712  30.527  1.00  0.00     0.049 A 
ATOM     68  H   UNL A   1      44.899  32.797  31.315  1.00  0.00     0.167 HD
ATOM     69  C   UNL A   1      45.444  28.873  33.171  1.00  0.00     0.031 A 
ATOM     70  C   UNL A   1      45.434  34.783  29.420  1.00  0.00     0.031 A 
ATOM     71  C   UNL A   1      46.241  28.836  31.974  1.00  0.00     0.049 A 
ATOM     72  C   UNL A   1      46.227  33.575  28.996  1.00  0.00     0.074 A 
ATOM     73  C   UNL A   1      46.989  27.786  31.470  1.00  0.00     0.029 A 
ATOM     74  N   UNL A   1      46.383  29.890  31.085  1.00  0.00    -0.354 N 
ATOM     75  N   UNL A   1      46.317  32.403  29.577  1.00  0.00    -0.248 NA
ATOM     76  C   UNL A   1      47.009  33.695  27.757  1.00  0.00     0.031 C 
ATOM     77  C   UNL A   1      47.607  28.216  30.292  1.00  0.00     0.029 A 
ATOM     78  C   UNL A   1      47.208  29.518  30.039  1.00  0.00     0.049 A 
ATOM     79  H   UNL A   1      45.960  30.774  31.184  1.00  0.00     0.167 HD
ATOM     80  C   UNL A   1      47.142  31.638  28.759  1.00  0.00     0.074 A 
ATOM     81  C   UNL A   1      47.513  32.474  27.637  1.00  0.00     0.031 C 
ATOM     82  C   UNL A   1      47.555  30.358  28.923  1.00  0.00     0.031 A 
BRANCH  69  83
ATOM     83  C   UNL A   1      45.398  27.642  34.034  1.00  0.00    -0.014 A 
ATOM     84  C   UNL A   1      46.349  27.440  35.050  1.00  0.00     0.010 A 
ATOM     85  C   UNL A   1      44.366  26.702  33.864  1.00  0.00     0.010 A 
ATOM     86  C   UNL A   1      46.287  26.306  35.862  1.00  0.00     0.020 A 
ATOM     87  C   UNL A   1      44.285  25.578  34.691  1.00  0.00     0.020 A 
ATOM     88  C   UNL A   1      45.255  25.381  35.676  1.00  0.00     0.054 A 
BRANCH  88  89
ATOM     89  S   UNL A   1      45.177  23.936  36.772  1.00  0.00     0.124 S 
ATOM     90  O   UNL A   1      46.592  23.637  36.975  1.00  0.00    -0.237 OA
ATOM     91  O   UNL A   1      44.472  24.457  37.940  1.00  0.00    -0.237 OA
ATOM     92  O   UNL A   1      44.438  22.949  35.990  1.00  0.00    -0.744 OA
ENDBRANCH  88  89
ENDBRANCH  69  83
BRANCH  70  93
ATOM     93  C   UNL A   1      45.491  36.041  28.626  1.00  0.00    -0.014 A 
ATOM     94  C   UNL A   1      44.635  36.231  27.527  1.00  0.00     0.010 A 
ATOM     95  C   UNL A   1      46.419  37.045  28.953  1.00  0.00     0.010 A 
ATOM     96  C   UNL A   1      44.730  37.387  26.747  1.00  0.00     0.020 A 
ATOM     97  C   UNL A   1      46.498  38.215  28.192  1.00  0.00     0.020 A 
ATOM     98  C   UNL A   1      45.666  38.371  27.082  1.00  0.00     0.054 A 
BRANCH  98  99
ATOM     99  S   UNL A   1      45.761  39.876  26.073  1.00  0.00     0.124 S 
ATOM    100  O   UNL A   1      46.481  40.787  26.958  1.00  0.00    -0.237 OA
ATOM    101  O   UNL A   1      46.495  39.425  24.894  1.00  0.00    -0.237 OA
ATOM    102  O   UNL A   1      44.359  40.211  25.834  1.00  0.00    -0.744 OA
ENDBRANCH  98  99
ENDBRANCH  70  93
BRANCH  82 103
ATOM    103  C   UNL A   1      48.417  29.765  27.842  1.00  0.00    -0.014 A 
ATOM    104  C   UNL A   1      49.789  30.057  27.762  1.00  0.00     0.010 A 
ATOM    105  C   UNL A   1      47.852  28.855  26.930  1.00  0.00     0.010 A 
ATOM    106  C   UNL A   1      50.576  29.472  26.767  1.00  0.00     0.020 A 
ATOM    107  C   UNL A   1      48.641  28.250  25.949  1.00  0.00     0.020 A 
ATOM    108  C   UNL A   1      49.997  28.573  25.865  1.00  0.00     0.054 A 
BRANCH 108 109
ATOM    109  S   UNL A   1      51.049  27.790  24.612  1.00  0.00     0.124 S 
ATOM    110  O   UNL A   1      50.412  28.220  23.371  1.00  0.00    -0.237 OA
ATOM    111  O   UNL A   1      52.361  28.375  24.881  1.00  0.00    -0.237 OA
ATOM    112  O   UNL A   1      50.938  26.363  24.910  1.00  0.00    -0.744 OA
ENDBRANCH 108 109
ENDBRANCH  82 103
ENDBRANCH  56  57
ENDBRANCH  48  51
ENDBRANCH  46  47
ENDBRANCH  45  46
ENDBRANCH  44  45
ENDBRANCH  43  44
ENDBRANCH  42  43
ENDBRANCH  41  42
ENDBRANCH   3  41
TORSDOF 29
ENDMDL
