MODEL 1
REMARK VINA RESULT:     -11.6      0.000      0.000
REMARK SMILES O=C(NCCCCCCNC(=O)c1ccc(-c2c3nc(c(-c4ccc(S(=O)(=O)[O-])cc4)c4ccc([nH]4)c(-c4ccc(S(=O)(=O)[O-])cc4)c4nc(c(-c5ccc(S(=O)(=O)[O-])cc5)c5ccc2[nH]5)C=C4)C=C3)cc1)C1=Cc2cc(Cl)cc(C#Cc3ccccc3)c2O[C@@H]1C(F)(F)F
REMARK SMILES IDX 7 1 6 2 5 3 4 4 3 5 1 6 2 7 73 9 74 10 91 11 75 12 90 13
REMARK SMILES IDX 76 14 89 15 77 16 80 17 78 18 79 19 92 20 93 21 94 22 95 23
REMARK SMILES IDX 81 24 82 25 83 26 84 27 88 28 85 29 87 30 86 31 8 32 9 33
REMARK SMILES IDX 10 34 11 35 12 37 13 38 14 39 72 40 15 41 71 42 16 43 17 44
REMARK SMILES IDX 18 45 65 46 19 47 70 48 64 49 66 50 20 51 69 52 63 53 62 54
REMARK SMILES IDX 21 56 51 57 32 58 50 59 33 60 36 61 49 62 67 63 34 64 35 65
REMARK SMILES IDX 48 67 68 68 37 69 22 70 23 71 31 72 24 73 30 74 25 75 26 76
REMARK SMILES IDX 27 77 28 78 29 79 52 80 53 81 61 82 54 83 60 84 55 85 56 86
REMARK SMILES IDX 57 87 58 88 59 89 38 90 39 91 47 92 40 93 46 94 41 95 42 96
REMARK SMILES IDX 43 97 44 98 45 99
REMARK H PARENT 3 8 10 36 66 55 36 66
REMARK Flexibility Score: inf
ROOT
ATOM      1  C   UNL A   1      32.141  27.560  25.049  1.00  0.00     0.002 C 
ENDROOT
BRANCH   1   2
ATOM      2  C   UNL A   1      30.752  26.923  24.913  1.00  0.00     0.002 C 
BRANCH   2   3
ATOM      3  C   UNL A   1      30.212  26.175  26.133  1.00  0.00     0.021 C 
BRANCH   3   4
ATOM      4  C   UNL A   1      30.071  24.665  25.989  1.00  0.00     0.116 C 
BRANCH   4   5
ATOM      5  N   UNL A   1      30.906  23.865  26.870  1.00  0.00    -0.352 N 
ATOM      6  O   UNL A   1      32.802  22.986  27.693  1.00  0.00    -0.270 OA
ATOM      7  C   UNL A   1      32.234  23.552  26.760  1.00  0.00     0.251 C 
ATOM      8  H   UNL A   1      30.450  23.495  27.659  1.00  0.00     0.163 HD
BRANCH   7   9
ATOM      9  C   UNL A   1      33.059  23.966  25.582  1.00  0.00     0.067 C 
ATOM     10  C   UNL A   1      34.313  24.429  25.720  1.00  0.00     0.025 C 
ATOM     11  C   UNL A   1      32.739  23.145  24.357  1.00  0.00     0.314 C 
ATOM     12  C   UNL A   1      35.343  23.470  25.248  1.00  0.00     0.020 A 
ATOM     13  O   UNL A   1      33.657  22.027  24.235  1.00  0.00    -0.474 OA
ATOM     14  C   UNL A   1      36.654  23.649  25.706  1.00  0.00     0.032 A 
ATOM     15  C   UNL A   1      34.939  22.237  24.693  1.00  0.00     0.143 A 
ATOM     16  C   UNL A   1      37.532  22.569  25.699  1.00  0.00     0.043 A 
ATOM     17  C   UNL A   1      35.809  21.141  24.766  1.00  0.00     0.069 A 
ATOM     18  Cl  UNL A   1      39.080  22.732  26.433  1.00  0.00    -0.084 Cl
ATOM     19  C   UNL A   1      37.113  21.320  25.248  1.00  0.00     0.041 A 
BRANCH  11  20
ATOM     20  C   UNL A   1      32.679  24.028  23.094  1.00  0.00     0.429 C 
ATOM     21  F   UNL A   1      33.324  25.205  23.275  1.00  0.00    -0.167 F 
ATOM     22  F   UNL A   1      33.276  23.416  22.039  1.00  0.00    -0.167 F 
ATOM     23  F   UNL A   1      31.413  24.316  22.712  1.00  0.00    -0.167 F 
ENDBRANCH  11  20
BRANCH  17  24
ATOM     24  C   UNL A   1      35.336  19.790  24.647  1.00  0.00    -0.058 C 
ATOM     25  C   UNL A   1      34.799  18.718  24.730  1.00  0.00    -0.062 C 
BRANCH  25  26
ATOM     26  C   UNL A   1      34.101  17.491  24.983  1.00  0.00     0.025 A 
ATOM     27  C   UNL A   1      34.761  16.262  24.913  1.00  0.00     0.017 A 
ATOM     28  C   UNL A   1      32.734  17.526  25.278  1.00  0.00     0.017 A 
ATOM     29  C   UNL A   1      34.061  15.077  25.164  1.00  0.00     0.001 A 
ATOM     30  C   UNL A   1      32.037  16.343  25.527  1.00  0.00     0.001 A 
ATOM     31  C   UNL A   1      32.702  15.119  25.476  1.00  0.00     0.000 A 
ENDBRANCH  25  26
ENDBRANCH  17  24
ENDBRANCH   7   9
ENDBRANCH   4   5
ENDBRANCH   3   4
ENDBRANCH   2   3
ENDBRANCH   1   2
BRANCH   1  32
ATOM     32  C   UNL A   1      32.812  27.474  26.423  1.00  0.00     0.021 C 
BRANCH  32  33
ATOM     33  C   UNL A   1      34.078  28.302  26.613  1.00  0.00     0.116 C 
BRANCH  33  34
ATOM     34  N   UNL A   1      33.806  29.645  27.090  1.00  0.00    -0.352 N 
ATOM     35  C   UNL A   1      34.574  30.484  27.859  1.00  0.00     0.251 C 
ATOM     36  H   UNL A   1      32.934  30.014  26.820  1.00  0.00     0.163 HD
ATOM     37  O   UNL A   1      34.086  31.531  28.279  1.00  0.00    -0.269 OA
BRANCH  35  38
ATOM     38  C   UNL A   1      35.971  30.133  28.206  1.00  0.00     0.039 A 
ATOM     39  C   UNL A   1      36.241  29.658  29.494  1.00  0.00     0.014 A 
ATOM     40  C   UNL A   1      37.018  30.304  27.296  1.00  0.00     0.014 A 
ATOM     41  C   UNL A   1      37.546  29.312  29.851  1.00  0.00     0.010 A 
ATOM     42  C   UNL A   1      38.308  29.888  27.629  1.00  0.00     0.010 A 
ATOM     43  C   UNL A   1      38.588  29.397  28.914  1.00  0.00    -0.014 A 
BRANCH  43  44
ATOM     44  C   UNL A   1      39.971  28.986  29.266  1.00  0.00     0.031 A 
ATOM     45  C   UNL A   1      40.898  29.947  29.962  1.00  0.00     0.074 A 
ATOM     46  C   UNL A   1      40.412  27.761  28.918  1.00  0.00     0.049 A 
ATOM     47  N   UNL A   1      42.146  29.780  30.317  1.00  0.00    -0.248 NA
ATOM     48  C   UNL A   1      40.358  31.279  30.280  1.00  0.00     0.031 C 
ATOM     49  C   UNL A   1      39.625  26.750  28.208  1.00  0.00     0.029 A 
ATOM     50  N   UNL A   1      41.630  27.158  29.111  1.00  0.00    -0.354 N 
ATOM     51  C   UNL A   1      42.544  30.984  30.889  1.00  0.00     0.074 A 
ATOM     52  C   UNL A   1      41.422  31.890  30.781  1.00  0.00     0.031 C 
ATOM     53  C   UNL A   1      40.372  25.646  28.047  1.00  0.00     0.029 A 
ATOM     54  C   UNL A   1      41.700  25.882  28.602  1.00  0.00     0.049 A 
ATOM     55  H   UNL A   1      42.383  27.597  29.569  1.00  0.00     0.167 HD
ATOM     56  C   UNL A   1      43.727  31.301  31.468  1.00  0.00     0.031 A 
ATOM     57  C   UNL A   1      42.720  25.002  28.574  1.00  0.00     0.031 A 
ATOM     58  C   UNL A   1      44.843  30.396  31.569  1.00  0.00     0.049 A 
ATOM     59  C   UNL A   1      44.032  25.381  29.205  1.00  0.00     0.074 A 
ATOM     60  C   UNL A   1      46.069  30.606  32.176  1.00  0.00     0.029 A 
ATOM     61  N   UNL A   1      44.872  29.113  31.043  1.00  0.00    -0.354 N 
ATOM     62  N   UNL A   1      44.367  26.502  29.798  1.00  0.00    -0.248 NA
ATOM     63  C   UNL A   1      45.099  24.370  29.176  1.00  0.00     0.031 C 
ATOM     64  C   UNL A   1      46.860  29.472  31.966  1.00  0.00     0.029 A 
ATOM     65  C   UNL A   1      46.104  28.528  31.288  1.00  0.00     0.049 A 
ATOM     66  H   UNL A   1      44.127  28.681  30.566  1.00  0.00     0.167 HD
ATOM     67  C   UNL A   1      45.675  26.324  30.235  1.00  0.00     0.074 A 
ATOM     68  C   UNL A   1      46.064  24.981  29.852  1.00  0.00     0.031 C 
ATOM     69  C   UNL A   1      46.481  27.193  30.894  1.00  0.00     0.031 A 
BRANCH  56  70
ATOM     70  C   UNL A   1      43.874  32.695  32.026  1.00  0.00    -0.014 A 
ATOM     71  C   UNL A   1      44.391  33.743  31.242  1.00  0.00     0.010 A 
ATOM     72  C   UNL A   1      43.473  32.967  33.347  1.00  0.00     0.010 A 
ATOM     73  C   UNL A   1      44.556  35.021  31.784  1.00  0.00     0.020 A 
ATOM     74  C   UNL A   1      43.606  34.252  33.884  1.00  0.00     0.020 A 
ATOM     75  C   UNL A   1      44.169  35.265  33.104  1.00  0.00     0.054 A 
BRANCH  75  76
ATOM     76  S   UNL A   1      44.397  36.932  33.781  1.00  0.00     0.124 S 
ATOM     77  O   UNL A   1      45.334  36.687  34.875  1.00  0.00    -0.237 OA
ATOM     78  O   UNL A   1      44.939  37.670  32.642  1.00  0.00    -0.237 OA
ATOM     79  O   UNL A   1      43.051  37.327  34.192  1.00  0.00    -0.744 OA
ENDBRANCH  75  76
ENDBRANCH  56  70
BRANCH  57  80
ATOM     80  C   UNL A   1      42.528  23.672  27.933  1.00  0.00    -0.014 A 
ATOM     81  C   UNL A   1      42.807  23.486  26.568  1.00  0.00     0.010 A 
ATOM     82  C   UNL A   1      42.100  22.571  28.699  1.00  0.00     0.010 A 
ATOM     83  C   UNL A   1      42.653  22.228  25.978  1.00  0.00     0.020 A 
ATOM     84  C   UNL A   1      41.973  21.306  28.120  1.00  0.00     0.020 A 
ATOM     85  C   UNL A   1      42.244  21.144  26.760  1.00  0.00     0.054 A 
BRANCH  85  86
ATOM     86  S   UNL A   1      42.122  19.506  25.989  1.00  0.00     0.124 S 
ATOM     87  O   UNL A   1      40.694  19.408  25.706  1.00  0.00    -0.237 OA
ATOM     88  O   UNL A   1      42.992  19.642  24.824  1.00  0.00    -0.237 OA
ATOM     89  O   UNL A   1      42.620  18.603  27.025  1.00  0.00    -0.744 OA
ENDBRANCH  85  86
ENDBRANCH  57  80
BRANCH  69  90
ATOM     90  C   UNL A   1      47.857  26.712  31.274  1.00  0.00    -0.014 A 
ATOM     91  C   UNL A   1      48.964  26.923  30.433  1.00  0.00     0.010 A 
ATOM     92  C   UNL A   1      48.053  26.089  32.521  1.00  0.00     0.010 A 
ATOM     93  C   UNL A   1      50.237  26.490  30.818  1.00  0.00     0.020 A 
ATOM     94  C   UNL A   1      49.327  25.683  32.923  1.00  0.00     0.020 A 
ATOM     95  C   UNL A   1      50.410  25.874  32.062  1.00  0.00     0.054 A 
BRANCH  95  96
ATOM     96  S   UNL A   1      52.078  25.362  32.556  1.00  0.00     0.124 S 
ATOM     97  O   UNL A   1      52.118  25.765  33.959  1.00  0.00    -0.237 OA
ATOM     98  O   UNL A   1      52.055  23.921  32.315  1.00  0.00    -0.237 OA
ATOM     99  O   UNL A   1      52.952  26.121  31.665  1.00  0.00    -0.744 OA
ENDBRANCH  95  96
ENDBRANCH  69  90
ENDBRANCH  43  44
ENDBRANCH  35  38
ENDBRANCH  33  34
ENDBRANCH  32  33
ENDBRANCH   1  32
TORSDOF 19
ENDMDL
MODEL 2
REMARK VINA RESULT:     -11.2      0.594      7.870
REMARK SMILES O=C(NCCCCCCNC(=O)c1ccc(-c2c3nc(c(-c4ccc(S(=O)(=O)[O-])cc4)c4ccc([nH]4)c(-c4ccc(S(=O)(=O)[O-])cc4)c4nc(c(-c5ccc(S(=O)(=O)[O-])cc5)c5ccc2[nH]5)C=C4)C=C3)cc1)C1=Cc2cc(Cl)cc(C#Cc3ccccc3)c2O[C@@H]1C(F)(F)F
REMARK SMILES IDX 7 1 6 2 5 3 4 4 3 5 1 6 2 7 73 9 74 10 91 11 75 12 90 13
REMARK SMILES IDX 76 14 89 15 77 16 80 17 78 18 79 19 92 20 93 21 94 22 95 23
REMARK SMILES IDX 81 24 82 25 83 26 84 27 88 28 85 29 87 30 86 31 8 32 9 33
REMARK SMILES IDX 10 34 11 35 12 37 13 38 14 39 72 40 15 41 71 42 16 43 17 44
REMARK SMILES IDX 18 45 65 46 19 47 70 48 64 49 66 50 20 51 69 52 63 53 62 54
REMARK SMILES IDX 21 56 51 57 32 58 50 59 33 60 36 61 49 62 67 63 34 64 35 65
REMARK SMILES IDX 48 67 68 68 37 69 22 70 23 71 31 72 24 73 30 74 25 75 26 76
REMARK SMILES IDX 27 77 28 78 29 79 52 80 53 81 61 82 54 83 60 84 55 85 56 86
REMARK SMILES IDX 57 87 58 88 59 89 38 90 39 91 47 92 40 93 46 94 41 95 42 96
REMARK SMILES IDX 43 97 44 98 45 99
REMARK H PARENT 3 8 10 36 66 55 36 66
REMARK Flexibility Score: inf
ROOT
ATOM      1  C   UNL A   1      32.429  27.669  25.124  1.00  0.00     0.002 C 
ENDROOT
BRANCH   1   2
ATOM      2  C   UNL A   1      31.028  27.102  24.859  1.00  0.00     0.002 C 
BRANCH   2   3
ATOM      3  C   UNL A   1      30.343  26.382  26.021  1.00  0.00     0.021 C 
BRANCH   3   4
ATOM      4  C   UNL A   1      30.140  24.880  25.856  1.00  0.00     0.116 C 
BRANCH   4   5
ATOM      5  N   UNL A   1      30.935  24.036  26.732  1.00  0.00    -0.352 N 
ATOM      6  O   UNL A   1      32.789  23.078  27.564  1.00  0.00    -0.270 OA
ATOM      7  C   UNL A   1      32.254  23.683  26.635  1.00  0.00     0.251 C 
ATOM      8  H   UNL A   1      30.455  23.663  27.506  1.00  0.00     0.163 HD
BRANCH   7   9
ATOM      9  C   UNL A   1      33.111  24.096  25.480  1.00  0.00     0.067 C 
ATOM     10  C   UNL A   1      34.360  24.561  25.652  1.00  0.00     0.025 C 
ATOM     11  C   UNL A   1      32.826  23.272  24.248  1.00  0.00     0.314 C 
ATOM     12  C   UNL A   1      35.403  23.602  25.209  1.00  0.00     0.020 A 
ATOM     13  O   UNL A   1      33.747  22.155  24.153  1.00  0.00    -0.474 OA
ATOM     14  C   UNL A   1      36.701  23.783  25.703  1.00  0.00     0.032 A 
ATOM     15  C   UNL A   1      35.016  22.368  24.646  1.00  0.00     0.143 A 
ATOM     16  C   UNL A   1      37.581  22.704  25.721  1.00  0.00     0.043 A 
ATOM     17  C   UNL A   1      35.885  21.273  24.744  1.00  0.00     0.069 A 
ATOM     18  Cl  UNL A   1      39.107  22.870  26.497  1.00  0.00    -0.084 Cl
ATOM     19  C   UNL A   1      37.175  21.454  25.261  1.00  0.00     0.041 A 
BRANCH  11  20
ATOM     20  C   UNL A   1      32.799  24.153  22.982  1.00  0.00     0.429 C 
ATOM     21  F   UNL A   1      33.183  23.462  21.883  1.00  0.00    -0.167 F 
ATOM     22  F   UNL A   1      31.546  24.616  22.733  1.00  0.00    -0.167 F 
ATOM     23  F   UNL A   1      33.602  25.239  23.078  1.00  0.00    -0.167 F 
ENDBRANCH  11  20
BRANCH  17  24
ATOM     24  C   UNL A   1      35.417  19.920  24.614  1.00  0.00    -0.058 C 
ATOM     25  C   UNL A   1      34.887  18.845  24.692  1.00  0.00    -0.062 C 
BRANCH  25  26
ATOM     26  C   UNL A   1      34.201  17.611  24.941  1.00  0.00     0.025 A 
ATOM     27  C   UNL A   1      32.842  17.597  25.265  1.00  0.00     0.017 A 
ATOM     28  C   UNL A   1      34.909  16.406  24.884  1.00  0.00     0.017 A 
ATOM     29  C   UNL A   1      32.192  16.382  25.503  1.00  0.00     0.001 A 
ATOM     30  C   UNL A   1      34.260  15.194  25.124  1.00  0.00     0.001 A 
ATOM     31  C   UNL A   1      32.899  15.182  25.427  1.00  0.00     0.000 A 
ENDBRANCH  25  26
ENDBRANCH  17  24
ENDBRANCH   7   9
ENDBRANCH   4   5
ENDBRANCH   3   4
ENDBRANCH   2   3
ENDBRANCH   1   2
BRANCH   1  32
ATOM     32  C   UNL A   1      32.951  27.582  26.562  1.00  0.00     0.021 C 
BRANCH  32  33
ATOM     33  C   UNL A   1      34.233  28.351  26.865  1.00  0.00     0.116 C 
BRANCH  33  34
ATOM     34  N   UNL A   1      33.981  29.666  27.425  1.00  0.00    -0.352 N 
ATOM     35  C   UNL A   1      34.778  30.462  28.211  1.00  0.00     0.251 C 
ATOM     36  H   UNL A   1      33.100  30.049  27.207  1.00  0.00     0.163 HD
ATOM     37  O   UNL A   1      34.307  31.484  28.705  1.00  0.00    -0.269 OA
BRANCH  35  38
ATOM     38  C   UNL A   1      36.186  30.092  28.487  1.00  0.00     0.039 A 
ATOM     39  C   UNL A   1      37.116  30.181  27.447  1.00  0.00     0.014 A 
ATOM     40  C   UNL A   1      36.588  29.622  29.741  1.00  0.00     0.014 A 
ATOM     41  C   UNL A   1      38.453  29.845  27.675  1.00  0.00     0.010 A 
ATOM     42  C   UNL A   1      37.936  29.359  29.988  1.00  0.00     0.010 A 
ATOM     43  C   UNL A   1      38.881  29.458  28.955  1.00  0.00    -0.014 A 
BRANCH  43  44
ATOM     44  C   UNL A   1      40.309  29.146  29.224  1.00  0.00     0.031 A 
ATOM     45  C   UNL A   1      40.875  27.797  28.867  1.00  0.00     0.074 A 
ATOM     46  C   UNL A   1      41.089  30.062  29.833  1.00  0.00     0.049 A 
ATOM     47  N   UNL A   1      42.083  27.333  29.056  1.00  0.00    -0.248 NA
ATOM     48  C   UNL A   1      39.956  26.837  28.235  1.00  0.00     0.031 C 
ATOM     49  C   UNL A   1      40.652  31.392  30.263  1.00  0.00     0.029 A 
ATOM     50  N   UNL A   1      42.411  30.013  30.199  1.00  0.00    -0.354 N 
ATOM     51  C   UNL A   1      42.067  26.026  28.579  1.00  0.00     0.074 A 
ATOM     52  C   UNL A   1      40.714  25.755  28.145  1.00  0.00     0.031 C 
ATOM     53  C   UNL A   1      41.692  32.039  30.812  1.00  0.00     0.029 A 
ATOM     54  C   UNL A   1      42.857  31.160  30.812  1.00  0.00     0.049 A 
ATOM     55  H   UNL A   1      42.986  29.229  30.039  1.00  0.00     0.167 HD
ATOM     56  C   UNL A   1      43.088  25.139  28.491  1.00  0.00     0.031 A 
ATOM     57  C   UNL A   1      44.062  31.469  31.327  1.00  0.00     0.031 A 
ATOM     58  C   UNL A   1      44.432  25.413  28.929  1.00  0.00     0.049 A 
ATOM     59  C   UNL A   1      45.177  30.465  31.238  1.00  0.00     0.074 A 
ATOM     60  C   UNL A   1      45.547  24.598  28.844  1.00  0.00     0.029 A 
ATOM     61  N   UNL A   1      44.842  26.588  29.542  1.00  0.00    -0.354 N 
ATOM     62  N   UNL A   1      45.159  29.257  30.724  1.00  0.00    -0.248 NA
ATOM     63  C   UNL A   1      46.481  30.868  31.785  1.00  0.00     0.031 C 
ATOM     64  C   UNL A   1      46.618  25.257  29.458  1.00  0.00     0.029 A 
ATOM     65  C   UNL A   1      46.187  26.510  29.864  1.00  0.00     0.049 A 
ATOM     66  H   UNL A   1      44.262  27.363  29.721  1.00  0.00     0.167 HD
ATOM     67  C   UNL A   1      46.451  28.766  30.864  1.00  0.00     0.074 A 
ATOM     68  C   UNL A   1      47.230  29.812  31.495  1.00  0.00     0.031 C 
ATOM     69  C   UNL A   1      46.949  27.557  30.501  1.00  0.00     0.031 A 
BRANCH  56  70
ATOM     70  C   UNL A   1      42.780  23.782  27.909  1.00  0.00    -0.014 A 
ATOM     71  C   UNL A   1      42.298  22.736  28.716  1.00  0.00     0.010 A 
ATOM     72  C   UNL A   1      42.956  23.554  26.532  1.00  0.00     0.010 A 
ATOM     73  C   UNL A   1      42.052  21.472  28.169  1.00  0.00     0.020 A 
ATOM     74  C   UNL A   1      42.680  22.301  25.974  1.00  0.00     0.020 A 
ATOM     75  C   UNL A   1      42.251  21.262  26.802  1.00  0.00     0.054 A 
BRANCH  75  76
ATOM     76  S   UNL A   1      41.925  19.613  26.122  1.00  0.00     0.124 S 
ATOM     77  O   UNL A   1      42.769  19.608  24.929  1.00  0.00    -0.237 OA
ATOM     78  O   UNL A   1      42.358  18.729  27.201  1.00  0.00    -0.237 OA
ATOM     79  O   UNL A   1      40.487  19.621  25.865  1.00  0.00    -0.744 OA
ENDBRANCH  75  76
ENDBRANCH  56  70
BRANCH  57  80
ATOM     80  C   UNL A   1      44.273  32.800  31.961  1.00  0.00    -0.014 A 
ATOM     81  C   UNL A   1      44.039  32.986  33.335  1.00  0.00     0.010 A 
ATOM     82  C   UNL A   1      44.747  33.883  31.197  1.00  0.00     0.010 A 
ATOM     83  C   UNL A   1      44.266  34.230  33.931  1.00  0.00     0.020 A 
ATOM     84  C   UNL A   1      45.003  35.120  31.794  1.00  0.00     0.020 A 
ATOM     85  C   UNL A   1      44.754  35.287  33.158  1.00  0.00     0.054 A 
BRANCH  85  86
ATOM     86  S   UNL A   1      45.112  36.871  33.968  1.00  0.00     0.124 S 
ATOM     87  O   UNL A   1      45.346  36.460  35.349  1.00  0.00    -0.237 OA
ATOM     88  O   UNL A   1      46.287  37.339  33.237  1.00  0.00    -0.237 OA
ATOM     89  O   UNL A   1      43.897  37.652  33.744  1.00  0.00    -0.744 OA
ENDBRANCH  85  86
ENDBRANCH  57  80
BRANCH  69  90
ATOM     90  C   UNL A   1      48.414  27.307  30.747  1.00  0.00    -0.014 A 
ATOM     91  C   UNL A   1      49.378  27.565  29.757  1.00  0.00     0.010 A 
ATOM     92  C   UNL A   1      48.836  26.859  32.013  1.00  0.00     0.010 A 
ATOM     93  C   UNL A   1      50.734  27.349  30.017  1.00  0.00     0.020 A 
ATOM     94  C   UNL A   1      50.193  26.671  32.287  1.00  0.00     0.020 A 
ATOM     95  C   UNL A   1      51.133  26.905  31.282  1.00  0.00     0.054 A 
BRANCH  95  96
ATOM     96  S   UNL A   1      52.902  26.675  31.607  1.00  0.00     0.124 S 
ATOM     97  O   UNL A   1      53.038  25.223  31.544  1.00  0.00    -0.237 OA
ATOM     98  O   UNL A   1      53.527  27.413  30.512  1.00  0.00    -0.237 OA
ATOM     99  O   UNL A   1      53.090  27.261  32.932  1.00  0.00    -0.744 OA
ENDBRANCH  95  96
ENDBRANCH  69  90
ENDBRANCH  43  44
ENDBRANCH  35  38
ENDBRANCH  33  34
ENDBRANCH  32  33
ENDBRANCH   1  32
TORSDOF 19
ENDMDL
MODEL 3
REMARK VINA RESULT:     -10.7      2.724      8.246
REMARK SMILES O=C(NCCCCCCNC(=O)c1ccc(-c2c3nc(c(-c4ccc(S(=O)(=O)[O-])cc4)c4ccc([nH]4)c(-c4ccc(S(=O)(=O)[O-])cc4)c4nc(c(-c5ccc(S(=O)(=O)[O-])cc5)c5ccc2[nH]5)C=C4)C=C3)cc1)C1=Cc2cc(Cl)cc(C#Cc3ccccc3)c2O[C@@H]1C(F)(F)F
REMARK SMILES IDX 7 1 6 2 5 3 4 4 3 5 1 6 2 7 73 9 74 10 91 11 75 12 90 13
REMARK SMILES IDX 76 14 89 15 77 16 80 17 78 18 79 19 92 20 93 21 94 22 95 23
REMARK SMILES IDX 81 24 82 25 83 26 84 27 88 28 85 29 87 30 86 31 8 32 9 33
REMARK SMILES IDX 10 34 11 35 12 37 13 38 14 39 72 40 15 41 71 42 16 43 17 44
REMARK SMILES IDX 18 45 65 46 19 47 70 48 64 49 66 50 20 51 69 52 63 53 62 54
REMARK SMILES IDX 21 56 51 57 32 58 50 59 33 60 36 61 49 62 67 63 34 64 35 65
REMARK SMILES IDX 48 67 68 68 37 69 22 70 23 71 31 72 24 73 30 74 25 75 26 76
REMARK SMILES IDX 27 77 28 78 29 79 52 80 53 81 61 82 54 83 60 84 55 85 56 86
REMARK SMILES IDX 57 87 58 88 59 89 38 90 39 91 47 92 40 93 46 94 41 95 42 96
REMARK SMILES IDX 43 97 44 98 45 99
REMARK H PARENT 3 8 10 36 66 55 36 66
REMARK Flexibility Score: inf
ROOT
ATOM      1  C   UNL A   1      34.336  29.080  26.344  1.00  0.00     0.002 C 
ENDROOT
BRANCH   1   2
ATOM      2  C   UNL A   1      32.816  29.091  26.136  1.00  0.00     0.002 C 
BRANCH   2   3
ATOM      3  C   UNL A   1      31.978  28.286  27.129  1.00  0.00     0.021 C 
BRANCH   3   4
ATOM      4  C   UNL A   1      30.965  27.319  26.527  1.00  0.00     0.116 C 
BRANCH   4   5
ATOM      5  N   UNL A   1      31.115  25.926  26.912  1.00  0.00    -0.352 N 
ATOM      6  O   UNL A   1      32.066  23.893  27.003  1.00  0.00    -0.270 OA
ATOM      7  C   UNL A   1      31.990  24.985  26.441  1.00  0.00     0.251 C 
ATOM      8  H   UNL A   1      30.498  25.614  27.612  1.00  0.00     0.163 HD
BRANCH   7   9
ATOM      9  C   UNL A   1      32.944  25.267  25.322  1.00  0.00     0.067 C 
ATOM     10  C   UNL A   1      34.244  25.524  25.544  1.00  0.00     0.025 C 
ATOM     11  C   UNL A   1      32.576  24.512  24.068  1.00  0.00     0.314 C 
ATOM     12  C   UNL A   1      35.136  24.414  25.123  1.00  0.00     0.020 A 
ATOM     13  O   UNL A   1      33.310  23.263  23.987  1.00  0.00    -0.474 OA
ATOM     14  C   UNL A   1      36.427  24.380  25.664  1.00  0.00     0.032 A 
ATOM     15  C   UNL A   1      34.578  23.264  24.527  1.00  0.00     0.143 A 
ATOM     16  C   UNL A   1      37.122  23.174  25.696  1.00  0.00     0.043 A 
ATOM     17  C   UNL A   1      35.256  22.043  24.638  1.00  0.00     0.069 A 
ATOM     18  Cl  UNL A   1      38.626  23.085  26.527  1.00  0.00    -0.084 Cl
ATOM     19  C   UNL A   1      36.539  22.010  25.202  1.00  0.00     0.041 A 
BRANCH  11  20
ATOM     20  C   UNL A   1      32.737  25.399  22.817  1.00  0.00     0.429 C 
ATOM     21  F   UNL A   1      33.891  25.133  22.160  1.00  0.00    -0.167 F 
ATOM     22  F   UNL A   1      31.729  25.186  21.932  1.00  0.00    -0.167 F 
ATOM     23  F   UNL A   1      32.730  26.722  23.103  1.00  0.00    -0.167 F 
ENDBRANCH  11  20
BRANCH  17  24
ATOM     24  C   UNL A   1      34.583  20.785  24.471  1.00  0.00    -0.058 C 
ATOM     25  C   UNL A   1      34.151  19.665  24.520  1.00  0.00    -0.062 C 
BRANCH  25  26
ATOM     26  C   UNL A   1      33.768  18.292  24.680  1.00  0.00     0.025 A 
ATOM     27  C   UNL A   1      34.370  17.285  23.922  1.00  0.00     0.017 A 
ATOM     28  C   UNL A   1      32.758  17.962  25.590  1.00  0.00     0.017 A 
ATOM     29  C   UNL A   1      33.982  15.953  24.095  1.00  0.00     0.001 A 
ATOM     30  C   UNL A   1      32.371  16.632  25.761  1.00  0.00     0.001 A 
ATOM     31  C   UNL A   1      32.987  15.626  25.018  1.00  0.00     0.000 A 
ENDBRANCH  25  26
ENDBRANCH  17  24
ENDBRANCH   7   9
ENDBRANCH   4   5
ENDBRANCH   3   4
ENDBRANCH   2   3
ENDBRANCH   1   2
BRANCH   1  32
ATOM     32  C   UNL A   1      34.841  29.279  27.776  1.00  0.00     0.021 C 
BRANCH  32  33
ATOM     33  C   UNL A   1      35.358  30.671  28.126  1.00  0.00     0.116 C 
BRANCH  33  34
ATOM     34  N   UNL A   1      35.328  30.941  29.552  1.00  0.00    -0.352 N 
ATOM     35  C   UNL A   1      36.310  30.799  30.501  1.00  0.00     0.251 C 
ATOM     36  H   UNL A   1      34.468  31.280  29.893  1.00  0.00     0.163 HD
ATOM     37  O   UNL A   1      36.025  30.942  31.688  1.00  0.00    -0.269 OA
BRANCH  35  38
ATOM     38  C   UNL A   1      37.698  30.454  30.115  1.00  0.00     0.039 A 
ATOM     39  C   UNL A   1      38.508  29.800  31.049  1.00  0.00     0.014 A 
ATOM     40  C   UNL A   1      38.220  30.802  28.866  1.00  0.00     0.014 A 
ATOM     41  C   UNL A   1      39.819  29.454  30.715  1.00  0.00     0.010 A 
ATOM     42  C   UNL A   1      39.503  30.390  28.507  1.00  0.00     0.010 A 
ATOM     43  C   UNL A   1      40.321  29.721  29.431  1.00  0.00    -0.014 A 
BRANCH  43  44
ATOM     44  C   UNL A   1      41.698  29.315  29.046  1.00  0.00     0.031 A 
ATOM     45  C   UNL A   1      41.977  27.907  28.589  1.00  0.00     0.074 A 
ATOM     46  C   UNL A   1      42.709  30.200  29.151  1.00  0.00     0.049 A 
ATOM     47  N   UNL A   1      43.116  27.362  28.247  1.00  0.00    -0.248 NA
ATOM     48  C   UNL A   1      40.831  26.987  28.531  1.00  0.00     0.031 C 
ATOM     49  C   UNL A   1      42.575  31.583  29.616  1.00  0.00     0.029 A 
ATOM     50  N   UNL A   1      44.047  30.069  28.878  1.00  0.00    -0.354 N 
ATOM     51  C   UNL A   1      42.827  26.035  27.945  1.00  0.00     0.074 A 
ATOM     52  C   UNL A   1      41.416  25.845  28.200  1.00  0.00     0.031 C 
ATOM     53  C   UNL A   1      43.778  32.178  29.572  1.00  0.00     0.029 A 
ATOM     54  C   UNL A   1      44.774  31.212  29.119  1.00  0.00     0.049 A 
ATOM     55  H   UNL A   1      44.450  29.236  28.543  1.00  0.00     0.167 HD
ATOM     56  C   UNL A   1      43.654  25.068  27.479  1.00  0.00     0.031 A 
ATOM     57  C   UNL A   1      46.093  31.456  28.999  1.00  0.00     0.031 A 
ATOM     58  C   UNL A   1      45.059  25.261  27.232  1.00  0.00     0.049 A 
ATOM     59  C   UNL A   1      46.998  30.364  28.500  1.00  0.00     0.074 A 
ATOM     60  C   UNL A   1      45.974  24.359  26.720  1.00  0.00     0.029 A 
ATOM     61  N   UNL A   1      45.755  26.434  27.487  1.00  0.00    -0.354 N 
ATOM     62  N   UNL A   1      46.694  29.134  28.158  1.00  0.00    -0.248 NA
ATOM     63  C   UNL A   1      48.423  30.695  28.357  1.00  0.00     0.031 C 
ATOM     64  C   UNL A   1      47.234  24.966  26.719  1.00  0.00     0.029 A 
ATOM     65  C   UNL A   1      47.093  26.270  27.167  1.00  0.00     0.049 A 
ATOM     66  H   UNL A   1      45.356  27.261  27.842  1.00  0.00     0.167 HD
ATOM     67  C   UNL A   1      47.883  28.552  27.736  1.00  0.00     0.074 A 
ATOM     68  C   UNL A   1      48.909  29.569  27.850  1.00  0.00     0.031 C 
ATOM     69  C   UNL A   1      48.106  27.289  27.293  1.00  0.00     0.031 A 
BRANCH  56  70
ATOM     70  C   UNL A   1      43.055  23.708  27.221  1.00  0.00    -0.014 A 
ATOM     71  C   UNL A   1      42.540  23.367  25.957  1.00  0.00     0.010 A 
ATOM     72  C   UNL A   1      43.023  22.749  28.250  1.00  0.00     0.010 A 
ATOM     73  C   UNL A   1      41.954  22.116  25.743  1.00  0.00     0.020 A 
ATOM     74  C   UNL A   1      42.468  21.484  28.031  1.00  0.00     0.020 A 
ATOM     75  C   UNL A   1      41.916  21.185  26.784  1.00  0.00     0.054 A 
BRANCH  75  76
ATOM     76  S   UNL A   1      41.149  19.570  26.477  1.00  0.00     0.124 S 
ATOM     77  O   UNL A   1      39.936  19.946  25.754  1.00  0.00    -0.237 OA
ATOM     78  O   UNL A   1      42.163  18.878  25.685  1.00  0.00    -0.237 OA
ATOM     79  O   UNL A   1      40.931  19.028  27.817  1.00  0.00    -0.744 OA
ENDBRANCH  75  76
ENDBRANCH  56  70
BRANCH  57  80
ATOM     80  C   UNL A   1      46.628  32.800  29.350  1.00  0.00    -0.014 A 
ATOM     81  C   UNL A   1      47.044  33.088  30.662  1.00  0.00     0.010 A 
ATOM     82  C   UNL A   1      46.761  33.791  28.360  1.00  0.00     0.010 A 
ATOM     83  C   UNL A   1      47.573  34.342  30.979  1.00  0.00     0.020 A 
ATOM     84  C   UNL A   1      47.316  35.037  28.666  1.00  0.00     0.020 A 
ATOM     85  C   UNL A   1      47.712  35.307  29.977  1.00  0.00     0.054 A 
BRANCH  85  86
ATOM     86  S   UNL A   1      48.470  36.901  30.396  1.00  0.00     0.124 S 
ATOM     87  O   UNL A   1      47.859  37.795  29.417  1.00  0.00    -0.237 OA
ATOM     88  O   UNL A   1      48.048  37.094  31.781  1.00  0.00    -0.237 OA
ATOM     89  O   UNL A   1      49.900  36.658  30.217  1.00  0.00    -0.744 OA
ENDBRANCH  85  86
ENDBRANCH  57  80
BRANCH  69  90
ATOM     90  C   UNL A   1      49.508  26.940  26.867  1.00  0.00    -0.014 A 
ATOM     91  C   UNL A   1      49.975  27.235  25.573  1.00  0.00     0.010 A 
ATOM     92  C   UNL A   1      50.390  26.359  27.796  1.00  0.00     0.010 A 
ATOM     93  C   UNL A   1      51.287  26.925  25.207  1.00  0.00     0.020 A 
ATOM     94  C   UNL A   1      51.712  26.076  27.445  1.00  0.00     0.020 A 
ATOM     95  C   UNL A   1      52.148  26.348  26.147  1.00  0.00     0.054 A 
BRANCH  95  96
ATOM     96  S   UNL A   1      53.860  25.997  25.661  1.00  0.00     0.124 S 
ATOM     97  O   UNL A   1      54.482  27.314  25.761  1.00  0.00    -0.237 OA
ATOM     98  O   UNL A   1      54.284  25.023  26.664  1.00  0.00    -0.237 OA
ATOM     99  O   UNL A   1      53.734  25.469  24.305  1.00  0.00    -0.744 OA
ENDBRANCH  95  96
ENDBRANCH  69  90
ENDBRANCH  43  44
ENDBRANCH  35  38
ENDBRANCH  33  34
ENDBRANCH  32  33
ENDBRANCH   1  32
TORSDOF 19
ENDMDL
