MODEL 1
REMARK VINA RESULT:     -11.9      0.000      0.000
REMARK SMILES O=C1C[C@@H](C(=O)NCCCCCCNC(=O)c2ccc(-c3c4nc(c(-c5ccc(S(=O)(=O)[O-])cc5)c5ccc([nH]5)c(-c5ccc(S(=O)(=O)[O-])cc5)c5nc(c(-c6ccc(S(=O)(=O)[O-])cc6)c6ccc3[nH]6)C=C5)C=C4)cc2)C2(CC[NH+](Cc3c[nH]nc3-c3ccc(Cl)cc3)CC2)N1
REMARK SMILES IDX 10 1 9 2 8 3 7 4 5 5 6 6 4 8 1 9 2 10 3 11 96 12 77 13 78 15
REMARK SMILES IDX 95 16 79 17 94 18 80 19 81 21 82 22 83 23 86 24 84 25 85 26
REMARK SMILES IDX 87 28 88 29 93 30 89 31 92 32 90 33 91 34 11 35 12 36 13 37
REMARK SMILES IDX 14 38 15 39 16 41 17 42 18 43 76 44 19 45 75 46 20 47 21 48
REMARK SMILES IDX 22 49 69 50 23 51 74 52 68 53 70 54 24 55 73 56 67 57 66 58
REMARK SMILES IDX 25 60 55 61 36 62 54 63 37 64 40 65 53 66 71 67 38 68 39 69
REMARK SMILES IDX 52 71 72 72 41 73 26 74 27 75 35 76 28 77 34 78 29 79 30 80
REMARK SMILES IDX 31 81 32 82 33 83 56 84 57 85 65 86 58 87 64 88 59 89 60 90
REMARK SMILES IDX 61 91 62 92 63 93 42 94 43 95 51 96 44 97 50 98 45 99 46 100
REMARK SMILES IDX 47 101 48 102 49 103
REMARK H PARENT 7 7 96 14 80 20 84 27 14 40 70 59 40 70
REMARK Flexibility Score: inf
ROOT
ATOM      1  C   UNL A   1      35.311  29.349  27.003  1.00  0.00     0.002 C 
ENDROOT
BRANCH   1   2
ATOM      2  C   UNL A   1      34.387  28.408  26.231  1.00  0.00     0.021 C 
BRANCH   2   3
ATOM      3  C   UNL A   1      33.817  29.006  24.942  1.00  0.00     0.116 C 
BRANCH   3   4
ATOM      4  N   UNL A   1      32.593  29.762  25.149  1.00  0.00    -0.356 N 
ATOM      5  C   UNL A   1      31.414  29.823  24.476  1.00  0.00     0.226 C 
ATOM      6  O   UNL A   1      30.575  30.622  24.912  1.00  0.00    -0.275 OA
ATOM      7  H   UNL A   1      32.624  30.349  25.938  1.00  0.00     0.163 HD
BRANCH   5   8
ATOM      8  C   UNL A   1      31.070  29.008  23.224  1.00  0.00     0.114 C 
ATOM      9  O   UNL A   1      27.732  29.311  21.984  1.00  0.00    -0.275 OA
ATOM     10  C   UNL A   1      28.815  28.986  22.427  1.00  0.00     0.221 C 
ATOM     11  C   UNL A   1      30.102  29.751  22.294  1.00  0.00     0.116 C 
ATOM     12  N   UNL A   1      29.058  27.849  23.165  1.00  0.00    -0.349 N 
ATOM     13  C   UNL A   1      30.472  27.595  23.408  1.00  0.00     0.063 C 
ATOM     14  H   UNL A   1      28.342  27.261  23.497  1.00  0.00     0.164 HD
ATOM     15  C   UNL A   1      30.696  27.006  24.810  1.00  0.00     0.091 C 
ATOM     16  C   UNL A   1      30.915  26.627  22.271  1.00  0.00     0.091 C 
ATOM     17  C   UNL A   1      31.945  26.154  24.941  1.00  0.00     0.264 C 
ATOM     18  C   UNL A   1      32.016  25.625  22.614  1.00  0.00     0.264 C 
ATOM     19  N   UNL A   1      31.988  25.088  23.964  1.00  0.00    -0.331 N 
ATOM     20  H   UNL A   1      32.887  24.618  24.061  1.00  0.00     0.348 HD
BRANCH  19  21
ATOM     21  C   UNL A   1      31.184  23.888  24.248  1.00  0.00     0.303 C 
BRANCH  21  22
ATOM     22  C   UNL A   1      31.175  23.410  25.668  1.00  0.00     0.052 A 
ATOM     23  C   UNL A   1      30.059  23.177  26.454  1.00  0.00     0.115 A 
ATOM     24  C   UNL A   1      32.264  22.948  26.493  1.00  0.00     0.101 A 
ATOM     25  N   UNL A   1      30.507  22.786  27.675  1.00  0.00    -0.285 N 
ATOM     26  N   UNL A   1      31.832  22.644  27.728  1.00  0.00    -0.175 NA
ATOM     27  H   UNL A   1      29.914  22.624  28.444  1.00  0.00     0.189 HD
BRANCH  24  28
ATOM     28  C   UNL A   1      33.675  22.729  26.170  1.00  0.00     0.003 A 
ATOM     29  C   UNL A   1      34.097  21.428  25.852  1.00  0.00     0.012 A 
ATOM     30  C   UNL A   1      34.630  23.750  26.210  1.00  0.00     0.012 A 
ATOM     31  C   UNL A   1      35.433  21.163  25.537  1.00  0.00     0.021 A 
ATOM     32  C   UNL A   1      35.968  23.491  25.888  1.00  0.00     0.021 A 
ATOM     33  C   UNL A   1      36.361  22.200  25.544  1.00  0.00     0.041 A 
ATOM     34  Cl  UNL A   1      38.002  21.888  25.135  1.00  0.00    -0.084 Cl
ENDBRANCH  24  28
ENDBRANCH  21  22
ENDBRANCH  19  21
ENDBRANCH   5   8
ENDBRANCH   3   4
ENDBRANCH   2   3
ENDBRANCH   1   2
BRANCH   1  35
ATOM     35  C   UNL A   1      34.589  30.257  28.001  1.00  0.00     0.002 C 
BRANCH  35  36
ATOM     36  C   UNL A   1      34.959  31.739  27.898  1.00  0.00     0.021 C 
BRANCH  36  37
ATOM     37  C   UNL A   1      36.018  32.193  28.896  1.00  0.00     0.116 C 
BRANCH  37  38
ATOM     38  N   UNL A   1      35.783  31.623  30.212  1.00  0.00    -0.352 N 
ATOM     39  C   UNL A   1      36.508  30.673  30.882  1.00  0.00     0.251 C 
ATOM     40  H   UNL A   1      34.993  31.968  30.688  1.00  0.00     0.163 HD
ATOM     41  O   UNL A   1      36.028  30.111  31.863  1.00  0.00    -0.269 OA
BRANCH  39  42
ATOM     42  C   UNL A   1      37.864  30.327  30.411  1.00  0.00     0.039 A 
ATOM     43  C   UNL A   1      38.862  30.068  31.352  1.00  0.00     0.014 A 
ATOM     44  C   UNL A   1      38.148  30.269  29.044  1.00  0.00     0.014 A 
ATOM     45  C   UNL A   1      40.140  29.712  30.917  1.00  0.00     0.010 A 
ATOM     46  C   UNL A   1      39.397  29.836  28.614  1.00  0.00     0.010 A 
ATOM     47  C   UNL A   1      40.411  29.568  29.546  1.00  0.00    -0.014 A 
BRANCH  47  48
ATOM     48  C   UNL A   1      41.754  29.147  29.073  1.00  0.00     0.031 A 
ATOM     49  C   UNL A   1      42.874  30.145  28.983  1.00  0.00     0.074 A 
ATOM     50  C   UNL A   1      41.945  27.876  28.670  1.00  0.00     0.049 A 
ATOM     51  N   UNL A   1      44.105  29.969  28.573  1.00  0.00    -0.248 NA
ATOM     52  C   UNL A   1      42.567  31.530  29.376  1.00  0.00     0.031 C 
ATOM     53  C   UNL A   1      40.920  26.830  28.655  1.00  0.00     0.029 A 
ATOM     54  N   UNL A   1      43.066  27.250  28.186  1.00  0.00    -0.354 N 
ATOM     55  C   UNL A   1      44.709  31.219  28.639  1.00  0.00     0.074 A 
ATOM     56  C   UNL A   1      43.696  32.154  29.077  1.00  0.00     0.031 C 
ATOM     57  C   UNL A   1      41.464  25.687  28.208  1.00  0.00     0.029 A 
ATOM     58  C   UNL A   1      42.862  25.929  27.863  1.00  0.00     0.049 A 
ATOM     59  H   UNL A   1      43.933  27.702  28.080  1.00  0.00     0.167 HD
ATOM     60  C   UNL A   1      45.995  31.556  28.376  1.00  0.00     0.031 A 
ATOM     61  C   UNL A   1      43.700  25.015  27.336  1.00  0.00     0.031 A 
ATOM     62  C   UNL A   1      46.995  30.617  27.937  1.00  0.00     0.049 A 
ATOM     63  C   UNL A   1      45.124  25.404  27.056  1.00  0.00     0.074 A 
ATOM     64  C   UNL A   1      48.342  30.840  27.712  1.00  0.00     0.029 A 
ATOM     65  N   UNL A   1      46.755  29.283  27.643  1.00  0.00    -0.354 N 
ATOM     66  N   UNL A   1      45.705  26.570  27.216  1.00  0.00    -0.248 NA
ATOM     67  C   UNL A   1      46.011  24.353  26.543  1.00  0.00     0.031 C 
ATOM     68  C   UNL A   1      48.901  29.658  27.212  1.00  0.00     0.029 A 
ATOM     69  C   UNL A   1      47.920  28.677  27.201  1.00  0.00     0.049 A 
ATOM     70  H   UNL A   1      45.885  28.832  27.735  1.00  0.00     0.167 HD
ATOM     71  C   UNL A   1      47.031  26.389  26.842  1.00  0.00     0.074 A 
ATOM     72  C   UNL A   1      47.170  24.995  26.467  1.00  0.00     0.031 C 
ATOM     73  C   UNL A   1      48.042  27.292  26.815  1.00  0.00     0.031 A 
BRANCH  60  74
ATOM     74  C   UNL A   1      46.377  33.007  28.523  1.00  0.00    -0.014 A 
ATOM     75  C   UNL A   1      46.237  33.918  27.460  1.00  0.00     0.010 A 
ATOM     76  C   UNL A   1      46.877  33.472  29.754  1.00  0.00     0.010 A 
ATOM     77  C   UNL A   1      46.649  35.247  27.603  1.00  0.00     0.020 A 
ATOM     78  C   UNL A   1      47.257  34.808  29.913  1.00  0.00     0.020 A 
ATOM     79  C   UNL A   1      47.163  35.681  28.829  1.00  0.00     0.054 A 
BRANCH  79  80
ATOM     80  S   UNL A   1      47.697  37.407  28.984  1.00  0.00     0.124 S 
ATOM     81  O   UNL A   1      47.620  37.617  30.428  1.00  0.00    -0.237 OA
ATOM     82  O   UNL A   1      49.047  37.376  28.427  1.00  0.00    -0.237 OA
ATOM     83  O   UNL A   1      46.716  38.147  28.195  1.00  0.00    -0.744 OA
ENDBRANCH  79  80
ENDBRANCH  60  74
BRANCH  61  84
ATOM     84  C   UNL A   1      43.196  23.643  27.049  1.00  0.00    -0.014 A 
ATOM     85  C   UNL A   1      42.854  23.258  25.741  1.00  0.00     0.010 A 
ATOM     86  C   UNL A   1      43.113  22.694  28.085  1.00  0.00     0.010 A 
ATOM     87  C   UNL A   1      42.438  21.949  25.476  1.00  0.00     0.020 A 
ATOM     88  C   UNL A   1      42.727  21.378  27.818  1.00  0.00     0.020 A 
ATOM     89  C   UNL A   1      42.387  21.015  26.515  1.00  0.00     0.054 A 
BRANCH  89  90
ATOM     90  S   UNL A   1      41.929  19.302  26.130  1.00  0.00     0.124 S 
ATOM     91  O   UNL A   1      42.756  19.021  24.961  1.00  0.00    -0.237 OA
ATOM     92  O   UNL A   1      42.299  18.596  27.353  1.00  0.00    -0.237 OA
ATOM     93  O   UNL A   1      40.491  19.381  25.875  1.00  0.00    -0.744 OA
ENDBRANCH  89  90
ENDBRANCH  61  84
BRANCH  73  94
ATOM     94  C   UNL A   1      49.402  26.801  26.387  1.00  0.00    -0.014 A 
ATOM     95  C   UNL A   1      50.297  26.227  27.307  1.00  0.00     0.010 A 
ATOM     96  C   UNL A   1      49.766  26.868  25.029  1.00  0.00     0.010 A 
ATOM     97  C   UNL A   1      51.545  25.763  26.882  1.00  0.00     0.020 A 
ATOM     98  C   UNL A   1      50.997  26.373  24.595  1.00  0.00     0.020 A 
ATOM     99  C   UNL A   1      51.887  25.838  25.528  1.00  0.00     0.054 A 
BRANCH  99 100
ATOM    100  S   UNL A   1      53.496  25.192  24.996  1.00  0.00     0.124 S 
ATOM    101  O   UNL A   1      53.510  25.542  23.579  1.00  0.00    -0.237 OA
ATOM    102  O   UNL A   1      54.433  25.934  25.837  1.00  0.00    -0.237 OA
ATOM    103  O   UNL A   1      53.408  23.762  25.284  1.00  0.00    -0.744 OA
ENDBRANCH  99 100
ENDBRANCH  73  94
ENDBRANCH  47  48
ENDBRANCH  39  42
ENDBRANCH  37  38
ENDBRANCH  36  37
ENDBRANCH  35  36
ENDBRANCH   1  35
TORSDOF 19
ENDMDL
MODEL 2
REMARK VINA RESULT:     -10.8      1.656      2.270
REMARK SMILES O=C1C[C@@H](C(=O)NCCCCCCNC(=O)c2ccc(-c3c4nc(c(-c5ccc(S(=O)(=O)[O-])cc5)c5ccc([nH]5)c(-c5ccc(S(=O)(=O)[O-])cc5)c5nc(c(-c6ccc(S(=O)(=O)[O-])cc6)c6ccc3[nH]6)C=C5)C=C4)cc2)C2(CC[NH+](Cc3c[nH]nc3-c3ccc(Cl)cc3)CC2)N1
REMARK SMILES IDX 10 1 9 2 8 3 7 4 5 5 6 6 4 8 1 9 2 10 3 11 96 12 77 13 78 15
REMARK SMILES IDX 95 16 79 17 94 18 80 19 81 21 82 22 83 23 86 24 84 25 85 26
REMARK SMILES IDX 87 28 88 29 93 30 89 31 92 32 90 33 91 34 11 35 12 36 13 37
REMARK SMILES IDX 14 38 15 39 16 41 17 42 18 43 76 44 19 45 75 46 20 47 21 48
REMARK SMILES IDX 22 49 69 50 23 51 74 52 68 53 70 54 24 55 73 56 67 57 66 58
REMARK SMILES IDX 25 60 55 61 36 62 54 63 37 64 40 65 53 66 71 67 38 68 39 69
REMARK SMILES IDX 52 71 72 72 41 73 26 74 27 75 35 76 28 77 34 78 29 79 30 80
REMARK SMILES IDX 31 81 32 82 33 83 56 84 57 85 65 86 58 87 64 88 59 89 60 90
REMARK SMILES IDX 61 91 62 92 63 93 42 94 43 95 51 96 44 97 50 98 45 99 46 100
REMARK SMILES IDX 47 101 48 102 49 103
REMARK H PARENT 7 7 96 14 80 20 84 27 14 40 70 59 40 70
REMARK Flexibility Score: inf
ROOT
ATOM      1  C   UNL A   1      35.971  30.092  27.540  1.00  0.00     0.002 C 
ENDROOT
BRANCH   1   2
ATOM      2  C   UNL A   1      34.773  29.281  27.047  1.00  0.00     0.021 C 
BRANCH   2   3
ATOM      3  C   UNL A   1      33.420  29.787  27.553  1.00  0.00     0.116 C 
BRANCH   3   4
ATOM      4  N   UNL A   1      32.419  28.740  27.669  1.00  0.00    -0.356 N 
ATOM      5  C   UNL A   1      31.796  27.945  26.759  1.00  0.00     0.226 C 
ATOM      6  O   UNL A   1      30.945  27.165  27.205  1.00  0.00    -0.275 OA
ATOM      7  H   UNL A   1      32.134  28.570  28.596  1.00  0.00     0.163 HD
BRANCH   5   8
ATOM      8  C   UNL A   1      32.051  27.969  25.248  1.00  0.00     0.114 C 
ATOM      9  O   UNL A   1      29.197  28.464  23.152  1.00  0.00    -0.275 OA
ATOM     10  C   UNL A   1      30.188  28.098  23.752  1.00  0.00     0.221 C 
ATOM     11  C   UNL A   1      31.141  28.970  24.521  1.00  0.00     0.116 C 
ATOM     12  N   UNL A   1      30.612  26.792  23.855  1.00  0.00    -0.349 N 
ATOM     13  C   UNL A   1      31.929  26.645  24.460  1.00  0.00     0.063 C 
ATOM     14  H   UNL A   1      30.074  26.027  23.548  1.00  0.00     0.164 HD
ATOM     15  C   UNL A   1      31.995  25.391  25.346  1.00  0.00     0.091 C 
ATOM     16  C   UNL A   1      32.925  26.590  23.264  1.00  0.00     0.091 C 
ATOM     17  C   UNL A   1      33.387  24.806  25.504  1.00  0.00     0.264 C 
ATOM     18  C   UNL A   1      34.181  25.741  23.456  1.00  0.00     0.264 C 
ATOM     19  N   UNL A   1      34.012  24.524  24.231  1.00  0.00    -0.331 N 
ATOM     20  H   UNL A   1      34.965  24.216  24.418  1.00  0.00     0.348 HD
BRANCH  19  21
ATOM     21  C   UNL A   1      33.608  23.283  23.548  1.00  0.00     0.303 C 
BRANCH  21  22
ATOM     22  C   UNL A   1      33.356  22.091  24.421  1.00  0.00     0.052 A 
ATOM     23  C   UNL A   1      32.185  21.356  24.496  1.00  0.00     0.115 A 
ATOM     24  C   UNL A   1      34.268  21.349  25.254  1.00  0.00     0.101 A 
ATOM     25  N   UNL A   1      32.382  20.390  25.430  1.00  0.00    -0.285 N 
ATOM     26  N   UNL A   1      33.627  20.365  25.906  1.00  0.00    -0.175 NA
ATOM     27  H   UNL A   1      31.676  19.770  25.727  1.00  0.00     0.189 HD
BRANCH  24  28
ATOM     28  C   UNL A   1      35.716  21.479  25.431  1.00  0.00     0.003 A 
ATOM     29  C   UNL A   1      36.217  22.648  26.025  1.00  0.00     0.012 A 
ATOM     30  C   UNL A   1      36.624  20.511  24.993  1.00  0.00     0.012 A 
ATOM     31  C   UNL A   1      37.591  22.825  26.218  1.00  0.00     0.021 A 
ATOM     32  C   UNL A   1      38.000  20.678  25.191  1.00  0.00     0.021 A 
ATOM     33  C   UNL A   1      38.476  21.832  25.811  1.00  0.00     0.041 A 
ATOM     34  Cl  UNL A   1      40.165  22.029  26.065  1.00  0.00    -0.084 Cl
ENDBRANCH  24  28
ENDBRANCH  21  22
ENDBRANCH  19  21
ENDBRANCH   5   8
ENDBRANCH   3   4
ENDBRANCH   2   3
ENDBRANCH   1   2
BRANCH   1  35
ATOM     35  C   UNL A   1      35.605  31.231  28.495  1.00  0.00     0.002 C 
BRANCH  35  36
ATOM     36  C   UNL A   1      36.705  32.279  28.688  1.00  0.00     0.021 C 
BRANCH  36  37
ATOM     37  C   UNL A   1      37.453  32.167  30.011  1.00  0.00     0.116 C 
BRANCH  37  38
ATOM     38  N   UNL A   1      36.992  31.026  30.785  1.00  0.00    -0.352 N 
ATOM     39  C   UNL A   1      37.516  29.762  30.852  1.00  0.00     0.251 C 
ATOM     40  H   UNL A   1      36.193  31.184  31.337  1.00  0.00     0.163 HD
ATOM     41  O   UNL A   1      36.857  28.848  31.340  1.00  0.00    -0.269 OA
BRANCH  39  42
ATOM     42  C   UNL A   1      38.874  29.508  30.328  1.00  0.00     0.039 A 
ATOM     43  C   UNL A   1      39.082  29.528  28.948  1.00  0.00     0.014 A 
ATOM     44  C   UNL A   1      39.934  29.242  31.200  1.00  0.00     0.014 A 
ATOM     45  C   UNL A   1      40.366  29.318  28.444  1.00  0.00     0.010 A 
ATOM     46  C   UNL A   1      41.225  29.114  30.701  1.00  0.00     0.010 A 
ATOM     47  C   UNL A   1      41.453  29.135  29.317  1.00  0.00    -0.014 A 
BRANCH  47  48
ATOM     48  C   UNL A   1      42.830  28.955  28.794  1.00  0.00     0.031 A 
ATOM     49  C   UNL A   1      43.810  30.095  28.829  1.00  0.00     0.074 A 
ATOM     50  C   UNL A   1      43.178  27.781  28.234  1.00  0.00     0.049 A 
ATOM     51  N   UNL A   1      45.045  30.134  28.399  1.00  0.00    -0.248 NA
ATOM     52  C   UNL A   1      43.332  31.368  29.393  1.00  0.00     0.031 C 
ATOM     53  C   UNL A   1      42.297  26.619  28.088  1.00  0.00     0.029 A 
ATOM     54  N   UNL A   1      44.362  27.372  27.674  1.00  0.00    -0.354 N 
ATOM     55  C   UNL A   1      45.483  31.434  28.621  1.00  0.00     0.074 A 
ATOM     56  C   UNL A   1      44.365  32.167  29.173  1.00  0.00     0.031 C 
ATOM     57  C   UNL A   1      42.977  25.622  27.500  1.00  0.00     0.029 A 
ATOM     58  C   UNL A   1      44.325  26.086  27.188  1.00  0.00     0.049 A 
ATOM     59  H   UNL A   1      45.161  27.943  27.625  1.00  0.00     0.167 HD
ATOM     60  C   UNL A   1      46.710  31.967  28.400  1.00  0.00     0.031 A 
ATOM     61  C   UNL A   1      45.265  25.363  26.549  1.00  0.00     0.031 A 
ATOM     62  C   UNL A   1      47.816  31.229  27.847  1.00  0.00     0.049 A 
ATOM     63  C   UNL A   1      46.622  25.967  26.319  1.00  0.00     0.074 A 
ATOM     64  C   UNL A   1      49.118  31.653  27.649  1.00  0.00     0.029 A 
ATOM     65  N   UNL A   1      47.745  29.922  27.387  1.00  0.00    -0.354 N 
ATOM     66  N   UNL A   1      47.049  27.170  26.623  1.00  0.00    -0.248 NA
ATOM     67  C   UNL A   1      47.628  25.113  25.677  1.00  0.00     0.031 C 
ATOM     68  C   UNL A   1      49.816  30.626  27.004  1.00  0.00     0.029 A 
ATOM     69  C   UNL A   1      48.972  29.534  26.871  1.00  0.00     0.049 A 
ATOM     70  H   UNL A   1      46.943  29.353  27.422  1.00  0.00     0.167 HD
ATOM     71  C   UNL A   1      48.381  27.211  26.228  1.00  0.00     0.074 A 
ATOM     72  C   UNL A   1      48.693  25.906  25.681  1.00  0.00     0.031 C 
ATOM     73  C   UNL A   1      49.265  28.236  26.313  1.00  0.00     0.031 A 
BRANCH  60  74
ATOM     74  C   UNL A   1      46.903  33.426  28.729  1.00  0.00    -0.014 A 
ATOM     75  C   UNL A   1      47.327  33.845  30.004  1.00  0.00     0.010 A 
ATOM     76  C   UNL A   1      46.666  34.398  27.739  1.00  0.00     0.010 A 
ATOM     77  C   UNL A   1      47.447  35.206  30.301  1.00  0.00     0.020 A 
ATOM     78  C   UNL A   1      46.819  35.759  28.022  1.00  0.00     0.020 A 
ATOM     79  C   UNL A   1      47.185  36.155  29.308  1.00  0.00     0.054 A 
BRANCH  79  80
ATOM     80  S   UNL A   1      47.341  37.913  29.724  1.00  0.00     0.124 S 
ATOM     81  O   UNL A   1      48.590  37.934  30.480  1.00  0.00    -0.237 OA
ATOM     82  O   UNL A   1      47.392  38.549  28.411  1.00  0.00    -0.237 OA
ATOM     83  O   UNL A   1      46.137  38.194  30.503  1.00  0.00    -0.744 OA
ENDBRANCH  79  80
ENDBRANCH  60  74
BRANCH  61  84
ATOM     84  C   UNL A   1      44.939  23.984  26.092  1.00  0.00    -0.014 A 
ATOM     85  C   UNL A   1      44.614  23.724  24.750  1.00  0.00     0.010 A 
ATOM     86  C   UNL A   1      45.011  22.908  26.997  1.00  0.00     0.010 A 
ATOM     87  C   UNL A   1      44.367  22.416  24.322  1.00  0.00     0.020 A 
ATOM     88  C   UNL A   1      44.794  21.596  26.567  1.00  0.00     0.020 A 
ATOM     89  C   UNL A   1      44.468  21.359  25.231  1.00  0.00     0.054 A 
BRANCH  89  90
ATOM     90  S   UNL A   1      44.229  19.663  24.633  1.00  0.00     0.124 S 
ATOM     91  O   UNL A   1      44.505  19.802  23.206  1.00  0.00    -0.237 OA
ATOM     92  O   UNL A   1      45.223  18.917  25.400  1.00  0.00    -0.237 OA
ATOM     93  O   UNL A   1      42.839  19.371  24.977  1.00  0.00    -0.744 OA
ENDBRANCH  89  90
ENDBRANCH  61  84
BRANCH  73  94
ATOM     94  C   UNL A   1      50.670  27.984  25.827  1.00  0.00    -0.014 A 
ATOM     95  C   UNL A   1      51.016  28.138  24.473  1.00  0.00     0.010 A 
ATOM     96  C   UNL A   1      51.671  27.639  26.754  1.00  0.00     0.010 A 
ATOM     97  C   UNL A   1      52.329  27.916  24.050  1.00  0.00     0.020 A 
ATOM     98  C   UNL A   1      52.992  27.451  26.341  1.00  0.00     0.020 A 
ATOM     99  C   UNL A   1      53.309  27.574  24.987  1.00  0.00     0.054 A 
BRANCH  99 100
ATOM    100  S   UNL A   1      55.015  27.330  24.419  1.00  0.00     0.124 S 
ATOM    101  O   UNL A   1      55.160  28.396  23.431  1.00  0.00    -0.237 OA
ATOM    102  O   UNL A   1      55.788  27.500  25.647  1.00  0.00    -0.237 OA
ATOM    103  O   UNL A   1      55.009  25.974  23.876  1.00  0.00    -0.744 OA
ENDBRANCH  99 100
ENDBRANCH  73  94
ENDBRANCH  47  48
ENDBRANCH  39  42
ENDBRANCH  37  38
ENDBRANCH  36  37
ENDBRANCH  35  36
ENDBRANCH   1  35
TORSDOF 19
ENDMDL
MODEL 3
REMARK VINA RESULT:     -10.5      7.950     15.427
REMARK SMILES O=C1C[C@@H](C(=O)NCCCCCCNC(=O)c2ccc(-c3c4nc(c(-c5ccc(S(=O)(=O)[O-])cc5)c5ccc([nH]5)c(-c5ccc(S(=O)(=O)[O-])cc5)c5nc(c(-c6ccc(S(=O)(=O)[O-])cc6)c6ccc3[nH]6)C=C5)C=C4)cc2)C2(CC[NH+](Cc3c[nH]nc3-c3ccc(Cl)cc3)CC2)N1
REMARK SMILES IDX 10 1 9 2 8 3 7 4 5 5 6 6 4 8 1 9 2 10 3 11 96 12 77 13 78 15
REMARK SMILES IDX 95 16 79 17 94 18 80 19 81 21 82 22 83 23 86 24 84 25 85 26
REMARK SMILES IDX 87 28 88 29 93 30 89 31 92 32 90 33 91 34 11 35 12 36 13 37
REMARK SMILES IDX 14 38 15 39 16 41 17 42 18 43 76 44 19 45 75 46 20 47 21 48
REMARK SMILES IDX 22 49 69 50 23 51 74 52 68 53 70 54 24 55 73 56 67 57 66 58
REMARK SMILES IDX 25 60 55 61 36 62 54 63 37 64 40 65 53 66 71 67 38 68 39 69
REMARK SMILES IDX 52 71 72 72 41 73 26 74 27 75 35 76 28 77 34 78 29 79 30 80
REMARK SMILES IDX 31 81 32 82 33 83 56 84 57 85 65 86 58 87 64 88 59 89 60 90
REMARK SMILES IDX 61 91 62 92 63 93 42 94 43 95 51 96 44 97 50 98 45 99 46 100
REMARK SMILES IDX 47 101 48 102 49 103
REMARK H PARENT 7 7 96 14 80 20 84 27 14 40 70 59 40 70
REMARK Flexibility Score: inf
ROOT
ATOM      1  C   UNL A   1      43.263  40.057  27.725  1.00  0.00     0.002 C 
ENDROOT
BRANCH   1   2
ATOM      2  C   UNL A   1      44.122  41.309  27.557  1.00  0.00     0.021 C 
BRANCH   2   3
ATOM      3  C   UNL A   1      44.137  41.875  26.134  1.00  0.00     0.116 C 
BRANCH   3   4
ATOM      4  N   UNL A   1      44.410  43.301  26.084  1.00  0.00    -0.356 N 
ATOM      5  C   UNL A   1      45.258  44.059  25.341  1.00  0.00     0.226 C 
ATOM      6  O   UNL A   1      45.266  45.272  25.586  1.00  0.00    -0.275 OA
ATOM      7  H   UNL A   1      43.869  43.827  26.718  1.00  0.00     0.163 HD
BRANCH   5   8
ATOM      8  C   UNL A   1      46.206  43.521  24.263  1.00  0.00     0.114 C 
ATOM      9  O   UNL A   1      49.213  45.372  23.708  1.00  0.00    -0.275 OA
ATOM     10  C   UNL A   1      48.148  44.790  23.677  1.00  0.00     0.221 C 
ATOM     11  C   UNL A   1      47.682  43.726  24.632  1.00  0.00     0.116 C 
ATOM     12  N   UNL A   1      47.148  45.018  22.758  1.00  0.00    -0.349 N 
ATOM     13  C   UNL A   1      46.057  44.056  22.820  1.00  0.00     0.063 C 
ATOM     14  H   UNL A   1      47.169  45.765  22.117  1.00  0.00     0.164 HD
ATOM     15  C   UNL A   1      44.705  44.732  22.548  1.00  0.00     0.091 C 
ATOM     16  C   UNL A   1      46.410  42.968  21.762  1.00  0.00     0.091 C 
ATOM     17  C   UNL A   1      43.643  43.806  21.982  1.00  0.00     0.264 C 
ATOM     18  C   UNL A   1      45.237  42.285  21.062  1.00  0.00     0.264 C 
ATOM     19  N   UNL A   1      44.086  43.129  20.784  1.00  0.00    -0.331 N 
ATOM     20  H   UNL A   1      43.357  42.469  20.516  1.00  0.00     0.348 HD
BRANCH  19  21
ATOM     21  C   UNL A   1      44.038  43.893  19.526  1.00  0.00     0.303 C 
BRANCH  21  22
ATOM     22  C   UNL A   1      42.690  44.053  18.892  1.00  0.00     0.052 A 
ATOM     23  C   UNL A   1      41.607  43.201  19.028  1.00  0.00     0.115 A 
ATOM     24  C   UNL A   1      42.152  45.156  18.136  1.00  0.00     0.101 A 
ATOM     25  N   UNL A   1      40.606  43.707  18.262  1.00  0.00    -0.285 N 
ATOM     26  N   UNL A   1      40.908  44.882  17.710  1.00  0.00    -0.175 NA
ATOM     27  H   UNL A   1      39.742  43.251  18.128  1.00  0.00     0.189 HD
BRANCH  24  28
ATOM     28  C   UNL A   1      42.722  46.472  17.836  1.00  0.00     0.003 A 
ATOM     29  C   UNL A   1      42.253  47.165  16.708  1.00  0.00     0.012 A 
ATOM     30  C   UNL A   1      43.743  47.047  18.597  1.00  0.00     0.012 A 
ATOM     31  C   UNL A   1      42.762  48.423  16.375  1.00  0.00     0.021 A 
ATOM     32  C   UNL A   1      44.251  48.311  18.272  1.00  0.00     0.021 A 
ATOM     33  C   UNL A   1      43.751  48.997  17.168  1.00  0.00     0.041 A 
ATOM     34  Cl  UNL A   1      44.367  50.555  16.780  1.00  0.00    -0.084 Cl
ENDBRANCH  24  28
ENDBRANCH  21  22
ENDBRANCH  19  21
ENDBRANCH   5   8
ENDBRANCH   3   4
ENDBRANCH   2   3
ENDBRANCH   1   2
BRANCH   1  35
ATOM     35  C   UNL A   1      43.723  38.864  26.884  1.00  0.00     0.002 C 
BRANCH  35  36
ATOM     36  C   UNL A   1      44.609  37.862  27.630  1.00  0.00     0.021 C 
BRANCH  36  37
ATOM     37  C   UNL A   1      45.867  37.452  26.873  1.00  0.00     0.116 C 
BRANCH  37  38
ATOM     38  N   UNL A   1      47.050  37.571  27.709  1.00  0.00    -0.352 N 
ATOM     39  C   UNL A   1      47.661  36.615  28.479  1.00  0.00     0.251 C 
ATOM     40  H   UNL A   1      47.471  38.460  27.724  1.00  0.00     0.163 HD
ATOM     41  O   UNL A   1      48.486  36.944  29.327  1.00  0.00    -0.269 OA
BRANCH  39  42
ATOM     42  C   UNL A   1      47.313  35.193  28.285  1.00  0.00     0.039 A 
ATOM     43  C   UNL A   1      47.221  34.360  29.401  1.00  0.00     0.014 A 
ATOM     44  C   UNL A   1      47.090  34.685  27.002  1.00  0.00     0.014 A 
ATOM     45  C   UNL A   1      46.865  33.021  29.231  1.00  0.00     0.010 A 
ATOM     46  C   UNL A   1      46.657  33.374  26.843  1.00  0.00     0.010 A 
ATOM     47  C   UNL A   1      46.555  32.523  27.953  1.00  0.00    -0.014 A 
BRANCH  47  48
ATOM     48  C   UNL A   1      46.133  31.113  27.766  1.00  0.00     0.031 A 
ATOM     49  C   UNL A   1      44.710  30.706  28.030  1.00  0.00     0.074 A 
ATOM     50  C   UNL A   1      47.047  30.188  27.414  1.00  0.00     0.049 A 
ATOM     51  N   UNL A   1      44.162  29.521  27.943  1.00  0.00    -0.248 NA
ATOM     52  C   UNL A   1      43.787  31.761  28.479  1.00  0.00     0.031 C 
ATOM     53  C   UNL A   1      48.470  30.450  27.186  1.00  0.00     0.029 A 
ATOM     54  N   UNL A   1      46.918  28.840  27.194  1.00  0.00    -0.354 N 
ATOM     55  C   UNL A   1      42.841  29.683  28.345  1.00  0.00     0.074 A 
ATOM     56  C   UNL A   1      42.684  31.069  28.726  1.00  0.00     0.031 C 
ATOM     57  C   UNL A   1      49.078  29.306  26.837  1.00  0.00     0.029 A 
ATOM     58  C   UNL A   1      48.100  28.223  26.859  1.00  0.00     0.049 A 
ATOM     59  H   UNL A   1      46.062  28.361  27.269  1.00  0.00     0.167 HD
ATOM     60  C   UNL A   1      41.844  28.766  28.378  1.00  0.00     0.031 A 
ATOM     61  C   UNL A   1      48.372  26.927  26.609  1.00  0.00     0.031 A 
ATOM     62  C   UNL A   1      42.011  27.387  27.998  1.00  0.00     0.049 A 
ATOM     63  C   UNL A   1      47.253  25.924  26.644  1.00  0.00     0.074 A 
ATOM     64  C   UNL A   1      41.051  26.393  27.926  1.00  0.00     0.029 A 
ATOM     65  N   UNL A   1      43.219  26.804  27.643  1.00  0.00    -0.354 N 
ATOM     66  N   UNL A   1      45.987  26.115  26.933  1.00  0.00    -0.248 NA
ATOM     67  C   UNL A   1      47.593  24.538  26.301  1.00  0.00     0.031 C 
ATOM     68  C   UNL A   1      41.690  25.193  27.597  1.00  0.00     0.029 A 
ATOM     69  C   UNL A   1      43.036  25.454  27.387  1.00  0.00     0.049 A 
ATOM     70  H   UNL A   1      44.079  27.279  27.581  1.00  0.00     0.167 HD
ATOM     71  C   UNL A   1      45.374  24.875  26.788  1.00  0.00     0.074 A 
ATOM     72  C   UNL A   1      46.406  23.949  26.366  1.00  0.00     0.031 C 
ATOM     73  C   UNL A   1      44.075  24.538  26.983  1.00  0.00     0.031 A 
BRANCH  60  74
ATOM     74  C   UNL A   1      40.495  29.223  28.873  1.00  0.00    -0.014 A 
ATOM     75  C   UNL A   1      39.512  29.711  27.991  1.00  0.00     0.010 A 
ATOM     76  C   UNL A   1      40.200  29.155  30.247  1.00  0.00     0.010 A 
ATOM     77  C   UNL A   1      38.288  30.180  28.480  1.00  0.00     0.020 A 
ATOM     78  C   UNL A   1      38.964  29.590  30.737  1.00  0.00     0.020 A 
ATOM     79  C   UNL A   1      38.026  30.122  29.852  1.00  0.00     0.054 A 
BRANCH  79  80
ATOM     80  S   UNL A   1      36.435  30.745  30.459  1.00  0.00     0.124 S 
ATOM     81  O   UNL A   1      35.527  30.347  29.386  1.00  0.00    -0.237 OA
ATOM     82  O   UNL A   1      36.269  30.026  31.719  1.00  0.00    -0.237 OA
ATOM     83  O   UNL A   1      36.651  32.184  30.590  1.00  0.00    -0.744 OA
ENDBRANCH  79  80
ENDBRANCH  60  74
BRANCH  61  84
ATOM     84  C   UNL A   1      49.772  26.522  26.302  1.00  0.00    -0.014 A 
ATOM     85  C   UNL A   1      50.284  26.624  24.997  1.00  0.00     0.010 A 
ATOM     86  C   UNL A   1      50.620  26.084  27.336  1.00  0.00     0.010 A 
ATOM     87  C   UNL A   1      51.618  26.295  24.733  1.00  0.00     0.020 A 
ATOM     88  C   UNL A   1      51.961  25.783  27.082  1.00  0.00     0.020 A 
ATOM     89  C   UNL A   1      52.450  25.887  25.779  1.00  0.00     0.054 A 
BRANCH  89  90
ATOM     90  S   UNL A   1      54.198  25.550  25.427  1.00  0.00     0.124 S 
ATOM     91  O   UNL A   1      54.309  25.952  24.028  1.00  0.00    -0.237 OA
ATOM     92  O   UNL A   1      54.882  26.410  26.389  1.00  0.00    -0.237 OA
ATOM     93  O   UNL A   1      54.329  24.116  25.679  1.00  0.00    -0.744 OA
ENDBRANCH  89  90
ENDBRANCH  61  84
BRANCH  73  94
ATOM     94  C   UNL A   1      43.682  23.106  26.718  1.00  0.00    -0.014 A 
ATOM     95  C   UNL A   1      44.092  22.436  25.553  1.00  0.00     0.010 A 
ATOM     96  C   UNL A   1      42.934  22.405  27.683  1.00  0.00     0.010 A 
ATOM     97  C   UNL A   1      43.729  21.103  25.340  1.00  0.00     0.020 A 
ATOM     98  C   UNL A   1      42.600  21.063  27.490  1.00  0.00     0.020 A 
ATOM     99  C   UNL A   1      42.986  20.425  26.310  1.00  0.00     0.054 A 
BRANCH  99 100
ATOM    100  S   UNL A   1      42.563  18.684  26.028  1.00  0.00     0.124 S 
ATOM    101  O   UNL A   1      41.132  18.761  25.749  1.00  0.00    -0.237 OA
ATOM    102  O   UNL A   1      43.408  18.330  24.889  1.00  0.00    -0.237 OA
ATOM    103  O   UNL A   1      42.919  18.031  27.285  1.00  0.00    -0.744 OA
ENDBRANCH  99 100
ENDBRANCH  73  94
ENDBRANCH  47  48
ENDBRANCH  39  42
ENDBRANCH  37  38
ENDBRANCH  36  37
ENDBRANCH  35  36
ENDBRANCH   1  35
TORSDOF 19
ENDMDL
