MODEL 1
REMARK VINA RESULT:     -10.5      0.000      0.000
REMARK SMILES C[C@H]1[C@H](C(=O)NCCCCCCNC(=O)c2ccc(-c3c4nc(c(-c5ccc(S(=O)(=O)[O-])cc5)c5ccc([nH]5)c(-c5ccc(S(=O)(=O)[O-])cc5)c5nc(c(-c6ccc(S(=O)(=O)[O-])cc6)c6ccc3[nH]6)C=C5)C=C4)cc2)CCN1C(=O)[C@H]1CC=CCC1
REMARK SMILES IDX 10 1 9 2 8 3 7 4 6 5 4 6 5 7 3 9 1 10 2 11 78 12 76 13 77 14
REMARK SMILES IDX 79 15 80 16 81 17 82 18 86 19 83 20 85 21 84 22 11 23 12 24
REMARK SMILES IDX 13 25 14 26 15 28 16 29 17 30 75 31 18 32 74 33 19 34 20 35
REMARK SMILES IDX 21 36 68 37 22 38 73 39 67 40 69 41 23 42 72 43 66 44 65 45
REMARK SMILES IDX 24 47 54 48 35 49 53 50 36 51 39 52 52 53 70 54 37 55 38 56
REMARK SMILES IDX 51 58 71 59 40 60 25 61 26 62 34 63 27 64 33 65 28 66 29 67
REMARK SMILES IDX 30 68 31 69 32 70 55 71 56 72 64 73 57 74 63 75 58 76 59 77
REMARK SMILES IDX 60 78 61 79 62 80 41 81 42 82 50 83 43 84 49 85 44 86 45 87
REMARK SMILES IDX 46 88 47 89 48 90
REMARK H PARENT 6 8 13 27 69 46 39 57
REMARK Flexibility Score: inf
ROOT
ATOM      1  C   UNL A   1      32.857  29.089  24.842  1.00  0.00     0.002 C 
ENDROOT
BRANCH   1   2
ATOM      2  C   UNL A   1      31.413  28.721  24.506  1.00  0.00     0.002 C 
BRANCH   2   3
ATOM      3  C   UNL A   1      30.804  27.604  25.350  1.00  0.00     0.021 C 
BRANCH   3   4
ATOM      4  C   UNL A   1      30.041  26.525  24.583  1.00  0.00     0.116 C 
BRANCH   4   5
ATOM      5  N   UNL A   1      30.238  25.216  25.179  1.00  0.00    -0.356 N 
ATOM      6  C   UNL A   1      30.953  24.139  24.771  1.00  0.00     0.225 C 
ATOM      7  O   UNL A   1      30.901  23.134  25.490  1.00  0.00    -0.275 OA
ATOM      8  H   UNL A   1      29.768  25.088  26.034  1.00  0.00     0.163 HD
BRANCH   6   9
ATOM      9  C   UNL A   1      31.781  24.099  23.493  1.00  0.00     0.102 C 
ATOM     10  C   UNL A   1      33.517  25.735  22.739  1.00  0.00     0.032 C 
ATOM     11  C   UNL A   1      33.242  24.557  23.681  1.00  0.00     0.094 C 
ATOM     12  N   UNL A   1      34.053  23.390  23.335  1.00  0.00    -0.339 N 
ATOM     13  C   UNL A   1      31.830  22.751  22.777  1.00  0.00     0.037 C 
ATOM     14  C   UNL A   1      33.296  22.518  22.450  1.00  0.00     0.120 C 
BRANCH  12  15
ATOM     15  C   UNL A   1      35.345  23.038  23.660  1.00  0.00     0.226 C 
ATOM     16  O   UNL A   1      36.215  23.102  22.778  1.00  0.00    -0.275 OA
BRANCH  15  17
ATOM     17  C   UNL A   1      35.799  22.514  25.036  1.00  0.00     0.083 C 
ATOM     18  C   UNL A   1      36.722  21.296  25.057  1.00  0.00     0.040 C 
ATOM     19  C   UNL A   1      36.155  23.587  26.069  1.00  0.00     0.018 C 
ATOM     20  C   UNL A   1      38.143  21.574  25.450  1.00  0.00    -0.030 C 
ATOM     21  C   UNL A   1      37.643  23.898  26.202  1.00  0.00     0.028 C 
ATOM     22  C   UNL A   1      38.553  22.738  25.966  1.00  0.00    -0.031 C 
ENDBRANCH  15  17
ENDBRANCH  12  15
ENDBRANCH   6   9
ENDBRANCH   4   5
ENDBRANCH   3   4
ENDBRANCH   2   3
ENDBRANCH   1   2
BRANCH   1  23
ATOM     23  C   UNL A   1      33.613  28.076  25.704  1.00  0.00     0.021 C 
BRANCH  23  24
ATOM     24  C   UNL A   1      33.623  28.364  27.204  1.00  0.00     0.116 C 
BRANCH  24  25
ATOM     25  N   UNL A   1      33.556  29.786  27.497  1.00  0.00    -0.352 N 
ATOM     26  C   UNL A   1      34.488  30.596  28.095  1.00  0.00     0.251 C 
ATOM     27  H   UNL A   1      32.723  30.233  27.225  1.00  0.00     0.163 HD
ATOM     28  O   UNL A   1      34.181  31.741  28.428  1.00  0.00    -0.269 OA
BRANCH  26  29
ATOM     29  C   UNL A   1      35.848  30.086  28.362  1.00  0.00     0.039 A 
ATOM     30  C   UNL A   1      36.799  30.133  27.341  1.00  0.00     0.014 A 
ATOM     31  C   UNL A   1      36.187  29.563  29.614  1.00  0.00     0.014 A 
ATOM     32  C   UNL A   1      38.107  29.712  27.594  1.00  0.00     0.010 A 
ATOM     33  C   UNL A   1      37.508  29.215  29.885  1.00  0.00     0.010 A 
ATOM     34  C   UNL A   1      38.482  29.282  28.878  1.00  0.00    -0.014 A 
BRANCH  34  35
ATOM     35  C   UNL A   1      39.887  28.906  29.182  1.00  0.00     0.031 A 
ATOM     36  C   UNL A   1      40.817  29.901  29.825  1.00  0.00     0.074 A 
ATOM     37  C   UNL A   1      40.341  27.687  28.830  1.00  0.00     0.049 A 
ATOM     38  N   UNL A   1      42.082  29.767  30.131  1.00  0.00    -0.248 NA
ATOM     39  C   UNL A   1      40.258  31.224  30.147  1.00  0.00     0.031 C 
ATOM     40  C   UNL A   1      39.551  26.647  28.168  1.00  0.00     0.029 A 
ATOM     41  N   UNL A   1      41.581  27.116  28.979  1.00  0.00    -0.354 N 
ATOM     42  C   UNL A   1      42.473  30.988  30.667  1.00  0.00     0.074 A 
ATOM     43  C   UNL A   1      41.326  31.867  30.597  1.00  0.00     0.031 C 
ATOM     44  C   UNL A   1      40.315  25.556  27.995  1.00  0.00     0.029 A 
ATOM     45  C   UNL A   1      41.659  25.832  28.492  1.00  0.00     0.049 A 
ATOM     46  H   UNL A   1      42.342  27.581  29.395  1.00  0.00     0.167 HD
ATOM     47  C   UNL A   1      43.672  31.342  31.190  1.00  0.00     0.031 A 
ATOM     48  C   UNL A   1      42.696  24.974  28.442  1.00  0.00     0.031 A 
ATOM     49  C   UNL A   1      44.812  30.464  31.260  1.00  0.00     0.049 A 
ATOM     50  C   UNL A   1      44.026  25.397  29.006  1.00  0.00     0.074 A 
ATOM     51  C   UNL A   1      46.053  30.710  31.818  1.00  0.00     0.029 A 
ATOM     52  N   UNL A   1      44.851  29.174  30.752  1.00  0.00    -0.354 N 
ATOM     53  N   UNL A   1      44.356  26.534  29.573  1.00  0.00    -0.248 NA
ATOM     54  C   UNL A   1      45.119  24.419  28.931  1.00  0.00     0.031 C 
ATOM     55  C   UNL A   1      46.863  29.593  31.593  1.00  0.00     0.029 A 
ATOM     56  C   UNL A   1      46.106  28.623  30.955  1.00  0.00     0.049 A 
ATOM     57  H   UNL A   1      44.098  28.718  30.311  1.00  0.00     0.167 HD
ATOM     58  C   UNL A   1      45.688  26.396  29.946  1.00  0.00     0.074 A 
ATOM     59  C   UNL A   1      46.097  25.062  29.558  1.00  0.00     0.031 C 
ATOM     60  C   UNL A   1      46.500  27.295  30.558  1.00  0.00     0.031 A 
BRANCH  47  61
ATOM     61  C   UNL A   1      43.816  32.746  31.720  1.00  0.00    -0.014 A 
ATOM     62  C   UNL A   1      44.122  33.820  30.863  1.00  0.00     0.010 A 
ATOM     63  C   UNL A   1      43.608  33.004  33.087  1.00  0.00     0.010 A 
ATOM     64  C   UNL A   1      44.263  35.113  31.370  1.00  0.00     0.020 A 
ATOM     65  C   UNL A   1      43.716  34.302  33.594  1.00  0.00     0.020 A 
ATOM     66  C   UNL A   1      44.063  35.346  32.734  1.00  0.00     0.054 A 
BRANCH  66  67
ATOM     67  S   UNL A   1      44.237  37.040  33.361  1.00  0.00     0.124 S 
ATOM     68  O   UNL A   1      44.736  37.746  32.184  1.00  0.00    -0.237 OA
ATOM     69  O   UNL A   1      42.873  37.375  33.761  1.00  0.00    -0.237 OA
ATOM     70  O   UNL A   1      45.191  36.908  34.459  1.00  0.00    -0.744 OA
ENDBRANCH  66  67
ENDBRANCH  47  61
BRANCH  48  71
ATOM     71  C   UNL A   1      42.514  23.621  27.847  1.00  0.00    -0.014 A 
ATOM     72  C   UNL A   1      42.647  23.425  26.461  1.00  0.00     0.010 A 
ATOM     73  C   UNL A   1      42.221  22.515  28.667  1.00  0.00     0.010 A 
ATOM     74  C   UNL A   1      42.475  22.155  25.903  1.00  0.00     0.020 A 
ATOM     75  C   UNL A   1      42.078  21.238  28.117  1.00  0.00     0.020 A 
ATOM     76  C   UNL A   1      42.195  21.067  26.737  1.00  0.00     0.054 A 
BRANCH  76  77
ATOM     77  S   UNL A   1      42.030  19.419  25.996  1.00  0.00     0.124 S 
ATOM     78  O   UNL A   1      42.844  19.545  24.790  1.00  0.00    -0.237 OA
ATOM     79  O   UNL A   1      42.571  18.550  27.038  1.00  0.00    -0.237 OA
ATOM     80  O   UNL A   1      40.592  19.288  25.771  1.00  0.00    -0.744 OA
ENDBRANCH  76  77
ENDBRANCH  48  71
BRANCH  60  81
ATOM     81  C   UNL A   1      47.907  26.857  30.873  1.00  0.00    -0.014 A 
ATOM     82  C   UNL A   1      48.958  27.061  29.961  1.00  0.00     0.010 A 
ATOM     83  C   UNL A   1      48.190  26.283  32.126  1.00  0.00     0.010 A 
ATOM     84  C   UNL A   1      50.260  26.669  30.283  1.00  0.00     0.020 A 
ATOM     85  C   UNL A   1      49.495  25.919  32.465  1.00  0.00     0.020 A 
ATOM     86  C   UNL A   1      50.521  26.102  31.535  1.00  0.00     0.054 A 
BRANCH  86  87
ATOM     87  S   UNL A   1      52.226  25.644  31.947  1.00  0.00     0.124 S 
ATOM     88  O   UNL A   1      52.506  26.510  33.089  1.00  0.00    -0.237 OA
ATOM     89  O   UNL A   1      52.110  24.219  32.252  1.00  0.00    -0.237 OA
ATOM     90  O   UNL A   1      52.974  25.956  30.731  1.00  0.00    -0.744 OA
ENDBRANCH  86  87
ENDBRANCH  60  81
ENDBRANCH  34  35
ENDBRANCH  26  29
ENDBRANCH  24  25
ENDBRANCH  23  24
ENDBRANCH   1  23
TORSDOF 18
ENDMDL
MODEL 2
REMARK VINA RESULT:     -10.4      1.465      2.346
REMARK SMILES C[C@H]1[C@H](C(=O)NCCCCCCNC(=O)c2ccc(-c3c4nc(c(-c5ccc(S(=O)(=O)[O-])cc5)c5ccc([nH]5)c(-c5ccc(S(=O)(=O)[O-])cc5)c5nc(c(-c6ccc(S(=O)(=O)[O-])cc6)c6ccc3[nH]6)C=C5)C=C4)cc2)CCN1C(=O)[C@H]1CC=CCC1
REMARK SMILES IDX 10 1 9 2 8 3 7 4 6 5 4 6 5 7 3 9 1 10 2 11 78 12 76 13 77 14
REMARK SMILES IDX 79 15 80 16 81 17 82 18 86 19 83 20 85 21 84 22 11 23 12 24
REMARK SMILES IDX 13 25 14 26 15 28 16 29 17 30 75 31 18 32 74 33 19 34 20 35
REMARK SMILES IDX 21 36 68 37 22 38 73 39 67 40 69 41 23 42 72 43 66 44 65 45
REMARK SMILES IDX 24 47 54 48 35 49 53 50 36 51 39 52 52 53 70 54 37 55 38 56
REMARK SMILES IDX 51 58 71 59 40 60 25 61 26 62 34 63 27 64 33 65 28 66 29 67
REMARK SMILES IDX 30 68 31 69 32 70 55 71 56 72 64 73 57 74 63 75 58 76 59 77
REMARK SMILES IDX 60 78 61 79 62 80 41 81 42 82 50 83 43 84 49 85 44 86 45 87
REMARK SMILES IDX 46 88 47 89 48 90
REMARK H PARENT 6 8 13 27 69 46 39 57
REMARK Flexibility Score: inf
ROOT
ATOM      1  C   UNL A   1      32.229  26.382  26.240  1.00  0.00     0.002 C 
ENDROOT
BRANCH   1   2
ATOM      2  C   UNL A   1      30.908  25.896  25.645  1.00  0.00     0.002 C 
BRANCH   2   3
ATOM      3  C   UNL A   1      30.874  25.781  24.123  1.00  0.00     0.021 C 
BRANCH   3   4
ATOM      4  C   UNL A   1      30.677  24.373  23.563  1.00  0.00     0.116 C 
BRANCH   4   5
ATOM      5  N   UNL A   1      31.611  24.100  22.486  1.00  0.00    -0.356 N 
ATOM      6  C   UNL A   1      32.929  23.782  22.495  1.00  0.00     0.225 C 
ATOM      7  O   UNL A   1      33.472  23.636  21.393  1.00  0.00    -0.275 OA
ATOM      8  H   UNL A   1      31.215  24.154  21.586  1.00  0.00     0.163 HD
BRANCH   6   9
ATOM      9  C   UNL A   1      33.758  23.620  23.762  1.00  0.00     0.102 C 
ATOM     10  C   UNL A   1      33.000  22.781  25.994  1.00  0.00     0.032 C 
ATOM     11  C   UNL A   1      33.411  22.358  24.579  1.00  0.00     0.094 C 
ATOM     12  N   UNL A   1      34.638  21.562  24.589  1.00  0.00    -0.339 N 
ATOM     13  C   UNL A   1      35.273  23.615  23.567  1.00  0.00     0.037 C 
ATOM     14  C   UNL A   1      35.783  22.434  24.377  1.00  0.00     0.120 C 
BRANCH  12  15
ATOM     15  C   UNL A   1      34.862  20.219  24.798  1.00  0.00     0.226 C 
ATOM     16  O   UNL A   1      36.032  19.830  24.937  1.00  0.00    -0.275 OA
BRANCH  15  17
ATOM     17  C   UNL A   1      33.770  19.133  24.821  1.00  0.00     0.083 C 
ATOM     18  C   UNL A   1      32.505  19.387  24.000  1.00  0.00     0.040 C 
ATOM     19  C   UNL A   1      34.272  17.687  24.767  1.00  0.00     0.018 C 
ATOM     20  C   UNL A   1      32.362  18.546  22.766  1.00  0.00    -0.030 C 
ATOM     21  C   UNL A   1      34.250  17.039  23.387  1.00  0.00     0.028 C 
ATOM     22  C   UNL A   1      33.141  17.492  22.494  1.00  0.00    -0.031 C 
ENDBRANCH  15  17
ENDBRANCH  12  15
ENDBRANCH   6   9
ENDBRANCH   4   5
ENDBRANCH   3   4
ENDBRANCH   2   3
ENDBRANCH   1   2
BRANCH   1  23
ATOM     23  C   UNL A   1      32.421  27.899  26.270  1.00  0.00     0.021 C 
BRANCH  23  24
ATOM     24  C   UNL A   1      33.668  28.391  27.003  1.00  0.00     0.116 C 
BRANCH  24  25
ATOM     25  N   UNL A   1      33.569  29.788  27.390  1.00  0.00    -0.352 N 
ATOM     26  C   UNL A   1      34.472  30.570  28.066  1.00  0.00     0.251 C 
ATOM     27  H   UNL A   1      32.735  30.240  27.128  1.00  0.00     0.163 HD
ATOM     28  O   UNL A   1      34.138  31.684  28.467  1.00  0.00    -0.269 OA
BRANCH  26  29
ATOM     29  C   UNL A   1      35.834  30.065  28.331  1.00  0.00     0.039 A 
ATOM     30  C   UNL A   1      36.782  30.105  27.306  1.00  0.00     0.014 A 
ATOM     31  C   UNL A   1      36.178  29.553  29.587  1.00  0.00     0.014 A 
ATOM     32  C   UNL A   1      38.091  29.688  27.559  1.00  0.00     0.010 A 
ATOM     33  C   UNL A   1      37.500  29.209  29.857  1.00  0.00     0.010 A 
ATOM     34  C   UNL A   1      38.471  29.270  28.845  1.00  0.00    -0.014 A 
BRANCH  34  35
ATOM     35  C   UNL A   1      39.878  28.899  29.147  1.00  0.00     0.031 A 
ATOM     36  C   UNL A   1      40.805  29.897  29.787  1.00  0.00     0.074 A 
ATOM     37  C   UNL A   1      40.335  27.680  28.797  1.00  0.00     0.049 A 
ATOM     38  N   UNL A   1      42.072  29.768  30.092  1.00  0.00    -0.248 NA
ATOM     39  C   UNL A   1      40.243  31.219  30.108  1.00  0.00     0.031 C 
ATOM     40  C   UNL A   1      39.547  26.636  28.137  1.00  0.00     0.029 A 
ATOM     41  N   UNL A   1      41.577  27.113  28.944  1.00  0.00    -0.354 N 
ATOM     42  C   UNL A   1      42.460  30.990  30.625  1.00  0.00     0.074 A 
ATOM     43  C   UNL A   1      41.310  31.866  30.556  1.00  0.00     0.031 C 
ATOM     44  C   UNL A   1      40.314  25.548  27.965  1.00  0.00     0.029 A 
ATOM     45  C   UNL A   1      41.658  25.829  28.459  1.00  0.00     0.049 A 
ATOM     46  H   UNL A   1      42.337  27.582  29.358  1.00  0.00     0.167 HD
ATOM     47  C   UNL A   1      43.658  31.348  31.146  1.00  0.00     0.031 A 
ATOM     48  C   UNL A   1      42.698  24.974  28.409  1.00  0.00     0.031 A 
ATOM     49  C   UNL A   1      44.801  30.475  31.215  1.00  0.00     0.049 A 
ATOM     50  C   UNL A   1      44.027  25.402  28.969  1.00  0.00     0.074 A 
ATOM     51  C   UNL A   1      46.043  30.726  31.770  1.00  0.00     0.029 A 
ATOM     52  N   UNL A   1      44.843  29.184  30.709  1.00  0.00    -0.354 N 
ATOM     53  N   UNL A   1      44.355  26.540  29.534  1.00  0.00    -0.248 NA
ATOM     54  C   UNL A   1      45.124  24.427  28.895  1.00  0.00     0.031 C 
ATOM     55  C   UNL A   1      46.855  29.610  31.546  1.00  0.00     0.029 A 
ATOM     56  C   UNL A   1      46.100  28.638  30.911  1.00  0.00     0.049 A 
ATOM     57  H   UNL A   1      44.091  28.725  30.270  1.00  0.00     0.167 HD
ATOM     58  C   UNL A   1      45.688  26.408  29.906  1.00  0.00     0.074 A 
ATOM     59  C   UNL A   1      46.100  25.074  29.518  1.00  0.00     0.031 C 
ATOM     60  C   UNL A   1      46.498  27.310  30.515  1.00  0.00     0.031 A 
BRANCH  47  61
ATOM     61  C   UNL A   1      43.798  32.754  31.673  1.00  0.00    -0.014 A 
ATOM     62  C   UNL A   1      44.279  33.794  30.855  1.00  0.00     0.010 A 
ATOM     63  C   UNL A   1      43.413  33.049  32.994  1.00  0.00     0.010 A 
ATOM     64  C   UNL A   1      44.413  35.089  31.362  1.00  0.00     0.020 A 
ATOM     65  C   UNL A   1      43.515  34.349  33.495  1.00  0.00     0.020 A 
ATOM     66  C   UNL A   1      44.034  35.358  32.681  1.00  0.00     0.054 A 
BRANCH  66  67
ATOM     67  S   UNL A   1      44.206  37.053  33.305  1.00  0.00     0.124 S 
ATOM     68  O   UNL A   1      45.394  36.944  34.148  1.00  0.00    -0.237 OA
ATOM     69  O   UNL A   1      44.376  37.830  32.080  1.00  0.00    -0.237 OA
ATOM     70  O   UNL A   1      42.955  37.288  34.021  1.00  0.00    -0.744 OA
ENDBRANCH  66  67
ENDBRANCH  47  61
BRANCH  48  71
ATOM     71  C   UNL A   1      42.519  23.619  27.816  1.00  0.00    -0.014 A 
ATOM     72  C   UNL A   1      42.812  23.388  26.460  1.00  0.00     0.010 A 
ATOM     73  C   UNL A   1      42.068  22.548  28.609  1.00  0.00     0.010 A 
ATOM     74  C   UNL A   1      42.643  22.116  25.904  1.00  0.00     0.020 A 
ATOM     75  C   UNL A   1      41.927  21.268  28.064  1.00  0.00     0.020 A 
ATOM     76  C   UNL A   1      42.205  21.062  26.713  1.00  0.00     0.054 A 
BRANCH  76  77
ATOM     77  S   UNL A   1      42.045  19.409  25.982  1.00  0.00     0.124 S 
ATOM     78  O   UNL A   1      42.579  18.556  27.039  1.00  0.00    -0.237 OA
ATOM     79  O   UNL A   1      40.607  19.306  25.750  1.00  0.00    -0.237 OA
ATOM     80  O   UNL A   1      42.859  19.491  24.771  1.00  0.00    -0.744 OA
ENDBRANCH  76  77
ENDBRANCH  48  71
BRANCH  60  81
ATOM     81  C   UNL A   1      47.907  26.877  30.828  1.00  0.00    -0.014 A 
ATOM     82  C   UNL A   1      48.977  27.197  29.974  1.00  0.00     0.010 A 
ATOM     83  C   UNL A   1      48.170  26.186  32.026  1.00  0.00     0.010 A 
ATOM     84  C   UNL A   1      50.280  26.806  30.296  1.00  0.00     0.020 A 
ATOM     85  C   UNL A   1      49.474  25.822  32.367  1.00  0.00     0.020 A 
ATOM     86  C   UNL A   1      50.520  26.123  31.492  1.00  0.00     0.054 A 
BRANCH  86  87
ATOM     87  S   UNL A   1      52.225  25.668  31.909  1.00  0.00     0.124 S 
ATOM     88  O   UNL A   1      52.951  26.074  30.709  1.00  0.00    -0.237 OA
ATOM     89  O   UNL A   1      52.487  26.469  33.104  1.00  0.00    -0.237 OA
ATOM     90  O   UNL A   1      52.156  24.226  32.137  1.00  0.00    -0.744 OA
ENDBRANCH  86  87
ENDBRANCH  60  81
ENDBRANCH  34  35
ENDBRANCH  26  29
ENDBRANCH  24  25
ENDBRANCH  23  24
ENDBRANCH   1  23
TORSDOF 18
ENDMDL
MODEL 3
REMARK VINA RESULT:     -10.2      4.741     10.299
REMARK SMILES C[C@H]1[C@H](C(=O)NCCCCCCNC(=O)c2ccc(-c3c4nc(c(-c5ccc(S(=O)(=O)[O-])cc5)c5ccc([nH]5)c(-c5ccc(S(=O)(=O)[O-])cc5)c5nc(c(-c6ccc(S(=O)(=O)[O-])cc6)c6ccc3[nH]6)C=C5)C=C4)cc2)CCN1C(=O)[C@H]1CC=CCC1
REMARK SMILES IDX 10 1 9 2 8 3 7 4 6 5 4 6 5 7 3 9 1 10 2 11 78 12 76 13 77 14
REMARK SMILES IDX 79 15 80 16 81 17 82 18 86 19 83 20 85 21 84 22 11 23 12 24
REMARK SMILES IDX 13 25 14 26 15 28 16 29 17 30 75 31 18 32 74 33 19 34 20 35
REMARK SMILES IDX 21 36 68 37 22 38 73 39 67 40 69 41 23 42 72 43 66 44 65 45
REMARK SMILES IDX 24 47 54 48 35 49 53 50 36 51 39 52 52 53 70 54 37 55 38 56
REMARK SMILES IDX 51 58 71 59 40 60 25 61 26 62 34 63 27 64 33 65 28 66 29 67
REMARK SMILES IDX 30 68 31 69 32 70 55 71 56 72 64 73 57 74 63 75 58 76 59 77
REMARK SMILES IDX 60 78 61 79 62 80 41 81 42 82 50 83 43 84 49 85 44 86 45 87
REMARK SMILES IDX 46 88 47 89 48 90
REMARK H PARENT 6 8 13 27 69 46 39 57
REMARK Flexibility Score: inf
ROOT
ATOM      1  C   UNL A   1      37.760  22.082  25.656  1.00  0.00     0.002 C 
ENDROOT
BRANCH   1   2
ATOM      2  C   UNL A   1      37.037  21.821  24.336  1.00  0.00     0.002 C 
BRANCH   2   3
ATOM      3  C   UNL A   1      36.564  23.065  23.586  1.00  0.00     0.021 C 
BRANCH   3   4
ATOM      4  C   UNL A   1      35.060  23.165  23.340  1.00  0.00     0.116 C 
BRANCH   4   5
ATOM      5  N   UNL A   1      34.530  24.429  23.817  1.00  0.00    -0.356 N 
ATOM      6  C   UNL A   1      33.733  24.732  24.871  1.00  0.00     0.225 C 
ATOM      7  O   UNL A   1      33.418  25.920  25.005  1.00  0.00    -0.275 OA
ATOM      8  H   UNL A   1      34.799  25.207  23.278  1.00  0.00     0.163 HD
BRANCH   6   9
ATOM      9  C   UNL A   1      33.203  23.703  25.862  1.00  0.00     0.102 C 
ATOM     10  C   UNL A   1      30.939  22.640  25.904  1.00  0.00     0.032 C 
ATOM     11  C   UNL A   1      32.311  22.621  25.221  1.00  0.00     0.094 C 
ATOM     12  N   UNL A   1      33.013  21.360  25.458  1.00  0.00    -0.339 N 
ATOM     13  C   UNL A   1      34.260  22.971  26.688  1.00  0.00     0.037 C 
ATOM     14  C   UNL A   1      33.885  21.500  26.616  1.00  0.00     0.120 C 
BRANCH  12  15
ATOM     15  C   UNL A   1      32.949  20.136  24.828  1.00  0.00     0.226 C 
ATOM     16  O   UNL A   1      32.288  20.044  23.782  1.00  0.00    -0.275 OA
BRANCH  15  17
ATOM     17  C   UNL A   1      33.595  18.839  25.349  1.00  0.00     0.083 C 
ATOM     18  C   UNL A   1      32.664  17.756  25.895  1.00  0.00     0.040 C 
ATOM     19  C   UNL A   1      34.760  18.298  24.515  1.00  0.00     0.018 C 
ATOM     20  C   UNL A   1      32.520  16.537  25.033  1.00  0.00    -0.030 C 
ATOM     21  C   UNL A   1      34.401  17.189  23.531  1.00  0.00     0.028 C 
ATOM     22  C   UNL A   1      33.301  16.282  23.977  1.00  0.00    -0.031 C 
ENDBRANCH  15  17
ENDBRANCH  12  15
ENDBRANCH   6   9
ENDBRANCH   4   5
ENDBRANCH   3   4
ENDBRANCH   2   3
ENDBRANCH   1   2
BRANCH   1  23
ATOM     23  C   UNL A   1      37.792  23.542  26.113  1.00  0.00     0.021 C 
BRANCH  23  24
ATOM     24  C   UNL A   1      39.045  23.966  26.877  1.00  0.00     0.116 C 
BRANCH  24  25
ATOM     25  N   UNL A   1      40.110  24.412  25.993  1.00  0.00    -0.352 N 
ATOM     26  C   UNL A   1      40.898  25.532  26.077  1.00  0.00     0.251 C 
ATOM     27  H   UNL A   1      40.292  23.826  25.225  1.00  0.00     0.163 HD
ATOM     28  O   UNL A   1      41.625  25.841  25.134  1.00  0.00    -0.269 OA
BRANCH  26  29
ATOM     29  C   UNL A   1      40.856  26.377  27.288  1.00  0.00     0.039 A 
ATOM     30  C   UNL A   1      41.664  27.513  27.348  1.00  0.00     0.014 A 
ATOM     31  C   UNL A   1      40.022  26.050  28.363  1.00  0.00     0.014 A 
ATOM     32  C   UNL A   1      41.592  28.356  28.459  1.00  0.00     0.010 A 
ATOM     33  C   UNL A   1      39.896  26.930  29.435  1.00  0.00     0.010 A 
ATOM     34  C   UNL A   1      40.682  28.091  29.497  1.00  0.00    -0.014 A 
BRANCH  34  35
ATOM     35  C   UNL A   1      40.537  29.021  30.647  1.00  0.00     0.031 A 
ATOM     36  C   UNL A   1      41.405  28.860  31.867  1.00  0.00     0.074 A 
ATOM     37  C   UNL A   1      39.588  29.977  30.615  1.00  0.00     0.049 A 
ATOM     38  N   UNL A   1      41.399  29.550  32.979  1.00  0.00    -0.248 NA
ATOM     39  C   UNL A   1      42.395  27.770  31.842  1.00  0.00     0.031 C 
ATOM     40  C   UNL A   1      38.659  30.213  29.508  1.00  0.00     0.029 A 
ATOM     41  N   UNL A   1      39.245  30.930  31.543  1.00  0.00    -0.354 N 
ATOM     42  C   UNL A   1      42.368  28.971  33.789  1.00  0.00     0.074 A 
ATOM     43  C   UNL A   1      42.908  27.843  33.062  1.00  0.00     0.031 C 
ATOM     44  C   UNL A   1      37.874  31.260  29.807  1.00  0.00     0.029 A 
ATOM     45  C   UNL A   1      38.210  31.742  31.142  1.00  0.00     0.049 A 
ATOM     46  H   UNL A   1      39.697  31.023  32.412  1.00  0.00     0.167 HD
ATOM     47  C   UNL A   1      42.788  29.355  35.018  1.00  0.00     0.031 A 
ATOM     48  C   UNL A   1      37.595  32.758  31.778  1.00  0.00     0.031 A 
ATOM     49  C   UNL A   1      42.251  30.480  35.739  1.00  0.00     0.049 A 
ATOM     50  C   UNL A   1      38.061  33.151  33.154  1.00  0.00     0.074 A 
ATOM     51  C   UNL A   1      42.644  30.982  36.967  1.00  0.00     0.029 A 
ATOM     52  N   UNL A   1      41.202  31.274  35.301  1.00  0.00    -0.354 N 
ATOM     53  N   UNL A   1      39.029  32.635  33.875  1.00  0.00    -0.248 NA
ATOM     54  C   UNL A   1      37.359  34.270  33.798  1.00  0.00     0.031 C 
ATOM     55  C   UNL A   1      41.793  32.041  37.299  1.00  0.00     0.029 A 
ATOM     56  C   UNL A   1      40.913  32.243  36.248  1.00  0.00     0.049 A 
ATOM     57  H   UNL A   1      40.731  31.165  34.443  1.00  0.00     0.167 HD
ATOM     58  C   UNL A   1      39.068  33.383  35.046  1.00  0.00     0.074 A 
ATOM     59  C   UNL A   1      38.040  34.398  34.929  1.00  0.00     0.031 C 
ATOM     60  C   UNL A   1      39.883  33.243  36.121  1.00  0.00     0.031 A 
BRANCH  47  61
ATOM     61  C   UNL A   1      43.880  28.543  35.669  1.00  0.00    -0.014 A 
ATOM     62  C   UNL A   1      45.237  28.855  35.470  1.00  0.00     0.010 A 
ATOM     63  C   UNL A   1      43.544  27.472  36.518  1.00  0.00     0.010 A 
ATOM     64  C   UNL A   1      46.237  28.086  36.070  1.00  0.00     0.020 A 
ATOM     65  C   UNL A   1      44.541  26.720  37.147  1.00  0.00     0.020 A 
ATOM     66  C   UNL A   1      45.882  27.020  36.902  1.00  0.00     0.054 A 
BRANCH  66  67
ATOM     67  S   UNL A   1      47.203  26.050  37.680  1.00  0.00     0.124 S 
ATOM     68  O   UNL A   1      46.532  24.776  37.932  1.00  0.00    -0.237 OA
ATOM     69  O   UNL A   1      48.232  26.022  36.645  1.00  0.00    -0.237 OA
ATOM     70  O   UNL A   1      47.543  26.819  38.874  1.00  0.00    -0.744 OA
ENDBRANCH  66  67
ENDBRANCH  47  61
BRANCH  48  71
ATOM     71  C   UNL A   1      36.477  33.484  31.114  1.00  0.00    -0.014 A 
ATOM     72  C   UNL A   1      36.670  34.105  29.866  1.00  0.00     0.010 A 
ATOM     73  C   UNL A   1      35.208  33.548  31.719  1.00  0.00     0.010 A 
ATOM     74  C   UNL A   1      35.620  34.787  29.243  1.00  0.00     0.020 A 
ATOM     75  C   UNL A   1      34.149  34.203  31.085  1.00  0.00     0.020 A 
ATOM     76  C   UNL A   1      34.364  34.828  29.856  1.00  0.00     0.054 A 
BRANCH  76  77
ATOM     77  S   UNL A   1      33.003  35.673  29.003  1.00  0.00     0.124 S 
ATOM     78  O   UNL A   1      33.707  36.724  28.274  1.00  0.00    -0.237 OA
ATOM     79  O   UNL A   1      32.435  34.605  28.183  1.00  0.00    -0.237 OA
ATOM     80  O   UNL A   1      32.148  36.131  30.095  1.00  0.00    -0.744 OA
ENDBRANCH  76  77
ENDBRANCH  48  71
BRANCH  60  81
ATOM     81  C   UNL A   1      39.719  34.229  37.249  1.00  0.00    -0.014 A 
ATOM     82  C   UNL A   1      38.907  33.939  38.361  1.00  0.00     0.010 A 
ATOM     83  C   UNL A   1      40.434  35.440  37.221  1.00  0.00     0.010 A 
ATOM     84  C   UNL A   1      38.788  34.858  39.407  1.00  0.00     0.020 A 
ATOM     85  C   UNL A   1      40.343  36.347  38.280  1.00  0.00     0.020 A 
ATOM     86  C   UNL A   1      39.509  36.055  39.361  1.00  0.00     0.054 A 
BRANCH  86  87
ATOM     87  S   UNL A   1      39.374  37.209  40.753  1.00  0.00     0.124 S 
ATOM     88  O   UNL A   1      38.452  38.213  40.228  1.00  0.00    -0.237 OA
ATOM     89  O   UNL A   1      38.840  36.363  41.819  1.00  0.00    -0.237 OA
ATOM     90  O   UNL A   1      40.745  37.669  40.960  1.00  0.00    -0.744 OA
ENDBRANCH  86  87
ENDBRANCH  60  81
ENDBRANCH  34  35
ENDBRANCH  26  29
ENDBRANCH  24  25
ENDBRANCH  23  24
ENDBRANCH   1  23
TORSDOF 18
ENDMDL
