MODEL 1
REMARK VINA RESULT:     -11.4      0.000      0.000
REMARK SMILES Nc1c(N2CCCC2)ncnc1N1CCC(C(=O)NCCCCCCNC(=O)c2ccc(-c3c4nc(c(-c5ccc(S(=O)(=O)[O-])cc5)c5ccc([nH]5)c(-c5ccc(S(=O)(=O)[O-])cc5)c5nc(c(-c6ccc(S(=O)(=O)[O-])cc6)c6ccc3[nH]6)C=C5)C=C4)cc2)CC1
REMARK SMILES IDX 23 1 22 2 21 3 20 4 19 5 17 6 18 7 16 9 13 10 14 11 90 12
REMARK SMILES IDX 15 13 89 14 12 15 2 16 3 17 9 18 11 19 10 20 1 21 4 24 5 25
REMARK SMILES IDX 8 26 6 27 7 28 24 29 25 30 26 31 27 32 28 34 29 35 30 36
REMARK SMILES IDX 88 37 31 38 87 39 32 40 33 41 34 42 81 43 35 44 86 45 80 46
REMARK SMILES IDX 82 47 36 48 85 49 79 50 78 51 37 53 67 54 48 55 66 56 49 57
REMARK SMILES IDX 52 58 65 59 83 60 50 61 51 62 64 64 84 65 53 66 38 67 39 68
REMARK SMILES IDX 47 69 40 70 46 71 41 72 42 73 43 74 44 75 45 76 68 77 69 78
REMARK SMILES IDX 77 79 70 80 76 81 71 82 72 83 73 84 74 85 75 86 54 87 55 88
REMARK SMILES IDX 63 89 56 90 62 91 57 92 58 93 59 94 60 95 61 96
REMARK H PARENT 19 8 1 22 1 23 26 33 82 52 52 63
REMARK Flexibility Score: inf
ROOT
ATOM      1  C   UNL A   1      37.422  22.443  25.796  1.00  0.00     0.002 C 
ENDROOT
BRANCH   1   2
ATOM      2  C   UNL A   1      37.319  22.075  24.311  1.00  0.00     0.002 C 
BRANCH   2   3
ATOM      3  C   UNL A   1      35.937  22.292  23.686  1.00  0.00     0.021 C 
BRANCH   3   4
ATOM      4  C   UNL A   1      34.802  21.606  24.441  1.00  0.00     0.116 C 
BRANCH   4   5
ATOM      5  N   UNL A   1      33.517  21.872  23.807  1.00  0.00    -0.356 N 
ATOM      6  C   UNL A   1      32.635  22.892  23.985  1.00  0.00     0.223 C 
ATOM      7  O   UNL A   1      31.576  22.865  23.353  1.00  0.00    -0.275 OA
ATOM      8  H   UNL A   1      33.242  21.201  23.140  1.00  0.00     0.163 HD
BRANCH   6   9
ATOM      9  C   UNL A   1      32.950  24.058  24.908  1.00  0.00     0.082 C 
ATOM     10  N   UNL A   1      32.355  26.760  25.431  1.00  0.00    -0.355 N 
ATOM     11  C   UNL A   1      33.672  26.523  24.886  1.00  0.00     0.119 C 
ATOM     12  C   UNL A   1      31.809  25.800  26.371  1.00  0.00     0.119 C 
ATOM     13  C   UNL A   1      33.697  25.182  24.166  1.00  0.00     0.035 C 
ATOM     14  C   UNL A   1      31.679  24.458  25.675  1.00  0.00     0.035 C 
BRANCH  10  15
ATOM     15  C   UNL A   1      31.797  28.019  25.298  1.00  0.00     0.157 A 
ATOM     16  C   UNL A   1      30.867  28.306  24.289  1.00  0.00     0.118 A 
ATOM     17  C   UNL A   1      30.477  29.651  24.159  1.00  0.00     0.157 A 
ATOM     18  N   UNL A   1      30.954  30.614  24.960  1.00  0.00    -0.217 NA
ATOM     19  N   UNL A   1      32.221  28.962  26.159  1.00  0.00    -0.217 NA
ATOM     20  C   UNL A   1      31.789  30.213  25.929  1.00  0.00     0.226 A 
BRANCH  16  21
ATOM     21  N   UNL A   1      30.434  27.336  23.364  1.00  0.00    -0.393 N 
ATOM     22  H   UNL A   1      31.033  27.043  22.640  1.00  0.00     0.156 HD
ATOM     23  H   UNL A   1      29.531  26.951  23.441  1.00  0.00     0.156 HD
ENDBRANCH  16  21
BRANCH  17  24
ATOM     24  N   UNL A   1      29.587  29.988  23.168  1.00  0.00    -0.355 N 
ATOM     25  C   UNL A   1      29.953  30.086  21.774  1.00  0.00     0.118 C 
ATOM     26  C   UNL A   1      28.154  29.874  23.347  1.00  0.00     0.118 C 
ATOM     27  C   UNL A   1      28.805  30.937  21.250  1.00  0.00     0.023 C 
ATOM     28  C   UNL A   1      27.594  30.388  22.010  1.00  0.00     0.023 C 
ENDBRANCH  17  24
ENDBRANCH  10  15
ENDBRANCH   6   9
ENDBRANCH   4   5
ENDBRANCH   3   4
ENDBRANCH   2   3
ENDBRANCH   1   2
BRANCH   1  29
ATOM     29  C   UNL A   1      37.848  23.884  26.079  1.00  0.00     0.021 C 
BRANCH  29  30
ATOM     30  C   UNL A   1      39.155  24.020  26.851  1.00  0.00     0.116 C 
BRANCH  30  31
ATOM     31  N   UNL A   1      40.254  24.437  25.994  1.00  0.00    -0.352 N 
ATOM     32  C   UNL A   1      41.043  25.556  26.086  1.00  0.00     0.251 C 
ATOM     33  H   UNL A   1      40.461  23.833  25.245  1.00  0.00     0.163 HD
ATOM     34  O   UNL A   1      41.799  25.856  25.165  1.00  0.00    -0.269 OA
BRANCH  32  35
ATOM     35  C   UNL A   1      40.960  26.408  27.290  1.00  0.00     0.039 A 
ATOM     36  C   UNL A   1      41.709  27.585  27.340  1.00  0.00     0.014 A 
ATOM     37  C   UNL A   1      40.136  26.048  28.361  1.00  0.00     0.014 A 
ATOM     38  C   UNL A   1      41.589  28.431  28.443  1.00  0.00     0.010 A 
ATOM     39  C   UNL A   1      39.966  26.925  29.428  1.00  0.00     0.010 A 
ATOM     40  C   UNL A   1      40.694  28.123  29.482  1.00  0.00    -0.014 A 
BRANCH  40  41
ATOM     41  C   UNL A   1      40.515  29.038  30.635  1.00  0.00     0.031 A 
ATOM     42  C   UNL A   1      41.393  28.900  31.849  1.00  0.00     0.074 A 
ATOM     43  C   UNL A   1      39.538  29.967  30.607  1.00  0.00     0.049 A 
ATOM     44  N   UNL A   1      41.366  29.582  32.965  1.00  0.00    -0.248 NA
ATOM     45  C   UNL A   1      42.423  27.849  31.812  1.00  0.00     0.031 C 
ATOM     46  C   UNL A   1      38.608  30.181  29.495  1.00  0.00     0.029 A 
ATOM     47  N   UNL A   1      39.167  30.905  31.536  1.00  0.00    -0.354 N 
ATOM     48  C   UNL A   1      42.369  29.042  33.761  1.00  0.00     0.074 A 
ATOM     49  C   UNL A   1      42.949  27.941  33.024  1.00  0.00     0.031 C 
ATOM     50  C   UNL A   1      37.799  31.211  29.792  1.00  0.00     0.029 A 
ATOM     51  C   UNL A   1      38.122  31.702  31.128  1.00  0.00     0.049 A 
ATOM     52  H   UNL A   1      39.606  30.999  32.412  1.00  0.00     0.167 HD
ATOM     53  C   UNL A   1      42.789  29.443  34.985  1.00  0.00     0.031 A 
ATOM     54  C   UNL A   1      37.495  32.714  31.759  1.00  0.00     0.031 A 
ATOM     55  C   UNL A   1      42.211  30.541  35.714  1.00  0.00     0.049 A 
ATOM     56  C   UNL A   1      37.952  33.116  33.134  1.00  0.00     0.074 A 
ATOM     57  C   UNL A   1      42.585  31.043  36.947  1.00  0.00     0.029 A 
ATOM     58  N   UNL A   1      41.140  31.306  35.277  1.00  0.00    -0.354 N 
ATOM     59  N   UNL A   1      38.930  32.619  33.854  1.00  0.00    -0.248 NA
ATOM     60  C   UNL A   1      37.226  34.218  33.781  1.00  0.00     0.031 C 
ATOM     61  C   UNL A   1      41.708  32.080  37.279  1.00  0.00     0.029 A 
ATOM     62  C   UNL A   1      40.826  32.263  36.225  1.00  0.00     0.049 A 
ATOM     63  H   UNL A   1      40.672  31.186  34.418  1.00  0.00     0.167 HD
ATOM     64  C   UNL A   1      38.952  33.363  35.028  1.00  0.00     0.074 A 
ATOM     65  C   UNL A   1      37.900  34.352  34.915  1.00  0.00     0.031 C 
ATOM     66  C   UNL A   1      39.772  33.239  36.100  1.00  0.00     0.031 A 
BRANCH  53  67
ATOM     67  C   UNL A   1      43.932  28.690  35.611  1.00  0.00    -0.014 A 
ATOM     68  C   UNL A   1      43.693  27.583  36.447  1.00  0.00     0.010 A 
ATOM     69  C   UNL A   1      45.259  29.056  35.323  1.00  0.00     0.010 A 
ATOM     70  C   UNL A   1      44.761  26.878  37.009  1.00  0.00     0.020 A 
ATOM     71  C   UNL A   1      46.330  28.335  35.860  1.00  0.00     0.020 A 
ATOM     72  C   UNL A   1      46.072  27.258  36.712  1.00  0.00     0.054 A 
BRANCH  72  73
ATOM     73  S   UNL A   1      47.434  26.302  37.431  1.00  0.00     0.124 S 
ATOM     74  O   UNL A   1      48.582  27.167  37.168  1.00  0.00    -0.237 OA
ATOM     75  O   UNL A   1      47.041  26.192  38.833  1.00  0.00    -0.237 OA
ATOM     76  O   UNL A   1      47.416  25.049  36.681  1.00  0.00    -0.744 OA
ENDBRANCH  72  73
ENDBRANCH  53  67
BRANCH  54  77
ATOM     77  C   UNL A   1      36.385  33.437  31.078  1.00  0.00    -0.014 A 
ATOM     78  C   UNL A   1      35.116  33.518  31.677  1.00  0.00     0.010 A 
ATOM     79  C   UNL A   1      36.598  34.074  29.842  1.00  0.00     0.010 A 
ATOM     80  C   UNL A   1      34.079  34.214  31.051  1.00  0.00     0.020 A 
ATOM     81  C   UNL A   1      35.571  34.794  29.225  1.00  0.00     0.020 A 
ATOM     82  C   UNL A   1      34.314  34.854  29.831  1.00  0.00     0.054 A 
BRANCH  82  83
ATOM     83  S   UNL A   1      32.968  35.804  29.070  1.00  0.00     0.124 S 
ATOM     84  O   UNL A   1      33.692  36.893  28.423  1.00  0.00    -0.237 OA
ATOM     85  O   UNL A   1      32.363  34.824  28.172  1.00  0.00    -0.237 OA
ATOM     86  O   UNL A   1      32.137  36.193  30.207  1.00  0.00    -0.744 OA
ENDBRANCH  82  83
ENDBRANCH  54  77
BRANCH  66  87
ATOM     87  C   UNL A   1      39.585  34.207  37.238  1.00  0.00    -0.014 A 
ATOM     88  C   UNL A   1      39.009  33.798  38.453  1.00  0.00     0.010 A 
ATOM     89  C   UNL A   1      40.065  35.524  37.115  1.00  0.00     0.010 A 
ATOM     90  C   UNL A   1      38.899  34.693  39.519  1.00  0.00     0.020 A 
ATOM     91  C   UNL A   1      39.981  36.415  38.188  1.00  0.00     0.020 A 
ATOM     92  C   UNL A   1      39.390  35.996  39.381  1.00  0.00     0.054 A 
BRANCH  92  93
ATOM     93  S   UNL A   1      39.287  37.120  40.801  1.00  0.00     0.124 S 
ATOM     94  O   UNL A   1      38.510  38.230  40.256  1.00  0.00    -0.237 OA
ATOM     95  O   UNL A   1      38.602  36.306  41.802  1.00  0.00    -0.237 OA
ATOM     96  O   UNL A   1      40.683  37.427  41.105  1.00  0.00    -0.744 OA
ENDBRANCH  92  93
ENDBRANCH  66  87
ENDBRANCH  40  41
ENDBRANCH  32  35
ENDBRANCH  30  31
ENDBRANCH  29  30
ENDBRANCH   1  29
TORSDOF 19
ENDMDL
MODEL 2
REMARK VINA RESULT:     -11.3      1.580      8.396
REMARK SMILES Nc1c(N2CCCC2)ncnc1N1CCC(C(=O)NCCCCCCNC(=O)c2ccc(-c3c4nc(c(-c5ccc(S(=O)(=O)[O-])cc5)c5ccc([nH]5)c(-c5ccc(S(=O)(=O)[O-])cc5)c5nc(c(-c6ccc(S(=O)(=O)[O-])cc6)c6ccc3[nH]6)C=C5)C=C4)cc2)CC1
REMARK SMILES IDX 23 1 22 2 21 3 20 4 19 5 17 6 18 7 16 9 13 10 14 11 90 12
REMARK SMILES IDX 15 13 89 14 12 15 2 16 3 17 9 18 11 19 10 20 1 21 4 24 5 25
REMARK SMILES IDX 8 26 6 27 7 28 24 29 25 30 26 31 27 32 28 34 29 35 30 36
REMARK SMILES IDX 88 37 31 38 87 39 32 40 33 41 34 42 81 43 35 44 86 45 80 46
REMARK SMILES IDX 82 47 36 48 85 49 79 50 78 51 37 53 67 54 48 55 66 56 49 57
REMARK SMILES IDX 52 58 65 59 83 60 50 61 51 62 64 64 84 65 53 66 38 67 39 68
REMARK SMILES IDX 47 69 40 70 46 71 41 72 42 73 43 74 44 75 45 76 68 77 69 78
REMARK SMILES IDX 77 79 70 80 76 81 71 82 72 83 73 84 74 85 75 86 54 87 55 88
REMARK SMILES IDX 63 89 56 90 62 91 57 92 58 93 59 94 60 95 61 96
REMARK H PARENT 19 8 1 22 1 23 26 33 82 52 52 63
REMARK Flexibility Score: inf
ROOT
ATOM      1  C   UNL A   1      42.259  21.807  27.532  1.00  0.00     0.002 C 
ENDROOT
BRANCH   1   2
ATOM      2  C   UNL A   1      40.729  21.894  27.531  1.00  0.00     0.002 C 
BRANCH   2   3
ATOM      3  C   UNL A   1      40.081  21.863  26.143  1.00  0.00     0.021 C 
BRANCH   3   4
ATOM      4  C   UNL A   1      38.583  22.154  26.153  1.00  0.00     0.116 C 
BRANCH   4   5
ATOM      5  N   UNL A   1      38.109  22.502  24.819  1.00  0.00    -0.356 N 
ATOM      6  C   UNL A   1      36.852  22.507  24.298  1.00  0.00     0.223 C 
ATOM      7  O   UNL A   1      36.716  22.800  23.108  1.00  0.00    -0.275 OA
ATOM      8  H   UNL A   1      38.816  22.779  24.192  1.00  0.00     0.163 HD
BRANCH   6   9
ATOM      9  C   UNL A   1      35.638  22.196  25.159  1.00  0.00     0.082 C 
ATOM     10  N   UNL A   1      33.045  23.072  25.819  1.00  0.00    -0.355 N 
ATOM     11  C   UNL A   1      34.032  23.261  26.857  1.00  0.00     0.119 C 
ATOM     12  C   UNL A   1      33.119  21.877  25.000  1.00  0.00     0.119 C 
ATOM     13  C   UNL A   1      35.426  23.266  26.246  1.00  0.00     0.035 C 
ATOM     14  C   UNL A   1      34.438  21.882  24.252  1.00  0.00     0.035 C 
BRANCH  10  15
ATOM     15  C   UNL A   1      31.899  23.847  25.841  1.00  0.00     0.157 A 
ATOM     16  C   UNL A   1      31.778  24.999  25.053  1.00  0.00     0.118 A 
ATOM     17  C   UNL A   1      30.633  25.787  25.263  1.00  0.00     0.157 A 
ATOM     18  N   UNL A   1      29.694  25.456  26.160  1.00  0.00    -0.217 NA
ATOM     19  N   UNL A   1      30.925  23.463  26.686  1.00  0.00    -0.217 NA
ATOM     20  C   UNL A   1      29.883  24.301  26.812  1.00  0.00     0.226 A 
BRANCH  16  21
ATOM     21  N   UNL A   1      32.800  25.429  24.183  1.00  0.00    -0.393 N 
ATOM     22  H   UNL A   1      33.012  26.387  24.107  1.00  0.00     0.156 HD
ATOM     23  H   UNL A   1      33.302  24.771  23.650  1.00  0.00     0.156 HD
ENDBRANCH  16  21
BRANCH  17  24
ATOM     24  N   UNL A   1      30.480  26.941  24.532  1.00  0.00    -0.355 N 
ATOM     25  C   UNL A   1      29.438  27.123  23.548  1.00  0.00     0.118 C 
ATOM     26  C   UNL A   1      31.059  28.201  24.951  1.00  0.00     0.118 C 
ATOM     27  C   UNL A   1      30.023  28.277  22.745  1.00  0.00     0.023 C 
ATOM     28  C   UNL A   1      30.654  29.163  23.822  1.00  0.00     0.023 C 
ENDBRANCH  17  24
ENDBRANCH  10  15
ENDBRANCH   6   9
ENDBRANCH   4   5
ENDBRANCH   3   4
ENDBRANCH   2   3
ENDBRANCH   1   2
BRANCH   1  29
ATOM     29  C   UNL A   1      42.974  22.969  28.224  1.00  0.00     0.021 C 
BRANCH  29  30
ATOM     30  C   UNL A   1      43.814  23.841  27.297  1.00  0.00     0.116 C 
BRANCH  30  31
ATOM     31  N   UNL A   1      43.020  24.413  26.220  1.00  0.00    -0.352 N 
ATOM     32  C   UNL A   1      42.087  25.417  26.274  1.00  0.00     0.251 C 
ATOM     33  H   UNL A   1      43.175  24.025  25.328  1.00  0.00     0.163 HD
ATOM     34  O   UNL A   1      41.368  25.645  25.305  1.00  0.00    -0.269 OA
BRANCH  32  35
ATOM     35  C   UNL A   1      41.942  26.208  27.514  1.00  0.00     0.039 A 
ATOM     36  C   UNL A   1      42.803  27.284  27.736  1.00  0.00     0.014 A 
ATOM     37  C   UNL A   1      40.951  25.891  28.447  1.00  0.00     0.014 A 
ATOM     38  C   UNL A   1      42.634  28.079  28.870  1.00  0.00     0.010 A 
ATOM     39  C   UNL A   1      40.740  26.725  29.542  1.00  0.00     0.010 A 
ATOM     40  C   UNL A   1      41.582  27.824  29.766  1.00  0.00    -0.014 A 
BRANCH  40  41
ATOM     41  C   UNL A   1      41.356  28.692  30.948  1.00  0.00     0.031 A 
ATOM     42  C   UNL A   1      40.253  29.715  30.931  1.00  0.00     0.074 A 
ATOM     43  C   UNL A   1      42.168  28.588  32.019  1.00  0.00     0.049 A 
ATOM     44  N   UNL A   1      39.924  30.584  31.851  1.00  0.00    -0.248 NA
ATOM     45  C   UNL A   1      39.423  29.781  29.717  1.00  0.00     0.031 C 
ATOM     46  C   UNL A   1      43.287  27.650  32.144  1.00  0.00     0.029 A 
ATOM     47  N   UNL A   1      42.175  29.273  33.208  1.00  0.00    -0.354 N 
ATOM     48  C   UNL A   1      38.854  31.301  31.327  1.00  0.00     0.074 A 
ATOM     49  C   UNL A   1      38.625  30.803  29.989  1.00  0.00     0.031 C 
ATOM     50  C   UNL A   1      43.847  27.794  33.356  1.00  0.00     0.029 A 
ATOM     51  C   UNL A   1      43.158  28.860  34.077  1.00  0.00     0.049 A 
ATOM     52  H   UNL A   1      41.538  29.993  33.418  1.00  0.00     0.167 HD
ATOM     53  C   UNL A   1      38.111  32.267  31.916  1.00  0.00     0.031 A 
ATOM     54  C   UNL A   1      43.469  29.290  35.315  1.00  0.00     0.031 A 
ATOM     55  C   UNL A   1      38.340  32.758  33.250  1.00  0.00     0.049 A 
ATOM     56  C   UNL A   1      42.656  30.393  35.934  1.00  0.00     0.074 A 
ATOM     57  C   UNL A   1      37.624  33.714  33.947  1.00  0.00     0.029 A 
ATOM     58  N   UNL A   1      39.359  32.330  34.087  1.00  0.00    -0.354 N 
ATOM     59  N   UNL A   1      41.622  31.030  35.437  1.00  0.00    -0.248 NA
ATOM     60  C   UNL A   1      43.045  30.831  37.281  1.00  0.00     0.031 C 
ATOM     61  C   UNL A   1      38.241  33.902  35.188  1.00  0.00     0.029 A 
ATOM     62  C   UNL A   1      39.305  33.018  35.286  1.00  0.00     0.049 A 
ATOM     63  H   UNL A   1      40.024  31.639  33.861  1.00  0.00     0.167 HD
ATOM     64  C   UNL A   1      41.223  31.928  36.421  1.00  0.00     0.074 A 
ATOM     65  C   UNL A   1      42.117  31.741  37.545  1.00  0.00     0.031 C 
ATOM     66  C   UNL A   1      40.205  32.824  36.395  1.00  0.00     0.031 A 
BRANCH  53  67
ATOM     67  C   UNL A   1      36.977  32.857  31.122  1.00  0.00    -0.014 A 
ATOM     68  C   UNL A   1      37.228  33.723  30.041  1.00  0.00     0.010 A 
ATOM     69  C   UNL A   1      35.648  32.504  31.420  1.00  0.00     0.010 A 
ATOM     70  C   UNL A   1      36.170  34.251  29.296  1.00  0.00     0.020 A 
ATOM     71  C   UNL A   1      34.589  33.007  30.659  1.00  0.00     0.020 A 
ATOM     72  C   UNL A   1      34.858  33.889  29.610  1.00  0.00     0.054 A 
BRANCH  72  73
ATOM     73  S   UNL A   1      33.510  34.566  28.603  1.00  0.00     0.124 S 
ATOM     74  O   UNL A   1      34.164  35.691  27.940  1.00  0.00    -0.237 OA
ATOM     75  O   UNL A   1      33.163  33.442  27.737  1.00  0.00    -0.237 OA
ATOM     76  O   UNL A   1      32.490  34.930  29.585  1.00  0.00    -0.744 OA
ENDBRANCH  72  73
ENDBRANCH  53  67
BRANCH  54  77
ATOM     77  C   UNL A   1      44.588  28.651  36.062  1.00  0.00    -0.014 A 
ATOM     78  C   UNL A   1      45.893  29.166  35.965  1.00  0.00     0.010 A 
ATOM     79  C   UNL A   1      44.352  27.543  36.896  1.00  0.00     0.010 A 
ATOM     80  C   UNL A   1      46.941  28.582  36.682  1.00  0.00     0.020 A 
ATOM     81  C   UNL A   1      45.392  26.973  37.635  1.00  0.00     0.020 A 
ATOM     82  C   UNL A   1      46.683  27.493  37.518  1.00  0.00     0.054 A 
BRANCH  82  83
ATOM     83  S   UNL A   1      48.050  26.793  38.486  1.00  0.00     0.124 S 
ATOM     84  O   UNL A   1      48.801  26.064  37.469  1.00  0.00    -0.237 OA
ATOM     85  O   UNL A   1      48.699  27.987  39.020  1.00  0.00    -0.237 OA
ATOM     86  O   UNL A   1      47.375  25.962  39.480  1.00  0.00    -0.744 OA
ENDBRANCH  82  83
ENDBRANCH  54  77
BRANCH  66  87
ATOM     87  C   UNL A   1      39.984  33.664  37.625  1.00  0.00    -0.014 A 
ATOM     88  C   UNL A   1      40.457  34.985  37.696  1.00  0.00     0.010 A 
ATOM     89  C   UNL A   1      39.222  33.148  38.690  1.00  0.00     0.010 A 
ATOM     90  C   UNL A   1      40.188  35.771  38.820  1.00  0.00     0.020 A 
ATOM     91  C   UNL A   1      38.929  33.940  39.803  1.00  0.00     0.020 A 
ATOM     92  C   UNL A   1      39.422  35.244  39.865  1.00  0.00     0.054 A 
BRANCH  92  93
ATOM     93  S   UNL A   1      39.041  36.306  41.285  1.00  0.00     0.124 S 
ATOM     94  O   UNL A   1      38.784  37.592  40.643  1.00  0.00    -0.237 OA
ATOM     95  O   UNL A   1      37.872  35.651  41.868  1.00  0.00    -0.237 OA
ATOM     96  O   UNL A   1      40.252  36.248  42.099  1.00  0.00    -0.744 OA
ENDBRANCH  92  93
ENDBRANCH  66  87
ENDBRANCH  40  41
ENDBRANCH  32  35
ENDBRANCH  30  31
ENDBRANCH  29  30
ENDBRANCH   1  29
TORSDOF 19
ENDMDL
MODEL 3
REMARK VINA RESULT:     -11.2      5.924      8.061
REMARK SMILES Nc1c(N2CCCC2)ncnc1N1CCC(C(=O)NCCCCCCNC(=O)c2ccc(-c3c4nc(c(-c5ccc(S(=O)(=O)[O-])cc5)c5ccc([nH]5)c(-c5ccc(S(=O)(=O)[O-])cc5)c5nc(c(-c6ccc(S(=O)(=O)[O-])cc6)c6ccc3[nH]6)C=C5)C=C4)cc2)CC1
REMARK SMILES IDX 23 1 22 2 21 3 20 4 19 5 17 6 18 7 16 9 13 10 14 11 90 12
REMARK SMILES IDX 15 13 89 14 12 15 2 16 3 17 9 18 11 19 10 20 1 21 4 24 5 25
REMARK SMILES IDX 8 26 6 27 7 28 24 29 25 30 26 31 27 32 28 34 29 35 30 36
REMARK SMILES IDX 88 37 31 38 87 39 32 40 33 41 34 42 81 43 35 44 86 45 80 46
REMARK SMILES IDX 82 47 36 48 85 49 79 50 78 51 37 53 67 54 48 55 66 56 49 57
REMARK SMILES IDX 52 58 65 59 83 60 50 61 51 62 64 64 84 65 53 66 38 67 39 68
REMARK SMILES IDX 47 69 40 70 46 71 41 72 42 73 43 74 44 75 45 76 68 77 69 78
REMARK SMILES IDX 77 79 70 80 76 81 71 82 72 83 73 84 74 85 75 86 54 87 55 88
REMARK SMILES IDX 63 89 56 90 62 91 57 92 58 93 59 94 60 95 61 96
REMARK H PARENT 19 8 1 22 1 23 26 33 82 52 52 63
REMARK Flexibility Score: inf
ROOT
ATOM      1  C   UNL A   1      37.760  21.668  25.215  1.00  0.00     0.002 C 
ENDROOT
BRANCH   1   2
ATOM      2  C   UNL A   1      36.361  21.549  24.599  1.00  0.00     0.002 C 
BRANCH   2   3
ATOM      3  C   UNL A   1      35.861  22.808  23.884  1.00  0.00     0.021 C 
BRANCH   3   4
ATOM      4  C   UNL A   1      34.340  22.913  23.806  1.00  0.00     0.116 C 
BRANCH   4   5
ATOM      5  N   UNL A   1      33.705  21.714  24.337  1.00  0.00    -0.356 N 
ATOM      6  C   UNL A   1      32.445  21.513  24.807  1.00  0.00     0.223 C 
ATOM      7  O   UNL A   1      32.160  20.399  25.254  1.00  0.00    -0.275 OA
ATOM      8  H   UNL A   1      34.286  20.918  24.360  1.00  0.00     0.163 HD
BRANCH   6   9
ATOM      9  C   UNL A   1      31.396  22.612  24.754  1.00  0.00     0.082 C 
ATOM     10  N   UNL A   1      30.988  25.326  24.130  1.00  0.00    -0.355 N 
ATOM     11  C   UNL A   1      30.936  25.013  25.539  1.00  0.00     0.119 C 
ATOM     12  C   UNL A   1      30.438  24.372  23.186  1.00  0.00     0.119 C 
ATOM     13  C   UNL A   1      31.669  23.706  25.803  1.00  0.00     0.035 C 
ATOM     14  C   UNL A   1      31.216  23.074  23.300  1.00  0.00     0.035 C 
BRANCH  10  15
ATOM     15  C   UNL A   1      31.256  26.628  23.747  1.00  0.00     0.157 A 
ATOM     16  C   UNL A   1      30.230  27.571  23.586  1.00  0.00     0.118 A 
ATOM     17  C   UNL A   1      30.602  28.819  23.057  1.00  0.00     0.157 A 
ATOM     18  N   UNL A   1      31.869  29.108  22.729  1.00  0.00    -0.217 NA
ATOM     19  N   UNL A   1      32.542  26.934  23.498  1.00  0.00    -0.217 NA
ATOM     20  C   UNL A   1      32.775  28.153  22.984  1.00  0.00     0.226 A 
BRANCH  16  21
ATOM     21  N   UNL A   1      28.876  27.259  23.818  1.00  0.00    -0.393 N 
ATOM     22  H   UNL A   1      28.633  26.403  24.240  1.00  0.00     0.156 HD
ATOM     23  H   UNL A   1      28.172  27.895  23.556  1.00  0.00     0.156 HD
ENDBRANCH  16  21
BRANCH  17  24
ATOM     24  N   UNL A   1      29.629  29.768  22.856  1.00  0.00    -0.355 N 
ATOM     25  C   UNL A   1      29.355  30.833  23.793  1.00  0.00     0.118 C 
ATOM     26  C   UNL A   1      29.081  30.045  21.544  1.00  0.00     0.118 C 
ATOM     27  C   UNL A   1      27.952  31.229  23.353  1.00  0.00     0.023 C 
ATOM     28  C   UNL A   1      28.029  31.131  21.828  1.00  0.00     0.023 C 
ENDBRANCH  17  24
ENDBRANCH  10  15
ENDBRANCH   6   9
ENDBRANCH   4   5
ENDBRANCH   3   4
ENDBRANCH   2   3
ENDBRANCH   1   2
BRANCH   1  29
ATOM     29  C   UNL A   1      38.611  20.399  25.141  1.00  0.00     0.021 C 
BRANCH  29  30
ATOM     30  C   UNL A   1      39.444  20.121  26.387  1.00  0.00     0.116 C 
BRANCH  30  31
ATOM     31  N   UNL A   1      40.612  19.306  26.091  1.00  0.00    -0.352 N 
ATOM     32  C   UNL A   1      41.920  19.694  25.943  1.00  0.00     0.251 C 
ATOM     33  H   UNL A   1      40.441  18.343  25.982  1.00  0.00     0.163 HD
ATOM     34  O   UNL A   1      42.752  18.906  25.501  1.00  0.00    -0.269 OA
BRANCH  32  35
ATOM     35  C   UNL A   1      42.315  21.072  26.300  1.00  0.00     0.039 A 
ATOM     36  C   UNL A   1      42.659  21.357  27.623  1.00  0.00     0.014 A 
ATOM     37  C   UNL A   1      42.353  22.076  25.328  1.00  0.00     0.014 A 
ATOM     38  C   UNL A   1      43.097  22.638  27.960  1.00  0.00     0.010 A 
ATOM     39  C   UNL A   1      42.854  23.333  25.651  1.00  0.00     0.010 A 
ATOM     40  C   UNL A   1      43.227  23.628  26.971  1.00  0.00    -0.014 A 
BRANCH  40  41
ATOM     41  C   UNL A   1      43.742  24.979  27.303  1.00  0.00     0.031 A 
ATOM     42  C   UNL A   1      45.197  25.301  27.103  1.00  0.00     0.074 A 
ATOM     43  C   UNL A   1      42.908  25.903  27.823  1.00  0.00     0.049 A 
ATOM     44  N   UNL A   1      45.838  26.410  27.366  1.00  0.00    -0.248 NA
ATOM     45  C   UNL A   1      46.046  24.233  26.550  1.00  0.00     0.031 C 
ATOM     46  C   UNL A   1      41.481  25.701  28.086  1.00  0.00     0.029 A 
ATOM     47  N   UNL A   1      43.139  27.196  28.219  1.00  0.00    -0.354 N 
ATOM     48  C   UNL A   1      47.162  26.173  27.015  1.00  0.00     0.074 A 
ATOM     49  C   UNL A   1      47.244  24.799  26.573  1.00  0.00     0.031 C 
ATOM     50  C   UNL A   1      40.957  26.841  28.565  1.00  0.00     0.029 A 
ATOM     51  C   UNL A   1      42.016  27.840  28.683  1.00  0.00     0.049 A 
ATOM     52  H   UNL A   1      44.025  27.622  28.177  1.00  0.00     0.167 HD
ATOM     53  C   UNL A   1      48.211  27.030  27.034  1.00  0.00     0.031 A 
ATOM     54  C   UNL A   1      41.855  29.094  29.150  1.00  0.00     0.031 A 
ATOM     55  C   UNL A   1      48.125  28.398  27.472  1.00  0.00     0.049 A 
ATOM     56  C   UNL A   1      43.043  30.015  29.199  1.00  0.00     0.074 A 
ATOM     57  C   UNL A   1      49.123  29.354  27.501  1.00  0.00     0.029 A 
ATOM     58  N   UNL A   1      46.975  29.004  27.955  1.00  0.00    -0.354 N 
ATOM     59  N   UNL A   1      44.279  29.784  28.824  1.00  0.00    -0.248 NA
ATOM     60  C   UNL A   1      42.814  31.367  29.727  1.00  0.00     0.031 C 
ATOM     61  C   UNL A   1      48.591  30.525  28.049  1.00  0.00     0.029 A 
ATOM     62  C   UNL A   1      47.244  30.315  28.305  1.00  0.00     0.049 A 
ATOM     63  H   UNL A   1      46.096  28.565  28.038  1.00  0.00     0.167 HD
ATOM     64  C   UNL A   1      44.970  30.969  29.050  1.00  0.00     0.074 A 
ATOM     65  C   UNL A   1      44.011  31.918  29.579  1.00  0.00     0.031 C 
ATOM     66  C   UNL A   1      46.279  31.247  28.835  1.00  0.00     0.031 A 
BRANCH  53  67
ATOM     67  C   UNL A   1      49.543  26.511  26.563  1.00  0.00    -0.014 A 
ATOM     68  C   UNL A   1      49.971  26.722  25.238  1.00  0.00     0.010 A 
ATOM     69  C   UNL A   1      50.401  25.853  27.462  1.00  0.00     0.010 A 
ATOM     70  C   UNL A   1      51.217  26.254  24.815  1.00  0.00     0.020 A 
ATOM     71  C   UNL A   1      51.661  25.409  27.049  1.00  0.00     0.020 A 
ATOM     72  C   UNL A   1      52.054  25.601  25.722  1.00  0.00     0.054 A 
BRANCH  72  73
ATOM     73  S   UNL A   1      53.679  25.035  25.149  1.00  0.00     0.124 S 
ATOM     74  O   UNL A   1      53.696  25.516  23.770  1.00  0.00    -0.237 OA
ATOM     75  O   UNL A   1      54.594  25.714  26.062  1.00  0.00    -0.237 OA
ATOM     76  O   UNL A   1      53.616  23.583  25.300  1.00  0.00    -0.744 OA
ENDBRANCH  72  73
ENDBRANCH  53  67
BRANCH  54  77
ATOM     77  C   UNL A   1      40.507  29.557  29.579  1.00  0.00    -0.014 A 
ATOM     78  C   UNL A   1      40.161  29.573  30.942  1.00  0.00     0.010 A 
ATOM     79  C   UNL A   1      39.571  30.013  28.633  1.00  0.00     0.010 A 
ATOM     80  C   UNL A   1      38.905  30.028  31.350  1.00  0.00     0.020 A 
ATOM     81  C   UNL A   1      38.323  30.494  29.038  1.00  0.00     0.020 A 
ATOM     82  C   UNL A   1      37.995  30.492  30.396  1.00  0.00     0.054 A 
BRANCH  82  83
ATOM     83  S   UNL A   1      36.394  31.136  30.958  1.00  0.00     0.124 S 
ATOM     84  O   UNL A   1      35.977  30.120  31.919  1.00  0.00    -0.237 OA
ATOM     85  O   UNL A   1      36.759  32.432  31.524  1.00  0.00    -0.237 OA
ATOM     86  O   UNL A   1      35.601  31.200  29.732  1.00  0.00    -0.744 OA
ENDBRANCH  82  83
ENDBRANCH  54  77
BRANCH  66  87
ATOM     87  C   UNL A   1      46.760  32.638  29.151  1.00  0.00    -0.014 A 
ATOM     88  C   UNL A   1      47.320  32.946  30.403  1.00  0.00     0.010 A 
ATOM     89  C   UNL A   1      46.722  33.629  28.153  1.00  0.00     0.010 A 
ATOM     90  C   UNL A   1      47.817  34.226  30.657  1.00  0.00     0.020 A 
ATOM     91  C   UNL A   1      47.242  34.903  28.395  1.00  0.00     0.020 A 
ATOM     92  C   UNL A   1      47.778  35.196  29.650  1.00  0.00     0.054 A 
BRANCH  92  93
ATOM     93  S   UNL A   1      48.484  36.832  29.990  1.00  0.00     0.124 S 
ATOM     94  O   UNL A   1      49.888  36.514  30.235  1.00  0.00    -0.237 OA
ATOM     95  O   UNL A   1      48.212  37.560  28.753  1.00  0.00    -0.237 OA
ATOM     96  O   UNL A   1      47.738  37.298  31.157  1.00  0.00    -0.744 OA
ENDBRANCH  92  93
ENDBRANCH  66  87
ENDBRANCH  40  41
ENDBRANCH  32  35
ENDBRANCH  30  31
ENDBRANCH  29  30
ENDBRANCH   1  29
TORSDOF 19
ENDMDL
