MODEL 1
REMARK VINA RESULT:     -11.3      0.000      0.000
REMARK SMILES CC(C)CSc1cc2c(cc1Cl)C=C(C(=O)NCCCCCCNC(=O)c1ccc(-c3c4nc(c(-c5ccc(S(=O)(=O)[O-])cc5)c5ccc([nH]5)c(-c5ccc(S(=O)(=O)[O-])cc5)c5nc(c(-c6ccc(S(=O)(=O)[O-])cc6)c6ccc3[nH]6)C=C5)C=C4)cc1)[C@H](C(F)(F)F)O2
REMARK SMILES IDX 20 1 19 2 18 3 17 4 15 5 16 6 14 8 6 9 7 10 11 11 8 12 10 13
REMARK SMILES IDX 12 14 9 15 92 16 13 17 87 18 5 19 4 20 2 21 1 22 3 23 88 24
REMARK SMILES IDX 89 25 90 26 91 27 21 28 22 29 23 30 24 31 25 32 26 34 27 35
REMARK SMILES IDX 28 36 86 37 29 38 85 39 30 40 31 41 32 42 79 43 33 44 84 45
REMARK SMILES IDX 78 46 80 47 34 48 83 49 77 50 76 51 35 53 65 54 46 55 64 56
REMARK SMILES IDX 47 57 50 58 63 59 81 60 48 61 49 62 62 64 82 65 51 66 36 67
REMARK SMILES IDX 37 68 45 69 38 70 44 71 39 72 40 73 41 74 42 75 43 76 66 77
REMARK SMILES IDX 67 78 75 79 68 80 74 81 69 82 70 83 71 84 72 85 73 86 52 87
REMARK SMILES IDX 53 88 61 89 54 90 60 91 55 92 56 93 57 94 58 95 59 96
REMARK H PARENT 17 7 24 33 80 52 50 63
REMARK Flexibility Score: inf
ROOT
ATOM      1  C   UNL A   1      33.966  28.819  26.772  1.00  0.00     0.002 C 
ENDROOT
BRANCH   1   2
ATOM      2  C   UNL A   1      32.940  29.737  26.100  1.00  0.00     0.021 C 
BRANCH   2   3
ATOM      3  C   UNL A   1      31.601  29.074  25.783  1.00  0.00     0.116 C 
BRANCH   3   4
ATOM      4  N   UNL A   1      31.388  28.931  24.354  1.00  0.00    -0.352 N 
ATOM      5  C   UNL A   1      31.429  27.937  23.436  1.00  0.00     0.251 C 
ATOM      6  O   UNL A   1      31.191  28.289  22.276  1.00  0.00    -0.270 OA
ATOM      7  H   UNL A   1      31.149  29.792  23.939  1.00  0.00     0.163 HD
BRANCH   5   8
ATOM      8  C   UNL A   1      31.725  26.500  23.719  1.00  0.00     0.067 C 
ATOM      9  C   UNL A   1      34.042  22.088  24.581  1.00  0.00     0.030 A 
ATOM     10  C   UNL A   1      32.749  22.462  24.172  1.00  0.00     0.063 A 
ATOM     11  C   UNL A   1      34.985  23.112  24.789  1.00  0.00     0.055 A 
ATOM     12  C   UNL A   1      32.423  23.801  23.954  1.00  0.00     0.129 A 
ATOM     13  C   UNL A   1      34.670  24.447  24.485  1.00  0.00     0.033 A 
ATOM     14  Cl  UNL A   1      36.543  22.868  25.492  1.00  0.00    -0.083 Cl
ATOM     15  C   UNL A   1      33.388  24.794  24.069  1.00  0.00     0.019 A 
ATOM     16  O   UNL A   1      31.130  24.088  23.617  1.00  0.00    -0.475 OA
ATOM     17  C   UNL A   1      33.031  26.173  23.761  1.00  0.00     0.025 C 
ATOM     18  C   UNL A   1      30.692  25.434  23.972  1.00  0.00     0.314 C 
BRANCH   9  19
ATOM     19  S   UNL A   1      34.231  20.324  24.845  1.00  0.00    -0.124 SA
BRANCH  19  20
ATOM     20  C   UNL A   1      32.682  19.541  24.270  1.00  0.00     0.078 C 
BRANCH  20  21
ATOM     21  C   UNL A   1      32.597  18.005  24.202  1.00  0.00    -0.007 C 
ATOM     22  C   UNL A   1      33.637  17.323  23.318  1.00  0.00     0.008 C 
ATOM     23  C   UNL A   1      32.732  17.459  25.631  1.00  0.00     0.008 C 
ENDBRANCH  20  21
ENDBRANCH  19  20
ENDBRANCH   9  19
BRANCH  18  24
ATOM     24  C   UNL A   1      30.159  25.465  25.421  1.00  0.00     0.429 C 
ATOM     25  F   UNL A   1      30.963  26.148  26.266  1.00  0.00    -0.167 F 
ATOM     26  F   UNL A   1      28.936  26.041  25.506  1.00  0.00    -0.167 F 
ATOM     27  F   UNL A   1      30.028  24.208  25.911  1.00  0.00    -0.167 F 
ENDBRANCH  18  24
ENDBRANCH   5   8
ENDBRANCH   3   4
ENDBRANCH   2   3
ENDBRANCH   1   2
BRANCH   1  28
ATOM     28  C   UNL A   1      35.129  29.524  27.479  1.00  0.00     0.002 C 
BRANCH  28  29
ATOM     29  C   UNL A   1      34.879  30.980  27.879  1.00  0.00     0.021 C 
BRANCH  29  30
ATOM     30  C   UNL A   1      35.969  31.606  28.742  1.00  0.00     0.116 C 
BRANCH  30  31
ATOM     31  N   UNL A   1      35.844  31.239  30.144  1.00  0.00    -0.352 N 
ATOM     32  C   UNL A   1      36.621  30.386  30.891  1.00  0.00     0.251 C 
ATOM     33  H   UNL A   1      35.098  31.663  30.627  1.00  0.00     0.163 HD
ATOM     34  O   UNL A   1      36.269  30.059  32.019  1.00  0.00    -0.269 OA
BRANCH  32  35
ATOM     35  C   UNL A   1      37.868  29.840  30.310  1.00  0.00     0.039 A 
ATOM     36  C   UNL A   1      38.755  29.106  31.100  1.00  0.00     0.014 A 
ATOM     37  C   UNL A   1      38.161  30.089  28.967  1.00  0.00     0.014 A 
ATOM     38  C   UNL A   1      40.003  28.761  30.593  1.00  0.00     0.010 A 
ATOM     39  C   UNL A   1      39.384  29.671  28.436  1.00  0.00     0.010 A 
ATOM     40  C   UNL A   1      40.335  29.044  29.258  1.00  0.00    -0.014 A 
BRANCH  40  41
ATOM     41  C   UNL A   1      41.679  28.677  28.741  1.00  0.00     0.031 A 
ATOM     42  C   UNL A   1      42.807  29.674  28.758  1.00  0.00     0.074 A 
ATOM     43  C   UNL A   1      41.896  27.420  28.304  1.00  0.00     0.049 A 
ATOM     44  N   UNL A   1      44.045  29.518  28.362  1.00  0.00    -0.248 NA
ATOM     45  C   UNL A   1      42.516  31.015  29.289  1.00  0.00     0.031 C 
ATOM     46  C   UNL A   1      40.887  26.359  28.268  1.00  0.00     0.029 A 
ATOM     47  N   UNL A   1      43.034  26.811  27.837  1.00  0.00    -0.354 N 
ATOM     48  C   UNL A   1      44.674  30.738  28.581  1.00  0.00     0.074 A 
ATOM     49  C   UNL A   1      43.676  31.637  29.119  1.00  0.00     0.031 C 
ATOM     50  C   UNL A   1      41.464  25.219  27.864  1.00  0.00     0.029 A 
ATOM     51  C   UNL A   1      42.864  25.479  27.542  1.00  0.00     0.049 A 
ATOM     52  H   UNL A   1      43.891  27.283  27.725  1.00  0.00     0.167 HD
ATOM     53  C   UNL A   1      45.968  31.072  28.368  1.00  0.00     0.031 A 
ATOM     54  C   UNL A   1      43.727  24.565  27.055  1.00  0.00     0.031 A 
ATOM     55  C   UNL A   1      46.959  30.167  27.846  1.00  0.00     0.049 A 
ATOM     56  C   UNL A   1      45.143  24.976  26.772  1.00  0.00     0.074 A 
ATOM     57  C   UNL A   1      48.299  30.414  27.606  1.00  0.00     0.029 A 
ATOM     58  N   UNL A   1      46.725  28.846  27.491  1.00  0.00    -0.354 N 
ATOM     59  N   UNL A   1      45.716  26.138  26.981  1.00  0.00    -0.248 NA
ATOM     60  C   UNL A   1      46.029  23.963  26.182  1.00  0.00     0.031 C 
ATOM     61  C   UNL A   1      48.862  29.263  27.049  1.00  0.00     0.029 A 
ATOM     62  C   UNL A   1      47.890  28.276  27.007  1.00  0.00     0.049 A 
ATOM     63  H   UNL A   1      45.859  28.385  27.570  1.00  0.00     0.167 HD
ATOM     64  C   UNL A   1      47.031  25.994  26.556  1.00  0.00     0.074 A 
ATOM     65  C   UNL A   1      47.175  24.627  26.096  1.00  0.00     0.031 C 
ATOM     66  C   UNL A   1      48.023  26.916  26.545  1.00  0.00     0.031 A 
BRANCH  53  67
ATOM     67  C   UNL A   1      46.410  32.476  28.695  1.00  0.00    -0.014 A 
ATOM     68  C   UNL A   1      46.407  33.460  27.689  1.00  0.00     0.010 A 
ATOM     69  C   UNL A   1      46.944  32.790  29.957  1.00  0.00     0.010 A 
ATOM     70  C   UNL A   1      46.954  34.724  27.929  1.00  0.00     0.020 A 
ATOM     71  C   UNL A   1      47.468  34.062  30.209  1.00  0.00     0.020 A 
ATOM     72  C   UNL A   1      47.491  35.013  29.186  1.00  0.00     0.054 A 
BRANCH  72  73
ATOM     73  S   UNL A   1      48.217  36.651  29.475  1.00  0.00     0.124 S 
ATOM     74  O   UNL A   1      49.085  36.405  30.621  1.00  0.00    -0.237 OA
ATOM     75  O   UNL A   1      48.897  36.927  28.212  1.00  0.00    -0.237 OA
ATOM     76  O   UNL A   1      47.053  37.496  29.740  1.00  0.00    -0.744 OA
ENDBRANCH  72  73
ENDBRANCH  53  67
BRANCH  54  77
ATOM     77  C   UNL A   1      43.252  23.172  26.830  1.00  0.00    -0.014 A 
ATOM     78  C   UNL A   1      42.998  22.324  27.925  1.00  0.00     0.010 A 
ATOM     79  C   UNL A   1      43.155  22.656  25.527  1.00  0.00     0.010 A 
ATOM     80  C   UNL A   1      42.722  20.970  27.724  1.00  0.00     0.020 A 
ATOM     81  C   UNL A   1      42.848  21.306  25.322  1.00  0.00     0.020 A 
ATOM     82  C   UNL A   1      42.668  20.466  26.423  1.00  0.00     0.054 A 
BRANCH  82  83
ATOM     83  S   UNL A   1      42.377  18.690  26.186  1.00  0.00     0.124 S 
ATOM     84  O   UNL A   1      42.627  18.167  27.527  1.00  0.00    -0.237 OA
ATOM     85  O   UNL A   1      40.985  18.649  25.746  1.00  0.00    -0.237 OA
ATOM     86  O   UNL A   1      43.360  18.316  25.173  1.00  0.00    -0.744 OA
ENDBRANCH  82  83
ENDBRANCH  54  77
BRANCH  66  87
ATOM     87  C   UNL A   1      49.371  26.505  26.015  1.00  0.00    -0.014 A 
ATOM     88  C   UNL A   1      50.309  25.911  26.879  1.00  0.00     0.010 A 
ATOM     89  C   UNL A   1      49.759  26.843  24.706  1.00  0.00     0.010 A 
ATOM     90  C   UNL A   1      51.625  25.702  26.460  1.00  0.00     0.020 A 
ATOM     91  C   UNL A   1      51.068  26.611  24.276  1.00  0.00     0.020 A 
ATOM     92  C   UNL A   1      52.000  26.068  25.165  1.00  0.00     0.054 A 
BRANCH  92  93
ATOM     93  S   UNL A   1      53.726  25.840  24.657  1.00  0.00     0.124 S 
ATOM     94  O   UNL A   1      53.701  26.299  23.272  1.00  0.00    -0.237 OA
ATOM     95  O   UNL A   1      54.452  26.697  25.591  1.00  0.00    -0.237 OA
ATOM     96  O   UNL A   1      53.949  24.407  24.837  1.00  0.00    -0.744 OA
ENDBRANCH  92  93
ENDBRANCH  66  87
ENDBRANCH  40  41
ENDBRANCH  32  35
ENDBRANCH  30  31
ENDBRANCH  29  30
ENDBRANCH  28  29
ENDBRANCH   1  28
TORSDOF 20
ENDMDL
MODEL 2
REMARK VINA RESULT:     -11.2      6.122     11.681
REMARK SMILES CC(C)CSc1cc2c(cc1Cl)C=C(C(=O)NCCCCCCNC(=O)c1ccc(-c3c4nc(c(-c5ccc(S(=O)(=O)[O-])cc5)c5ccc([nH]5)c(-c5ccc(S(=O)(=O)[O-])cc5)c5nc(c(-c6ccc(S(=O)(=O)[O-])cc6)c6ccc3[nH]6)C=C5)C=C4)cc1)[C@H](C(F)(F)F)O2
REMARK SMILES IDX 20 1 19 2 18 3 17 4 15 5 16 6 14 8 6 9 7 10 11 11 8 12 10 13
REMARK SMILES IDX 12 14 9 15 92 16 13 17 87 18 5 19 4 20 2 21 1 22 3 23 88 24
REMARK SMILES IDX 89 25 90 26 91 27 21 28 22 29 23 30 24 31 25 32 26 34 27 35
REMARK SMILES IDX 28 36 86 37 29 38 85 39 30 40 31 41 32 42 79 43 33 44 84 45
REMARK SMILES IDX 78 46 80 47 34 48 83 49 77 50 76 51 35 53 65 54 46 55 64 56
REMARK SMILES IDX 47 57 50 58 63 59 81 60 48 61 49 62 62 64 82 65 51 66 36 67
REMARK SMILES IDX 37 68 45 69 38 70 44 71 39 72 40 73 41 74 42 75 43 76 66 77
REMARK SMILES IDX 67 78 75 79 68 80 74 81 69 82 70 83 71 84 72 85 73 86 52 87
REMARK SMILES IDX 53 88 61 89 54 90 60 91 55 92 56 93 57 94 58 95 59 96
REMARK H PARENT 17 7 24 33 80 52 50 63
REMARK Flexibility Score: inf
ROOT
ATOM      1  C   UNL A   1      37.650  22.332  25.854  1.00  0.00     0.002 C 
ENDROOT
BRANCH   1   2
ATOM      2  C   UNL A   1      37.001  22.177  24.475  1.00  0.00     0.021 C 
BRANCH   2   3
ATOM      3  C   UNL A   1      35.584  21.607  24.497  1.00  0.00     0.116 C 
BRANCH   3   4
ATOM      4  N   UNL A   1      35.094  21.416  25.851  1.00  0.00    -0.352 N 
ATOM      5  C   UNL A   1      34.259  22.051  26.705  1.00  0.00     0.251 C 
ATOM      6  O   UNL A   1      34.150  21.523  27.817  1.00  0.00    -0.270 OA
ATOM      7  H   UNL A   1      35.473  20.604  26.259  1.00  0.00     0.163 HD
BRANCH   5   8
ATOM      8  C   UNL A   1      33.485  23.295  26.408  1.00  0.00     0.067 C 
ATOM      9  C   UNL A   1      32.085  27.896  24.845  1.00  0.00     0.030 A 
ATOM     10  C   UNL A   1      31.583  26.975  25.783  1.00  0.00     0.063 A 
ATOM     11  C   UNL A   1      33.266  27.555  24.160  1.00  0.00     0.055 A 
ATOM     12  C   UNL A   1      32.251  25.779  26.044  1.00  0.00     0.129 A 
ATOM     13  C   UNL A   1      33.974  26.388  24.492  1.00  0.00     0.033 A 
ATOM     14  Cl  UNL A   1      33.910  28.450  22.831  1.00  0.00    -0.083 Cl
ATOM     15  C   UNL A   1      33.466  25.496  25.432  1.00  0.00     0.019 A 
ATOM     16  O   UNL A   1      31.667  24.911  26.924  1.00  0.00    -0.475 OA
ATOM     17  C   UNL A   1      34.172  24.272  25.784  1.00  0.00     0.025 C 
ATOM     18  C   UNL A   1      32.030  23.510  26.730  1.00  0.00     0.314 C 
BRANCH   9  19
ATOM     19  S   UNL A   1      31.049  29.345  24.634  1.00  0.00    -0.124 SA
BRANCH  19  20
ATOM     20  C   UNL A   1      30.476  29.330  22.899  1.00  0.00     0.078 C 
BRANCH  20  21
ATOM     21  C   UNL A   1      29.163  28.607  22.548  1.00  0.00    -0.007 C 
ATOM     22  C   UNL A   1      28.713  27.534  23.535  1.00  0.00     0.008 C 
ATOM     23  C   UNL A   1      28.054  29.664  22.433  1.00  0.00     0.008 C 
ENDBRANCH  20  21
ENDBRANCH  19  20
ENDBRANCH   9  19
BRANCH  18  24
ATOM     24  C   UNL A   1      31.095  22.847  25.695  1.00  0.00     0.429 C 
ATOM     25  F   UNL A   1      30.024  22.246  26.259  1.00  0.00    -0.167 F 
ATOM     26  F   UNL A   1      30.607  23.738  24.799  1.00  0.00    -0.167 F 
ATOM     27  F   UNL A   1      31.761  21.907  24.981  1.00  0.00    -0.167 F 
ENDBRANCH  18  24
ENDBRANCH   5   8
ENDBRANCH   3   4
ENDBRANCH   2   3
ENDBRANCH   1   2
BRANCH   1  28
ATOM     28  C   UNL A   1      37.679  23.756  26.421  1.00  0.00     0.002 C 
BRANCH  28  29
ATOM     29  C   UNL A   1      39.022  24.483  26.323  1.00  0.00     0.021 C 
BRANCH  29  30
ATOM     30  C   UNL A   1      40.223  23.689  26.827  1.00  0.00     0.116 C 
BRANCH  30  31
ATOM     31  N   UNL A   1      41.432  23.974  26.071  1.00  0.00    -0.352 N 
ATOM     32  C   UNL A   1      42.314  25.019  26.206  1.00  0.00     0.251 C 
ATOM     33  H   UNL A   1      41.650  23.326  25.362  1.00  0.00     0.163 HD
ATOM     34  O   UNL A   1      43.192  25.198  25.368  1.00  0.00    -0.269 OA
BRANCH  32  35
ATOM     35  C   UNL A   1      42.177  25.945  27.351  1.00  0.00     0.039 A 
ATOM     36  C   UNL A   1      42.341  25.484  28.659  1.00  0.00     0.014 A 
ATOM     37  C   UNL A   1      41.855  27.284  27.111  1.00  0.00     0.014 A 
ATOM     38  C   UNL A   1      42.027  26.319  29.726  1.00  0.00     0.010 A 
ATOM     39  C   UNL A   1      41.617  28.142  28.187  1.00  0.00     0.010 A 
ATOM     40  C   UNL A   1      41.656  27.655  29.504  1.00  0.00    -0.014 A 
BRANCH  40  41
ATOM     41  C   UNL A   1      41.312  28.525  30.659  1.00  0.00     0.031 A 
ATOM     42  C   UNL A   1      42.166  28.529  31.899  1.00  0.00     0.074 A 
ATOM     43  C   UNL A   1      40.255  29.355  30.566  1.00  0.00     0.049 A 
ATOM     44  N   UNL A   1      42.022  29.234  32.992  1.00  0.00    -0.248 NA
ATOM     45  C   UNL A   1      43.332  27.631  31.920  1.00  0.00     0.031 C 
ATOM     46  C   UNL A   1      39.372  29.461  29.402  1.00  0.00     0.029 A 
ATOM     47  N   UNL A   1      39.759  30.287  31.443  1.00  0.00    -0.354 N 
ATOM     48  C   UNL A   1      43.064  28.859  33.831  1.00  0.00     0.074 A 
ATOM     49  C   UNL A   1      43.820  27.840  33.136  1.00  0.00     0.031 C 
ATOM     50  C   UNL A   1      38.484  30.443  29.612  1.00  0.00     0.029 A 
ATOM     51  C   UNL A   1      38.684  30.989  30.952  1.00  0.00     0.049 A 
ATOM     52  H   UNL A   1      40.137  30.438  32.340  1.00  0.00     0.167 HD
ATOM     53  C   UNL A   1      43.370  29.333  35.061  1.00  0.00     0.031 A 
ATOM     54  C   UNL A   1      37.930  31.956  31.511  1.00  0.00     0.031 A 
ATOM     55  C   UNL A   1      42.621  30.358  35.740  1.00  0.00     0.049 A 
ATOM     56  C   UNL A   1      38.255  32.423  32.901  1.00  0.00     0.074 A 
ATOM     57  C   UNL A   1      42.863  30.909  36.987  1.00  0.00     0.029 A 
ATOM     58  N   UNL A   1      41.494  30.990  35.235  1.00  0.00    -0.354 N 
ATOM     59  N   UNL A   1      39.242  32.050  33.680  1.00  0.00    -0.248 NA
ATOM     60  C   UNL A   1      37.366  33.433  33.493  1.00  0.00     0.031 C 
ATOM     61  C   UNL A   1      41.849  31.829  37.261  1.00  0.00     0.029 A 
ATOM     62  C   UNL A   1      41.015  31.904  36.157  1.00  0.00     0.049 A 
ATOM     63  H   UNL A   1      41.096  30.813  34.353  1.00  0.00     0.167 HD
ATOM     64  C   UNL A   1      39.099  32.784  34.851  1.00  0.00     0.074 A 
ATOM     65  C   UNL A   1      37.941  33.637  34.672  1.00  0.00     0.031 C 
ATOM     66  C   UNL A   1      39.857  32.745  35.973  1.00  0.00     0.031 A 
BRANCH  53  67
ATOM     67  C   UNL A   1      44.569  28.759  35.773  1.00  0.00    -0.014 A 
ATOM     68  C   UNL A   1      45.847  29.298  35.534  1.00  0.00     0.010 A 
ATOM     69  C   UNL A   1      44.451  27.612  36.578  1.00  0.00     0.010 A 
ATOM     70  C   UNL A   1      46.987  28.687  36.063  1.00  0.00     0.020 A 
ATOM     71  C   UNL A   1      45.587  27.013  37.130  1.00  0.00     0.020 A 
ATOM     72  C   UNL A   1      46.850  27.541  36.850  1.00  0.00     0.054 A 
BRANCH  72  73
ATOM     73  S   UNL A   1      48.342  26.746  37.511  1.00  0.00     0.124 S 
ATOM     74  O   UNL A   1      48.502  25.602  36.621  1.00  0.00    -0.237 OA
ATOM     75  O   UNL A   1      49.349  27.797  37.380  1.00  0.00    -0.237 OA
ATOM     76  O   UNL A   1      47.972  26.423  38.888  1.00  0.00    -0.744 OA
ENDBRANCH  72  73
ENDBRANCH  53  67
BRANCH  54  77
ATOM     77  C   UNL A   1      36.809  32.543  30.726  1.00  0.00    -0.014 A 
ATOM     78  C   UNL A   1      37.048  33.603  29.831  1.00  0.00     0.010 A 
ATOM     79  C   UNL A   1      35.488  32.119  30.947  1.00  0.00     0.010 A 
ATOM     80  C   UNL A   1      35.984  34.273  29.224  1.00  0.00     0.020 A 
ATOM     81  C   UNL A   1      34.421  32.768  30.316  1.00  0.00     0.020 A 
ATOM     82  C   UNL A   1      34.676  33.863  29.486  1.00  0.00     0.054 A 
BRANCH  82  83
ATOM     83  S   UNL A   1      33.305  34.790  28.742  1.00  0.00     0.124 S 
ATOM     84  O   UNL A   1      34.008  35.904  28.111  1.00  0.00    -0.237 OA
ATOM     85  O   UNL A   1      32.720  33.816  27.824  1.00  0.00    -0.237 OA
ATOM     86  O   UNL A   1      32.470  35.142  29.886  1.00  0.00    -0.744 OA
ENDBRANCH  82  83
ENDBRANCH  54  77
BRANCH  66  87
ATOM     87  C   UNL A   1      39.477  33.642  37.120  1.00  0.00    -0.014 A 
ATOM     88  C   UNL A   1      40.072  34.912  37.239  1.00  0.00     0.010 A 
ATOM     89  C   UNL A   1      38.650  33.171  38.155  1.00  0.00     0.010 A 
ATOM     90  C   UNL A   1      39.883  35.677  38.393  1.00  0.00     0.020 A 
ATOM     91  C   UNL A   1      38.438  33.945  39.298  1.00  0.00     0.020 A 
ATOM     92  C   UNL A   1      39.079  35.181  39.422  1.00  0.00     0.054 A 
BRANCH  92  93
ATOM     93  S   UNL A   1      38.889  36.163  40.935  1.00  0.00     0.124 S 
ATOM     94  O   UNL A   1      38.563  37.483  40.405  1.00  0.00    -0.237 OA
ATOM     95  O   UNL A   1      37.801  35.478  41.630  1.00  0.00    -0.237 OA
ATOM     96  O   UNL A   1      40.195  36.052  41.580  1.00  0.00    -0.744 OA
ENDBRANCH  92  93
ENDBRANCH  66  87
ENDBRANCH  40  41
ENDBRANCH  32  35
ENDBRANCH  30  31
ENDBRANCH  29  30
ENDBRANCH  28  29
ENDBRANCH   1  28
TORSDOF 20
ENDMDL
MODEL 3
REMARK VINA RESULT:     -11.0      6.231     11.487
REMARK SMILES CC(C)CSc1cc2c(cc1Cl)C=C(C(=O)NCCCCCCNC(=O)c1ccc(-c3c4nc(c(-c5ccc(S(=O)(=O)[O-])cc5)c5ccc([nH]5)c(-c5ccc(S(=O)(=O)[O-])cc5)c5nc(c(-c6ccc(S(=O)(=O)[O-])cc6)c6ccc3[nH]6)C=C5)C=C4)cc1)[C@H](C(F)(F)F)O2
REMARK SMILES IDX 20 1 19 2 18 3 17 4 15 5 16 6 14 8 6 9 7 10 11 11 8 12 10 13
REMARK SMILES IDX 12 14 9 15 92 16 13 17 87 18 5 19 4 20 2 21 1 22 3 23 88 24
REMARK SMILES IDX 89 25 90 26 91 27 21 28 22 29 23 30 24 31 25 32 26 34 27 35
REMARK SMILES IDX 28 36 86 37 29 38 85 39 30 40 31 41 32 42 79 43 33 44 84 45
REMARK SMILES IDX 78 46 80 47 34 48 83 49 77 50 76 51 35 53 65 54 46 55 64 56
REMARK SMILES IDX 47 57 50 58 63 59 81 60 48 61 49 62 62 64 82 65 51 66 36 67
REMARK SMILES IDX 37 68 45 69 38 70 44 71 39 72 40 73 41 74 42 75 43 76 66 77
REMARK SMILES IDX 67 78 75 79 68 80 74 81 69 82 70 83 71 84 72 85 73 86 52 87
REMARK SMILES IDX 53 88 61 89 54 90 60 91 55 92 56 93 57 94 58 95 59 96
REMARK H PARENT 17 7 24 33 80 52 50 63
REMARK Flexibility Score: inf
ROOT
ATOM      1  C   UNL A   1      37.207  22.770  25.778  1.00  0.00     0.002 C 
ENDROOT
BRANCH   1   2
ATOM      2  C   UNL A   1      36.809  23.361  24.423  1.00  0.00     0.021 C 
BRANCH   2   3
ATOM      3  C   UNL A   1      35.812  22.520  23.627  1.00  0.00     0.116 C 
BRANCH   3   4
ATOM      4  N   UNL A   1      34.745  22.002  24.465  1.00  0.00    -0.352 N 
ATOM      5  C   UNL A   1      33.583  22.455  24.989  1.00  0.00     0.251 C 
ATOM      6  O   UNL A   1      32.978  21.641  25.696  1.00  0.00    -0.270 OA
ATOM      7  H   UNL A   1      34.914  21.067  24.724  1.00  0.00     0.163 HD
BRANCH   5   8
ATOM      8  C   UNL A   1      33.000  23.814  24.776  1.00  0.00     0.067 C 
ATOM      9  C   UNL A   1      31.782  28.705  25.190  1.00  0.00     0.030 A 
ATOM     10  C   UNL A   1      31.212  27.596  24.537  1.00  0.00     0.063 A 
ATOM     11  C   UNL A   1      32.942  28.489  25.956  1.00  0.00     0.055 A 
ATOM     12  C   UNL A   1      31.765  26.322  24.670  1.00  0.00     0.129 A 
ATOM     13  C   UNL A   1      33.440  27.189  26.150  1.00  0.00     0.033 A 
ATOM     14  Cl  UNL A   1      33.897  29.750  26.648  1.00  0.00    -0.083 Cl
ATOM     15  C   UNL A   1      32.854  26.104  25.505  1.00  0.00     0.019 A 
ATOM     16  O   UNL A   1      31.189  25.309  23.956  1.00  0.00    -0.475 OA
ATOM     17  C   UNL A   1      33.358  24.748  25.678  1.00  0.00     0.025 C 
ATOM     18  C   UNL A   1      32.085  24.198  23.644  1.00  0.00     0.314 C 
BRANCH   9  19
ATOM     19  S   UNL A   1      30.939  30.251  24.849  1.00  0.00    -0.124 SA
BRANCH  19  20
ATOM     20  C   UNL A   1      29.681  29.890  23.573  1.00  0.00     0.078 C 
BRANCH  20  21
ATOM     21  C   UNL A   1      28.964  31.059  22.873  1.00  0.00    -0.007 C 
ATOM     22  C   UNL A   1      28.674  30.862  21.387  1.00  0.00     0.008 C 
ATOM     23  C   UNL A   1      27.637  31.309  23.605  1.00  0.00     0.008 C 
ENDBRANCH  20  21
ENDBRANCH  19  20
ENDBRANCH   9  19
BRANCH  18  24
ATOM     24  C   UNL A   1      32.855  24.476  22.334  1.00  0.00     0.429 C 
ATOM     25  F   UNL A   1      34.016  25.138  22.534  1.00  0.00    -0.167 F 
ATOM     26  F   UNL A   1      33.172  23.337  21.674  1.00  0.00    -0.167 F 
ATOM     27  F   UNL A   1      32.104  25.218  21.485  1.00  0.00    -0.167 F 
ENDBRANCH  18  24
ENDBRANCH   5   8
ENDBRANCH   3   4
ENDBRANCH   2   3
ENDBRANCH   1   2
BRANCH   1  28
ATOM     28  C   UNL A   1      38.473  23.355  26.415  1.00  0.00     0.002 C 
BRANCH  28  29
ATOM     29  C   UNL A   1      39.704  22.446  26.405  1.00  0.00     0.021 C 
BRANCH  29  30
ATOM     30  C   UNL A   1      40.949  23.040  27.053  1.00  0.00     0.116 C 
BRANCH  30  31
ATOM     31  N   UNL A   1      41.839  23.655  26.081  1.00  0.00    -0.352 N 
ATOM     32  C   UNL A   1      42.232  24.967  25.970  1.00  0.00     0.251 C 
ATOM     33  H   UNL A   1      42.215  23.044  25.406  1.00  0.00     0.163 HD
ATOM     34  O   UNL A   1      42.854  25.345  24.983  1.00  0.00    -0.269 OA
BRANCH  32  35
ATOM     35  C   UNL A   1      41.868  25.928  27.035  1.00  0.00     0.039 A 
ATOM     36  C   UNL A   1      42.405  27.218  27.039  1.00  0.00     0.014 A 
ATOM     37  C   UNL A   1      41.001  25.523  28.052  1.00  0.00     0.014 A 
ATOM     38  C   UNL A   1      42.202  28.043  28.141  1.00  0.00     0.010 A 
ATOM     39  C   UNL A   1      40.734  26.385  29.120  1.00  0.00     0.010 A 
ATOM     40  C   UNL A   1      41.370  27.635  29.196  1.00  0.00    -0.014 A 
BRANCH  40  41
ATOM     41  C   UNL A   1      41.178  28.527  30.368  1.00  0.00     0.031 A 
ATOM     42  C   UNL A   1      40.065  29.540  30.389  1.00  0.00     0.074 A 
ATOM     43  C   UNL A   1      41.981  28.385  31.442  1.00  0.00     0.049 A 
ATOM     44  N   UNL A   1      39.745  30.387  31.335  1.00  0.00    -0.248 NA
ATOM     45  C   UNL A   1      39.197  29.615  29.203  1.00  0.00     0.031 C 
ATOM     46  C   UNL A   1      43.074  27.416  31.549  1.00  0.00     0.029 A 
ATOM     47  N   UNL A   1      41.987  29.025  32.655  1.00  0.00    -0.354 N 
ATOM     48  C   UNL A   1      38.652  31.100  30.856  1.00  0.00     0.074 A 
ATOM     49  C   UNL A   1      38.380  30.611  29.522  1.00  0.00     0.031 C 
ATOM     50  C   UNL A   1      43.603  27.485  32.779  1.00  0.00     0.029 A 
ATOM     51  C   UNL A   1      42.939  28.549  33.526  1.00  0.00     0.049 A 
ATOM     52  H   UNL A   1      41.367  29.757  32.882  1.00  0.00     0.167 HD
ATOM     53  C   UNL A   1      37.935  32.065  31.478  1.00  0.00     0.031 A 
ATOM     54  C   UNL A   1      43.257  28.927  34.780  1.00  0.00     0.031 A 
ATOM     55  C   UNL A   1      38.203  32.537  32.811  1.00  0.00     0.049 A 
ATOM     56  C   UNL A   1      42.483  30.039  35.427  1.00  0.00     0.074 A 
ATOM     57  C   UNL A   1      37.522  33.505  33.528  1.00  0.00     0.029 A 
ATOM     58  N   UNL A   1      39.225  32.077  33.629  1.00  0.00    -0.354 N 
ATOM     59  N   UNL A   1      41.457  30.705  34.953  1.00  0.00    -0.248 NA
ATOM     60  C   UNL A   1      42.908  30.458  36.769  1.00  0.00     0.031 C 
ATOM     61  C   UNL A   1      38.167  33.673  34.755  1.00  0.00     0.029 A 
ATOM     62  C   UNL A   1      39.209  32.762  34.832  1.00  0.00     0.049 A 
ATOM     63  H   UNL A   1      39.866  31.370  33.389  1.00  0.00     0.167 HD
ATOM     64  C   UNL A   1      41.108  31.617  35.942  1.00  0.00     0.074 A 
ATOM     65  C   UNL A   1      42.020  31.404  37.047  1.00  0.00     0.031 C 
ATOM     66  C   UNL A   1      40.124  32.548  35.926  1.00  0.00     0.031 A 
BRANCH  53  67
ATOM     67  C   UNL A   1      36.779  32.689  30.738  1.00  0.00    -0.014 A 
ATOM     68  C   UNL A   1      37.012  33.765  29.859  1.00  0.00     0.010 A 
ATOM     69  C   UNL A   1      35.455  32.297  31.002  1.00  0.00     0.010 A 
ATOM     70  C   UNL A   1      35.942  34.455  29.281  1.00  0.00     0.020 A 
ATOM     71  C   UNL A   1      34.383  32.969  30.405  1.00  0.00     0.020 A 
ATOM     72  C   UNL A   1      34.634  34.058  29.567  1.00  0.00     0.054 A 
BRANCH  72  73
ATOM     73  S   UNL A   1      33.256  34.978  28.826  1.00  0.00     0.124 S 
ATOM     74  O   UNL A   1      32.674  33.989  27.925  1.00  0.00    -0.237 OA
ATOM     75  O   UNL A   1      32.445  35.331  29.988  1.00  0.00    -0.237 OA
ATOM     76  O   UNL A   1      33.915  36.109  28.174  1.00  0.00    -0.744 OA
ENDBRANCH  72  73
ENDBRANCH  53  67
BRANCH  54  77
ATOM     77  C   UNL A   1      44.355  28.216  35.491  1.00  0.00    -0.014 A 
ATOM     78  C   UNL A   1      44.071  27.102  36.303  1.00  0.00     0.010 A 
ATOM     79  C   UNL A   1      45.669  28.712  35.445  1.00  0.00     0.010 A 
ATOM     80  C   UNL A   1      45.063  26.538  37.108  1.00  0.00     0.020 A 
ATOM     81  C   UNL A   1      46.673  28.130  36.227  1.00  0.00     0.020 A 
ATOM     82  C   UNL A   1      46.354  27.069  37.078  1.00  0.00     0.054 A 
BRANCH  82  83
ATOM     83  S   UNL A   1      47.612  26.367  38.183  1.00  0.00     0.124 S 
ATOM     84  O   UNL A   1      48.293  27.568  38.658  1.00  0.00    -0.237 OA
ATOM     85  O   UNL A   1      46.807  25.665  39.179  1.00  0.00    -0.237 OA
ATOM     86  O   UNL A   1      48.397  25.507  37.302  1.00  0.00    -0.744 OA
ENDBRANCH  82  83
ENDBRANCH  54  77
BRANCH  66  87
ATOM     87  C   UNL A   1      39.962  33.432  37.133  1.00  0.00    -0.014 A 
ATOM     88  C   UNL A   1      40.779  34.568  37.280  1.00  0.00     0.010 A 
ATOM     89  C   UNL A   1      39.111  33.057  38.187  1.00  0.00     0.010 A 
ATOM     90  C   UNL A   1      40.782  35.289  38.477  1.00  0.00     0.020 A 
ATOM     91  C   UNL A   1      39.092  33.791  39.376  1.00  0.00     0.020 A 
ATOM     92  C   UNL A   1      39.948  34.886  39.524  1.00  0.00     0.054 A 
BRANCH  92  93
ATOM     93  S   UNL A   1      40.005  35.800  41.089  1.00  0.00     0.124 S 
ATOM     94  O   UNL A   1      40.807  34.917  41.931  1.00  0.00    -0.237 OA
ATOM     95  O   UNL A   1      40.646  37.056  40.705  1.00  0.00    -0.237 OA
ATOM     96  O   UNL A   1      38.599  35.919  41.467  1.00  0.00    -0.744 OA
ENDBRANCH  92  93
ENDBRANCH  66  87
ENDBRANCH  40  41
ENDBRANCH  32  35
ENDBRANCH  30  31
ENDBRANCH  29  30
ENDBRANCH  28  29
ENDBRANCH   1  28
TORSDOF 20
ENDMDL
