MODEL 1
REMARK VINA RESULT:     -11.0      0.000      0.000
REMARK SMILES CC[C@@H]1CCCN(S(=O)(=O)c2cc(C(=O)NCCCCCCNC(=O)c3ccc(-c4c5nc(c(-c6ccc(S(=O)(=O)[O-])cc6)c6ccc([nH]6)c(-c6ccc(S(=O)(=O)[O-])cc6)c6nc(c(-c7ccc(S(=O)(=O)[O-])cc7)c7ccc4[nH]7)C=C6)C=C5)cc3)ccc2F)C1
REMARK SMILES IDX 19 1 18 2 17 3 16 4 14 5 15 6 13 8 11 9 12 10 88 11 87 12
REMARK SMILES IDX 89 13 86 14 8 15 9 16 10 17 7 18 3 19 4 20 90 21 5 22 6 23
REMARK SMILES IDX 2 24 1 25 20 26 21 27 22 28 23 29 24 30 25 32 26 33 27 34
REMARK SMILES IDX 85 35 28 36 84 37 29 38 30 39 31 40 78 41 32 42 83 43 77 44
REMARK SMILES IDX 79 45 33 46 82 47 76 48 75 49 34 51 64 52 45 53 63 54 46 55
REMARK SMILES IDX 49 56 62 57 80 58 47 59 48 60 61 62 81 63 50 64 35 65 36 66
REMARK SMILES IDX 44 67 37 68 43 69 38 70 39 71 40 72 41 73 42 74 65 75 66 76
REMARK SMILES IDX 74 77 67 78 73 79 68 80 69 81 70 82 71 83 72 84 51 85 52 86
REMARK SMILES IDX 60 87 53 88 59 89 54 90 55 91 56 92 57 93 58 94
REMARK H PARENT 16 7 23 31 79 50 49 61
REMARK Flexibility Score: inf
ROOT
ATOM      1  C   UNL A   1      34.896  20.903  25.054  1.00  0.00     0.002 C 
ENDROOT
BRANCH   1   2
ATOM      2  C   UNL A   1      33.437  20.441  25.190  1.00  0.00     0.021 C 
BRANCH   2   3
ATOM      3  C   UNL A   1      32.433  21.334  24.456  1.00  0.00     0.116 C 
BRANCH   3   4
ATOM      4  N   UNL A   1      33.018  21.888  23.249  1.00  0.00    -0.352 N 
ATOM      5  C   UNL A   1      32.897  23.085  22.594  1.00  0.00     0.251 C 
ATOM      6  O   UNL A   1      33.605  23.245  21.598  1.00  0.00    -0.269 OA
ATOM      7  H   UNL A   1      33.637  21.267  22.802  1.00  0.00     0.163 HD
BRANCH   5   8
ATOM      8  C   UNL A   1      31.988  24.199  23.002  1.00  0.00     0.041 A 
ATOM      9  C   UNL A   1      31.734  26.621  23.286  1.00  0.00     0.119 A 
ATOM     10  C   UNL A   1      32.537  25.502  23.014  1.00  0.00     0.038 A 
ATOM     11  C   UNL A   1      30.383  26.439  23.553  1.00  0.00     0.143 A 
ATOM     12  C   UNL A   1      29.831  25.165  23.572  1.00  0.00     0.041 A 
ATOM     13  F   UNL A   1      29.567  27.475  23.785  1.00  0.00    -0.206 F 
ATOM     14  C   UNL A   1      30.621  24.053  23.262  1.00  0.00     0.017 A 
BRANCH   9  15
ATOM     15  S   UNL A   1      32.343  28.256  22.982  1.00  0.00     0.246 S 
ATOM     16  O   UNL A   1      31.234  29.046  22.490  1.00  0.00    -0.207 OA
ATOM     17  O   UNL A   1      33.544  28.135  22.177  1.00  0.00    -0.207 OA
BRANCH  15  18
ATOM     18  N   UNL A   1      32.846  28.946  24.506  1.00  0.00    -0.197 NA
ATOM     19  C   UNL A   1      31.907  29.522  26.841  1.00  0.00     0.004 C 
ATOM     20  C   UNL A   1      33.069  28.725  27.435  1.00  0.00     0.006 C 
ATOM     21  C   UNL A   1      31.621  29.113  25.384  1.00  0.00     0.106 C 
ATOM     22  C   UNL A   1      34.280  28.779  26.525  1.00  0.00     0.017 C 
ATOM     23  C   UNL A   1      33.927  28.175  25.178  1.00  0.00     0.102 C 
BRANCH  19  24
ATOM     24  C   UNL A   1      32.119  31.041  27.011  1.00  0.00     0.001 C 
ATOM     25  C   UNL A   1      31.120  31.844  26.184  1.00  0.00     0.004 C 
ENDBRANCH  19  24
ENDBRANCH  15  18
ENDBRANCH   9  15
ENDBRANCH   5   8
ENDBRANCH   3   4
ENDBRANCH   2   3
ENDBRANCH   1   2
BRANCH   1  26
ATOM     26  C   UNL A   1      35.353  21.953  26.075  1.00  0.00     0.002 C 
BRANCH  26  27
ATOM     27  C   UNL A   1      35.427  23.390  25.551  1.00  0.00     0.021 C 
BRANCH  27  28
ATOM     28  C   UNL A   1      36.832  23.859  25.185  1.00  0.00     0.116 C 
BRANCH  28  29
ATOM     29  N   UNL A   1      37.836  22.846  25.476  1.00  0.00    -0.352 N 
ATOM     30  C   UNL A   1      39.052  22.985  26.098  1.00  0.00     0.251 C 
ATOM     31  H   UNL A   1      37.610  21.933  25.186  1.00  0.00     0.163 HD
ATOM     32  O   UNL A   1      39.868  22.068  26.065  1.00  0.00    -0.269 OA
BRANCH  30  33
ATOM     33  C   UNL A   1      39.381  24.246  26.797  1.00  0.00     0.039 A 
ATOM     34  C   UNL A   1      38.926  24.440  28.104  1.00  0.00     0.014 A 
ATOM     35  C   UNL A   1      40.132  25.237  26.159  1.00  0.00     0.014 A 
ATOM     36  C   UNL A   1      39.275  25.604  28.793  1.00  0.00     0.010 A 
ATOM     37  C   UNL A   1      40.530  26.367  26.867  1.00  0.00     0.010 A 
ATOM     38  C   UNL A   1      40.107  26.561  28.191  1.00  0.00    -0.014 A 
BRANCH  38  39
ATOM     39  C   UNL A   1      40.552  27.773  28.926  1.00  0.00     0.031 A 
ATOM     40  C   UNL A   1      41.907  27.805  29.578  1.00  0.00     0.074 A 
ATOM     41  C   UNL A   1      39.710  28.815  29.065  1.00  0.00     0.049 A 
ATOM     42  N   UNL A   1      42.440  28.737  30.326  1.00  0.00    -0.248 NA
ATOM     43  C   UNL A   1      42.765  26.626  29.382  1.00  0.00     0.031 C 
ATOM     44  C   UNL A   1      38.360  28.896  28.501  1.00  0.00     0.029 A 
ATOM     45  N   UNL A   1      39.862  30.005  29.730  1.00  0.00    -0.354 N 
ATOM     46  C   UNL A   1      43.686  28.251  30.703  1.00  0.00     0.074 A 
ATOM     47  C   UNL A   1      43.810  26.925  30.139  1.00  0.00     0.031 C 
ATOM     48  C   UNL A   1      37.820  30.084  28.822  1.00  0.00     0.029 A 
ATOM     49  C   UNL A   1      38.765  30.829  29.647  1.00  0.00     0.049 A 
ATOM     50  H   UNL A   1      40.680  30.246  30.221  1.00  0.00     0.167 HD
ATOM     51  C   UNL A   1      44.649  28.861  31.435  1.00  0.00     0.031 A 
ATOM     52  C   UNL A   1      38.541  32.046  30.180  1.00  0.00     0.031 A 
ATOM     53  C   UNL A   1      44.526  30.182  31.992  1.00  0.00     0.049 A 
ATOM     54  C   UNL A   1      39.612  32.691  31.016  1.00  0.00     0.074 A 
ATOM     55  C   UNL A   1      45.460  30.905  32.712  1.00  0.00     0.029 A 
ATOM     56  N   UNL A   1      43.396  30.979  31.891  1.00  0.00    -0.354 N 
ATOM     57  N   UNL A   1      40.803  32.234  31.321  1.00  0.00    -0.248 NA
ATOM     58  C   UNL A   1      39.308  34.015  31.574  1.00  0.00     0.031 C 
ATOM     59  C   UNL A   1      44.878  32.122  33.085  1.00  0.00     0.029 A 
ATOM     60  C   UNL A   1      43.600  32.177  32.554  1.00  0.00     0.049 A 
ATOM     61  H   UNL A   1      42.569  30.730  31.417  1.00  0.00     0.167 HD
ATOM     62  C   UNL A   1      41.402  33.229  32.087  1.00  0.00     0.074 A 
ATOM     63  C   UNL A   1      40.445  34.313  32.189  1.00  0.00     0.031 C 
ATOM     64  C   UNL A   1      42.635  33.244  32.649  1.00  0.00     0.031 A 
BRANCH  51  65
ATOM     65  C   UNL A   1      45.918  28.088  31.684  1.00  0.00    -0.014 A 
ATOM     66  C   UNL A   1      47.022  28.210  30.819  1.00  0.00     0.010 A 
ATOM     67  C   UNL A   1      46.014  27.237  32.798  1.00  0.00     0.010 A 
ATOM     68  C   UNL A   1      48.176  27.453  31.033  1.00  0.00     0.020 A 
ATOM     69  C   UNL A   1      47.177  26.498  33.031  1.00  0.00     0.020 A 
ATOM     70  C   UNL A   1      48.243  26.592  32.132  1.00  0.00     0.054 A 
BRANCH  70  71
ATOM     71  S   UNL A   1      49.748  25.612  32.382  1.00  0.00     0.124 S 
ATOM     72  O   UNL A   1      49.311  24.646  33.388  1.00  0.00    -0.237 OA
ATOM     73  O   UNL A   1      49.999  25.062  31.053  1.00  0.00    -0.237 OA
ATOM     74  O   UNL A   1      50.727  26.592  32.844  1.00  0.00    -0.744 OA
ENDBRANCH  70  71
ENDBRANCH  51  65
BRANCH  52  75
ATOM     75  C   UNL A   1      37.254  32.744  29.917  1.00  0.00    -0.014 A 
ATOM     76  C   UNL A   1      36.160  32.562  30.782  1.00  0.00     0.010 A 
ATOM     77  C   UNL A   1      37.119  33.609  28.816  1.00  0.00     0.010 A 
ATOM     78  C   UNL A   1      34.952  33.223  30.546  1.00  0.00     0.020 A 
ATOM     79  C   UNL A   1      35.921  34.292  28.591  1.00  0.00     0.020 A 
ATOM     80  C   UNL A   1      34.841  34.087  29.452  1.00  0.00     0.054 A 
BRANCH  80  81
ATOM     81  S   UNL A   1      33.283  34.983  29.200  1.00  0.00     0.124 S 
ATOM     82  O   UNL A   1      32.719  34.993  30.545  1.00  0.00    -0.237 OA
ATOM     83  O   UNL A   1      33.740  36.275  28.695  1.00  0.00    -0.237 OA
ATOM     84  O   UNL A   1      32.572  34.158  28.226  1.00  0.00    -0.744 OA
ENDBRANCH  80  81
ENDBRANCH  52  75
BRANCH  64  85
ATOM     85  C   UNL A   1      43.035  34.483  33.404  1.00  0.00    -0.014 A 
ATOM     86  C   UNL A   1      42.838  34.583  34.793  1.00  0.00     0.010 A 
ATOM     87  C   UNL A   1      43.670  35.537  32.722  1.00  0.00     0.010 A 
ATOM     88  C   UNL A   1      43.249  35.726  35.482  1.00  0.00     0.020 A 
ATOM     89  C   UNL A   1      44.104  36.671  33.412  1.00  0.00     0.020 A 
ATOM     90  C   UNL A   1      43.880  36.763  34.787  1.00  0.00     0.054 A 
BRANCH  90  91
ATOM     91  S   UNL A   1      44.453  38.215  35.712  1.00  0.00     0.124 S 
ATOM     92  O   UNL A   1      43.904  39.314  34.923  1.00  0.00    -0.237 OA
ATOM     93  O   UNL A   1      43.844  38.019  37.026  1.00  0.00    -0.237 OA
ATOM     94  O   UNL A   1      45.909  38.092  35.683  1.00  0.00    -0.744 OA
ENDBRANCH  90  91
ENDBRANCH  64  85
ENDBRANCH  38  39
ENDBRANCH  30  33
ENDBRANCH  28  29
ENDBRANCH  27  28
ENDBRANCH  26  27
ENDBRANCH   1  26
TORSDOF 19
ENDMDL
MODEL 2
REMARK VINA RESULT:     -10.4      4.356      9.387
REMARK SMILES CC[C@@H]1CCCN(S(=O)(=O)c2cc(C(=O)NCCCCCCNC(=O)c3ccc(-c4c5nc(c(-c6ccc(S(=O)(=O)[O-])cc6)c6ccc([nH]6)c(-c6ccc(S(=O)(=O)[O-])cc6)c6nc(c(-c7ccc(S(=O)(=O)[O-])cc7)c7ccc4[nH]7)C=C6)C=C5)cc3)ccc2F)C1
REMARK SMILES IDX 19 1 18 2 17 3 16 4 14 5 15 6 13 8 11 9 12 10 88 11 87 12
REMARK SMILES IDX 89 13 86 14 8 15 9 16 10 17 7 18 3 19 4 20 90 21 5 22 6 23
REMARK SMILES IDX 2 24 1 25 20 26 21 27 22 28 23 29 24 30 25 32 26 33 27 34
REMARK SMILES IDX 85 35 28 36 84 37 29 38 30 39 31 40 78 41 32 42 83 43 77 44
REMARK SMILES IDX 79 45 33 46 82 47 76 48 75 49 34 51 64 52 45 53 63 54 46 55
REMARK SMILES IDX 49 56 62 57 80 58 47 59 48 60 61 62 81 63 50 64 35 65 36 66
REMARK SMILES IDX 44 67 37 68 43 69 38 70 39 71 40 72 41 73 42 74 65 75 66 76
REMARK SMILES IDX 74 77 67 78 73 79 68 80 69 81 70 82 71 83 72 84 51 85 52 86
REMARK SMILES IDX 60 87 53 88 59 89 54 90 55 91 56 92 57 93 58 94
REMARK H PARENT 16 7 23 31 79 50 49 61
REMARK Flexibility Score: inf
ROOT
ATOM      1  C   UNL A   1      37.486  21.531  24.642  1.00  0.00     0.002 C 
ENDROOT
BRANCH   1   2
ATOM      2  C   UNL A   1      35.953  21.637  24.675  1.00  0.00     0.021 C 
BRANCH   2   3
ATOM      3  C   UNL A   1      35.341  21.351  26.050  1.00  0.00     0.116 C 
BRANCH   3   4
ATOM      4  N   UNL A   1      34.363  20.282  25.970  1.00  0.00    -0.352 N 
ATOM      5  C   UNL A   1      33.116  20.170  25.416  1.00  0.00     0.251 C 
ATOM      6  O   UNL A   1      32.574  19.065  25.487  1.00  0.00    -0.269 OA
ATOM      7  H   UNL A   1      34.662  19.454  26.412  1.00  0.00     0.163 HD
BRANCH   5   8
ATOM      8  C   UNL A   1      32.378  21.277  24.732  1.00  0.00     0.041 A 
ATOM      9  C   UNL A   1      31.254  23.440  24.990  1.00  0.00     0.119 A 
ATOM     10  C   UNL A   1      31.871  22.311  25.552  1.00  0.00     0.038 A 
ATOM     11  C   UNL A   1      31.138  23.534  23.609  1.00  0.00     0.143 A 
ATOM     12  C   UNL A   1      31.607  22.516  22.788  1.00  0.00     0.041 A 
ATOM     13  F   UNL A   1      30.589  24.605  23.022  1.00  0.00    -0.206 F 
ATOM     14  C   UNL A   1      32.257  21.410  23.344  1.00  0.00     0.017 A 
BRANCH   9  15
ATOM     15  S   UNL A   1      30.919  24.865  25.985  1.00  0.00     0.246 S 
ATOM     16  O   UNL A   1      31.411  24.589  27.319  1.00  0.00    -0.207 OA
ATOM     17  O   UNL A   1      29.522  25.213  25.800  1.00  0.00    -0.207 OA
BRANCH  15  18
ATOM     18  N   UNL A   1      31.842  26.206  25.351  1.00  0.00    -0.197 NA
ATOM     19  C   UNL A   1      31.579  28.704  24.756  1.00  0.00     0.004 C 
ATOM     20  C   UNL A   1      32.803  28.977  25.631  1.00  0.00     0.006 C 
ATOM     21  C   UNL A   1      30.899  27.372  25.124  1.00  0.00     0.106 C 
ATOM     22  C   UNL A   1      33.738  27.783  25.636  1.00  0.00     0.017 C 
ATOM     23  C   UNL A   1      33.010  26.574  26.196  1.00  0.00     0.102 C 
BRANCH  19  24
ATOM     24  C   UNL A   1      31.922  28.812  23.255  1.00  0.00     0.001 C 
ATOM     25  C   UNL A   1      30.915  28.058  22.393  1.00  0.00     0.004 C 
ENDBRANCH  19  24
ENDBRANCH  15  18
ENDBRANCH   9  15
ENDBRANCH   5   8
ENDBRANCH   3   4
ENDBRANCH   2   3
ENDBRANCH   1   2
BRANCH   1  26
ATOM     26  C   UNL A   1      38.210  22.080  25.878  1.00  0.00     0.002 C 
BRANCH  26  27
ATOM     27  C   UNL A   1      39.373  21.225  26.391  1.00  0.00     0.021 C 
BRANCH  27  28
ATOM     28  C   UNL A   1      39.761  20.067  25.475  1.00  0.00     0.116 C 
BRANCH  28  29
ATOM     29  N   UNL A   1      40.698  19.158  26.118  1.00  0.00    -0.352 N 
ATOM     30  C   UNL A   1      41.942  19.418  26.638  1.00  0.00     0.251 C 
ATOM     31  H   UNL A   1      40.397  18.223  26.190  1.00  0.00     0.163 HD
ATOM     32  O   UNL A   1      42.687  18.492  26.943  1.00  0.00    -0.269 OA
BRANCH  30  33
ATOM     33  C   UNL A   1      42.386  20.818  26.815  1.00  0.00     0.039 A 
ATOM     34  C   UNL A   1      42.315  21.400  28.083  1.00  0.00     0.014 A 
ATOM     35  C   UNL A   1      42.864  21.555  25.727  1.00  0.00     0.014 A 
ATOM     36  C   UNL A   1      42.781  22.703  28.274  1.00  0.00     0.010 A 
ATOM     37  C   UNL A   1      43.385  22.830  25.931  1.00  0.00     0.010 A 
ATOM     38  C   UNL A   1      43.349  23.416  27.206  1.00  0.00    -0.014 A 
BRANCH  38  39
ATOM     39  C   UNL A   1      43.918  24.775  27.397  1.00  0.00     0.031 A 
ATOM     40  C   UNL A   1      43.025  25.917  27.797  1.00  0.00     0.074 A 
ATOM     41  C   UNL A   1      45.222  24.993  27.142  1.00  0.00     0.049 A 
ATOM     42  N   UNL A   1      43.320  27.185  27.936  1.00  0.00    -0.248 NA
ATOM     43  C   UNL A   1      41.613  25.596  28.054  1.00  0.00     0.031 C 
ATOM     44  C   UNL A   1      46.187  23.974  26.723  1.00  0.00     0.029 A 
ATOM     45  N   UNL A   1      45.962  26.148  27.192  1.00  0.00    -0.354 N 
ATOM     46  C   UNL A   1      42.129  27.813  28.279  1.00  0.00     0.074 A 
ATOM     47  C   UNL A   1      41.100  26.796  28.283  1.00  0.00     0.031 C 
ATOM     48  C   UNL A   1      47.395  24.544  26.581  1.00  0.00     0.029 A 
ATOM     49  C   UNL A   1      47.283  25.972  26.857  1.00  0.00     0.049 A 
ATOM     50  H   UNL A   1      45.582  27.020  27.445  1.00  0.00     0.167 HD
ATOM     51  C   UNL A   1      41.914  29.116  28.583  1.00  0.00     0.031 A 
ATOM     52  C   UNL A   1      48.292  26.862  26.774  1.00  0.00     0.031 A 
ATOM     53  C   UNL A   1      42.939  30.125  28.583  1.00  0.00     0.049 A 
ATOM     54  C   UNL A   1      48.023  28.308  27.085  1.00  0.00     0.074 A 
ATOM     55  C   UNL A   1      42.831  31.463  28.917  1.00  0.00     0.029 A 
ATOM     56  N   UNL A   1      44.262  29.907  28.230  1.00  0.00    -0.354 N 
ATOM     57  N   UNL A   1      46.899  28.875  27.454  1.00  0.00    -0.248 NA
ATOM     58  C   UNL A   1      49.160  29.232  26.972  1.00  0.00     0.031 C 
ATOM     59  C   UNL A   1      44.080  32.065  28.723  1.00  0.00     0.029 A 
ATOM     60  C   UNL A   1      44.976  31.090  28.317  1.00  0.00     0.049 A 
ATOM     61  H   UNL A   1      44.638  29.039  27.958  1.00  0.00     0.167 HD
ATOM     62  C   UNL A   1      47.200  30.220  27.643  1.00  0.00     0.074 A 
ATOM     63  C   UNL A   1      48.612  30.378  27.357  1.00  0.00     0.031 C 
ATOM     64  C   UNL A   1      46.382  31.230  28.025  1.00  0.00     0.031 A 
BRANCH  51  65
ATOM     65  C   UNL A   1      40.504  29.518  28.929  1.00  0.00    -0.014 A 
ATOM     66  C   UNL A   1      39.525  29.658  27.928  1.00  0.00     0.010 A 
ATOM     67  C   UNL A   1      40.150  29.751  30.269  1.00  0.00     0.010 A 
ATOM     68  C   UNL A   1      38.233  30.079  28.255  1.00  0.00     0.020 A 
ATOM     69  C   UNL A   1      38.851  30.145  30.604  1.00  0.00     0.020 A 
ATOM     70  C   UNL A   1      37.907  30.330  29.591  1.00  0.00     0.054 A 
BRANCH  70  71
ATOM     71  S   UNL A   1      36.226  30.884  29.989  1.00  0.00     0.124 S 
ATOM     72  O   UNL A   1      36.138  30.570  31.414  1.00  0.00    -0.237 OA
ATOM     73  O   UNL A   1      36.270  32.306  29.663  1.00  0.00    -0.237 OA
ATOM     74  O   UNL A   1      35.379  30.072  29.120  1.00  0.00    -0.744 OA
ENDBRANCH  70  71
ENDBRANCH  51  65
BRANCH  52  75
ATOM     75  C   UNL A   1      49.656  26.402  26.400  1.00  0.00    -0.014 A 
ATOM     76  C   UNL A   1      50.480  25.781  27.356  1.00  0.00     0.010 A 
ATOM     77  C   UNL A   1      50.132  26.561  25.086  1.00  0.00     0.010 A 
ATOM     78  C   UNL A   1      51.758  25.337  27.008  1.00  0.00     0.020 A 
ATOM     79  C   UNL A   1      51.400  26.096  24.728  1.00  0.00     0.020 A 
ATOM     80  C   UNL A   1      52.209  25.495  25.694  1.00  0.00     0.054 A 
BRANCH  80  81
ATOM     81  S   UNL A   1      53.848  24.855  25.249  1.00  0.00     0.124 S 
ATOM     82  O   UNL A   1      53.589  23.426  25.112  1.00  0.00    -0.237 OA
ATOM     83  O   UNL A   1      54.140  25.569  24.009  1.00  0.00    -0.237 OA
ATOM     84  O   UNL A   1      54.681  25.235  26.388  1.00  0.00    -0.744 OA
ENDBRANCH  80  81
ENDBRANCH  52  75
BRANCH  64  85
ATOM     85  C   UNL A   1      46.995  32.595  28.184  1.00  0.00    -0.014 A 
ATOM     86  C   UNL A   1      46.995  33.520  27.125  1.00  0.00     0.010 A 
ATOM     87  C   UNL A   1      47.528  32.975  29.429  1.00  0.00     0.010 A 
ATOM     88  C   UNL A   1      47.537  34.795  27.303  1.00  0.00     0.020 A 
ATOM     89  C   UNL A   1      48.050  34.257  29.617  1.00  0.00     0.020 A 
ATOM     90  C   UNL A   1      48.061  35.156  28.549  1.00  0.00     0.054 A 
BRANCH  90  91
ATOM     91  S   UNL A   1      48.711  36.835  28.771  1.00  0.00     0.124 S 
ATOM     92  O   UNL A   1      49.769  36.623  29.756  1.00  0.00    -0.237 OA
ATOM     93  O   UNL A   1      49.165  37.184  27.427  1.00  0.00    -0.237 OA
ATOM     94  O   UNL A   1      47.557  37.593  29.249  1.00  0.00    -0.744 OA
ENDBRANCH  90  91
ENDBRANCH  64  85
ENDBRANCH  38  39
ENDBRANCH  30  33
ENDBRANCH  28  29
ENDBRANCH  27  28
ENDBRANCH  26  27
ENDBRANCH   1  26
TORSDOF 19
ENDMDL
MODEL 3
REMARK VINA RESULT:     -10.2      3.818      9.631
REMARK SMILES CC[C@@H]1CCCN(S(=O)(=O)c2cc(C(=O)NCCCCCCNC(=O)c3ccc(-c4c5nc(c(-c6ccc(S(=O)(=O)[O-])cc6)c6ccc([nH]6)c(-c6ccc(S(=O)(=O)[O-])cc6)c6nc(c(-c7ccc(S(=O)(=O)[O-])cc7)c7ccc4[nH]7)C=C6)C=C5)cc3)ccc2F)C1
REMARK SMILES IDX 19 1 18 2 17 3 16 4 14 5 15 6 13 8 11 9 12 10 88 11 87 12
REMARK SMILES IDX 89 13 86 14 8 15 9 16 10 17 7 18 3 19 4 20 90 21 5 22 6 23
REMARK SMILES IDX 2 24 1 25 20 26 21 27 22 28 23 29 24 30 25 32 26 33 27 34
REMARK SMILES IDX 85 35 28 36 84 37 29 38 30 39 31 40 78 41 32 42 83 43 77 44
REMARK SMILES IDX 79 45 33 46 82 47 76 48 75 49 34 51 64 52 45 53 63 54 46 55
REMARK SMILES IDX 49 56 62 57 80 58 47 59 48 60 61 62 81 63 50 64 35 65 36 66
REMARK SMILES IDX 44 67 37 68 43 69 38 70 39 71 40 72 41 73 42 74 65 75 66 76
REMARK SMILES IDX 74 77 67 78 73 79 68 80 69 81 70 82 71 83 72 84 51 85 52 86
REMARK SMILES IDX 60 87 53 88 59 89 54 90 55 91 56 92 57 93 58 94
REMARK H PARENT 16 7 23 31 79 50 49 61
REMARK Flexibility Score: inf
ROOT
ATOM      1  C   UNL A   1      34.912  31.787  28.646  1.00  0.00     0.002 C 
ENDROOT
BRANCH   1   2
ATOM      2  C   UNL A   1      35.581  30.861  27.618  1.00  0.00     0.021 C 
BRANCH   2   3
ATOM      3  C   UNL A   1      35.323  29.371  27.866  1.00  0.00     0.116 C 
BRANCH   3   4
ATOM      4  N   UNL A   1      33.902  29.107  28.003  1.00  0.00    -0.352 N 
ATOM      5  C   UNL A   1      32.971  28.473  27.224  1.00  0.00     0.251 C 
ATOM      6  O   UNL A   1      31.833  28.379  27.687  1.00  0.00    -0.269 OA
ATOM      7  H   UNL A   1      33.524  29.464  28.839  1.00  0.00     0.163 HD
BRANCH   5   8
ATOM      8  C   UNL A   1      33.238  27.884  25.876  1.00  0.00     0.041 A 
ATOM      9  C   UNL A   1      32.941  25.946  24.404  1.00  0.00     0.119 A 
ATOM     10  C   UNL A   1      32.824  26.549  25.666  1.00  0.00     0.038 A 
ATOM     11  C   UNL A   1      33.478  26.675  23.351  1.00  0.00     0.143 A 
ATOM     12  C   UNL A   1      33.915  27.980  23.543  1.00  0.00     0.041 A 
ATOM     13  F   UNL A   1      33.580  26.159  22.119  1.00  0.00    -0.206 F 
ATOM     14  C   UNL A   1      33.762  28.594  24.790  1.00  0.00     0.017 A 
BRANCH   9  15
ATOM     15  S   UNL A   1      32.132  24.408  24.067  1.00  0.00     0.246 S 
ATOM     16  O   UNL A   1      32.350  24.101  22.669  1.00  0.00    -0.207 OA
ATOM     17  O   UNL A   1      30.775  24.505  24.572  1.00  0.00    -0.207 OA
BRANCH  15  18
ATOM     18  N   UNL A   1      32.913  23.160  25.007  1.00  0.00    -0.197 NA
ATOM     19  C   UNL A   1      34.545  21.179  24.727  1.00  0.00     0.004 C 
ATOM     20  C   UNL A   1      35.385  21.795  25.847  1.00  0.00     0.006 C 
ATOM     21  C   UNL A   1      33.634  22.225  24.056  1.00  0.00     0.106 C 
ATOM     22  C   UNL A   1      34.510  22.569  26.814  1.00  0.00     0.017 C 
ATOM     23  C   UNL A   1      33.808  23.691  26.071  1.00  0.00     0.102 C 
BRANCH  19  24
ATOM     24  C   UNL A   1      33.777  19.935  25.217  1.00  0.00     0.001 C 
ATOM     25  C   UNL A   1      32.640  19.567  24.269  1.00  0.00     0.004 C 
ENDBRANCH  19  24
ENDBRANCH  15  18
ENDBRANCH   9  15
ENDBRANCH   5   8
ENDBRANCH   3   4
ENDBRANCH   2   3
ENDBRANCH   1   2
BRANCH   1  26
ATOM     26  C   UNL A   1      34.888  33.276  28.273  1.00  0.00     0.002 C 
BRANCH  26  27
ATOM     27  C   UNL A   1      33.530  33.969  28.424  1.00  0.00     0.021 C 
BRANCH  27  28
ATOM     28  C   UNL A   1      33.605  35.408  28.925  1.00  0.00     0.116 C 
BRANCH  28  29
ATOM     29  N   UNL A   1      32.807  35.606  30.126  1.00  0.00    -0.352 N 
ATOM     30  C   UNL A   1      32.996  35.099  31.387  1.00  0.00     0.251 C 
ATOM     31  H   UNL A   1      32.019  36.187  30.017  1.00  0.00     0.163 HD
ATOM     32  O   UNL A   1      32.106  35.188  32.227  1.00  0.00    -0.269 OA
BRANCH  30  33
ATOM     33  C   UNL A   1      34.271  34.430  31.726  1.00  0.00     0.039 A 
ATOM     34  C   UNL A   1      35.454  35.175  31.718  1.00  0.00     0.014 A 
ATOM     35  C   UNL A   1      34.298  33.069  32.044  1.00  0.00     0.014 A 
ATOM     36  C   UNL A   1      36.656  34.567  32.089  1.00  0.00     0.010 A 
ATOM     37  C   UNL A   1      35.485  32.482  32.472  1.00  0.00     0.010 A 
ATOM     38  C   UNL A   1      36.675  33.225  32.500  1.00  0.00    -0.014 A 
BRANCH  38  39
ATOM     39  C   UNL A   1      37.927  32.575  32.967  1.00  0.00     0.031 A 
ATOM     40  C   UNL A   1      38.433  32.827  34.361  1.00  0.00     0.074 A 
ATOM     41  C   UNL A   1      38.642  31.816  32.114  1.00  0.00     0.049 A 
ATOM     42  N   UNL A   1      39.541  32.415  34.922  1.00  0.00    -0.248 NA
ATOM     43  C   UNL A   1      37.595  33.669  35.228  1.00  0.00     0.031 C 
ATOM     44  C   UNL A   1      38.271  31.516  30.729  1.00  0.00     0.029 A 
ATOM     45  N   UNL A   1      39.837  31.162  32.285  1.00  0.00    -0.354 N 
ATOM     46  C   UNL A   1      39.542  32.961  36.200  1.00  0.00     0.074 A 
ATOM     47  C   UNL A   1      38.347  33.769  36.314  1.00  0.00     0.031 C 
ATOM     48  C   UNL A   1      39.204  30.716  30.187  1.00  0.00     0.029 A 
ATOM     49  C   UNL A   1      40.258  30.482  31.169  1.00  0.00     0.049 A 
ATOM     50  H   UNL A   1      40.343  31.180  33.129  1.00  0.00     0.167 HD
ATOM     51  C   UNL A   1      40.444  32.789  37.196  1.00  0.00     0.031 A 
ATOM     52  C   UNL A   1      41.372  29.754  30.955  1.00  0.00     0.031 A 
ATOM     53  C   UNL A   1      41.629  31.982  37.082  1.00  0.00     0.049 A 
ATOM     54  C   UNL A   1      42.375  29.603  32.064  1.00  0.00     0.074 A 
ATOM     55  C   UNL A   1      42.583  31.710  38.046  1.00  0.00     0.029 A 
ATOM     56  N   UNL A   1      42.023  31.316  35.932  1.00  0.00    -0.354 N 
ATOM     57  N   UNL A   1      42.334  30.089  33.282  1.00  0.00    -0.248 NA
ATOM     58  C   UNL A   1      43.572  28.803  31.770  1.00  0.00     0.031 C 
ATOM     59  C   UNL A   1      43.579  30.916  37.465  1.00  0.00     0.029 A 
ATOM     60  C   UNL A   1      43.217  30.652  36.154  1.00  0.00     0.049 A 
ATOM     61  H   UNL A   1      41.526  31.315  35.081  1.00  0.00     0.167 HD
ATOM     62  C   UNL A   1      43.488  29.630  33.909  1.00  0.00     0.074 A 
ATOM     63  C   UNL A   1      44.200  28.823  32.939  1.00  0.00     0.031 C 
ATOM     64  C   UNL A   1      43.915  29.854  35.176  1.00  0.00     0.031 A 
BRANCH  51  65
ATOM     65  C   UNL A   1      40.181  33.507  38.494  1.00  0.00    -0.014 A 
ATOM     66  C   UNL A   1      39.344  32.945  39.476  1.00  0.00     0.010 A 
ATOM     67  C   UNL A   1      40.783  34.753  38.741  1.00  0.00     0.010 A 
ATOM     68  C   UNL A   1      39.069  33.641  40.655  1.00  0.00     0.020 A 
ATOM     69  C   UNL A   1      40.533  35.440  39.933  1.00  0.00     0.020 A 
ATOM     70  C   UNL A   1      39.657  34.890  40.872  1.00  0.00     0.054 A 
BRANCH  70  71
ATOM     71  S   UNL A   1      39.278  35.779  42.407  1.00  0.00     0.124 S 
ATOM     72  O   UNL A   1      37.889  35.388  42.642  1.00  0.00    -0.237 OA
ATOM     73  O   UNL A   1      40.250  35.228  43.347  1.00  0.00    -0.237 OA
ATOM     74  O   UNL A   1      39.479  37.181  42.054  1.00  0.00    -0.744 OA
ENDBRANCH  70  71
ENDBRANCH  51  65
BRANCH  52  75
ATOM     75  C   UNL A   1      41.584  29.093  29.639  1.00  0.00    -0.014 A 
ATOM     76  C   UNL A   1      42.214  29.787  28.591  1.00  0.00     0.010 A 
ATOM     77  C   UNL A   1      41.177  27.762  29.432  1.00  0.00     0.010 A 
ATOM     78  C   UNL A   1      42.425  29.167  27.357  1.00  0.00     0.020 A 
ATOM     79  C   UNL A   1      41.409  27.131  28.207  1.00  0.00     0.020 A 
ATOM     80  C   UNL A   1      42.022  27.841  27.173  1.00  0.00     0.054 A 
BRANCH  80  81
ATOM     81  S   UNL A   1      42.362  27.036  25.582  1.00  0.00     0.124 S 
ATOM     82  O   UNL A   1      41.176  26.206  25.404  1.00  0.00    -0.237 OA
ATOM     83  O   UNL A   1      42.484  28.172  24.673  1.00  0.00    -0.237 OA
ATOM     84  O   UNL A   1      43.606  26.309  25.829  1.00  0.00    -0.744 OA
ENDBRANCH  80  81
ENDBRANCH  52  75
BRANCH  64  85
ATOM     85  C   UNL A   1      45.199  29.195  35.599  1.00  0.00    -0.014 A 
ATOM     86  C   UNL A   1      45.205  27.897  36.140  1.00  0.00     0.010 A 
ATOM     87  C   UNL A   1      46.421  29.862  35.399  1.00  0.00     0.010 A 
ATOM     88  C   UNL A   1      46.411  27.287  36.494  1.00  0.00     0.020 A 
ATOM     89  C   UNL A   1      47.630  29.246  35.730  1.00  0.00     0.020 A 
ATOM     90  C   UNL A   1      47.617  27.965  36.286  1.00  0.00     0.054 A 
BRANCH  90  91
ATOM     91  S   UNL A   1      49.173  27.132  36.704  1.00  0.00     0.124 S 
ATOM     92  O   UNL A   1      48.704  25.835  37.183  1.00  0.00    -0.237 OA
ATOM     93  O   UNL A   1      49.880  27.113  35.425  1.00  0.00    -0.237 OA
ATOM     94  O   UNL A   1      49.766  27.996  37.723  1.00  0.00    -0.744 OA
ENDBRANCH  90  91
ENDBRANCH  64  85
ENDBRANCH  38  39
ENDBRANCH  30  33
ENDBRANCH  28  29
ENDBRANCH  27  28
ENDBRANCH  26  27
ENDBRANCH   1  26
TORSDOF 19
ENDMDL
