MODEL 1
REMARK VINA RESULT:     -12.0      0.000      0.000
REMARK SMILES O=C(CSc1nnc(Cc2ccncc2)n1-c1ccccc1Cl)NCCCCCCNC(=O)c1ccc(-c2c3nc(c(-c4ccc(S(=O)(=O)[O-])cc4)c4ccc([nH]4)c(-c4ccc(S(=O)(=O)[O-])cc4)c4nc(c(-c5ccc(S(=O)(=O)[O-])cc5)c5ccc2[nH]5)C=C4)C=C3)cc1
REMARK SMILES IDX 27 1 26 2 25 3 24 4 1 5 2 6 3 8 4 9 5 10 6 11 16 12 7 13
REMARK SMILES IDX 8 14 17 15 18 16 22 17 19 18 21 19 23 20 20 21 9 22 10 23
REMARK SMILES IDX 11 24 15 25 12 26 14 27 13 28 28 29 29 30 30 31 31 32 32 33
REMARK SMILES IDX 33 35 34 36 35 37 93 38 36 39 92 40 37 41 38 42 39 43 86 44
REMARK SMILES IDX 40 45 91 46 85 47 87 48 41 49 90 50 84 51 83 52 42 54 72 55
REMARK SMILES IDX 53 56 71 57 54 58 57 59 70 60 88 61 55 62 56 63 69 65 89 66
REMARK SMILES IDX 58 67 43 68 44 69 52 70 45 71 51 72 46 73 47 74 48 75 49 76
REMARK SMILES IDX 50 77 73 78 74 79 82 80 75 81 81 82 76 83 77 84 78 85 79 86
REMARK SMILES IDX 80 87 59 88 60 89 68 90 61 91 67 92 62 93 63 94 64 95 65 96
REMARK SMILES IDX 66 97
REMARK H PARENT 24 7 31 34 87 53 57 64
REMARK Flexibility Score: inf
ROOT
ATOM      1  C   UNL A   1      32.043  28.497  23.856  1.00  0.00     0.002 C 
ENDROOT
BRANCH   1   2
ATOM      2  C   UNL A   1      30.635  28.092  24.311  1.00  0.00     0.021 C 
BRANCH   2   3
ATOM      3  C   UNL A   1      30.209  26.672  23.941  1.00  0.00     0.116 C 
BRANCH   3   4
ATOM      4  N   UNL A   1      30.917  25.666  24.706  1.00  0.00    -0.355 N 
ATOM      5  O   UNL A   1      29.361  25.521  26.388  1.00  0.00    -0.274 OA
ATOM      6  C   UNL A   1      30.420  25.150  25.888  1.00  0.00     0.230 C 
ATOM      7  H   UNL A   1      31.783  25.337  24.372  1.00  0.00     0.163 HD
BRANCH   6   8
ATOM      8  C   UNL A   1      31.327  24.144  26.580  1.00  0.00     0.178 C 
BRANCH   8   9
ATOM      9  S   UNL A   1      31.237  22.506  25.803  1.00  0.00    -0.076 SA
BRANCH   9  10
ATOM     10  C   UNL A   1      32.910  22.039  25.765  1.00  0.00     0.196 A 
ATOM     11  N   UNL A   1      33.465  21.115  26.513  1.00  0.00    -0.123 NA
ATOM     12  N   UNL A   1      33.828  22.523  24.853  1.00  0.00    -0.272 N 
ATOM     13  N   UNL A   1      34.762  20.956  26.090  1.00  0.00    -0.134 NA
ATOM     14  C   UNL A   1      34.980  21.787  25.087  1.00  0.00     0.142 A 
BRANCH  12  15
ATOM     15  C   UNL A   1      33.595  23.436  23.802  1.00  0.00     0.068 A 
ATOM     16  C   UNL A   1      34.074  24.747  23.946  1.00  0.00     0.028 A 
ATOM     17  C   UNL A   1      32.940  23.043  22.629  1.00  0.00     0.065 A 
ATOM     18  C   UNL A   1      33.904  25.662  22.908  1.00  0.00     0.002 A 
ATOM     19  C   UNL A   1      32.789  23.966  21.591  1.00  0.00     0.023 A 
ATOM     20  Cl  UNL A   1      32.192  21.498  22.437  1.00  0.00    -0.082 Cl
ATOM     21  C   UNL A   1      33.270  25.270  21.729  1.00  0.00     0.002 A 
ENDBRANCH  12  15
BRANCH  14  22
ATOM     22  C   UNL A   1      36.266  21.924  24.338  1.00  0.00     0.113 C 
BRANCH  22  23
ATOM     23  C   UNL A   1      37.426  22.408  25.178  1.00  0.00    -0.037 A 
ATOM     24  C   UNL A   1      37.477  23.732  25.626  1.00  0.00     0.024 A 
ATOM     25  C   UNL A   1      38.451  21.540  25.566  1.00  0.00     0.024 A 
ATOM     26  C   UNL A   1      38.523  24.119  26.450  1.00  0.00     0.111 A 
ATOM     27  C   UNL A   1      39.454  22.021  26.396  1.00  0.00     0.111 A 
ATOM     28  N   UNL A   1      39.510  23.290  26.853  1.00  0.00    -0.265 NA
ENDBRANCH  22  23
ENDBRANCH  14  22
ENDBRANCH   9  10
ENDBRANCH   8   9
ENDBRANCH   6   8
ENDBRANCH   3   4
ENDBRANCH   2   3
ENDBRANCH   1   2
BRANCH   1  29
ATOM     29  C   UNL A   1      33.153  28.428  24.914  1.00  0.00     0.002 C 
BRANCH  29  30
ATOM     30  C   UNL A   1      32.721  28.128  26.357  1.00  0.00     0.021 C 
BRANCH  30  31
ATOM     31  C   UNL A   1      33.501  28.884  27.423  1.00  0.00     0.116 C 
BRANCH  31  32
ATOM     32  N   UNL A   1      33.269  30.329  27.390  1.00  0.00    -0.352 N 
ATOM     33  C   UNL A   1      34.086  31.342  27.870  1.00  0.00     0.251 C 
ATOM     34  H   UNL A   1      32.425  30.618  26.975  1.00  0.00     0.163 HD
ATOM     35  O   UNL A   1      33.627  32.442  28.127  1.00  0.00    -0.269 OA
BRANCH  33  36
ATOM     36  C   UNL A   1      35.523  31.060  28.062  1.00  0.00     0.039 A 
ATOM     37  C   UNL A   1      36.409  32.029  28.545  1.00  0.00     0.014 A 
ATOM     38  C   UNL A   1      35.971  29.778  27.768  1.00  0.00     0.014 A 
ATOM     39  C   UNL A   1      37.730  31.663  28.811  1.00  0.00     0.010 A 
ATOM     40  C   UNL A   1      37.209  29.376  28.194  1.00  0.00     0.010 A 
ATOM     41  C   UNL A   1      38.118  30.324  28.653  1.00  0.00    -0.014 A 
BRANCH  41  42
ATOM     42  C   UNL A   1      39.441  29.852  29.050  1.00  0.00     0.031 A 
ATOM     43  C   UNL A   1      39.666  29.755  30.517  1.00  0.00     0.074 A 
ATOM     44  C   UNL A   1      40.304  29.295  28.170  1.00  0.00     0.049 A 
ATOM     45  N   UNL A   1      40.482  30.454  31.233  1.00  0.00    -0.248 NA
ATOM     46  C   UNL A   1      38.795  28.867  31.305  1.00  0.00     0.031 C 
ATOM     47  C   UNL A   1      40.096  29.049  26.736  1.00  0.00     0.029 A 
ATOM     48  N   UNL A   1      41.497  28.685  28.403  1.00  0.00    -0.354 N 
ATOM     49  C   UNL A   1      40.400  29.938  32.522  1.00  0.00     0.074 A 
ATOM     50  C   UNL A   1      39.217  29.114  32.547  1.00  0.00     0.031 C 
ATOM     51  C   UNL A   1      40.980  28.125  26.304  1.00  0.00     0.029 A 
ATOM     52  C   UNL A   1      41.922  27.852  27.373  1.00  0.00     0.049 A 
ATOM     53  H   UNL A   1      42.015  28.822  29.229  1.00  0.00     0.167 HD
ATOM     54  C   UNL A   1      41.447  30.020  33.391  1.00  0.00     0.031 A 
ATOM     55  C   UNL A   1      42.954  26.970  27.403  1.00  0.00     0.031 A 
ATOM     56  C   UNL A   1      42.472  30.910  32.906  1.00  0.00     0.049 A 
ATOM     57  C   UNL A   1      43.851  27.396  28.505  1.00  0.00     0.074 A 
ATOM     58  C   UNL A   1      42.509  32.241  32.537  1.00  0.00     0.029 A 
ATOM     59  N   UNL A   1      43.589  30.330  32.348  1.00  0.00    -0.354 N 
ATOM     60  N   UNL A   1      44.523  28.512  28.479  1.00  0.00    -0.248 NA
ATOM     61  C   UNL A   1      43.646  26.827  29.828  1.00  0.00     0.031 C 
ATOM     62  C   UNL A   1      43.356  32.278  31.390  1.00  0.00     0.029 A 
ATOM     63  C   UNL A   1      43.853  30.991  31.176  1.00  0.00     0.049 A 
ATOM     64  H   UNL A   1      44.104  29.578  32.722  1.00  0.00     0.167 HD
ATOM     65  C   UNL A   1      44.420  29.016  29.768  1.00  0.00     0.074 A 
ATOM     66  C   UNL A   1      43.976  27.883  30.579  1.00  0.00     0.031 C 
ATOM     67  C   UNL A   1      44.422  30.362  30.001  1.00  0.00     0.031 A 
BRANCH  54  68
ATOM     68  C   UNL A   1      41.743  28.996  34.462  1.00  0.00    -0.014 A 
ATOM     69  C   UNL A   1      42.321  29.430  35.673  1.00  0.00     0.010 A 
ATOM     70  C   UNL A   1      41.738  27.608  34.216  1.00  0.00     0.010 A 
ATOM     71  C   UNL A   1      42.937  28.527  36.549  1.00  0.00     0.020 A 
ATOM     72  C   UNL A   1      42.308  26.696  35.105  1.00  0.00     0.020 A 
ATOM     73  C   UNL A   1      42.939  27.165  36.248  1.00  0.00     0.054 A 
BRANCH  73  74
ATOM     74  S   UNL A   1      43.840  26.021  37.322  1.00  0.00     0.124 S 
ATOM     75  O   UNL A   1      45.227  26.344  37.005  1.00  0.00    -0.237 OA
ATOM     76  O   UNL A   1      43.382  26.417  38.649  1.00  0.00    -0.237 OA
ATOM     77  O   UNL A   1      43.385  24.706  36.876  1.00  0.00    -0.744 OA
ENDBRANCH  73  74
ENDBRANCH  54  68
BRANCH  55  78
ATOM     78  C   UNL A   1      43.078  25.664  26.711  1.00  0.00    -0.014 A 
ATOM     79  C   UNL A   1      43.592  25.581  25.402  1.00  0.00     0.010 A 
ATOM     80  C   UNL A   1      42.948  24.461  27.437  1.00  0.00     0.010 A 
ATOM     81  C   UNL A   1      44.032  24.355  24.872  1.00  0.00     0.020 A 
ATOM     82  C   UNL A   1      43.374  23.235  26.913  1.00  0.00     0.020 A 
ATOM     83  C   UNL A   1      43.943  23.192  25.642  1.00  0.00     0.054 A 
BRANCH  83  84
ATOM     84  S   UNL A   1      44.699  21.654  25.036  1.00  0.00     0.124 S 
ATOM     85  O   UNL A   1      44.632  21.823  23.588  1.00  0.00    -0.237 OA
ATOM     86  O   UNL A   1      46.037  21.707  25.619  1.00  0.00    -0.237 OA
ATOM     87  O   UNL A   1      43.832  20.609  25.580  1.00  0.00    -0.744 OA
ENDBRANCH  83  84
ENDBRANCH  55  78
BRANCH  67  88
ATOM     88  C   UNL A   1      44.815  31.288  28.869  1.00  0.00    -0.014 A 
ATOM     89  C   UNL A   1      44.011  31.531  27.737  1.00  0.00     0.010 A 
ATOM     90  C   UNL A   1      45.985  32.051  29.030  1.00  0.00     0.010 A 
ATOM     91  C   UNL A   1      44.389  32.480  26.776  1.00  0.00     0.020 A 
ATOM     92  C   UNL A   1      46.356  33.013  28.087  1.00  0.00     0.020 A 
ATOM     93  C   UNL A   1      45.564  33.214  26.956  1.00  0.00     0.054 A 
BRANCH  93  94
ATOM     94  S   UNL A   1      46.038  34.459  25.724  1.00  0.00     0.124 S 
ATOM     95  O   UNL A   1      45.779  35.713  26.427  1.00  0.00    -0.237 OA
ATOM     96  O   UNL A   1      47.446  34.155  25.478  1.00  0.00    -0.237 OA
ATOM     97  O   UNL A   1      45.149  34.188  24.596  1.00  0.00    -0.744 OA
ENDBRANCH  93  94
ENDBRANCH  67  88
ENDBRANCH  41  42
ENDBRANCH  33  36
ENDBRANCH  31  32
ENDBRANCH  30  31
ENDBRANCH  29  30
ENDBRANCH   1  29
TORSDOF 21
ENDMDL
MODEL 2
REMARK VINA RESULT:     -11.6      2.626      9.412
REMARK SMILES O=C(CSc1nnc(Cc2ccncc2)n1-c1ccccc1Cl)NCCCCCCNC(=O)c1ccc(-c2c3nc(c(-c4ccc(S(=O)(=O)[O-])cc4)c4ccc([nH]4)c(-c4ccc(S(=O)(=O)[O-])cc4)c4nc(c(-c5ccc(S(=O)(=O)[O-])cc5)c5ccc2[nH]5)C=C4)C=C3)cc1
REMARK SMILES IDX 27 1 26 2 25 3 24 4 1 5 2 6 3 8 4 9 5 10 6 11 16 12 7 13
REMARK SMILES IDX 8 14 17 15 18 16 22 17 19 18 21 19 23 20 20 21 9 22 10 23
REMARK SMILES IDX 11 24 15 25 12 26 14 27 13 28 28 29 29 30 30 31 31 32 32 33
REMARK SMILES IDX 33 35 34 36 35 37 93 38 36 39 92 40 37 41 38 42 39 43 86 44
REMARK SMILES IDX 40 45 91 46 85 47 87 48 41 49 90 50 84 51 83 52 42 54 72 55
REMARK SMILES IDX 53 56 71 57 54 58 57 59 70 60 88 61 55 62 56 63 69 65 89 66
REMARK SMILES IDX 58 67 43 68 44 69 52 70 45 71 51 72 46 73 47 74 48 75 49 76
REMARK SMILES IDX 50 77 73 78 74 79 82 80 75 81 81 82 76 83 77 84 78 85 79 86
REMARK SMILES IDX 80 87 59 88 60 89 68 90 61 91 67 92 62 93 63 94 64 95 65 96
REMARK SMILES IDX 66 97
REMARK H PARENT 24 7 31 34 87 53 57 64
REMARK Flexibility Score: inf
ROOT
ATOM      1  C   UNL A   1      34.691  20.893  25.591  1.00  0.00     0.002 C 
ENDROOT
BRANCH   1   2
ATOM      2  C   UNL A   1      33.591  20.848  24.523  1.00  0.00     0.021 C 
BRANCH   2   3
ATOM      3  C   UNL A   1      32.179  20.590  25.047  1.00  0.00     0.116 C 
BRANCH   3   4
ATOM      4  N   UNL A   1      31.656  21.710  25.803  1.00  0.00    -0.355 N 
ATOM      5  O   UNL A   1      30.949  22.907  23.976  1.00  0.00    -0.274 OA
ATOM      6  C   UNL A   1      31.059  22.798  25.195  1.00  0.00     0.230 C 
ATOM      7  H   UNL A   1      31.729  21.696  26.784  1.00  0.00     0.163 HD
BRANCH   6   8
ATOM      8  C   UNL A   1      30.621  23.902  26.144  1.00  0.00     0.178 C 
BRANCH   8   9
ATOM      9  S   UNL A   1      32.037  24.815  26.819  1.00  0.00    -0.076 SA
BRANCH   9  10
ATOM     10  C   UNL A   1      31.617  26.457  26.435  1.00  0.00     0.196 A 
ATOM     11  N   UNL A   1      31.285  27.385  27.299  1.00  0.00    -0.123 NA
ATOM     12  N   UNL A   1      31.693  26.998  25.166  1.00  0.00    -0.272 N 
ATOM     13  N   UNL A   1      31.156  28.569  26.615  1.00  0.00    -0.134 NA
ATOM     14  C   UNL A   1      31.414  28.345  25.339  1.00  0.00     0.142 A 
BRANCH  12  15
ATOM     15  C   UNL A   1      32.130  26.360  23.985  1.00  0.00     0.068 A 
ATOM     16  C   UNL A   1      31.192  26.143  22.963  1.00  0.00     0.028 A 
ATOM     17  C   UNL A   1      33.468  25.986  23.812  1.00  0.00     0.065 A 
ATOM     18  C   UNL A   1      31.599  25.559  21.765  1.00  0.00     0.002 A 
ATOM     19  C   UNL A   1      33.865  25.415  22.601  1.00  0.00     0.023 A 
ATOM     20  Cl  UNL A   1      34.645  26.081  25.072  1.00  0.00    -0.082 Cl
ATOM     21  C   UNL A   1      32.935  25.203  21.580  1.00  0.00     0.002 A 
ENDBRANCH  12  15
BRANCH  14  22
ATOM     22  C   UNL A   1      31.390  29.374  24.255  1.00  0.00     0.113 C 
BRANCH  22  23
ATOM     23  C   UNL A   1      30.003  29.743  23.779  1.00  0.00    -0.037 A 
ATOM     24  C   UNL A   1      29.178  28.785  23.181  1.00  0.00     0.024 A 
ATOM     25  C   UNL A   1      29.493  31.032  23.962  1.00  0.00     0.024 A 
ATOM     26  C   UNL A   1      27.888  29.145  22.819  1.00  0.00     0.111 A 
ATOM     27  C   UNL A   1      28.188  31.295  23.569  1.00  0.00     0.111 A 
ATOM     28  N   UNL A   1      27.371  30.379  23.007  1.00  0.00    -0.265 NA
ENDBRANCH  22  23
ENDBRANCH  14  22
ENDBRANCH   9  10
ENDBRANCH   8   9
ENDBRANCH   6   8
ENDBRANCH   3   4
ENDBRANCH   2   3
ENDBRANCH   1   2
BRANCH   1  29
ATOM     29  C   UNL A   1      35.367  22.252  25.824  1.00  0.00     0.002 C 
BRANCH  29  30
ATOM     30  C   UNL A   1      36.058  22.901  24.616  1.00  0.00     0.021 C 
BRANCH  30  31
ATOM     31  C   UNL A   1      37.543  23.180  24.809  1.00  0.00     0.116 C 
BRANCH  31  32
ATOM     32  N   UNL A   1      38.228  22.142  25.581  1.00  0.00    -0.352 N 
ATOM     33  C   UNL A   1      39.367  22.263  26.362  1.00  0.00     0.251 C 
ATOM     34  H   UNL A   1      37.829  21.243  25.539  1.00  0.00     0.163 HD
ATOM     35  O   UNL A   1      40.042  21.284  26.634  1.00  0.00    -0.269 OA
BRANCH  33  36
ATOM     36  C   UNL A   1      39.744  23.602  26.860  1.00  0.00     0.039 A 
ATOM     37  C   UNL A   1      38.882  24.698  26.760  1.00  0.00     0.014 A 
ATOM     38  C   UNL A   1      40.990  23.735  27.461  1.00  0.00     0.014 A 
ATOM     39  C   UNL A   1      39.255  25.906  27.353  1.00  0.00     0.010 A 
ATOM     40  C   UNL A   1      41.275  24.859  28.191  1.00  0.00     0.010 A 
ATOM     41  C   UNL A   1      40.447  25.973  28.088  1.00  0.00    -0.014 A 
BRANCH  41  42
ATOM     42  C   UNL A   1      40.820  27.162  28.848  1.00  0.00     0.031 A 
ATOM     43  C   UNL A   1      42.030  27.874  28.358  1.00  0.00     0.074 A 
ATOM     44  C   UNL A   1      39.993  27.728  29.756  1.00  0.00     0.049 A 
ATOM     45  N   UNL A   1      43.164  28.001  28.963  1.00  0.00    -0.248 NA
ATOM     46  C   UNL A   1      42.029  28.399  26.982  1.00  0.00     0.031 C 
ATOM     47  C   UNL A   1      38.636  27.304  30.127  1.00  0.00     0.029 A 
ATOM     48  N   UNL A   1      40.131  28.900  30.432  1.00  0.00    -0.354 N 
ATOM     49  C   UNL A   1      43.942  28.820  28.151  1.00  0.00     0.074 A 
ATOM     50  C   UNL A   1      43.275  28.864  26.873  1.00  0.00     0.031 C 
ATOM     51  C   UNL A   1      37.992  28.327  30.729  1.00  0.00     0.029 A 
ATOM     52  C   UNL A   1      38.940  29.404  30.948  1.00  0.00     0.049 A 
ATOM     53  H   UNL A   1      40.997  29.352  30.547  1.00  0.00     0.167 HD
ATOM     54  C   UNL A   1      44.932  29.603  28.667  1.00  0.00     0.031 A 
ATOM     55  C   UNL A   1      38.733  30.634  31.484  1.00  0.00     0.031 A 
ATOM     56  C   UNL A   1      45.219  29.262  30.038  1.00  0.00     0.049 A 
ATOM     57  C   UNL A   1      40.062  31.153  31.893  1.00  0.00     0.074 A 
ATOM     58  C   UNL A   1      45.614  28.111  30.691  1.00  0.00     0.029 A 
ATOM     59  N   UNL A   1      44.702  30.091  31.008  1.00  0.00    -0.354 N 
ATOM     60  N   UNL A   1      40.767  30.618  32.849  1.00  0.00    -0.248 NA
ATOM     61  C   UNL A   1      40.813  31.962  30.945  1.00  0.00     0.031 C 
ATOM     62  C   UNL A   1      44.872  28.110  31.909  1.00  0.00     0.029 A 
ATOM     63  C   UNL A   1      44.135  29.295  31.969  1.00  0.00     0.049 A 
ATOM     64  H   UNL A   1      44.733  31.076  31.010  1.00  0.00     0.167 HD
ATOM     65  C   UNL A   1      42.070  30.629  32.372  1.00  0.00     0.074 A 
ATOM     66  C   UNL A   1      42.055  31.574  31.256  1.00  0.00     0.031 C 
ATOM     67  C   UNL A   1      42.963  29.661  32.738  1.00  0.00     0.031 A 
BRANCH  54  68
ATOM     68  C   UNL A   1      45.349  30.934  28.087  1.00  0.00    -0.014 A 
ATOM     69  C   UNL A   1      44.422  31.997  28.095  1.00  0.00     0.010 A 
ATOM     70  C   UNL A   1      46.500  31.094  27.289  1.00  0.00     0.010 A 
ATOM     71  C   UNL A   1      44.600  33.122  27.280  1.00  0.00     0.020 A 
ATOM     72  C   UNL A   1      46.709  32.232  26.509  1.00  0.00     0.020 A 
ATOM     73  C   UNL A   1      45.738  33.223  26.479  1.00  0.00     0.054 A 
BRANCH  73  74
ATOM     74  S   UNL A   1      45.901  34.620  25.341  1.00  0.00     0.124 S 
ATOM     75  O   UNL A   1      45.017  34.220  24.251  1.00  0.00    -0.237 OA
ATOM     76  O   UNL A   1      45.439  35.738  26.156  1.00  0.00    -0.237 OA
ATOM     77  O   UNL A   1      47.326  34.633  25.020  1.00  0.00    -0.744 OA
ENDBRANCH  73  74
ENDBRANCH  54  68
BRANCH  55  78
ATOM     78  C   UNL A   1      37.510  31.472  31.439  1.00  0.00    -0.014 A 
ATOM     79  C   UNL A   1      36.470  31.292  32.370  1.00  0.00     0.010 A 
ATOM     80  C   UNL A   1      37.480  32.639  30.647  1.00  0.00     0.010 A 
ATOM     81  C   UNL A   1      35.484  32.277  32.557  1.00  0.00     0.020 A 
ATOM     82  C   UNL A   1      36.496  33.620  30.819  1.00  0.00     0.020 A 
ATOM     83  C   UNL A   1      35.519  33.448  31.796  1.00  0.00     0.054 A 
BRANCH  83  84
ATOM     84  S   UNL A   1      34.371  34.804  32.182  1.00  0.00     0.124 S 
ATOM     85  O   UNL A   1      33.999  35.285  30.855  1.00  0.00    -0.237 OA
ATOM     86  O   UNL A   1      33.317  34.125  32.929  1.00  0.00    -0.237 OA
ATOM     87  O   UNL A   1      35.186  35.728  32.971  1.00  0.00    -0.744 OA
ENDBRANCH  83  84
ENDBRANCH  55  78
BRANCH  67  88
ATOM     88  C   UNL A   1      42.596  28.738  33.881  1.00  0.00    -0.014 A 
ATOM     89  C   UNL A   1      41.940  27.502  33.714  1.00  0.00     0.010 A 
ATOM     90  C   UNL A   1      43.062  29.075  35.164  1.00  0.00     0.010 A 
ATOM     91  C   UNL A   1      41.723  26.648  34.806  1.00  0.00     0.020 A 
ATOM     92  C   UNL A   1      42.868  28.220  36.252  1.00  0.00     0.020 A 
ATOM     93  C   UNL A   1      42.186  27.016  36.071  1.00  0.00     0.054 A 
BRANCH  93  94
ATOM     94  S   UNL A   1      41.926  25.899  37.478  1.00  0.00     0.124 S 
ATOM     95  O   UNL A   1      42.923  26.365  38.439  1.00  0.00    -0.237 OA
ATOM     96  O   UNL A   1      40.534  26.152  37.842  1.00  0.00    -0.237 OA
ATOM     97  O   UNL A   1      42.179  24.572  36.919  1.00  0.00    -0.744 OA
ENDBRANCH  93  94
ENDBRANCH  67  88
ENDBRANCH  41  42
ENDBRANCH  33  36
ENDBRANCH  31  32
ENDBRANCH  30  31
ENDBRANCH  29  30
ENDBRANCH   1  29
TORSDOF 21
ENDMDL
MODEL 3
REMARK VINA RESULT:     -11.6      2.224      9.041
REMARK SMILES O=C(CSc1nnc(Cc2ccncc2)n1-c1ccccc1Cl)NCCCCCCNC(=O)c1ccc(-c2c3nc(c(-c4ccc(S(=O)(=O)[O-])cc4)c4ccc([nH]4)c(-c4ccc(S(=O)(=O)[O-])cc4)c4nc(c(-c5ccc(S(=O)(=O)[O-])cc5)c5ccc2[nH]5)C=C4)C=C3)cc1
REMARK SMILES IDX 27 1 26 2 25 3 24 4 1 5 2 6 3 8 4 9 5 10 6 11 16 12 7 13
REMARK SMILES IDX 8 14 17 15 18 16 22 17 19 18 21 19 23 20 20 21 9 22 10 23
REMARK SMILES IDX 11 24 15 25 12 26 14 27 13 28 28 29 29 30 30 31 31 32 32 33
REMARK SMILES IDX 33 35 34 36 35 37 93 38 36 39 92 40 37 41 38 42 39 43 86 44
REMARK SMILES IDX 40 45 91 46 85 47 87 48 41 49 90 50 84 51 83 52 42 54 72 55
REMARK SMILES IDX 53 56 71 57 54 58 57 59 70 60 88 61 55 62 56 63 69 65 89 66
REMARK SMILES IDX 58 67 43 68 44 69 52 70 45 71 51 72 46 73 47 74 48 75 49 76
REMARK SMILES IDX 50 77 73 78 74 79 82 80 75 81 81 82 76 83 77 84 78 85 79 86
REMARK SMILES IDX 80 87 59 88 60 89 68 90 61 91 67 92 62 93 63 94 64 95 65 96
REMARK SMILES IDX 66 97
REMARK H PARENT 24 7 31 34 87 53 57 64
REMARK Flexibility Score: inf
ROOT
ATOM      1  C   UNL A   1      38.283  21.022  25.108  1.00  0.00     0.002 C 
ENDROOT
BRANCH   1   2
ATOM      2  C   UNL A   1      36.860  21.175  25.660  1.00  0.00     0.021 C 
BRANCH   2   3
ATOM      3  C   UNL A   1      35.775  20.421  24.893  1.00  0.00     0.116 C 
BRANCH   3   4
ATOM      4  N   UNL A   1      34.440  20.853  25.254  1.00  0.00    -0.355 N 
ATOM      5  O   UNL A   1      33.356  19.072  24.294  1.00  0.00    -0.274 OA
ATOM      6  C   UNL A   1      33.312  20.123  24.929  1.00  0.00     0.230 C 
ATOM      7  H   UNL A   1      34.332  21.698  25.749  1.00  0.00     0.163 HD
BRANCH   6   8
ATOM      8  C   UNL A   1      31.995  20.760  25.341  1.00  0.00     0.178 C 
BRANCH   8   9
ATOM      9  S   UNL A   1      32.132  21.631  26.928  1.00  0.00    -0.076 SA
BRANCH   9  10
ATOM     10  C   UNL A   1      31.275  23.107  26.599  1.00  0.00     0.196 A 
ATOM     11  N   UNL A   1      30.174  23.502  27.191  1.00  0.00    -0.123 NA
ATOM     12  N   UNL A   1      31.728  24.089  25.739  1.00  0.00    -0.272 N 
ATOM     13  N   UNL A   1      29.890  24.770  26.746  1.00  0.00    -0.134 NA
ATOM     14  C   UNL A   1      30.826  25.131  25.887  1.00  0.00     0.142 A 
BRANCH  12  15
ATOM     15  C   UNL A   1      32.935  24.099  25.007  1.00  0.00     0.068 A 
ATOM     16  C   UNL A   1      34.111  24.476  25.675  1.00  0.00     0.028 A 
ATOM     17  C   UNL A   1      32.975  23.708  23.664  1.00  0.00     0.065 A 
ATOM     18  C   UNL A   1      35.328  24.452  24.996  1.00  0.00     0.002 A 
ATOM     19  C   UNL A   1      34.203  23.674  23.000  1.00  0.00     0.023 A 
ATOM     20  Cl  UNL A   1      31.557  23.377  22.734  1.00  0.00    -0.082 Cl
ATOM     21  C   UNL A   1      35.376  24.043  23.663  1.00  0.00     0.002 A 
ENDBRANCH  12  15
BRANCH  14  22
ATOM     22  C   UNL A   1      30.891  26.444  25.177  1.00  0.00     0.113 C 
BRANCH  22  23
ATOM     23  C   UNL A   1      32.018  27.344  25.634  1.00  0.00    -0.037 A 
ATOM     24  C   UNL A   1      32.959  27.826  24.719  1.00  0.00     0.024 A 
ATOM     25  C   UNL A   1      32.123  27.752  26.967  1.00  0.00     0.024 A 
ATOM     26  C   UNL A   1      33.937  28.702  25.165  1.00  0.00     0.111 A 
ATOM     27  C   UNL A   1      33.136  28.634  27.316  1.00  0.00     0.111 A 
ATOM     28  N   UNL A   1      34.042  29.124  26.444  1.00  0.00    -0.265 NA
ENDBRANCH  22  23
ENDBRANCH  14  22
ENDBRANCH   9  10
ENDBRANCH   8   9
ENDBRANCH   6   8
ENDBRANCH   3   4
ENDBRANCH   2   3
ENDBRANCH   1   2
BRANCH   1  29
ATOM     29  C   UNL A   1      39.431  21.176  26.117  1.00  0.00     0.002 C 
BRANCH  29  30
ATOM     30  C   UNL A   1      40.462  20.041  26.175  1.00  0.00     0.021 C 
BRANCH  30  31
ATOM     31  C   UNL A   1      41.826  20.449  26.716  1.00  0.00     0.116 C 
BRANCH  31  32
ATOM     32  N   UNL A   1      42.762  20.857  25.668  1.00  0.00    -0.352 N 
ATOM     33  C   UNL A   1      43.118  22.142  25.286  1.00  0.00     0.251 C 
ATOM     34  H   UNL A   1      43.194  20.126  25.170  1.00  0.00     0.163 HD
ATOM     35  O   UNL A   1      43.594  22.354  24.183  1.00  0.00    -0.269 OA
BRANCH  33  36
ATOM     36  C   UNL A   1      42.910  23.248  26.243  1.00  0.00     0.039 A 
ATOM     37  C   UNL A   1      43.639  23.344  27.432  1.00  0.00     0.014 A 
ATOM     38  C   UNL A   1      41.972  24.217  25.910  1.00  0.00     0.014 A 
ATOM     39  C   UNL A   1      43.475  24.474  28.235  1.00  0.00     0.010 A 
ATOM     40  C   UNL A   1      41.943  25.399  26.600  1.00  0.00     0.010 A 
ATOM     41  C   UNL A   1      42.638  25.512  27.800  1.00  0.00    -0.014 A 
BRANCH  41  42
ATOM     42  C   UNL A   1      42.536  26.776  28.523  1.00  0.00     0.031 A 
ATOM     43  C   UNL A   1      43.641  27.740  28.274  1.00  0.00     0.074 A 
ATOM     44  C   UNL A   1      41.404  27.155  29.158  1.00  0.00     0.049 A 
ATOM     45  N   UNL A   1      44.530  28.147  29.117  1.00  0.00    -0.248 NA
ATOM     46  C   UNL A   1      43.866  28.212  26.898  1.00  0.00     0.031 C 
ATOM     47  C   UNL A   1      40.126  26.434  29.232  1.00  0.00     0.029 A 
ATOM     48  N   UNL A   1      41.105  28.345  29.746  1.00  0.00    -0.354 N 
ATOM     49  C   UNL A   1      45.284  29.104  28.446  1.00  0.00     0.074 A 
ATOM     50  C   UNL A   1      44.965  28.954  27.048  1.00  0.00     0.031 C 
ATOM     51  C   UNL A   1      39.142  27.292  29.576  1.00  0.00     0.029 A 
ATOM     52  C   UNL A   1      39.742  28.567  29.920  1.00  0.00     0.049 A 
ATOM     53  H   UNL A   1      41.793  28.992  30.023  1.00  0.00     0.167 HD
ATOM     54  C   UNL A   1      45.915  30.112  29.113  1.00  0.00     0.031 A 
ATOM     55  C   UNL A   1      39.140  29.728  30.287  1.00  0.00     0.031 A 
ATOM     56  C   UNL A   1      45.919  29.886  30.537  1.00  0.00     0.049 A 
ATOM     57  C   UNL A   1      40.175  30.557  30.952  1.00  0.00     0.074 A 
ATOM     58  C   UNL A   1      46.384  28.879  31.360  1.00  0.00     0.029 A 
ATOM     59  N   UNL A   1      45.005  30.596  31.283  1.00  0.00    -0.354 N 
ATOM     60  N   UNL A   1      40.720  30.229  32.090  1.00  0.00    -0.248 NA
ATOM     61  C   UNL A   1      40.940  31.494  30.145  1.00  0.00     0.031 C 
ATOM     62  C   UNL A   1      45.380  28.736  32.363  1.00  0.00     0.029 A 
ATOM     63  C   UNL A   1      44.408  29.715  32.147  1.00  0.00     0.049 A 
ATOM     64  H   UNL A   1      44.815  31.560  31.209  1.00  0.00     0.167 HD
ATOM     65  C   UNL A   1      42.065  30.535  31.936  1.00  0.00     0.074 A 
ATOM     66  C   UNL A   1      42.119  31.418  30.772  1.00  0.00     0.031 C 
ATOM     67  C   UNL A   1      43.030  29.815  32.583  1.00  0.00     0.031 A 
BRANCH  54  68
ATOM     68  C   UNL A   1      46.157  31.487  28.538  1.00  0.00    -0.014 A 
ATOM     69  C   UNL A   1      45.057  32.352  28.361  1.00  0.00     0.010 A 
ATOM     70  C   UNL A   1      47.365  31.851  27.908  1.00  0.00     0.010 A 
ATOM     71  C   UNL A   1      45.141  33.475  27.529  1.00  0.00     0.020 A 
ATOM     72  C   UNL A   1      47.472  32.994  27.114  1.00  0.00     0.020 A 
ATOM     73  C   UNL A   1      46.348  33.779  26.897  1.00  0.00     0.054 A 
BRANCH  73  74
ATOM     74  S   UNL A   1      46.416  35.159  25.730  1.00  0.00     0.124 S 
ATOM     75  O   UNL A   1      45.656  36.185  26.437  1.00  0.00    -0.237 OA
ATOM     76  O   UNL A   1      47.851  35.397  25.617  1.00  0.00    -0.237 OA
ATOM     77  O   UNL A   1      45.779  34.622  24.530  1.00  0.00    -0.744 OA
ENDBRANCH  73  74
ENDBRANCH  54  68
BRANCH  55  78
ATOM     78  C   UNL A   1      37.812  30.252  29.882  1.00  0.00    -0.014 A 
ATOM     79  C   UNL A   1      36.973  30.900  30.809  1.00  0.00     0.010 A 
ATOM     80  C   UNL A   1      37.480  30.362  28.515  1.00  0.00     0.010 A 
ATOM     81  C   UNL A   1      35.892  31.690  30.380  1.00  0.00     0.020 A 
ATOM     82  C   UNL A   1      36.400  31.138  28.081  1.00  0.00     0.020 A 
ATOM     83  C   UNL A   1      35.628  31.824  29.015  1.00  0.00     0.054 A 
BRANCH  83  84
ATOM     84  S   UNL A   1      34.364  33.007  28.457  1.00  0.00     0.124 S 
ATOM     85  O   UNL A   1      33.412  32.143  27.765  1.00  0.00    -0.237 OA
ATOM     86  O   UNL A   1      33.896  33.587  29.712  1.00  0.00    -0.237 OA
ATOM     87  O   UNL A   1      35.110  33.924  27.596  1.00  0.00    -0.744 OA
ENDBRANCH  83  84
ENDBRANCH  55  78
BRANCH  67  88
ATOM     88  C   UNL A   1      42.603  28.863  33.681  1.00  0.00    -0.014 A 
ATOM     89  C   UNL A   1      42.389  27.484  33.486  1.00  0.00     0.010 A 
ATOM     90  C   UNL A   1      42.555  29.365  34.994  1.00  0.00     0.010 A 
ATOM     91  C   UNL A   1      42.096  26.641  34.568  1.00  0.00     0.020 A 
ATOM     92  C   UNL A   1      42.284  28.527  36.078  1.00  0.00     0.020 A 
ATOM     93  C   UNL A   1      42.041  27.171  35.860  1.00  0.00     0.054 A 
BRANCH  93  94
ATOM     94  S   UNL A   1      41.687  26.074  37.261  1.00  0.00     0.124 S 
ATOM     95  O   UNL A   1      42.841  26.288  38.131  1.00  0.00    -0.237 OA
ATOM     96  O   UNL A   1      40.415  26.588  37.765  1.00  0.00    -0.237 OA
ATOM     97  O   UNL A   1      41.610  24.746  36.653  1.00  0.00    -0.744 OA
ENDBRANCH  93  94
ENDBRANCH  67  88
ENDBRANCH  41  42
ENDBRANCH  33  36
ENDBRANCH  31  32
ENDBRANCH  30  31
ENDBRANCH  29  30
ENDBRANCH   1  29
TORSDOF 21
ENDMDL
