MODEL 1
REMARK VINA RESULT:     -10.7      0.000      0.000
REMARK SMILES Nc1cc(C(=O)NCCCCCCNC(=O)c2ccc(-c3c4nc(c(-c5ccc(S(=O)(=O)[O-])cc5)c5ccc([nH]5)c(-c5ccc(S(=O)(=O)[O-])cc5)c5nc(c(-c6ccc(S(=O)(=O)[O-])cc6)c6ccc3[nH]6)C=C5)C=C4)cc2)nc2ccccc12
REMARK SMILES IDX 11 1 10 2 9 3 8 4 7 5 5 6 6 7 4 9 2 10 3 11 83 12 78 13
REMARK SMILES IDX 82 14 77 15 79 16 81 17 80 18 1 19 12 22 13 23 14 24 15 25
REMARK SMILES IDX 16 27 17 28 18 29 76 30 19 31 75 32 20 33 21 34 22 35 69 36
REMARK SMILES IDX 23 37 74 38 68 39 70 40 24 41 73 42 67 43 66 44 25 46 55 47
REMARK SMILES IDX 36 48 54 49 37 50 40 51 53 52 71 53 38 54 39 55 52 57 72 58
REMARK SMILES IDX 41 59 26 60 27 61 35 62 28 63 34 64 29 65 30 66 31 67 32 68
REMARK SMILES IDX 33 69 56 70 57 71 65 72 58 73 64 74 59 75 60 76 61 77 62 78
REMARK SMILES IDX 63 79 42 80 43 81 51 82 44 83 50 84 45 85 46 86 47 87 48 88
REMARK SMILES IDX 49 89
REMARK H PARENT 7 8 1 20 1 21 14 26 70 45 40 56
REMARK Flexibility Score: inf
ROOT
ATOM      1  C   UNL A   1      34.587  24.292  25.603  1.00  0.00     0.002 C 
ENDROOT
BRANCH   1   2
ATOM      2  C   UNL A   1      33.145  23.845  25.884  1.00  0.00     0.002 C 
BRANCH   2   3
ATOM      3  C   UNL A   1      32.413  23.213  24.689  1.00  0.00     0.021 C 
BRANCH   3   4
ATOM      4  C   UNL A   1      31.637  24.229  23.849  1.00  0.00     0.116 C 
BRANCH   4   5
ATOM      5  N   UNL A   1      32.507  24.819  22.852  1.00  0.00    -0.351 N 
ATOM      6  C   UNL A   1      32.931  26.103  22.601  1.00  0.00     0.269 C 
ATOM      7  O   UNL A   1      33.653  26.237  21.608  1.00  0.00    -0.268 OA
ATOM      8  H   UNL A   1      32.872  24.160  22.219  1.00  0.00     0.163 HD
BRANCH   6   9
ATOM      9  C   UNL A   1      32.609  27.305  23.457  1.00  0.00     0.130 A 
ATOM     10  C   UNL A   1      31.330  29.223  24.141  1.00  0.00     0.043 A 
ATOM     11  C   UNL A   1      31.585  28.204  23.217  1.00  0.00     0.060 A 
ATOM     12  C   UNL A   1      32.229  29.411  25.219  1.00  0.00     0.023 A 
ATOM     13  C   UNL A   1      33.287  28.489  25.341  1.00  0.00     0.073 A 
ATOM     14  C   UNL A   1      32.137  30.464  26.164  1.00  0.00     0.012 A 
ATOM     15  N   UNL A   1      33.453  27.455  24.509  1.00  0.00    -0.242 NA
ATOM     16  C   UNL A   1      34.213  28.652  26.362  1.00  0.00     0.029 A 
ATOM     17  C   UNL A   1      33.077  30.603  27.185  1.00  0.00     0.001 A 
ATOM     18  C   UNL A   1      34.123  29.698  27.281  1.00  0.00     0.002 A 
BRANCH  10  19
ATOM     19  N   UNL A   1      30.281  30.107  23.876  1.00  0.00    -0.398 N 
ATOM     20  H   UNL A   1      29.531  29.824  23.305  1.00  0.00     0.156 HD
ATOM     21  H   UNL A   1      30.292  31.013  24.259  1.00  0.00     0.156 HD
ENDBRANCH  10  19
ENDBRANCH   6   9
ENDBRANCH   4   5
ENDBRANCH   3   4
ENDBRANCH   2   3
ENDBRANCH   1   2
BRANCH   1  22
ATOM     22  C   UNL A   1      35.665  23.269  25.965  1.00  0.00     0.021 C 
BRANCH  22  23
ATOM     23  C   UNL A   1      36.925  23.362  25.114  1.00  0.00     0.116 C 
BRANCH  23  24
ATOM     24  N   UNL A   1      37.944  22.415  25.545  1.00  0.00    -0.352 N 
ATOM     25  C   UNL A   1      39.122  22.665  26.212  1.00  0.00     0.251 C 
ATOM     26  H   UNL A   1      37.766  21.470  25.331  1.00  0.00     0.163 HD
ATOM     27  O   UNL A   1      39.971  21.795  26.332  1.00  0.00    -0.269 OA
BRANCH  25  28
ATOM     28  C   UNL A   1      39.350  24.021  26.757  1.00  0.00     0.039 A 
ATOM     29  C   UNL A   1      40.022  24.976  25.990  1.00  0.00     0.014 A 
ATOM     30  C   UNL A   1      38.941  24.315  28.059  1.00  0.00     0.014 A 
ATOM     31  C   UNL A   1      40.423  26.169  26.579  1.00  0.00     0.010 A 
ATOM     32  C   UNL A   1      39.279  25.547  28.624  1.00  0.00     0.010 A 
ATOM     33  C   UNL A   1      40.060  26.464  27.904  1.00  0.00    -0.014 A 
BRANCH  33  34
ATOM     34  C   UNL A   1      40.504  27.744  28.514  1.00  0.00     0.031 A 
ATOM     35  C   UNL A   1      41.946  27.963  28.878  1.00  0.00     0.074 A 
ATOM     36  C   UNL A   1      39.605  28.732  28.685  1.00  0.00     0.049 A 
ATOM     37  N   UNL A   1      42.505  29.020  29.409  1.00  0.00    -0.248 NA
ATOM     38  C   UNL A   1      42.885  26.861  28.610  1.00  0.00     0.031 C 
ATOM     39  C   UNL A   1      38.188  28.646  28.324  1.00  0.00     0.029 A 
ATOM     40  N   UNL A   1      39.749  30.007  29.170  1.00  0.00    -0.354 N 
ATOM     41  C   UNL A   1      43.853  28.711  29.548  1.00  0.00     0.074 A 
ATOM     42  C   UNL A   1      44.026  27.355  29.072  1.00  0.00     0.031 C 
ATOM     43  C   UNL A   1      37.608  29.835  28.541  1.00  0.00     0.029 A 
ATOM     44  C   UNL A   1      38.589  30.743  29.128  1.00  0.00     0.049 A 
ATOM     45  H   UNL A   1      40.601  30.360  29.514  1.00  0.00     0.167 HD
ATOM     46  C   UNL A   1      44.853  29.491  30.018  1.00  0.00     0.031 A 
ATOM     47  C   UNL A   1      38.330  32.003  29.531  1.00  0.00     0.031 A 
ATOM     48  C   UNL A   1      44.670  30.840  30.487  1.00  0.00     0.049 A 
ATOM     49  C   UNL A   1      39.433  32.817  30.137  1.00  0.00     0.074 A 
ATOM     50  C   UNL A   1      45.626  31.714  30.976  1.00  0.00     0.029 A 
ATOM     51  N   UNL A   1      43.456  31.509  30.531  1.00  0.00    -0.354 N 
ATOM     52  N   UNL A   1      40.699  32.502  30.274  1.00  0.00    -0.248 NA
ATOM     53  C   UNL A   1      39.079  34.143  30.660  1.00  0.00     0.031 C 
ATOM     54  C   UNL A   1      44.980  32.887  31.371  1.00  0.00     0.029 A 
ATOM     55  C   UNL A   1      43.632  32.772  31.071  1.00  0.00     0.049 A 
ATOM     56  H   UNL A   1      42.596  31.141  30.223  1.00  0.00     0.167 HD
ATOM     57  C   UNL A   1      41.294  33.588  30.903  1.00  0.00     0.074 A 
ATOM     58  C   UNL A   1      40.254  34.578  31.101  1.00  0.00     0.031 C 
ATOM     59  C   UNL A   1      42.584  33.741  31.283  1.00  0.00     0.031 A 
BRANCH  46  60
ATOM     60  C   UNL A   1      46.245  28.915  30.064  1.00  0.00    -0.014 A 
ATOM     61  C   UNL A   1      47.090  29.038  28.945  1.00  0.00     0.010 A 
ATOM     62  C   UNL A   1      46.685  28.173  31.175  1.00  0.00     0.010 A 
ATOM     63  C   UNL A   1      48.343  28.419  28.929  1.00  0.00     0.020 A 
ATOM     64  C   UNL A   1      47.947  27.572  31.172  1.00  0.00     0.020 A 
ATOM     65  C   UNL A   1      48.762  27.684  30.042  1.00  0.00     0.054 A 
BRANCH  65  66
ATOM     66  S   UNL A   1      50.396  26.896  30.014  1.00  0.00     0.124 S 
ATOM     67  O   UNL A   1      50.738  26.946  28.596  1.00  0.00    -0.237 OA
ATOM     68  O   UNL A   1      51.185  27.761  30.887  1.00  0.00    -0.237 OA
ATOM     69  O   UNL A   1      50.136  25.560  30.550  1.00  0.00    -0.744 OA
ENDBRANCH  65  66
ENDBRANCH  46  60
BRANCH  47  70
ATOM     70  C   UNL A   1      36.954  32.538  29.350  1.00  0.00    -0.014 A 
ATOM     71  C   UNL A   1      36.559  33.077  28.111  1.00  0.00     0.010 A 
ATOM     72  C   UNL A   1      36.089  32.647  30.452  1.00  0.00     0.010 A 
ATOM     73  C   UNL A   1      35.364  33.790  27.997  1.00  0.00     0.020 A 
ATOM     74  C   UNL A   1      34.878  33.337  30.334  1.00  0.00     0.020 A 
ATOM     75  C   UNL A   1      34.543  33.937  29.118  1.00  0.00     0.054 A 
BRANCH  75  76
ATOM     76  S   UNL A   1      33.050  34.958  28.978  1.00  0.00     0.124 S 
ATOM     77  O   UNL A   1      32.265  34.204  28.002  1.00  0.00    -0.237 OA
ATOM     78  O   UNL A   1      32.529  34.953  30.343  1.00  0.00    -0.237 OA
ATOM     79  O   UNL A   1      33.559  36.245  28.512  1.00  0.00    -0.744 OA
ENDBRANCH  75  76
ENDBRANCH  47  70
BRANCH  59  80
ATOM     80  C   UNL A   1      42.972  35.014  31.985  1.00  0.00    -0.014 A 
ATOM     81  C   UNL A   1      43.547  36.069  31.255  1.00  0.00     0.010 A 
ATOM     82  C   UNL A   1      42.918  35.095  33.388  1.00  0.00     0.010 A 
ATOM     83  C   UNL A   1      44.111  37.162  31.917  1.00  0.00     0.020 A 
ATOM     84  C   UNL A   1      43.460  36.198  34.053  1.00  0.00     0.020 A 
ATOM     85  C   UNL A   1      44.080  37.209  33.314  1.00  0.00     0.054 A 
BRANCH  85  86
ATOM     86  S   UNL A   1      44.883  38.600  34.158  1.00  0.00     0.124 S 
ATOM     87  O   UNL A   1      43.754  39.257  34.810  1.00  0.00    -0.237 OA
ATOM     88  O   UNL A   1      45.826  37.932  35.051  1.00  0.00    -0.237 OA
ATOM     89  O   UNL A   1      45.499  39.353  33.066  1.00  0.00    -0.744 OA
ENDBRANCH  85  86
ENDBRANCH  59  80
ENDBRANCH  33  34
ENDBRANCH  25  28
ENDBRANCH  23  24
ENDBRANCH  22  23
ENDBRANCH   1  22
TORSDOF 17
ENDMDL
MODEL 2
REMARK VINA RESULT:     -10.7      2.829      9.247
REMARK SMILES Nc1cc(C(=O)NCCCCCCNC(=O)c2ccc(-c3c4nc(c(-c5ccc(S(=O)(=O)[O-])cc5)c5ccc([nH]5)c(-c5ccc(S(=O)(=O)[O-])cc5)c5nc(c(-c6ccc(S(=O)(=O)[O-])cc6)c6ccc3[nH]6)C=C5)C=C4)cc2)nc2ccccc12
REMARK SMILES IDX 11 1 10 2 9 3 8 4 7 5 5 6 6 7 4 9 2 10 3 11 83 12 78 13
REMARK SMILES IDX 82 14 77 15 79 16 81 17 80 18 1 19 12 22 13 23 14 24 15 25
REMARK SMILES IDX 16 27 17 28 18 29 76 30 19 31 75 32 20 33 21 34 22 35 69 36
REMARK SMILES IDX 23 37 74 38 68 39 70 40 24 41 73 42 67 43 66 44 25 46 55 47
REMARK SMILES IDX 36 48 54 49 37 50 40 51 53 52 71 53 38 54 39 55 52 57 72 58
REMARK SMILES IDX 41 59 26 60 27 61 35 62 28 63 34 64 29 65 30 66 31 67 32 68
REMARK SMILES IDX 33 69 56 70 57 71 65 72 58 73 64 74 59 75 60 76 61 77 62 78
REMARK SMILES IDX 63 79 42 80 43 81 51 82 44 83 50 84 45 85 46 86 47 87 48 88
REMARK SMILES IDX 49 89
REMARK H PARENT 7 8 1 20 1 21 14 26 70 45 40 56
REMARK Flexibility Score: inf
ROOT
ATOM      1  C   UNL A   1      31.432  27.188  26.558  1.00  0.00     0.002 C 
ENDROOT
BRANCH   1   2
ATOM      2  C   UNL A   1      31.784  25.694  26.532  1.00  0.00     0.002 C 
BRANCH   2   3
ATOM      3  C   UNL A   1      33.071  25.338  25.772  1.00  0.00     0.021 C 
BRANCH   3   4
ATOM      4  C   UNL A   1      32.819  24.511  24.510  1.00  0.00     0.116 C 
BRANCH   4   5
ATOM      5  N   UNL A   1      33.254  25.244  23.339  1.00  0.00    -0.351 N 
ATOM      6  C   UNL A   1      32.656  26.177  22.525  1.00  0.00     0.269 C 
ATOM      7  O   UNL A   1      33.337  26.557  21.566  1.00  0.00    -0.268 OA
ATOM      8  H   UNL A   1      34.175  25.027  23.067  1.00  0.00     0.163 HD
BRANCH   6   9
ATOM      9  C   UNL A   1      31.285  26.770  22.747  1.00  0.00     0.130 A 
ATOM     10  C   UNL A   1      29.020  26.798  23.553  1.00  0.00     0.043 A 
ATOM     11  C   UNL A   1      30.211  26.106  23.312  1.00  0.00     0.060 A 
ATOM     12  C   UNL A   1      28.885  28.120  23.064  1.00  0.00     0.023 A 
ATOM     13  C   UNL A   1      30.009  28.690  22.436  1.00  0.00     0.073 A 
ATOM     14  C   UNL A   1      27.699  28.892  23.157  1.00  0.00     0.012 A 
ATOM     15  N   UNL A   1      31.177  28.050  22.310  1.00  0.00    -0.242 NA
ATOM     16  C   UNL A   1      29.916  29.971  21.910  1.00  0.00     0.029 A 
ATOM     17  C   UNL A   1      27.631  30.180  22.626  1.00  0.00     0.001 A 
ATOM     18  C   UNL A   1      28.741  30.719  21.994  1.00  0.00     0.002 A 
BRANCH  10  19
ATOM     19  N   UNL A   1      27.957  26.102  24.136  1.00  0.00    -0.398 N 
ATOM     20  H   UNL A   1      27.029  26.340  23.909  1.00  0.00     0.156 HD
ATOM     21  H   UNL A   1      28.136  25.374  24.773  1.00  0.00     0.156 HD
ENDBRANCH  10  19
ENDBRANCH   6   9
ENDBRANCH   4   5
ENDBRANCH   3   4
ENDBRANCH   2   3
ENDBRANCH   1   2
BRANCH   1  22
ATOM     22  C   UNL A   1      32.259  28.031  27.530  1.00  0.00     0.021 C 
BRANCH  22  23
ATOM     23  C   UNL A   1      33.455  28.727  26.892  1.00  0.00     0.116 C 
BRANCH  23  24
ATOM     24  N   UNL A   1      33.460  30.158  27.163  1.00  0.00    -0.352 N 
ATOM     25  C   UNL A   1      34.414  30.904  27.821  1.00  0.00     0.251 C 
ATOM     26  H   UNL A   1      32.680  30.658  26.833  1.00  0.00     0.163 HD
ATOM     27  O   UNL A   1      34.189  32.058  28.147  1.00  0.00    -0.269 OA
BRANCH  25  28
ATOM     28  C   UNL A   1      35.706  30.265  28.149  1.00  0.00     0.039 A 
ATOM     29  C   UNL A   1      35.910  29.716  29.418  1.00  0.00     0.014 A 
ATOM     30  C   UNL A   1      36.733  30.269  27.203  1.00  0.00     0.014 A 
ATOM     31  C   UNL A   1      37.186  29.314  29.792  1.00  0.00     0.010 A 
ATOM     32  C   UNL A   1      37.997  29.792  27.559  1.00  0.00     0.010 A 
ATOM     33  C   UNL A   1      38.244  29.353  28.869  1.00  0.00    -0.014 A 
BRANCH  33  34
ATOM     34  C   UNL A   1      39.600  28.922  29.294  1.00  0.00     0.031 A 
ATOM     35  C   UNL A   1      40.422  29.773  30.222  1.00  0.00     0.074 A 
ATOM     36  C   UNL A   1      40.064  27.727  28.883  1.00  0.00     0.049 A 
ATOM     37  N   UNL A   1      41.618  29.544  30.699  1.00  0.00    -0.248 NA
ATOM     38  C   UNL A   1      39.829  31.041  30.679  1.00  0.00     0.031 C 
ATOM     39  C   UNL A   1      39.333  26.797  28.018  1.00  0.00     0.029 A 
ATOM     40  N   UNL A   1      41.238  27.073  29.158  1.00  0.00    -0.354 N 
ATOM     41  C   UNL A   1      41.926  30.637  31.502  1.00  0.00     0.074 A 
ATOM     42  C   UNL A   1      40.803  31.545  31.425  1.00  0.00     0.031 C 
ATOM     43  C   UNL A   1      40.046  25.670  27.886  1.00  0.00     0.029 A 
ATOM     44  C   UNL A   1      41.317  25.824  28.589  1.00  0.00     0.049 A 
ATOM     45  H   UNL A   1      41.955  27.460  29.711  1.00  0.00     0.167 HD
ATOM     46  C   UNL A   1      43.038  30.854  32.241  1.00  0.00     0.031 A 
ATOM     47  C   UNL A   1      42.303  24.906  28.610  1.00  0.00     0.031 A 
ATOM     48  C   UNL A   1      44.149  29.942  32.310  1.00  0.00     0.049 A 
ATOM     49  C   UNL A   1      43.566  25.209  29.358  1.00  0.00     0.074 A 
ATOM     50  C   UNL A   1      45.319  30.072  33.039  1.00  0.00     0.029 A 
ATOM     51  N   UNL A   1      44.234  28.737  31.628  1.00  0.00    -0.354 N 
ATOM     52  N   UNL A   1      43.845  26.254  30.099  1.00  0.00    -0.248 NA
ATOM     53  C   UNL A   1      44.654  24.227  29.263  1.00  0.00     0.031 C 
ATOM     54  C   UNL A   1      46.135  28.976  32.750  1.00  0.00     0.029 A 
ATOM     55  C   UNL A   1      45.451  28.131  31.891  1.00  0.00     0.049 A 
ATOM     56  H   UNL A   1      43.533  28.368  31.044  1.00  0.00     0.167 HD
ATOM     57  C   UNL A   1      45.142  26.061  30.556  1.00  0.00     0.074 A 
ATOM     58  C   UNL A   1      45.586  24.787  30.026  1.00  0.00     0.031 C 
ATOM     59  C   UNL A   1      45.892  26.872  31.340  1.00  0.00     0.031 A 
BRANCH  46  60
ATOM     60  C   UNL A   1      43.127  32.131  33.034  1.00  0.00    -0.014 A 
ATOM     61  C   UNL A   1      42.472  32.231  34.276  1.00  0.00     0.010 A 
ATOM     62  C   UNL A   1      43.779  33.263  32.513  1.00  0.00     0.010 A 
ATOM     63  C   UNL A   1      42.455  33.441  34.977  1.00  0.00     0.020 A 
ATOM     64  C   UNL A   1      43.784  34.469  33.222  1.00  0.00     0.020 A 
ATOM     65  C   UNL A   1      43.107  34.555  34.441  1.00  0.00     0.054 A 
BRANCH  65  66
ATOM     66  S   UNL A   1      43.088  36.116  35.366  1.00  0.00     0.124 S 
ATOM     67  O   UNL A   1      42.665  37.072  34.348  1.00  0.00    -0.237 OA
ATOM     68  O   UNL A   1      42.119  35.850  36.426  1.00  0.00    -0.237 OA
ATOM     69  O   UNL A   1      44.471  36.255  35.821  1.00  0.00    -0.744 OA
ENDBRANCH  65  66
ENDBRANCH  46  60
BRANCH  47  70
ATOM     70  C   UNL A   1      42.094  23.621  27.891  1.00  0.00    -0.014 A 
ATOM     71  C   UNL A   1      41.488  22.532  28.546  1.00  0.00     0.010 A 
ATOM     72  C   UNL A   1      42.631  23.435  26.607  1.00  0.00     0.010 A 
ATOM     73  C   UNL A   1      41.500  21.261  27.967  1.00  0.00     0.020 A 
ATOM     74  C   UNL A   1      42.621  22.169  26.012  1.00  0.00     0.020 A 
ATOM     75  C   UNL A   1      42.090  21.084  26.713  1.00  0.00     0.054 A 
BRANCH  75  76
ATOM     76  S   UNL A   1      42.193  19.408  26.027  1.00  0.00     0.124 S 
ATOM     77  O   UNL A   1      40.814  19.175  25.604  1.00  0.00    -0.237 OA
ATOM     78  O   UNL A   1      43.164  19.562  24.947  1.00  0.00    -0.237 OA
ATOM     79  O   UNL A   1      42.644  18.603  27.158  1.00  0.00    -0.744 OA
ENDBRANCH  75  76
ENDBRANCH  47  70
BRANCH  59  80
ATOM     80  C   UNL A   1      47.296  26.443  31.669  1.00  0.00    -0.014 A 
ATOM     81  C   UNL A   1      48.272  26.411  30.657  1.00  0.00     0.010 A 
ATOM     82  C   UNL A   1      47.598  25.919  32.938  1.00  0.00     0.010 A 
ATOM     83  C   UNL A   1      49.512  25.811  30.892  1.00  0.00     0.020 A 
ATOM     84  C   UNL A   1      48.847  25.341  33.183  1.00  0.00     0.020 A 
ATOM     85  C   UNL A   1      49.783  25.263  32.149  1.00  0.00     0.054 A 
BRANCH  85  86
ATOM     86  S   UNL A   1      51.370  24.424  32.410  1.00  0.00     0.124 S 
ATOM     87  O   UNL A   1      52.278  25.221  31.591  1.00  0.00    -0.237 OA
ATOM     88  O   UNL A   1      51.559  24.537  33.855  1.00  0.00    -0.237 OA
ATOM     89  O   UNL A   1      51.122  23.066  31.929  1.00  0.00    -0.744 OA
ENDBRANCH  85  86
ENDBRANCH  59  80
ENDBRANCH  33  34
ENDBRANCH  25  28
ENDBRANCH  23  24
ENDBRANCH  22  23
ENDBRANCH   1  22
TORSDOF 17
ENDMDL
MODEL 3
REMARK VINA RESULT:     -10.5      0.868      8.324
REMARK SMILES Nc1cc(C(=O)NCCCCCCNC(=O)c2ccc(-c3c4nc(c(-c5ccc(S(=O)(=O)[O-])cc5)c5ccc([nH]5)c(-c5ccc(S(=O)(=O)[O-])cc5)c5nc(c(-c6ccc(S(=O)(=O)[O-])cc6)c6ccc3[nH]6)C=C5)C=C4)cc2)nc2ccccc12
REMARK SMILES IDX 11 1 10 2 9 3 8 4 7 5 5 6 6 7 4 9 2 10 3 11 83 12 78 13
REMARK SMILES IDX 82 14 77 15 79 16 81 17 80 18 1 19 12 22 13 23 14 24 15 25
REMARK SMILES IDX 16 27 17 28 18 29 76 30 19 31 75 32 20 33 21 34 22 35 69 36
REMARK SMILES IDX 23 37 74 38 68 39 70 40 24 41 73 42 67 43 66 44 25 46 55 47
REMARK SMILES IDX 36 48 54 49 37 50 40 51 53 52 71 53 38 54 39 55 52 57 72 58
REMARK SMILES IDX 41 59 26 60 27 61 35 62 28 63 34 64 29 65 30 66 31 67 32 68
REMARK SMILES IDX 33 69 56 70 57 71 65 72 58 73 64 74 59 75 60 76 61 77 62 78
REMARK SMILES IDX 63 79 42 80 43 81 51 82 44 83 50 84 45 85 46 86 47 87 48 88
REMARK SMILES IDX 49 89
REMARK H PARENT 7 8 1 20 1 21 14 26 70 45 40 56
REMARK Flexibility Score: inf
ROOT
ATOM      1  C   UNL A   1      34.645  24.201  25.620  1.00  0.00     0.002 C 
ENDROOT
BRANCH   1   2
ATOM      2  C   UNL A   1      33.274  23.596  25.952  1.00  0.00     0.002 C 
BRANCH   2   3
ATOM      3  C   UNL A   1      32.459  23.120  24.739  1.00  0.00     0.021 C 
BRANCH   3   4
ATOM      4  C   UNL A   1      31.704  24.250  24.036  1.00  0.00     0.116 C 
BRANCH   4   5
ATOM      5  N   UNL A   1      32.526  24.823  22.990  1.00  0.00    -0.351 N 
ATOM      6  C   UNL A   1      32.971  26.096  22.720  1.00  0.00     0.269 C 
ATOM      7  O   UNL A   1      33.632  26.216  21.684  1.00  0.00    -0.268 OA
ATOM      8  H   UNL A   1      32.830  24.159  22.331  1.00  0.00     0.163 HD
BRANCH   6   9
ATOM      9  C   UNL A   1      32.740  27.300  23.602  1.00  0.00     0.130 A 
ATOM     10  C   UNL A   1      31.582  29.268  24.355  1.00  0.00     0.043 A 
ATOM     11  C   UNL A   1      31.754  28.252  23.411  1.00  0.00     0.060 A 
ATOM     12  C   UNL A   1      32.527  29.396  25.403  1.00  0.00     0.023 A 
ATOM     13  C   UNL A   1      33.541  28.421  25.476  1.00  0.00     0.073 A 
ATOM     14  C   UNL A   1      32.521  30.438  26.365  1.00  0.00     0.012 A 
ATOM     15  N   UNL A   1      33.626  27.392  24.625  1.00  0.00    -0.242 NA
ATOM     16  C   UNL A   1      34.509  28.523  26.465  1.00  0.00     0.029 A 
ATOM     17  C   UNL A   1      33.501  30.516  27.353  1.00  0.00     0.001 A 
ATOM     18  C   UNL A   1      34.504  29.559  27.400  1.00  0.00     0.002 A 
BRANCH  10  19
ATOM     19  N   UNL A   1      30.570  30.207  24.139  1.00  0.00    -0.398 N 
ATOM     20  H   UNL A   1      30.727  31.156  24.348  1.00  0.00     0.156 HD
ATOM     21  H   UNL A   1      29.701  29.920  23.778  1.00  0.00     0.156 HD
ENDBRANCH  10  19
ENDBRANCH   6   9
ENDBRANCH   4   5
ENDBRANCH   3   4
ENDBRANCH   2   3
ENDBRANCH   1   2
BRANCH   1  22
ATOM     22  C   UNL A   1      35.846  23.340  26.015  1.00  0.00     0.021 C 
BRANCH  22  23
ATOM     23  C   UNL A   1      37.102  23.605  25.193  1.00  0.00     0.116 C 
BRANCH  23  24
ATOM     24  N   UNL A   1      38.161  22.653  25.496  1.00  0.00    -0.352 N 
ATOM     25  C   UNL A   1      39.368  22.880  26.119  1.00  0.00     0.251 C 
ATOM     26  H   UNL A   1      37.992  21.723  25.219  1.00  0.00     0.163 HD
ATOM     27  O   UNL A   1      40.239  22.025  26.127  1.00  0.00    -0.269 OA
BRANCH  25  28
ATOM     28  C   UNL A   1      39.597  24.195  26.755  1.00  0.00     0.039 A 
ATOM     29  C   UNL A   1      40.331  25.176  26.082  1.00  0.00     0.014 A 
ATOM     30  C   UNL A   1      39.126  24.423  28.050  1.00  0.00     0.014 A 
ATOM     31  C   UNL A   1      40.726  26.322  26.762  1.00  0.00     0.010 A 
ATOM     32  C   UNL A   1      39.461  25.611  28.704  1.00  0.00     0.010 A 
ATOM     33  C   UNL A   1      40.300  26.549  28.081  1.00  0.00    -0.014 A 
BRANCH  33  34
ATOM     34  C   UNL A   1      40.739  27.778  28.789  1.00  0.00     0.031 A 
ATOM     35  C   UNL A   1      39.807  28.948  28.947  1.00  0.00     0.074 A 
ATOM     36  C   UNL A   1      41.966  27.811  29.342  1.00  0.00     0.049 A 
ATOM     37  N   UNL A   1      40.024  30.092  29.544  1.00  0.00    -0.248 NA
ATOM     38  C   UNL A   1      38.459  28.821  28.368  1.00  0.00     0.031 C 
ATOM     39  C   UNL A   1      42.937  26.715  29.290  1.00  0.00     0.029 A 
ATOM     40  N   UNL A   1      42.596  28.781  30.079  1.00  0.00    -0.354 N 
ATOM     41  C   UNL A   1      38.849  30.824  29.405  1.00  0.00     0.074 A 
ATOM     42  C   UNL A   1      37.931  30.007  28.642  1.00  0.00     0.031 C 
ATOM     43  C   UNL A   1      44.011  27.049  30.019  1.00  0.00     0.029 A 
ATOM     44  C   UNL A   1      43.843  28.408  30.523  1.00  0.00     0.049 A 
ATOM     45  H   UNL A   1      42.194  29.659  30.272  1.00  0.00     0.167 HD
ATOM     46  C   UNL A   1      38.564  32.058  29.881  1.00  0.00     0.031 A 
ATOM     47  C   UNL A   1      44.761  29.084  31.242  1.00  0.00     0.031 A 
ATOM     48  C   UNL A   1      39.485  32.862  30.640  1.00  0.00     0.049 A 
ATOM     49  C   UNL A   1      44.459  30.487  31.677  1.00  0.00     0.074 A 
ATOM     50  C   UNL A   1      39.283  34.123  31.172  1.00  0.00     0.029 A 
ATOM     51  N   UNL A   1      40.779  32.489  30.972  1.00  0.00    -0.354 N 
ATOM     52  N   UNL A   1      43.349  31.167  31.524  1.00  0.00    -0.248 NA
ATOM     53  C   UNL A   1      45.530  31.221  32.362  1.00  0.00     0.031 C 
ATOM     54  C   UNL A   1      40.474  34.537  31.773  1.00  0.00     0.029 A 
ATOM     55  C   UNL A   1      41.400  33.510  31.672  1.00  0.00     0.049 A 
ATOM     56  H   UNL A   1      41.195  31.626  30.745  1.00  0.00     0.167 HD
ATOM     57  C   UNL A   1      43.587  32.414  32.089  1.00  0.00     0.074 A 
ATOM     58  C   UNL A   1      44.940  32.386  32.607  1.00  0.00     0.031 C 
ATOM     59  C   UNL A   1      42.756  33.480  32.164  1.00  0.00     0.031 A 
BRANCH  46  60
ATOM     60  C   UNL A   1      37.202  32.634  29.593  1.00  0.00    -0.014 A 
ATOM     61  C   UNL A   1      37.017  33.468  28.474  1.00  0.00     0.010 A 
ATOM     62  C   UNL A   1      36.127  32.427  30.476  1.00  0.00     0.010 A 
ATOM     63  C   UNL A   1      35.788  34.096  28.250  1.00  0.00     0.020 A 
ATOM     64  C   UNL A   1      34.889  33.035  30.243  1.00  0.00     0.020 A 
ATOM     65  C   UNL A   1      34.733  33.880  29.140  1.00  0.00     0.054 A 
BRANCH  65  66
ATOM     66  S   UNL A   1      33.139  34.691  28.832  1.00  0.00     0.124 S 
ATOM     67  O   UNL A   1      33.550  35.986  28.300  1.00  0.00    -0.237 OA
ATOM     68  O   UNL A   1      32.498  33.788  27.879  1.00  0.00    -0.237 OA
ATOM     69  O   UNL A   1      32.517  34.726  30.155  1.00  0.00    -0.744 OA
ENDBRANCH  65  66
ENDBRANCH  46  60
BRANCH  47  70
ATOM     70  C   UNL A   1      46.040  28.405  31.579  1.00  0.00    -0.014 A 
ATOM     71  C   UNL A   1      47.114  28.420  30.668  1.00  0.00     0.010 A 
ATOM     72  C   UNL A   1      46.137  27.618  32.739  1.00  0.00     0.010 A 
ATOM     73  C   UNL A   1      48.223  27.596  30.866  1.00  0.00     0.020 A 
ATOM     74  C   UNL A   1      47.259  26.812  32.954  1.00  0.00     0.020 A 
ATOM     75  C   UNL A   1      48.276  26.777  31.997  1.00  0.00     0.054 A 
BRANCH  75  76
ATOM     76  S   UNL A   1      49.673  25.634  32.182  1.00  0.00     0.124 S 
ATOM     77  O   UNL A   1      50.720  26.524  32.679  1.00  0.00    -0.237 OA
ATOM     78  O   UNL A   1      49.165  24.660  33.144  1.00  0.00    -0.237 OA
ATOM     79  O   UNL A   1      49.876  25.123  30.829  1.00  0.00    -0.744 OA
ENDBRANCH  75  76
ENDBRANCH  47  70
BRANCH  59  80
ATOM     80  C   UNL A   1      43.272  34.740  32.804  1.00  0.00    -0.014 A 
ATOM     81  C   UNL A   1      43.068  34.961  34.178  1.00  0.00     0.010 A 
ATOM     82  C   UNL A   1      43.809  35.769  32.012  1.00  0.00     0.010 A 
ATOM     83  C   UNL A   1      43.341  36.210  34.741  1.00  0.00     0.020 A 
ATOM     84  C   UNL A   1      44.107  37.012  32.577  1.00  0.00     0.020 A 
ATOM     85  C   UNL A   1      43.842  37.233  33.931  1.00  0.00     0.054 A 
BRANCH  85  86
ATOM     86  S   UNL A   1      44.120  38.869  34.664  1.00  0.00     0.124 S 
ATOM     87  O   UNL A   1      43.977  38.594  36.091  1.00  0.00    -0.237 OA
ATOM     88  O   UNL A   1      45.473  39.195  34.218  1.00  0.00    -0.237 OA
ATOM     89  O   UNL A   1      43.064  39.692  34.076  1.00  0.00    -0.744 OA
ENDBRANCH  85  86
ENDBRANCH  59  80
ENDBRANCH  33  34
ENDBRANCH  25  28
ENDBRANCH  23  24
ENDBRANCH  22  23
ENDBRANCH   1  22
TORSDOF 17
ENDMDL
