MODEL 1
REMARK VINA RESULT:      -9.4      0.000      0.000
REMARK SMILES O=C(CCC(=O)Nc1nncs1)NCCCCCCNC(=O)c1ccc(-c2c3nc(c(-c4ccc(S(=O)(=O)[O-])cc4)c4ccc([nH]4)c(-c4ccc(S(=O)(=O)[O-])cc4)c4nc(c(-c5ccc(S(=O)(=O)[O-])cc5)c5ccc2[nH]5)C=C4)C=C3)cc1
REMARK SMILES IDX 16 1 15 2 14 3 13 4 1 5 2 6 3 8 4 9 5 10 6 11 7 12 8 14 9 15
REMARK SMILES IDX 12 16 10 17 11 18 17 19 18 20 19 21 20 22 21 23 22 25 23 26
REMARK SMILES IDX 24 27 82 28 25 29 81 30 26 31 27 32 28 33 75 34 29 35 80 36
REMARK SMILES IDX 74 37 76 38 30 39 79 40 73 41 72 42 31 44 61 45 42 46 60 47
REMARK SMILES IDX 43 48 46 49 59 50 77 51 44 52 45 53 58 55 78 56 47 57 32 58
REMARK SMILES IDX 33 59 41 60 34 61 40 62 35 63 36 64 37 65 38 66 39 67 62 68
REMARK SMILES IDX 63 69 71 70 64 71 70 72 65 73 66 74 67 75 68 76 69 77 48 78
REMARK SMILES IDX 49 79 57 80 50 81 56 82 51 83 52 84 53 85 54 86 55 87
REMARK H PARENT 13 7 7 13 20 24 76 43 46 54
REMARK Flexibility Score: inf
ROOT
ATOM      1  C   UNL A   1      37.267  33.374  29.101  1.00  0.00     0.002 C 
ENDROOT
BRANCH   1   2
ATOM      2  C   UNL A   1      38.695  33.932  29.067  1.00  0.00     0.021 C 
BRANCH   2   3
ATOM      3  C   UNL A   1      39.026  34.953  30.153  1.00  0.00     0.116 C 
BRANCH   3   4
ATOM      4  N   UNL A   1      38.355  34.670  31.408  1.00  0.00    -0.356 N 
ATOM      5  O   UNL A   1      40.254  34.393  32.678  1.00  0.00    -0.275 OA
ATOM      6  C   UNL A   1      39.034  34.458  32.584  1.00  0.00     0.220 C 
ATOM      7  H   UNL A   1      37.373  34.627  31.417  1.00  0.00     0.163 HD
BRANCH   6   8
ATOM      8  C   UNL A   1      38.132  34.383  33.797  1.00  0.00     0.110 C 
BRANCH   8   9
ATOM      9  C   UNL A   1      36.723  33.908  33.452  1.00  0.00     0.110 C 
BRANCH   9  10
ATOM     10  C   UNL A   1      35.727  34.229  34.543  1.00  0.00     0.226 C 
ATOM     11  O   UNL A   1      35.931  33.762  35.673  1.00  0.00    -0.275 OA
ATOM     12  N   UNL A   1      34.570  34.908  34.371  1.00  0.00    -0.301 N 
ATOM     13  H   UNL A   1      34.078  35.042  35.214  1.00  0.00     0.172 HD
BRANCH  12  14
ATOM     14  C   UNL A   1      33.927  35.454  33.293  1.00  0.00     0.212 A 
ATOM     15  N   UNL A   1      33.245  34.700  32.459  1.00  0.00    -0.120 NA
ATOM     16  S   UNL A   1      33.912  37.105  32.889  1.00  0.00    -0.083 S 
ATOM     17  N   UNL A   1      32.826  35.397  31.344  1.00  0.00    -0.145 NA
ATOM     18  C   UNL A   1      33.144  36.670  31.424  1.00  0.00     0.204 A 
ENDBRANCH  12  14
ENDBRANCH   9  10
ENDBRANCH   8   9
ENDBRANCH   6   8
ENDBRANCH   3   4
ENDBRANCH   2   3
ENDBRANCH   1   2
BRANCH   1  19
ATOM     19  C   UNL A   1      36.140  34.399  28.959  1.00  0.00     0.002 C 
BRANCH  19  20
ATOM     20  C   UNL A   1      34.717  33.843  29.044  1.00  0.00     0.021 C 
BRANCH  20  21
ATOM     21  C   UNL A   1      34.608  32.366  29.412  1.00  0.00     0.116 C 
BRANCH  21  22
ATOM     22  N   UNL A   1      33.968  31.560  28.384  1.00  0.00    -0.352 N 
ATOM     23  C   UNL A   1      34.457  30.458  27.721  1.00  0.00     0.251 C 
ATOM     24  H   UNL A   1      33.060  31.841  28.128  1.00  0.00     0.163 HD
ATOM     25  O   UNL A   1      33.816  29.953  26.808  1.00  0.00    -0.269 OA
BRANCH  23  26
ATOM     26  C   UNL A   1      35.781  29.908  28.094  1.00  0.00     0.039 A 
ATOM     27  C   UNL A   1      36.824  29.971  27.165  1.00  0.00     0.014 A 
ATOM     28  C   UNL A   1      36.000  29.349  29.355  1.00  0.00     0.014 A 
ATOM     29  C   UNL A   1      38.103  29.538  27.526  1.00  0.00     0.010 A 
ATOM     30  C   UNL A   1      37.287  28.978  29.734  1.00  0.00     0.010 A 
ATOM     31  C   UNL A   1      38.354  29.072  28.826  1.00  0.00    -0.014 A 
BRANCH  31  32
ATOM     32  C   UNL A   1      39.716  28.673  29.263  1.00  0.00     0.031 A 
ATOM     33  C   UNL A   1      40.582  29.655  30.008  1.00  0.00     0.074 A 
ATOM     34  C   UNL A   1      40.208  27.466  28.919  1.00  0.00     0.049 A 
ATOM     35  N   UNL A   1      41.836  29.544  30.365  1.00  0.00    -0.248 NA
ATOM     36  C   UNL A   1      39.965  30.940  30.378  1.00  0.00     0.031 C 
ATOM     37  C   UNL A   1      39.484  26.435  28.168  1.00  0.00     0.029 A 
ATOM     38  N   UNL A   1      41.443  26.905  29.136  1.00  0.00    -0.354 N 
ATOM     39  C   UNL A   1      42.166  30.750  30.970  1.00  0.00     0.074 A 
ATOM     40  C   UNL A   1      40.991  31.593  30.906  1.00  0.00     0.031 C 
ATOM     41  C   UNL A   1      40.283  25.368  28.000  1.00  0.00     0.029 A 
ATOM     42  C   UNL A   1      41.587  25.650  28.591  1.00  0.00     0.049 A 
ATOM     43  H   UNL A   1      42.159  27.359  29.638  1.00  0.00     0.167 HD
ATOM     44  C   UNL A   1      43.338  31.120  31.539  1.00  0.00     0.031 A 
ATOM     45  C   UNL A   1      42.654  24.826  28.554  1.00  0.00     0.031 A 
ATOM     46  C   UNL A   1      44.493  30.269  31.634  1.00  0.00     0.049 A 
ATOM     47  C   UNL A   1      43.943  25.262  29.200  1.00  0.00     0.074 A 
ATOM     48  C   UNL A   1      45.703  30.531  32.254  1.00  0.00     0.029 A 
ATOM     49  N   UNL A   1      44.583  28.993  31.102  1.00  0.00    -0.354 N 
ATOM     50  N   UNL A   1      44.213  26.384  29.824  1.00  0.00    -0.248 NA
ATOM     51  C   UNL A   1      45.067  24.316  29.148  1.00  0.00     0.031 C 
ATOM     52  C   UNL A   1      46.541  29.430  32.059  1.00  0.00     0.029 A 
ATOM     53  C   UNL A   1      45.834  28.462  31.364  1.00  0.00     0.049 A 
ATOM     54  H   UNL A   1      43.865  28.533  30.610  1.00  0.00     0.167 HD
ATOM     55  C   UNL A   1      45.525  26.261  30.270  1.00  0.00     0.074 A 
ATOM     56  C   UNL A   1      45.991  24.956  29.852  1.00  0.00     0.031 C 
ATOM     57  C   UNL A   1      46.275  27.150  30.964  1.00  0.00     0.031 A 
BRANCH  44  58
ATOM     58  C   UNL A   1      43.438  32.508  32.112  1.00  0.00    -0.014 A 
ATOM     59  C   UNL A   1      43.246  32.743  33.484  1.00  0.00     0.010 A 
ATOM     60  C   UNL A   1      43.811  33.579  31.278  1.00  0.00     0.010 A 
ATOM     61  C   UNL A   1      43.403  34.028  34.010  1.00  0.00     0.020 A 
ATOM     62  C   UNL A   1      43.993  34.861  31.804  1.00  0.00     0.020 A 
ATOM     63  C   UNL A   1      43.779  35.079  33.167  1.00  0.00     0.054 A 
BRANCH  63  64
ATOM     64  S   UNL A   1      44.032  36.724  33.887  1.00  0.00     0.124 S 
ATOM     65  O   UNL A   1      43.651  37.598  32.780  1.00  0.00    -0.237 OA
ATOM     66  O   UNL A   1      43.117  36.720  35.026  1.00  0.00    -0.237 OA
ATOM     67  O   UNL A   1      45.451  36.739  34.232  1.00  0.00    -0.744 OA
ENDBRANCH  63  64
ENDBRANCH  44  58
BRANCH  45  68
ATOM     68  C   UNL A   1      42.560  23.502  27.880  1.00  0.00    -0.014 A 
ATOM     69  C   UNL A   1      41.914  22.423  28.510  1.00  0.00     0.010 A 
ATOM     70  C   UNL A   1      43.147  23.301  26.617  1.00  0.00     0.010 A 
ATOM     71  C   UNL A   1      41.890  21.161  27.910  1.00  0.00     0.020 A 
ATOM     72  C   UNL A   1      43.099  22.047  26.000  1.00  0.00     0.020 A 
ATOM     73  C   UNL A   1      42.489  20.980  26.661  1.00  0.00     0.054 A 
BRANCH  73  74
ATOM     74  S   UNL A   1      42.441  19.336  25.895  1.00  0.00     0.124 S 
ATOM     75  O   UNL A   1      41.018  19.171  25.620  1.00  0.00    -0.237 OA
ATOM     76  O   UNL A   1      43.297  19.506  24.724  1.00  0.00    -0.237 OA
ATOM     77  O   UNL A   1      42.984  18.461  26.932  1.00  0.00    -0.744 OA
ENDBRANCH  73  74
ENDBRANCH  45  68
BRANCH  57  78
ATOM     78  C   UNL A   1      47.659  26.728  31.378  1.00  0.00    -0.014 A 
ATOM     79  C   UNL A   1      47.891  26.085  32.605  1.00  0.00     0.010 A 
ATOM     80  C   UNL A   1      48.730  26.911  30.485  1.00  0.00     0.010 A 
ATOM     81  C   UNL A   1      49.176  25.648  32.940  1.00  0.00     0.020 A 
ATOM     82  C   UNL A   1      50.010  26.454  30.804  1.00  0.00     0.020 A 
ATOM     83  C   UNL A   1      50.227  25.833  32.036  1.00  0.00     0.054 A 
BRANCH  83  84
ATOM     84  S   UNL A   1      51.872  25.200  32.465  1.00  0.00     0.124 S 
ATOM     85  O   UNL A   1      52.738  25.988  31.593  1.00  0.00    -0.237 OA
ATOM     86  O   UNL A   1      51.971  25.504  33.891  1.00  0.00    -0.237 OA
ATOM     87  O   UNL A   1      51.790  23.777  32.143  1.00  0.00    -0.744 OA
ENDBRANCH  83  84
ENDBRANCH  57  78
ENDBRANCH  31  32
ENDBRANCH  23  26
ENDBRANCH  21  22
ENDBRANCH  20  21
ENDBRANCH  19  20
ENDBRANCH   1  19
TORSDOF 19
ENDMDL
MODEL 2
REMARK VINA RESULT:      -9.1      1.007      8.474
REMARK SMILES O=C(CCC(=O)Nc1nncs1)NCCCCCCNC(=O)c1ccc(-c2c3nc(c(-c4ccc(S(=O)(=O)[O-])cc4)c4ccc([nH]4)c(-c4ccc(S(=O)(=O)[O-])cc4)c4nc(c(-c5ccc(S(=O)(=O)[O-])cc5)c5ccc2[nH]5)C=C4)C=C3)cc1
REMARK SMILES IDX 16 1 15 2 14 3 13 4 1 5 2 6 3 8 4 9 5 10 6 11 7 12 8 14 9 15
REMARK SMILES IDX 12 16 10 17 11 18 17 19 18 20 19 21 20 22 21 23 22 25 23 26
REMARK SMILES IDX 24 27 82 28 25 29 81 30 26 31 27 32 28 33 75 34 29 35 80 36
REMARK SMILES IDX 74 37 76 38 30 39 79 40 73 41 72 42 31 44 61 45 42 46 60 47
REMARK SMILES IDX 43 48 46 49 59 50 77 51 44 52 45 53 58 55 78 56 47 57 32 58
REMARK SMILES IDX 33 59 41 60 34 61 40 62 35 63 36 64 37 65 38 66 39 67 62 68
REMARK SMILES IDX 63 69 71 70 64 71 70 72 65 73 66 74 67 75 68 76 69 77 48 78
REMARK SMILES IDX 49 79 57 80 50 81 56 82 51 83 52 84 53 85 54 86 55 87
REMARK H PARENT 13 7 7 13 20 24 76 43 46 54
REMARK Flexibility Score: inf
ROOT
ATOM      1  C   UNL A   1      37.135  33.125  28.921  1.00  0.00     0.002 C 
ENDROOT
BRANCH   1   2
ATOM      2  C   UNL A   1      38.515  33.792  28.997  1.00  0.00     0.021 C 
BRANCH   2   3
ATOM      3  C   UNL A   1      38.623  34.968  29.963  1.00  0.00     0.116 C 
BRANCH   3   4
ATOM      4  N   UNL A   1      38.030  34.683  31.257  1.00  0.00    -0.356 N 
ATOM      5  O   UNL A   1      40.003  34.474  32.422  1.00  0.00    -0.275 OA
ATOM      6  C   UNL A   1      38.778  34.505  32.396  1.00  0.00     0.220 C 
ATOM      7  H   UNL A   1      37.051  34.614  31.321  1.00  0.00     0.163 HD
BRANCH   6   8
ATOM      8  C   UNL A   1      37.947  34.421  33.658  1.00  0.00     0.110 C 
BRANCH   8   9
ATOM      9  C   UNL A   1      36.532  33.911  33.396  1.00  0.00     0.110 C 
BRANCH   9  10
ATOM     10  C   UNL A   1      35.556  34.360  34.459  1.00  0.00     0.226 C 
ATOM     11  O   UNL A   1      35.595  33.794  35.562  1.00  0.00    -0.275 OA
ATOM     12  N   UNL A   1      34.568  35.267  34.282  1.00  0.00    -0.301 N 
ATOM     13  H   UNL A   1      34.063  35.446  35.108  1.00  0.00     0.172 HD
BRANCH  12  14
ATOM     14  C   UNL A   1      34.112  35.995  33.216  1.00  0.00     0.212 A 
ATOM     15  N   UNL A   1      33.749  37.250  33.360  1.00  0.00    -0.120 NA
ATOM     16  S   UNL A   1      33.957  35.416  31.626  1.00  0.00    -0.083 S 
ATOM     17  N   UNL A   1      33.150  37.757  32.224  1.00  0.00    -0.145 NA
ATOM     18  C   UNL A   1      33.161  36.881  31.243  1.00  0.00     0.204 A 
ENDBRANCH  12  14
ENDBRANCH   9  10
ENDBRANCH   8   9
ENDBRANCH   6   8
ENDBRANCH   3   4
ENDBRANCH   2   3
ENDBRANCH   1   2
BRANCH   1  19
ATOM     19  C   UNL A   1      36.085  33.846  28.072  1.00  0.00     0.002 C 
BRANCH  19  20
ATOM     20  C   UNL A   1      34.701  33.195  28.029  1.00  0.00     0.021 C 
BRANCH  20  21
ATOM     21  C   UNL A   1      34.473  32.064  29.027  1.00  0.00     0.116 C 
BRANCH  21  22
ATOM     22  N   UNL A   1      33.994  30.837  28.410  1.00  0.00    -0.352 N 
ATOM     23  C   UNL A   1      34.711  29.727  28.025  1.00  0.00     0.251 C 
ATOM     24  H   UNL A   1      33.025  30.795  28.246  1.00  0.00     0.163 HD
ATOM     25  O   UNL A   1      34.157  28.813  27.427  1.00  0.00    -0.269 OA
BRANCH  23  26
ATOM     26  C   UNL A   1      36.164  29.660  28.305  1.00  0.00     0.039 A 
ATOM     27  C   UNL A   1      36.588  29.308  29.589  1.00  0.00     0.014 A 
ATOM     28  C   UNL A   1      37.102  29.927  27.305  1.00  0.00     0.014 A 
ATOM     29  C   UNL A   1      37.954  29.154  29.852  1.00  0.00     0.010 A 
ATOM     30  C   UNL A   1      38.456  29.712  27.551  1.00  0.00     0.010 A 
ATOM     31  C   UNL A   1      38.897  29.320  28.825  1.00  0.00    -0.014 A 
BRANCH  31  32
ATOM     32  C   UNL A   1      40.347  29.093  29.054  1.00  0.00     0.031 A 
ATOM     33  C   UNL A   1      40.960  27.760  28.714  1.00  0.00     0.074 A 
ATOM     34  C   UNL A   1      41.093  30.048  29.644  1.00  0.00     0.049 A 
ATOM     35  N   UNL A   1      42.170  27.324  28.951  1.00  0.00    -0.248 NA
ATOM     36  C   UNL A   1      40.091  26.779  28.041  1.00  0.00     0.031 C 
ATOM     37  C   UNL A   1      40.613  31.371  30.054  1.00  0.00     0.029 A 
ATOM     38  N   UNL A   1      42.414  30.048  30.022  1.00  0.00    -0.354 N 
ATOM     39  C   UNL A   1      42.200  26.014  28.488  1.00  0.00     0.074 A 
ATOM     40  C   UNL A   1      40.877  25.713  27.984  1.00  0.00     0.031 C 
ATOM     41  C   UNL A   1      41.625  32.055  30.613  1.00  0.00     0.029 A 
ATOM     42  C   UNL A   1      42.814  31.209  30.642  1.00  0.00     0.049 A 
ATOM     43  H   UNL A   1      43.019  29.288  29.863  1.00  0.00     0.167 HD
ATOM     44  C   UNL A   1      43.236  25.144  28.474  1.00  0.00     0.031 A 
ATOM     45  C   UNL A   1      43.998  31.550  31.188  1.00  0.00     0.031 A 
ATOM     46  C   UNL A   1      44.560  25.457  28.942  1.00  0.00     0.049 A 
ATOM     47  C   UNL A   1      45.136  30.563  31.152  1.00  0.00     0.074 A 
ATOM     48  C   UNL A   1      45.693  24.662  28.904  1.00  0.00     0.029 A 
ATOM     49  N   UNL A   1      44.930  26.656  29.528  1.00  0.00    -0.354 N 
ATOM     50  N   UNL A   1      45.158  29.351  30.651  1.00  0.00    -0.248 NA
ATOM     51  C   UNL A   1      46.411  30.994  31.745  1.00  0.00     0.031 C 
ATOM     52  C   UNL A   1      46.739  25.366  29.507  1.00  0.00     0.029 A 
ATOM     53  C   UNL A   1      46.270  26.617  29.871  1.00  0.00     0.049 A 
ATOM     54  H   UNL A   1      44.330  27.422  29.678  1.00  0.00     0.167 HD
ATOM     55  C   UNL A   1      46.458  28.891  30.835  1.00  0.00     0.074 A 
ATOM     56  C   UNL A   1      47.193  29.955  31.485  1.00  0.00     0.031 C 
ATOM     57  C   UNL A   1      46.995  27.695  30.494  1.00  0.00     0.031 A 
BRANCH  44  58
ATOM     58  C   UNL A   1      42.991  23.762  27.930  1.00  0.00    -0.014 A 
ATOM     59  C   UNL A   1      42.417  22.758  28.728  1.00  0.00     0.010 A 
ATOM     60  C   UNL A   1      43.262  23.490  26.575  1.00  0.00     0.010 A 
ATOM     61  C   UNL A   1      42.139  21.499  28.190  1.00  0.00     0.020 A 
ATOM     62  C   UNL A   1      42.963  22.240  26.026  1.00  0.00     0.020 A 
ATOM     63  C   UNL A   1      42.411  21.249  26.841  1.00  0.00     0.054 A 
BRANCH  63  64
ATOM     64  S   UNL A   1      41.987  19.624  26.155  1.00  0.00     0.124 S 
ATOM     65  O   UNL A   1      42.405  18.726  27.228  1.00  0.00    -0.237 OA
ATOM     66  O   UNL A   1      40.543  19.730  25.953  1.00  0.00    -0.237 OA
ATOM     67  O   UNL A   1      42.780  19.545  24.931  1.00  0.00    -0.744 OA
ENDBRANCH  63  64
ENDBRANCH  44  58
BRANCH  45  68
ATOM     68  C   UNL A   1      44.180  32.885  31.823  1.00  0.00    -0.014 A 
ATOM     69  C   UNL A   1      44.650  33.976  31.069  1.00  0.00     0.010 A 
ATOM     70  C   UNL A   1      43.917  33.066  33.193  1.00  0.00     0.010 A 
ATOM     71  C   UNL A   1      44.891  35.210  31.681  1.00  0.00     0.020 A 
ATOM     72  C   UNL A   1      44.128  34.306  33.802  1.00  0.00     0.020 A 
ATOM     73  C   UNL A   1      44.634  35.364  33.046  1.00  0.00     0.054 A 
BRANCH  73  74
ATOM     74  S   UNL A   1      44.946  36.976  33.820  1.00  0.00     0.124 S 
ATOM     75  O   UNL A   1      43.640  37.298  34.385  1.00  0.00    -0.237 OA
ATOM     76  O   UNL A   1      45.995  36.666  34.788  1.00  0.00    -0.237 OA
ATOM     77  O   UNL A   1      45.369  37.815  32.701  1.00  0.00    -0.744 OA
ENDBRANCH  73  74
ENDBRANCH  45  68
BRANCH  57  78
ATOM     78  C   UNL A   1      48.462  27.484  30.755  1.00  0.00    -0.014 A 
ATOM     79  C   UNL A   1      49.434  27.874  29.818  1.00  0.00     0.010 A 
ATOM     80  C   UNL A   1      48.873  26.958  31.993  1.00  0.00     0.010 A 
ATOM     81  C   UNL A   1      50.793  27.723  30.109  1.00  0.00     0.020 A 
ATOM     82  C   UNL A   1      50.229  26.830  32.298  1.00  0.00     0.020 A 
ATOM     83  C   UNL A   1      51.182  27.204  31.348  1.00  0.00     0.054 A 
BRANCH  83  84
ATOM     84  S   UNL A   1      52.952  27.079  31.728  1.00  0.00     0.124 S 
ATOM     85  O   UNL A   1      52.954  26.167  32.868  1.00  0.00    -0.237 OA
ATOM     86  O   UNL A   1      53.508  26.539  30.489  1.00  0.00    -0.237 OA
ATOM     87  O   UNL A   1      53.340  28.455  32.029  1.00  0.00    -0.744 OA
ENDBRANCH  83  84
ENDBRANCH  57  78
ENDBRANCH  31  32
ENDBRANCH  23  26
ENDBRANCH  21  22
ENDBRANCH  20  21
ENDBRANCH  19  20
ENDBRANCH   1  19
TORSDOF 19
ENDMDL
MODEL 3
REMARK VINA RESULT:      -8.9      1.992      4.052
REMARK SMILES O=C(CCC(=O)Nc1nncs1)NCCCCCCNC(=O)c1ccc(-c2c3nc(c(-c4ccc(S(=O)(=O)[O-])cc4)c4ccc([nH]4)c(-c4ccc(S(=O)(=O)[O-])cc4)c4nc(c(-c5ccc(S(=O)(=O)[O-])cc5)c5ccc2[nH]5)C=C4)C=C3)cc1
REMARK SMILES IDX 16 1 15 2 14 3 13 4 1 5 2 6 3 8 4 9 5 10 6 11 7 12 8 14 9 15
REMARK SMILES IDX 12 16 10 17 11 18 17 19 18 20 19 21 20 22 21 23 22 25 23 26
REMARK SMILES IDX 24 27 82 28 25 29 81 30 26 31 27 32 28 33 75 34 29 35 80 36
REMARK SMILES IDX 74 37 76 38 30 39 79 40 73 41 72 42 31 44 61 45 42 46 60 47
REMARK SMILES IDX 43 48 46 49 59 50 77 51 44 52 45 53 58 55 78 56 47 57 32 58
REMARK SMILES IDX 33 59 41 60 34 61 40 62 35 63 36 64 37 65 38 66 39 67 62 68
REMARK SMILES IDX 63 69 71 70 64 71 70 72 65 73 66 74 67 75 68 76 69 77 48 78
REMARK SMILES IDX 49 79 57 80 50 81 56 82 51 83 52 84 53 85 54 86 55 87
REMARK H PARENT 13 7 7 13 20 24 76 43 46 54
REMARK Flexibility Score: inf
ROOT
ATOM      1  C   UNL A   1      37.076  32.958  29.900  1.00  0.00     0.002 C 
ENDROOT
BRANCH   1   2
ATOM      2  C   UNL A   1      36.754  33.665  31.223  1.00  0.00     0.021 C 
BRANCH   2   3
ATOM      3  C   UNL A   1      36.754  32.771  32.460  1.00  0.00     0.116 C 
BRANCH   3   4
ATOM      4  N   UNL A   1      38.080  32.596  33.022  1.00  0.00    -0.356 N 
ATOM      5  O   UNL A   1      37.809  30.412  33.694  1.00  0.00    -0.275 OA
ATOM      6  C   UNL A   1      38.514  31.405  33.554  1.00  0.00     0.220 C 
ATOM      7  H   UNL A   1      38.696  33.364  33.023  1.00  0.00     0.163 HD
BRANCH   6   8
ATOM      8  C   UNL A   1      39.988  31.396  33.894  1.00  0.00     0.110 C 
BRANCH   8   9
ATOM      9  C   UNL A   1      40.593  29.995  33.840  1.00  0.00     0.110 C 
BRANCH   9  10
ATOM     10  C   UNL A   1      40.837  29.424  35.219  1.00  0.00     0.226 C 
ATOM     11  O   UNL A   1      40.161  29.866  36.160  1.00  0.00    -0.275 OA
ATOM     12  N   UNL A   1      41.804  28.534  35.537  1.00  0.00    -0.301 N 
ATOM     13  H   UNL A   1      41.775  28.261  36.483  1.00  0.00     0.172 HD
BRANCH  12  14
ATOM     14  C   UNL A   1      42.815  27.924  34.844  1.00  0.00     0.212 A 
ATOM     15  N   UNL A   1      43.807  28.623  34.339  1.00  0.00    -0.120 NA
ATOM     16  S   UNL A   1      42.935  26.255  34.547  1.00  0.00    -0.083 S 
ATOM     17  N   UNL A   1      44.624  27.865  33.525  1.00  0.00    -0.145 NA
ATOM     18  C   UNL A   1      44.256  26.603  33.516  1.00  0.00     0.204 A 
ENDBRANCH  12  14
ENDBRANCH   9  10
ENDBRANCH   8   9
ENDBRANCH   6   8
ENDBRANCH   3   4
ENDBRANCH   2   3
ENDBRANCH   1   2
BRANCH   1  19
ATOM     19  C   UNL A   1      36.554  33.636  28.631  1.00  0.00     0.002 C 
BRANCH  19  20
ATOM     20  C   UNL A   1      35.062  33.456  28.343  1.00  0.00     0.021 C 
BRANCH  20  21
ATOM     21  C   UNL A   1      34.373  32.335  29.115  1.00  0.00     0.116 C 
BRANCH  21  22
ATOM     22  N   UNL A   1      33.862  31.274  28.262  1.00  0.00    -0.352 N 
ATOM     23  C   UNL A   1      34.522  30.176  27.758  1.00  0.00     0.251 C 
ATOM     24  H   UNL A   1      32.914  31.352  28.010  1.00  0.00     0.163 HD
ATOM     25  O   UNL A   1      33.960  29.427  26.969  1.00  0.00    -0.269 OA
BRANCH  23  26
ATOM     26  C   UNL A   1      35.930  29.927  28.147  1.00  0.00     0.039 A 
ATOM     27  C   UNL A   1      36.201  29.463  29.437  1.00  0.00     0.014 A 
ATOM     28  C   UNL A   1      36.974  30.133  27.242  1.00  0.00     0.014 A 
ATOM     29  C   UNL A   1      37.513  29.138  29.796  1.00  0.00     0.010 A 
ATOM     30  C   UNL A   1      38.269  29.749  27.580  1.00  0.00     0.010 A 
ATOM     31  C   UNL A   1      38.553  29.244  28.859  1.00  0.00    -0.014 A 
BRANCH  31  32
ATOM     32  C   UNL A   1      39.944  28.839  29.187  1.00  0.00     0.031 A 
ATOM     33  C   UNL A   1      40.888  29.832  29.811  1.00  0.00     0.074 A 
ATOM     34  C   UNL A   1      40.385  27.610  28.847  1.00  0.00     0.049 A 
ATOM     35  N   UNL A   1      42.167  29.713  30.058  1.00  0.00    -0.248 NA
ATOM     36  C   UNL A   1      40.325  31.141  30.185  1.00  0.00     0.031 C 
ATOM     37  C   UNL A   1      39.582  26.565  28.206  1.00  0.00     0.029 A 
ATOM     38  N   UNL A   1      41.627  27.037  28.974  1.00  0.00    -0.354 N 
ATOM     39  C   UNL A   1      42.568  30.935  30.583  1.00  0.00     0.074 A 
ATOM     40  C   UNL A   1      41.404  31.795  30.592  1.00  0.00     0.031 C 
ATOM     41  C   UNL A   1      40.347  25.479  28.009  1.00  0.00     0.029 A 
ATOM     42  C   UNL A   1      41.703  25.760  28.468  1.00  0.00     0.049 A 
ATOM     43  H   UNL A   1      42.392  27.496  29.391  1.00  0.00     0.167 HD
ATOM     44  C   UNL A   1      43.791  31.305  31.029  1.00  0.00     0.031 A 
ATOM     45  C   UNL A   1      42.749  24.916  28.367  1.00  0.00     0.031 A 
ATOM     46  C   UNL A   1      44.938  30.437  31.053  1.00  0.00     0.049 A 
ATOM     47  C   UNL A   1      44.098  25.353  28.878  1.00  0.00     0.074 A 
ATOM     48  C   UNL A   1      46.203  30.702  31.551  1.00  0.00     0.029 A 
ATOM     49  N   UNL A   1      44.962  29.141  30.566  1.00  0.00    -0.354 N 
ATOM     50  N   UNL A   1      44.439  26.493  29.430  1.00  0.00    -0.248 NA
ATOM     51  C   UNL A   1      45.200  24.386  28.761  1.00  0.00     0.031 C 
ATOM     52  C   UNL A   1      47.004  29.579  31.325  1.00  0.00     0.029 A 
ATOM     53  C   UNL A   1      46.223  28.598  30.734  1.00  0.00     0.049 A 
ATOM     54  H   UNL A   1      44.195  28.676  30.159  1.00  0.00     0.167 HD
ATOM     55  C   UNL A   1      45.784  26.364  29.760  1.00  0.00     0.074 A 
ATOM     56  C   UNL A   1      46.192  25.036  29.353  1.00  0.00     0.031 C 
ATOM     57  C   UNL A   1      46.608  27.265  30.349  1.00  0.00     0.031 A 
BRANCH  44  58
ATOM     58  C   UNL A   1      43.963  32.712  31.535  1.00  0.00    -0.014 A 
ATOM     59  C   UNL A   1      44.292  33.763  30.662  1.00  0.00     0.010 A 
ATOM     60  C   UNL A   1      43.708  33.000  32.890  1.00  0.00     0.010 A 
ATOM     61  C   UNL A   1      44.388  35.074  31.138  1.00  0.00     0.020 A 
ATOM     62  C   UNL A   1      43.778  34.312  33.364  1.00  0.00     0.020 A 
ATOM     63  C   UNL A   1      44.127  35.340  32.485  1.00  0.00     0.054 A 
BRANCH  63  64
ATOM     64  S   UNL A   1      44.200  37.058  33.063  1.00  0.00     0.124 S 
ATOM     65  O   UNL A   1      44.459  37.782  31.820  1.00  0.00    -0.237 OA
ATOM     66  O   UNL A   1      42.873  37.259  33.640  1.00  0.00    -0.237 OA
ATOM     67  O   UNL A   1      45.301  37.057  34.023  1.00  0.00    -0.744 OA
ENDBRANCH  63  64
ENDBRANCH  44  58
BRANCH  45  68
ATOM     68  C   UNL A   1      42.577  23.569  27.757  1.00  0.00    -0.014 A 
ATOM     69  C   UNL A   1      42.104  22.491  28.528  1.00  0.00     0.010 A 
ATOM     70  C   UNL A   1      42.915  23.347  26.409  1.00  0.00     0.010 A 
ATOM     71  C   UNL A   1      42.012  21.210  27.975  1.00  0.00     0.020 A 
ATOM     72  C   UNL A   1      42.795  22.074  25.845  1.00  0.00     0.020 A 
ATOM     73  C   UNL A   1      42.364  21.009  26.638  1.00  0.00     0.054 A 
BRANCH  73  74
ATOM     74  S   UNL A   1      42.229  19.341  25.936  1.00  0.00     0.124 S 
ATOM     75  O   UNL A   1      43.099  19.432  24.769  1.00  0.00    -0.237 OA
ATOM     76  O   UNL A   1      42.717  18.498  27.025  1.00  0.00    -0.237 OA
ATOM     77  O   UNL A   1      40.803  19.207  25.647  1.00  0.00    -0.744 OA
ENDBRANCH  73  74
ENDBRANCH  45  68
BRANCH  57  78
ATOM     78  C   UNL A   1      48.017  26.834  30.652  1.00  0.00    -0.014 A 
ATOM     79  C   UNL A   1      49.090  27.212  29.828  1.00  0.00     0.010 A 
ATOM     80  C   UNL A   1      48.276  26.105  31.826  1.00  0.00     0.010 A 
ATOM     81  C   UNL A   1      50.398  26.851  30.165  1.00  0.00     0.020 A 
ATOM     82  C   UNL A   1      49.583  25.764  32.180  1.00  0.00     0.020 A 
ATOM     83  C   UNL A   1      50.636  26.131  31.340  1.00  0.00     0.054 A 
BRANCH  83  84
ATOM     84  S   UNL A   1      52.348  25.729  31.789  1.00  0.00     0.124 S 
ATOM     85  O   UNL A   1      52.217  24.368  32.298  1.00  0.00    -0.237 OA
ATOM     86  O   UNL A   1      53.053  25.860  30.516  1.00  0.00    -0.237 OA
ATOM     87  O   UNL A   1      52.689  26.740  32.788  1.00  0.00    -0.744 OA
ENDBRANCH  83  84
ENDBRANCH  57  78
ENDBRANCH  31  32
ENDBRANCH  23  26
ENDBRANCH  21  22
ENDBRANCH  20  21
ENDBRANCH  19  20
ENDBRANCH   1  19
TORSDOF 19
ENDMDL
