MODEL 1
REMARK VINA RESULT:     -11.6      0.000      0.000
REMARK SMILES Cc1ccc(Nc2nc3c(c(OCC(=O)NCCCCCCNC(=O)c4ccc(-c5c6nc(c(-c7ccc(S(=O)(=O)[O-])cc7)c7ccc([nH]7)c(-c7ccc(S(=O)(=O)[O-])cc7)c7nc(c(-c8ccc(S(=O)(=O)[O-])cc8)c8ccc5[nH]8)C=C7)C=C6)cc4)n2)C[N@H+](Cc2ccccc2)CC3)cc1F
REMARK SMILES IDX 19 1 18 2 17 3 16 4 14 5 15 6 13 8 12 9 11 10 7 11 8 12
REMARK SMILES IDX 86 13 9 14 10 15 97 16 87 17 96 18 88 19 6 21 5 23 1 24 2 25
REMARK SMILES IDX 3 26 99 27 4 28 98 29 100 30 89 31 90 32 91 33 95 34 92 35
REMARK SMILES IDX 94 36 93 37 20 38 21 39 22 40 23 41 24 42 25 44 26 45 27 46
REMARK SMILES IDX 85 47 28 48 84 49 29 50 30 51 31 52 78 53 32 54 83 55 77 56
REMARK SMILES IDX 79 57 33 58 82 59 76 60 75 61 34 63 64 64 45 65 63 66 46 67
REMARK SMILES IDX 49 68 62 69 80 70 47 71 48 72 61 74 81 75 50 76 35 77 36 78
REMARK SMILES IDX 44 79 37 80 43 81 38 82 39 83 40 84 41 85 42 86 65 87 66 88
REMARK SMILES IDX 74 89 67 90 73 91 68 92 69 93 70 94 71 95 72 96 51 97 52 98
REMARK SMILES IDX 60 99 53 100 59 101 54 102 55 103 56 104 57 105 58 106
REMARK H PARENT 16 7 88 20 6 22 23 43 79 62 49 73
REMARK Flexibility Score: inf
ROOT
ATOM      1  C   UNL A   1      37.444  22.213  25.090  1.00  0.00     0.002 C 
ENDROOT
BRANCH   1   2
ATOM      2  C   UNL A   1      36.157  22.730  25.747  1.00  0.00     0.021 C 
BRANCH   2   3
ATOM      3  C   UNL A   1      35.198  21.630  26.204  1.00  0.00     0.116 C 
BRANCH   3   4
ATOM      4  N   UNL A   1      34.589  21.951  27.482  1.00  0.00    -0.353 N 
ATOM      5  C   UNL A   1      33.315  22.369  27.750  1.00  0.00     0.258 C 
ATOM      6  O   UNL A   1      33.001  22.584  28.923  1.00  0.00    -0.271 OA
ATOM      7  H   UNL A   1      35.176  21.855  28.266  1.00  0.00     0.163 HD
BRANCH   5   8
ATOM      8  C   UNL A   1      32.295  22.453  26.611  1.00  0.00     0.331 C 
BRANCH   8   9
ATOM      9  O   UNL A   1      32.419  23.557  25.729  1.00  0.00    -0.467 OA
BRANCH   9  10
ATOM     10  C   UNL A   1      32.432  23.227  24.389  1.00  0.00     0.228 A 
ATOM     11  C   UNL A   1      32.208  21.699  22.721  1.00  0.00     0.230 A 
ATOM     12  N   UNL A   1      32.521  22.604  21.780  1.00  0.00    -0.217 NA
ATOM     13  N   UNL A   1      32.106  21.981  24.024  1.00  0.00    -0.177 NA
ATOM     14  C   UNL A   1      32.772  23.867  22.181  1.00  0.00     0.064 A 
ATOM     15  C   UNL A   1      32.784  24.227  23.509  1.00  0.00     0.090 A 
ATOM     16  C   UNL A   1      33.101  24.882  21.121  1.00  0.00     0.118 C 
ATOM     17  C   UNL A   1      33.041  25.631  23.954  1.00  0.00     0.307 C 
ATOM     18  C   UNL A   1      32.927  26.319  21.630  1.00  0.00     0.269 C 
ATOM     19  N   UNL A   1      33.620  26.491  22.913  1.00  0.00    -0.327 N 
ATOM     20  H   UNL A   1      34.580  26.186  22.760  1.00  0.00     0.348 HD
BRANCH  11  21
ATOM     21  N   UNL A   1      32.035  20.361  22.376  1.00  0.00    -0.324 N 
ATOM     22  H   UNL A   1      31.578  20.189  21.522  1.00  0.00     0.170 HD
BRANCH  21  23
ATOM     23  C   UNL A   1      32.438  19.230  23.102  1.00  0.00     0.044 A 
ATOM     24  C   UNL A   1      33.551  15.666  25.280  1.00  0.00     0.047 C 
ATOM     25  C   UNL A   1      33.198  16.896  24.504  1.00  0.00    -0.015 A 
ATOM     26  C   UNL A   1      33.251  16.931  23.108  1.00  0.00     0.008 A 
ATOM     27  C   UNL A   1      32.794  18.044  25.184  1.00  0.00     0.128 A 
ATOM     28  C   UNL A   1      32.877  18.090  22.416  1.00  0.00     0.026 A 
ATOM     29  C   UNL A   1      32.433  19.199  24.501  1.00  0.00     0.065 A 
ATOM     30  F   UNL A   1      32.728  18.038  26.523  1.00  0.00    -0.207 F 
ENDBRANCH  21  23
ENDBRANCH  11  21
BRANCH  19  31
ATOM     31  C   UNL A   1      33.729  27.898  23.344  1.00  0.00     0.299 C 
BRANCH  31  32
ATOM     32  C   UNL A   1      33.262  28.212  24.752  1.00  0.00     0.006 A 
ATOM     33  C   UNL A   1      34.176  28.208  25.815  1.00  0.00     0.009 A 
ATOM     34  C   UNL A   1      31.920  28.523  25.022  1.00  0.00     0.009 A 
ATOM     35  C   UNL A   1      33.764  28.538  27.108  1.00  0.00     0.001 A 
ATOM     36  C   UNL A   1      31.513  28.875  26.309  1.00  0.00     0.001 A 
ATOM     37  C   UNL A   1      32.436  28.885  27.351  1.00  0.00     0.000 A 
ENDBRANCH  31  32
ENDBRANCH  19  31
ENDBRANCH   9  10
ENDBRANCH   8   9
ENDBRANCH   5   8
ENDBRANCH   3   4
ENDBRANCH   2   3
ENDBRANCH   1   2
BRANCH   1  38
ATOM     38  C   UNL A   1      37.346  20.823  24.452  1.00  0.00     0.002 C 
BRANCH  38  39
ATOM     39  C   UNL A   1      38.280  19.766  25.046  1.00  0.00     0.021 C 
BRANCH  39  40
ATOM     40  C   UNL A   1      39.379  20.317  25.950  1.00  0.00     0.116 C 
BRANCH  40  41
ATOM     41  N   UNL A   1      40.464  19.369  26.142  1.00  0.00    -0.352 N 
ATOM     42  C   UNL A   1      41.799  19.605  26.362  1.00  0.00     0.251 C 
ATOM     43  H   UNL A   1      40.204  18.420  26.111  1.00  0.00     0.163 HD
ATOM     44  O   UNL A   1      42.600  18.675  26.326  1.00  0.00    -0.269 OA
BRANCH  42  45
ATOM     45  C   UNL A   1      42.273  20.983  26.619  1.00  0.00     0.039 A 
ATOM     46  C   UNL A   1      42.550  21.368  27.932  1.00  0.00     0.014 A 
ATOM     47  C   UNL A   1      42.436  21.892  25.570  1.00  0.00     0.014 A 
ATOM     48  C   UNL A   1      43.053  22.646  28.187  1.00  0.00     0.010 A 
ATOM     49  C   UNL A   1      42.998  23.142  25.817  1.00  0.00     0.010 A 
ATOM     50  C   UNL A   1      43.311  23.534  27.128  1.00  0.00    -0.014 A 
BRANCH  50  51
ATOM     51  C   UNL A   1      43.898  24.874  27.377  1.00  0.00     0.031 A 
ATOM     52  C   UNL A   1      43.027  26.003  27.855  1.00  0.00     0.074 A 
ATOM     53  C   UNL A   1      45.208  25.086  27.139  1.00  0.00     0.049 A 
ATOM     54  N   UNL A   1      43.350  27.249  28.091  1.00  0.00    -0.248 NA
ATOM     55  C   UNL A   1      41.605  25.698  28.083  1.00  0.00     0.031 C 
ATOM     56  C   UNL A   1      46.155  24.079  26.654  1.00  0.00     0.029 A 
ATOM     57  N   UNL A   1      45.972  26.219  27.276  1.00  0.00    -0.354 N 
ATOM     58  C   UNL A   1      42.176  27.876  28.490  1.00  0.00     0.074 A 
ATOM     59  C   UNL A   1      41.121  26.888  28.412  1.00  0.00     0.031 C 
ATOM     60  C   UNL A   1      47.377  24.629  26.569  1.00  0.00     0.029 A 
ATOM     61  C   UNL A   1      47.296  26.035  26.953  1.00  0.00     0.049 A 
ATOM     62  H   UNL A   1      45.606  27.081  27.577  1.00  0.00     0.167 HD
ATOM     63  C   UNL A   1      41.994  29.151  28.908  1.00  0.00     0.031 A 
ATOM     64  C   UNL A   1      48.330  26.899  26.966  1.00  0.00     0.031 A 
ATOM     65  C   UNL A   1      43.043  30.130  28.993  1.00  0.00     0.049 A 
ATOM     66  C   UNL A   1      48.095  28.321  27.397  1.00  0.00     0.074 A 
ATOM     67  C   UNL A   1      42.961  31.440  29.434  1.00  0.00     0.029 A 
ATOM     68  N   UNL A   1      44.363  29.910  28.634  1.00  0.00    -0.354 N 
ATOM     69  N   UNL A   1      46.983  28.883  27.805  1.00  0.00    -0.248 NA
ATOM     70  C   UNL A   1      49.255  29.223  27.375  1.00  0.00     0.031 C 
ATOM     71  C   UNL A   1      44.225  32.025  29.298  1.00  0.00     0.029 A 
ATOM     72  C   UNL A   1      45.103  31.065  28.824  1.00  0.00     0.049 A 
ATOM     73  H   UNL A   1      44.722  29.059  28.294  1.00  0.00     0.167 HD
ATOM     74  C   UNL A   1      47.313  30.200  28.107  1.00  0.00     0.074 A 
ATOM     75  C   UNL A   1      48.732  30.345  27.851  1.00  0.00     0.031 C 
ATOM     76  C   UNL A   1      46.514  31.197  28.558  1.00  0.00     0.031 A 
BRANCH  63  77
ATOM     77  C   UNL A   1      40.602  29.558  29.314  1.00  0.00    -0.014 A 
ATOM     78  C   UNL A   1      40.255  29.676  30.671  1.00  0.00     0.010 A 
ATOM     79  C   UNL A   1      39.648  29.879  28.331  1.00  0.00     0.010 A 
ATOM     80  C   UNL A   1      38.968  30.074  31.041  1.00  0.00     0.020 A 
ATOM     81  C   UNL A   1      38.367  30.303  28.697  1.00  0.00     0.020 A 
ATOM     82  C   UNL A   1      38.031  30.385  30.050  1.00  0.00     0.054 A 
BRANCH  82  83
ATOM     83  S   UNL A   1      36.378  30.929  30.561  1.00  0.00     0.124 S 
ATOM     84  O   UNL A   1      36.100  30.032  31.681  1.00  0.00    -0.237 OA
ATOM     85  O   UNL A   1      36.599  32.329  30.917  1.00  0.00    -0.237 OA
ATOM     86  O   UNL A   1      35.558  30.711  29.372  1.00  0.00    -0.744 OA
ENDBRANCH  82  83
ENDBRANCH  63  77
BRANCH  64  87
ATOM     87  C   UNL A   1      49.690  26.435  26.579  1.00  0.00    -0.014 A 
ATOM     88  C   UNL A   1      50.597  26.001  27.560  1.00  0.00     0.010 A 
ATOM     89  C   UNL A   1      50.077  26.402  25.226  1.00  0.00     0.010 A 
ATOM     90  C   UNL A   1      51.871  25.551  27.199  1.00  0.00     0.020 A 
ATOM     91  C   UNL A   1      51.341  25.930  24.860  1.00  0.00     0.020 A 
ATOM     92  C   UNL A   1      52.233  25.514  25.850  1.00  0.00     0.054 A 
BRANCH  92  93
ATOM     93  S   UNL A   1      53.869  24.868  25.401  1.00  0.00     0.124 S 
ATOM     94  O   UNL A   1      54.557  24.864  26.688  1.00  0.00    -0.237 OA
ATOM     95  O   UNL A   1      53.547  23.555  24.849  1.00  0.00    -0.237 OA
ATOM     96  O   UNL A   1      54.363  25.840  24.428  1.00  0.00    -0.744 OA
ENDBRANCH  92  93
ENDBRANCH  64  87
BRANCH  76  97
ATOM     97  C   UNL A   1      47.149  32.535  28.821  1.00  0.00    -0.014 A 
ATOM     98  C   UNL A   1      47.138  33.545  27.844  1.00  0.00     0.010 A 
ATOM     99  C   UNL A   1      47.690  32.813  30.090  1.00  0.00     0.010 A 
ATOM    100  C   UNL A   1      47.675  34.804  28.125  1.00  0.00     0.020 A 
ATOM    101  C   UNL A   1      48.204  34.078  30.383  1.00  0.00     0.020 A 
ATOM    102  C   UNL A   1      48.201  35.064  29.394  1.00  0.00     0.054 A 
BRANCH 102 103
ATOM    103  S   UNL A   1      48.833  36.726  29.750  1.00  0.00     0.124 S 
ATOM    104  O   UNL A   1      49.870  36.881  28.734  1.00  0.00    -0.237 OA
ATOM    105  O   UNL A   1      47.648  37.563  29.574  1.00  0.00    -0.237 OA
ATOM    106  O   UNL A   1      49.319  36.626  31.126  1.00  0.00    -0.744 OA
ENDBRANCH 102 103
ENDBRANCH  76  97
ENDBRANCH  50  51
ENDBRANCH  42  45
ENDBRANCH  40  41
ENDBRANCH  39  40
ENDBRANCH  38  39
ENDBRANCH   1  38
TORSDOF 22
ENDMDL
MODEL 2
REMARK VINA RESULT:     -11.5      5.719      9.985
REMARK SMILES Cc1ccc(Nc2nc3c(c(OCC(=O)NCCCCCCNC(=O)c4ccc(-c5c6nc(c(-c7ccc(S(=O)(=O)[O-])cc7)c7ccc([nH]7)c(-c7ccc(S(=O)(=O)[O-])cc7)c7nc(c(-c8ccc(S(=O)(=O)[O-])cc8)c8ccc5[nH]8)C=C7)C=C6)cc4)n2)C[N@H+](Cc2ccccc2)CC3)cc1F
REMARK SMILES IDX 19 1 18 2 17 3 16 4 14 5 15 6 13 8 12 9 11 10 7 11 8 12
REMARK SMILES IDX 86 13 9 14 10 15 97 16 87 17 96 18 88 19 6 21 5 23 1 24 2 25
REMARK SMILES IDX 3 26 99 27 4 28 98 29 100 30 89 31 90 32 91 33 95 34 92 35
REMARK SMILES IDX 94 36 93 37 20 38 21 39 22 40 23 41 24 42 25 44 26 45 27 46
REMARK SMILES IDX 85 47 28 48 84 49 29 50 30 51 31 52 78 53 32 54 83 55 77 56
REMARK SMILES IDX 79 57 33 58 82 59 76 60 75 61 34 63 64 64 45 65 63 66 46 67
REMARK SMILES IDX 49 68 62 69 80 70 47 71 48 72 61 74 81 75 50 76 35 77 36 78
REMARK SMILES IDX 44 79 37 80 43 81 38 82 39 83 40 84 41 85 42 86 65 87 66 88
REMARK SMILES IDX 74 89 67 90 73 91 68 92 69 93 70 94 71 95 72 96 51 97 52 98
REMARK SMILES IDX 60 99 53 100 59 101 54 102 55 103 56 104 57 105 58 106
REMARK H PARENT 16 7 88 20 6 22 23 43 79 62 49 73
REMARK Flexibility Score: inf
ROOT
ATOM      1  C   UNL A   1      35.363  22.941  26.050  1.00  0.00     0.002 C 
ENDROOT
BRANCH   1   2
ATOM      2  C   UNL A   1      34.777  21.693  26.724  1.00  0.00     0.021 C 
BRANCH   2   3
ATOM      3  C   UNL A   1      33.324  21.845  27.178  1.00  0.00     0.116 C 
BRANCH   3   4
ATOM      4  N   UNL A   1      32.963  23.239  27.355  1.00  0.00    -0.353 N 
ATOM      5  C   UNL A   1      31.852  23.905  26.921  1.00  0.00     0.258 C 
ATOM      6  O   UNL A   1      31.741  25.103  27.188  1.00  0.00    -0.271 OA
ATOM      7  H   UNL A   1      33.612  23.783  27.858  1.00  0.00     0.163 HD
BRANCH   5   8
ATOM      8  C   UNL A   1      30.736  23.127  26.217  1.00  0.00     0.331 C 
BRANCH   8   9
ATOM      9  O   UNL A   1      30.285  23.647  24.977  1.00  0.00    -0.467 OA
BRANCH   9  10
ATOM     10  C   UNL A   1      31.074  23.320  23.893  1.00  0.00     0.228 A 
ATOM     11  C   UNL A   1      31.952  21.778  22.472  1.00  0.00     0.230 A 
ATOM     12  N   UNL A   1      32.663  22.711  21.817  1.00  0.00    -0.217 NA
ATOM     13  N   UNL A   1      31.114  22.048  23.478  1.00  0.00    -0.177 NA
ATOM     14  C   UNL A   1      32.541  23.992  22.220  1.00  0.00     0.064 A 
ATOM     15  C   UNL A   1      31.775  24.350  23.306  1.00  0.00     0.090 A 
ATOM     16  C   UNL A   1      33.322  25.035  21.469  1.00  0.00     0.118 C 
ATOM     17  C   UNL A   1      31.622  25.773  23.739  1.00  0.00     0.307 C 
ATOM     18  C   UNL A   1      32.775  26.447  21.715  1.00  0.00     0.269 C 
ATOM     19  N   UNL A   1      32.611  26.687  23.154  1.00  0.00    -0.327 N 
ATOM     20  H   UNL A   1      33.513  26.479  23.581  1.00  0.00     0.348 HD
BRANCH  11  21
ATOM     21  N   UNL A   1      32.114  20.430  22.163  1.00  0.00    -0.324 N 
ATOM     22  H   UNL A   1      31.961  20.178  21.224  1.00  0.00     0.170 HD
BRANCH  21  23
ATOM     23  C   UNL A   1      32.471  19.389  23.033  1.00  0.00     0.044 A 
ATOM     24  C   UNL A   1      33.437  16.104  25.671  1.00  0.00     0.047 C 
ATOM     25  C   UNL A   1      33.134  17.232  24.737  1.00  0.00    -0.015 A 
ATOM     26  C   UNL A   1      33.148  17.068  23.349  1.00  0.00     0.008 A 
ATOM     27  C   UNL A   1      32.818  18.488  25.254  1.00  0.00     0.128 A 
ATOM     28  C   UNL A   1      32.822  18.139  22.508  1.00  0.00     0.026 A 
ATOM     29  C   UNL A   1      32.505  19.555  24.422  1.00  0.00     0.065 A 
ATOM     30  F   UNL A   1      32.791  18.673  26.583  1.00  0.00    -0.207 F 
ENDBRANCH  21  23
ENDBRANCH  11  21
BRANCH  19  31
ATOM     31  C   UNL A   1      32.343  28.097  23.493  1.00  0.00     0.299 C 
BRANCH  31  32
ATOM     32  C   UNL A   1      32.826  28.570  24.851  1.00  0.00     0.006 A 
ATOM     33  C   UNL A   1      33.825  27.861  25.532  1.00  0.00     0.009 A 
ATOM     34  C   UNL A   1      32.297  29.724  25.450  1.00  0.00     0.009 A 
ATOM     35  C   UNL A   1      34.306  28.313  26.762  1.00  0.00     0.001 A 
ATOM     36  C   UNL A   1      32.793  30.188  26.669  1.00  0.00     0.001 A 
ATOM     37  C   UNL A   1      33.799  29.483  27.323  1.00  0.00     0.000 A 
ENDBRANCH  31  32
ENDBRANCH  19  31
ENDBRANCH   9  10
ENDBRANCH   8   9
ENDBRANCH   5   8
ENDBRANCH   3   4
ENDBRANCH   2   3
ENDBRANCH   1   2
BRANCH   1  38
ATOM     38  C   UNL A   1      36.855  22.866  25.709  1.00  0.00     0.002 C 
BRANCH  38  39
ATOM     39  C   UNL A   1      37.654  24.139  25.996  1.00  0.00     0.021 C 
BRANCH  39  40
ATOM     40  C   UNL A   1      38.933  23.926  26.802  1.00  0.00     0.116 C 
BRANCH  40  41
ATOM     41  N   UNL A   1      40.128  24.252  26.040  1.00  0.00    -0.352 N 
ATOM     42  C   UNL A   1      40.939  25.357  26.123  1.00  0.00     0.251 C 
ATOM     43  H   UNL A   1      40.393  23.584  25.368  1.00  0.00     0.163 HD
ATOM     44  O   UNL A   1      41.807  25.546  25.275  1.00  0.00    -0.269 OA
BRANCH  42  45
ATOM     45  C   UNL A   1      40.751  26.331  27.221  1.00  0.00     0.039 A 
ATOM     46  C   UNL A   1      39.910  25.997  28.285  1.00  0.00     0.014 A 
ATOM     47  C   UNL A   1      41.395  27.571  27.196  1.00  0.00     0.014 A 
ATOM     48  C   UNL A   1      39.766  26.880  29.357  1.00  0.00     0.010 A 
ATOM     49  C   UNL A   1      41.302  28.422  28.295  1.00  0.00     0.010 A 
ATOM     50  C   UNL A   1      40.486  28.087  29.386  1.00  0.00    -0.014 A 
BRANCH  50  51
ATOM     51  C   UNL A   1      40.387  29.010  30.544  1.00  0.00     0.031 A 
ATOM     52  C   UNL A   1      41.307  28.845  31.722  1.00  0.00     0.074 A 
ATOM     53  C   UNL A   1      39.445  29.974  30.553  1.00  0.00     0.049 A 
ATOM     54  N   UNL A   1      41.346  29.527  32.839  1.00  0.00    -0.248 NA
ATOM     55  C   UNL A   1      42.303  27.763  31.645  1.00  0.00     0.031 C 
ATOM     56  C   UNL A   1      38.479  30.225  29.481  1.00  0.00     0.029 A 
ATOM     57  N   UNL A   1      39.147  30.927  31.496  1.00  0.00    -0.354 N 
ATOM     58  C   UNL A   1      42.363  28.958  33.596  1.00  0.00     0.074 A 
ATOM     59  C   UNL A   1      42.880  27.840  32.836  1.00  0.00     0.031 C 
ATOM     60  C   UNL A   1      37.721  31.284  29.810  1.00  0.00     0.029 A 
ATOM     61  C   UNL A   1      38.117  31.763  31.131  1.00  0.00     0.049 A 
ATOM     62  H   UNL A   1      39.625  31.005  32.353  1.00  0.00     0.167 HD
ATOM     63  C   UNL A   1      42.841  29.344  34.802  1.00  0.00     0.031 A 
ATOM     64  C   UNL A   1      37.555  32.799  31.784  1.00  0.00     0.031 A 
ATOM     65  C   UNL A   1      42.333  30.460  35.553  1.00  0.00     0.049 A 
ATOM     66  C   UNL A   1      38.079  33.185  33.140  1.00  0.00     0.074 A 
ATOM     67  C   UNL A   1      42.774  30.947  36.770  1.00  0.00     0.029 A 
ATOM     68  N   UNL A   1      41.275  31.263  35.159  1.00  0.00    -0.354 N 
ATOM     69  N   UNL A   1      39.066  32.655  33.822  1.00  0.00    -0.248 NA
ATOM     70  C   UNL A   1      37.418  34.312  33.812  1.00  0.00     0.031 C 
ATOM     71  C   UNL A   1      41.952  32.019  37.135  1.00  0.00     0.029 A 
ATOM     72  C   UNL A   1      41.035  32.232  36.119  1.00  0.00     0.049 A 
ATOM     73  H   UNL A   1      40.769  31.162  34.321  1.00  0.00     0.167 HD
ATOM     74  C   UNL A   1      39.157  33.396  34.995  1.00  0.00     0.074 A 
ATOM     75  C   UNL A   1      38.136  34.422  34.923  1.00  0.00     0.031 C 
ATOM     76  C   UNL A   1      40.010  33.242  36.036  1.00  0.00     0.031 A 
BRANCH  63  77
ATOM     77  C   UNL A   1      43.984  28.554  35.383  1.00  0.00    -0.014 A 
ATOM     78  C   UNL A   1      45.311  28.832  35.015  1.00  0.00     0.010 A 
ATOM     79  C   UNL A   1      43.733  27.559  36.346  1.00  0.00     0.010 A 
ATOM     80  C   UNL A   1      46.367  28.109  35.574  1.00  0.00     0.020 A 
ATOM     81  C   UNL A   1      44.788  26.850  36.927  1.00  0.00     0.020 A 
ATOM     82  C   UNL A   1      46.099  27.121  36.527  1.00  0.00     0.054 A 
BRANCH  82  83
ATOM     83  S   UNL A   1      47.493  26.220  37.257  1.00  0.00     0.124 S 
ATOM     84  O   UNL A   1      48.595  27.158  37.058  1.00  0.00    -0.237 OA
ATOM     85  O   UNL A   1      47.065  26.038  38.642  1.00  0.00    -0.237 OA
ATOM     86  O   UNL A   1      47.569  24.995  36.465  1.00  0.00    -0.744 OA
ENDBRANCH  82  83
ENDBRANCH  63  77
BRANCH  64  87
ATOM     87  C   UNL A   1      36.446  33.562  31.150  1.00  0.00    -0.014 A 
ATOM     88  C   UNL A   1      36.526  33.940  29.799  1.00  0.00     0.010 A 
ATOM     89  C   UNL A   1      35.294  33.894  31.886  1.00  0.00     0.010 A 
ATOM     90  C   UNL A   1      35.480  34.644  29.196  1.00  0.00     0.020 A 
ATOM     91  C   UNL A   1      34.235  34.577  31.280  1.00  0.00     0.020 A 
ATOM     92  C   UNL A   1      34.338  34.954  29.940  1.00  0.00     0.054 A 
BRANCH  92  93
ATOM     93  S   UNL A   1      32.968  35.816  29.119  1.00  0.00     0.124 S 
ATOM     94  O   UNL A   1      33.663  36.876  28.397  1.00  0.00    -0.237 OA
ATOM     95  O   UNL A   1      32.386  34.762  28.292  1.00  0.00    -0.237 OA
ATOM     96  O   UNL A   1      32.129  36.258  30.231  1.00  0.00    -0.744 OA
ENDBRANCH  92  93
ENDBRANCH  64  87
BRANCH  76  97
ATOM     97  C   UNL A   1      39.895  34.211  37.182  1.00  0.00    -0.014 A 
ATOM     98  C   UNL A   1      40.522  35.467  37.133  1.00  0.00     0.010 A 
ATOM     99  C   UNL A   1      39.081  33.891  38.285  1.00  0.00     0.010 A 
ATOM    100  C   UNL A   1      40.353  36.381  38.176  1.00  0.00     0.020 A 
ATOM    101  C   UNL A   1      38.889  34.812  39.317  1.00  0.00     0.020 A 
ATOM    102  C   UNL A   1      39.535  36.049  39.260  1.00  0.00     0.054 A 
BRANCH 102 103
ATOM    103  S   UNL A   1      39.284  37.278  40.570  1.00  0.00     0.124 S 
ATOM    104  O   UNL A   1      40.613  37.868  40.693  1.00  0.00    -0.237 OA
ATOM    105  O   UNL A   1      38.260  38.150  39.997  1.00  0.00    -0.237 OA
ATOM    106  O   UNL A   1      38.845  36.483  41.715  1.00  0.00    -0.744 OA
ENDBRANCH 102 103
ENDBRANCH  76  97
ENDBRANCH  50  51
ENDBRANCH  42  45
ENDBRANCH  40  41
ENDBRANCH  39  40
ENDBRANCH  38  39
ENDBRANCH   1  38
TORSDOF 22
ENDMDL
MODEL 3
REMARK VINA RESULT:     -11.2      5.537     10.932
REMARK SMILES Cc1ccc(Nc2nc3c(c(OCC(=O)NCCCCCCNC(=O)c4ccc(-c5c6nc(c(-c7ccc(S(=O)(=O)[O-])cc7)c7ccc([nH]7)c(-c7ccc(S(=O)(=O)[O-])cc7)c7nc(c(-c8ccc(S(=O)(=O)[O-])cc8)c8ccc5[nH]8)C=C7)C=C6)cc4)n2)C[N@H+](Cc2ccccc2)CC3)cc1F
REMARK SMILES IDX 19 1 18 2 17 3 16 4 14 5 15 6 13 8 12 9 11 10 7 11 8 12
REMARK SMILES IDX 86 13 9 14 10 15 97 16 87 17 96 18 88 19 6 21 5 23 1 24 2 25
REMARK SMILES IDX 3 26 99 27 4 28 98 29 100 30 89 31 90 32 91 33 95 34 92 35
REMARK SMILES IDX 94 36 93 37 20 38 21 39 22 40 23 41 24 42 25 44 26 45 27 46
REMARK SMILES IDX 85 47 28 48 84 49 29 50 30 51 31 52 78 53 32 54 83 55 77 56
REMARK SMILES IDX 79 57 33 58 82 59 76 60 75 61 34 63 64 64 45 65 63 66 46 67
REMARK SMILES IDX 49 68 62 69 80 70 47 71 48 72 61 74 81 75 50 76 35 77 36 78
REMARK SMILES IDX 44 79 37 80 43 81 38 82 39 83 40 84 41 85 42 86 65 87 66 88
REMARK SMILES IDX 74 89 67 90 73 91 68 92 69 93 70 94 71 95 72 96 51 97 52 98
REMARK SMILES IDX 60 99 53 100 59 101 54 102 55 103 56 104 57 105 58 106
REMARK H PARENT 16 7 88 20 6 22 23 43 79 62 49 73
REMARK Flexibility Score: inf
ROOT
ATOM      1  C   UNL A   1      40.239  25.946  27.741  1.00  0.00     0.002 C 
ENDROOT
BRANCH   1   2
ATOM      2  C   UNL A   1      39.243  24.825  28.065  1.00  0.00     0.021 C 
BRANCH   2   3
ATOM      3  C   UNL A   1      38.584  24.192  26.838  1.00  0.00     0.116 C 
BRANCH   3   4
ATOM      4  N   UNL A   1      39.042  22.832  26.627  1.00  0.00    -0.353 N 
ATOM      5  C   UNL A   1      38.530  21.866  25.807  1.00  0.00     0.258 C 
ATOM      6  O   UNL A   1      39.083  20.764  25.778  1.00  0.00    -0.271 OA
ATOM      7  H   UNL A   1      39.833  22.566  27.150  1.00  0.00     0.163 HD
BRANCH   5   8
ATOM      8  C   UNL A   1      37.361  22.210  24.878  1.00  0.00     0.331 C 
BRANCH   8   9
ATOM      9  O   UNL A   1      36.064  21.862  25.335  1.00  0.00    -0.467 OA
BRANCH   9  10
ATOM     10  C   UNL A   1      35.098  22.822  25.114  1.00  0.00     0.228 A 
ATOM     11  C   UNL A   1      34.332  24.951  25.331  1.00  0.00     0.230 A 
ATOM     12  N   UNL A   1      33.175  24.651  24.720  1.00  0.00    -0.217 NA
ATOM     13  N   UNL A   1      35.332  24.081  25.503  1.00  0.00    -0.177 NA
ATOM     14  C   UNL A   1      33.005  23.389  24.278  1.00  0.00     0.064 A 
ATOM     15  C   UNL A   1      33.941  22.403  24.495  1.00  0.00     0.090 A 
ATOM     16  C   UNL A   1      31.716  23.064  23.575  1.00  0.00     0.118 C 
ATOM     17  C   UNL A   1      33.764  21.009  23.986  1.00  0.00     0.307 C 
ATOM     18  C   UNL A   1      31.822  21.774  22.751  1.00  0.00     0.269 C 
ATOM     19  N   UNL A   1      32.392  20.695  23.566  1.00  0.00    -0.327 N 
ATOM     20  H   UNL A   1      31.817  20.640  24.406  1.00  0.00     0.348 HD
BRANCH  11  21
ATOM     21  N   UNL A   1      34.522  26.210  25.893  1.00  0.00    -0.324 N 
ATOM     22  H   UNL A   1      35.355  26.338  26.401  1.00  0.00     0.170 HD
BRANCH  21  23
ATOM     23  C   UNL A   1      33.665  27.319  25.820  1.00  0.00     0.044 A 
ATOM     24  C   UNL A   1      31.155  30.832  25.607  1.00  0.00     0.047 C 
ATOM     25  C   UNL A   1      32.014  29.607  25.644  1.00  0.00    -0.015 A 
ATOM     26  C   UNL A   1      32.893  29.287  24.605  1.00  0.00     0.008 A 
ATOM     27  C   UNL A   1      31.950  28.757  26.747  1.00  0.00     0.128 A 
ATOM     28  C   UNL A   1      33.707  28.151  24.694  1.00  0.00     0.026 A 
ATOM     29  C   UNL A   1      32.748  27.623  26.833  1.00  0.00     0.065 A 
ATOM     30  F   UNL A   1      31.120  29.041  27.761  1.00  0.00    -0.207 F 
ENDBRANCH  21  23
ENDBRANCH  11  21
BRANCH  19  31
ATOM     31  C   UNL A   1      32.286  19.362  22.943  1.00  0.00     0.299 C 
BRANCH  31  32
ATOM     32  C   UNL A   1      32.828  18.195  23.745  1.00  0.00     0.006 A 
ATOM     33  C   UNL A   1      32.357  17.950  25.042  1.00  0.00     0.009 A 
ATOM     34  C   UNL A   1      33.798  17.332  23.210  1.00  0.00     0.009 A 
ATOM     35  C   UNL A   1      32.818  16.853  25.772  1.00  0.00     0.001 A 
ATOM     36  C   UNL A   1      34.243  16.223  23.931  1.00  0.00     0.001 A 
ATOM     37  C   UNL A   1      33.750  15.983  25.211  1.00  0.00     0.000 A 
ENDBRANCH  31  32
ENDBRANCH  19  31
ENDBRANCH   9  10
ENDBRANCH   8   9
ENDBRANCH   5   8
ENDBRANCH   3   4
ENDBRANCH   2   3
ENDBRANCH   1   2
BRANCH   1  38
ATOM     38  C   UNL A   1      40.503  26.181  26.250  1.00  0.00     0.002 C 
BRANCH  38  39
ATOM     39  C   UNL A   1      41.686  25.405  25.666  1.00  0.00     0.021 C 
BRANCH  39  40
ATOM     40  C   UNL A   1      42.925  26.249  25.376  1.00  0.00     0.116 C 
BRANCH  40  41
ATOM     41  N   UNL A   1      44.159  25.541  25.679  1.00  0.00    -0.352 N 
ATOM     42  C   UNL A   1      44.980  25.651  26.774  1.00  0.00     0.251 C 
ATOM     43  H   UNL A   1      44.446  24.889  25.000  1.00  0.00     0.163 HD
ATOM     44  O   UNL A   1      46.077  25.098  26.775  1.00  0.00    -0.269 OA
BRANCH  42  45
ATOM     45  C   UNL A   1      44.552  26.453  27.941  1.00  0.00     0.039 A 
ATOM     46  C   UNL A   1      44.973  27.781  28.039  1.00  0.00     0.014 A 
ATOM     47  C   UNL A   1      43.747  25.895  28.937  1.00  0.00     0.014 A 
ATOM     48  C   UNL A   1      44.532  28.570  29.104  1.00  0.00     0.010 A 
ATOM     49  C   UNL A   1      43.256  26.699  29.963  1.00  0.00     0.010 A 
ATOM     50  C   UNL A   1      43.644  28.044  30.059  1.00  0.00    -0.014 A 
BRANCH  50  51
ATOM     51  C   UNL A   1      43.122  28.886  31.164  1.00  0.00     0.031 A 
ATOM     52  C   UNL A   1      43.881  28.987  32.459  1.00  0.00     0.074 A 
ATOM     53  C   UNL A   1      41.948  29.532  31.017  1.00  0.00     0.049 A 
ATOM     54  N   UNL A   1      43.565  29.639  33.550  1.00  0.00    -0.248 NA
ATOM     55  C   UNL A   1      45.149  28.244  32.549  1.00  0.00     0.031 C 
ATOM     56  C   UNL A   1      41.107  29.498  29.819  1.00  0.00     0.029 A 
ATOM     57  N   UNL A   1      41.259  30.346  31.882  1.00  0.00    -0.354 N 
ATOM     58  C   UNL A   1      44.591  29.385  34.452  1.00  0.00     0.074 A 
ATOM     59  C   UNL A   1      45.511  28.475  33.803  1.00  0.00     0.031 C 
ATOM     60  C   UNL A   1      40.036  30.286  30.011  1.00  0.00     0.029 A 
ATOM     61  C   UNL A   1      40.090  30.847  31.357  1.00  0.00     0.049 A 
ATOM     62  H   UNL A   1      41.572  30.552  32.792  1.00  0.00     0.167 HD
ATOM     63  C   UNL A   1      44.767  29.883  35.699  1.00  0.00     0.031 A 
ATOM     64  C   UNL A   1      39.167  31.667  31.897  1.00  0.00     0.031 A 
ATOM     65  C   UNL A   1      43.857  30.793  36.341  1.00  0.00     0.049 A 
ATOM     66  C   UNL A   1      39.365  32.175  33.298  1.00  0.00     0.074 A 
ATOM     67  C   UNL A   1      43.966  31.377  37.591  1.00  0.00     0.029 A 
ATOM     68  N   UNL A   1      42.675  31.255  35.784  1.00  0.00    -0.354 N 
ATOM     69  N   UNL A   1      40.361  31.951  34.122  1.00  0.00    -0.248 NA
ATOM     70  C   UNL A   1      38.318  33.053  33.841  1.00  0.00     0.031 C 
ATOM     71  C   UNL A   1      42.825  32.157  37.809  1.00  0.00     0.029 A 
ATOM     72  C   UNL A   1      42.034  32.102  36.674  1.00  0.00     0.049 A 
ATOM     73  H   UNL A   1      42.340  31.018  34.890  1.00  0.00     0.167 HD
ATOM     74  C   UNL A   1      40.070  32.675  35.273  1.00  0.00     0.074 A 
ATOM     75  C   UNL A   1      38.814  33.357  35.034  1.00  0.00     0.031 C 
ATOM     76  C   UNL A   1      40.781  32.768  36.423  1.00  0.00     0.031 A 
BRANCH  63  77
ATOM     77  C   UNL A   1      45.999  29.456  36.452  1.00  0.00    -0.014 A 
ATOM     78  C   UNL A   1      45.977  28.326  37.287  1.00  0.00     0.010 A 
ATOM     79  C   UNL A   1      47.205  30.161  36.283  1.00  0.00     0.010 A 
ATOM     80  C   UNL A   1      47.129  27.924  37.966  1.00  0.00     0.020 A 
ATOM     81  C   UNL A   1      48.367  29.747  36.940  1.00  0.00     0.020 A 
ATOM     82  C   UNL A   1      48.318  28.638  37.789  1.00  0.00     0.054 A 
BRANCH  82  83
ATOM     83  S   UNL A   1      49.806  28.075  38.660  1.00  0.00     0.124 S 
ATOM     84  O   UNL A   1      50.869  28.577  37.793  1.00  0.00    -0.237 OA
ATOM     85  O   UNL A   1      49.686  28.738  39.956  1.00  0.00    -0.237 OA
ATOM     86  O   UNL A   1      49.662  26.621  38.690  1.00  0.00    -0.744 OA
ENDBRANCH  82  83
ENDBRANCH  63  77
BRANCH  64  87
ATOM     87  C   UNL A   1      37.981  32.076  31.097  1.00  0.00    -0.014 A 
ATOM     88  C   UNL A   1      38.033  33.225  30.289  1.00  0.00     0.010 A 
ATOM     89  C   UNL A   1      36.801  31.310  31.122  1.00  0.00     0.010 A 
ATOM     90  C   UNL A   1      36.925  33.605  29.525  1.00  0.00     0.020 A 
ATOM     91  C   UNL A   1      35.700  31.673  30.341  1.00  0.00     0.020 A 
ATOM     92  C   UNL A   1      35.767  32.824  29.553  1.00  0.00     0.054 A 
BRANCH  92  93
ATOM     93  S   UNL A   1      34.364  33.304  28.507  1.00  0.00     0.124 S 
ATOM     94  O   UNL A   1      35.009  34.136  27.496  1.00  0.00    -0.237 OA
ATOM     95  O   UNL A   1      33.865  32.013  28.040  1.00  0.00    -0.237 OA
ATOM     96  O   UNL A   1      33.477  34.009  29.430  1.00  0.00    -0.744 OA
ENDBRANCH  92  93
ENDBRANCH  64  87
BRANCH  76  97
ATOM     97  C   UNL A   1      40.232  33.648  37.513  1.00  0.00    -0.014 A 
ATOM     98  C   UNL A   1      39.461  33.110  38.558  1.00  0.00     0.010 A 
ATOM     99  C   UNL A   1      40.561  35.017  37.536  1.00  0.00     0.010 A 
ATOM    100  C   UNL A   1      39.012  33.930  39.597  1.00  0.00     0.020 A 
ATOM    101  C   UNL A   1      40.135  35.833  38.587  1.00  0.00     0.020 A 
ATOM    102  C   UNL A   1      39.355  35.285  39.607  1.00  0.00     0.054 A 
BRANCH 102 103
ATOM    103  S   UNL A   1      38.812  36.310  41.000  1.00  0.00     0.124 S 
ATOM    104  O   UNL A   1      38.426  37.550  40.334  1.00  0.00    -0.237 OA
ATOM    105  O   UNL A   1      37.711  35.529  41.561  1.00  0.00    -0.237 OA
ATOM    106  O   UNL A   1      39.998  36.401  41.849  1.00  0.00    -0.744 OA
ENDBRANCH 102 103
ENDBRANCH  76  97
ENDBRANCH  50  51
ENDBRANCH  42  45
ENDBRANCH  40  41
ENDBRANCH  39  40
ENDBRANCH  38  39
ENDBRANCH   1  38
TORSDOF 22
ENDMDL
