MODEL 1
REMARK VINA RESULT:     -10.9      0.000      0.000
REMARK SMILES Cc1cnc(N2CCO[C@H](CC(=O)NCCCCCCNC(=O)c3ccc(-c4c5nc(c(-c6ccc(S(=O)(=O)[O-])cc6)c6ccc([nH]6)c(-c6ccc(S(=O)(=O)[O-])cc6)c6nc(c(-c7ccc(S(=O)(=O)[O-])cc7)c7ccc4[nH]7)C=C6)C=C5)cc3)C2)c([N+](=O)[O-])c1
REMARK SMILES IDX 17 1 16 2 15 3 14 4 12 5 13 6 11 8 10 9 6 10 7 11 84 12 8 13
REMARK SMILES IDX 9 14 5 15 1 16 2 17 3 18 89 19 4 20 85 21 86 22 87 23 88 24
REMARK SMILES IDX 18 25 19 26 20 27 21 28 22 29 23 31 24 32 25 33 83 34 26 35
REMARK SMILES IDX 82 36 27 37 28 38 29 39 76 40 30 41 81 42 75 43 77 44 31 45
REMARK SMILES IDX 80 46 74 47 73 48 32 50 62 51 43 52 61 53 44 54 47 55 60 56
REMARK SMILES IDX 78 57 45 58 46 59 59 61 79 62 48 63 33 64 34 65 42 66 35 67
REMARK SMILES IDX 41 68 36 69 37 70 38 71 39 72 40 73 63 74 64 75 72 76 65 77
REMARK SMILES IDX 71 78 66 79 67 80 68 81 69 82 70 83 49 84 50 85 58 86 51 87
REMARK SMILES IDX 57 88 52 89 53 90 54 91 55 92 56 93
REMARK H PARENT 14 7 21 30 77 49 47 60
REMARK Flexibility Score: inf
ROOT
ATOM      1  C   UNL A   1      38.090  22.036  25.637  1.00  0.00     0.002 C 
ENDROOT
BRANCH   1   2
ATOM      2  C   UNL A   1      37.496  20.938  24.747  1.00  0.00     0.021 C 
BRANCH   2   3
ATOM      3  C   UNL A   1      36.119  20.475  25.217  1.00  0.00     0.116 C 
BRANCH   3   4
ATOM      4  N   UNL A   1      35.607  21.393  26.215  1.00  0.00    -0.356 N 
ATOM      5  C   UNL A   1      34.797  22.466  26.027  1.00  0.00     0.222 C 
ATOM      6  O   UNL A   1      34.650  23.281  26.938  1.00  0.00    -0.275 OA
ATOM      7  H   UNL A   1      35.879  21.215  27.145  1.00  0.00     0.163 HD
BRANCH   5   8
ATOM      8  C   UNL A   1      34.055  22.604  24.725  1.00  0.00     0.133 C 
BRANCH   8   9
ATOM      9  C   UNL A   1      34.870  23.325  23.637  1.00  0.00     0.147 C 
ATOM     10  N   UNL A   1      33.380  25.207  23.703  1.00  0.00    -0.346 N 
ATOM     11  C   UNL A   1      32.894  25.004  22.339  1.00  0.00     0.147 C 
ATOM     12  C   UNL A   1      34.790  24.849  23.869  1.00  0.00     0.151 C 
ATOM     13  C   UNL A   1      33.113  23.525  21.958  1.00  0.00     0.182 C 
ATOM     14  O   UNL A   1      34.431  23.025  22.286  1.00  0.00    -0.374 OA
BRANCH  10  15
ATOM     15  C   UNL A   1      32.810  26.091  24.577  1.00  0.00     0.208 A 
ATOM     16  C   UNL A   1      31.617  28.942  27.551  1.00  0.00     0.046 C 
ATOM     17  C   UNL A   1      31.986  27.934  26.514  1.00  0.00    -0.026 A 
ATOM     18  C   UNL A   1      32.990  28.190  25.592  1.00  0.00     0.117 A 
ATOM     19  C   UNL A   1      31.367  26.691  26.442  1.00  0.00     0.094 A 
ATOM     20  N   UNL A   1      33.404  27.308  24.651  1.00  0.00    -0.233 NA
ATOM     21  C   UNL A   1      31.784  25.768  25.470  1.00  0.00     0.311 A 
BRANCH  21  22
ATOM     22  N   UNL A   1      31.232  24.428  25.556  1.00  0.00     0.066 N 
ATOM     23  O   UNL A   1      31.421  23.767  26.584  1.00  0.00    -0.258 OA
ATOM     24  O   UNL A   1      30.651  23.996  24.547  1.00  0.00    -0.258 OA
ENDBRANCH  21  22
ENDBRANCH  10  15
ENDBRANCH   8   9
ENDBRANCH   5   8
ENDBRANCH   3   4
ENDBRANCH   2   3
ENDBRANCH   1   2
BRANCH   1  25
ATOM     25  C   UNL A   1      39.456  21.690  26.241  1.00  0.00     0.002 C 
BRANCH  25  26
ATOM     26  C   UNL A   1      40.058  22.789  27.120  1.00  0.00     0.021 C 
BRANCH  26  27
ATOM     27  C   UNL A   1      39.606  24.197  26.748  1.00  0.00     0.116 C 
BRANCH  27  28
ATOM     28  N   UNL A   1      40.544  24.840  25.841  1.00  0.00    -0.352 N 
ATOM     29  C   UNL A   1      41.150  26.066  25.951  1.00  0.00     0.251 C 
ATOM     30  H   UNL A   1      40.778  24.323  25.036  1.00  0.00     0.163 HD
ATOM     31  O   UNL A   1      41.740  26.551  24.992  1.00  0.00    -0.269 OA
BRANCH  29  32
ATOM     32  C   UNL A   1      41.070  26.802  27.230  1.00  0.00     0.039 A 
ATOM     33  C   UNL A   1      41.827  27.964  27.392  1.00  0.00     0.014 A 
ATOM     34  C   UNL A   1      40.246  26.345  28.262  1.00  0.00     0.014 A 
ATOM     35  C   UNL A   1      41.713  28.700  28.574  1.00  0.00     0.010 A 
ATOM     36  C   UNL A   1      40.078  27.117  29.406  1.00  0.00     0.010 A 
ATOM     37  C   UNL A   1      40.814  28.300  29.576  1.00  0.00    -0.014 A 
BRANCH  37  38
ATOM     38  C   UNL A   1      40.626  29.104  30.810  1.00  0.00     0.031 A 
ATOM     39  C   UNL A   1      39.562  30.167  30.863  1.00  0.00     0.074 A 
ATOM     40  C   UNL A   1      41.457  28.924  31.856  1.00  0.00     0.049 A 
ATOM     41  N   UNL A   1      39.293  31.016  31.821  1.00  0.00    -0.248 NA
ATOM     42  C   UNL A   1      38.705  30.311  29.675  1.00  0.00     0.031 C 
ATOM     43  C   UNL A   1      42.551  27.950  31.912  1.00  0.00     0.029 A 
ATOM     44  N   UNL A   1      41.518  29.559  33.071  1.00  0.00    -0.354 N 
ATOM     45  C   UNL A   1      38.251  31.804  31.347  1.00  0.00     0.074 A 
ATOM     46  C   UNL A   1      37.970  31.365  29.998  1.00  0.00     0.031 C 
ATOM     47  C   UNL A   1      43.156  28.037  33.107  1.00  0.00     0.029 A 
ATOM     48  C   UNL A   1      42.527  29.099  33.885  1.00  0.00     0.049 A 
ATOM     49  H   UNL A   1      40.897  30.276  33.335  1.00  0.00     0.167 HD
ATOM     50  C   UNL A   1      37.577  32.791  31.983  1.00  0.00     0.031 A 
ATOM     51  C   UNL A   1      42.911  29.495  35.114  1.00  0.00     0.031 A 
ATOM     52  C   UNL A   1      37.855  33.218  33.329  1.00  0.00     0.049 A 
ATOM     53  C   UNL A   1      42.158  30.607  35.794  1.00  0.00     0.074 A 
ATOM     54  C   UNL A   1      37.195  34.173  34.082  1.00  0.00     0.029 A 
ATOM     55  N   UNL A   1      38.880  32.722  34.121  1.00  0.00    -0.354 N 
ATOM     56  N   UNL A   1      41.133  31.297  35.352  1.00  0.00    -0.248 NA
ATOM     57  C   UNL A   1      42.605  30.985  37.141  1.00  0.00     0.031 C 
ATOM     58  C   UNL A   1      37.855  34.294  35.308  1.00  0.00     0.029 A 
ATOM     59  C   UNL A   1      38.885  33.368  35.346  1.00  0.00     0.049 A 
ATOM     60  H   UNL A   1      39.509  32.013  33.854  1.00  0.00     0.167 HD
ATOM     61  C   UNL A   1      40.794  32.170  36.381  1.00  0.00     0.074 A 
ATOM     62  C   UNL A   1      41.715  31.911  37.469  1.00  0.00     0.031 C 
ATOM     63  C   UNL A   1      39.807  33.098  36.421  1.00  0.00     0.031 A 
BRANCH  50  64
ATOM     64  C   UNL A   1      36.475  33.486  31.226  1.00  0.00    -0.014 A 
ATOM     65  C   UNL A   1      36.679  33.963  29.917  1.00  0.00     0.010 A 
ATOM     66  C   UNL A   1      35.204  33.627  31.812  1.00  0.00     0.010 A 
ATOM     67  C   UNL A   1      35.647  34.605  29.228  1.00  0.00     0.020 A 
ATOM     68  C   UNL A   1      34.160  34.242  31.115  1.00  0.00     0.020 A 
ATOM     69  C   UNL A   1      34.394  34.742  29.832  1.00  0.00     0.054 A 
BRANCH  69  70
ATOM     70  S   UNL A   1      33.067  35.560  28.905  1.00  0.00     0.124 S 
ATOM     71  O   UNL A   1      32.249  36.118  29.980  1.00  0.00    -0.237 OA
ATOM     72  O   UNL A   1      33.796  36.536  28.100  1.00  0.00    -0.237 OA
ATOM     73  O   UNL A   1      32.448  34.472  28.152  1.00  0.00    -0.744 OA
ENDBRANCH  69  70
ENDBRANCH  50  64
BRANCH  51  74
ATOM     74  C   UNL A   1      44.060  28.827  35.784  1.00  0.00    -0.014 A 
ATOM     75  C   UNL A   1      45.370  29.304  35.603  1.00  0.00     0.010 A 
ATOM     76  C   UNL A   1      43.848  27.716  36.621  1.00  0.00     0.010 A 
ATOM     77  C   UNL A   1      46.448  28.671  36.228  1.00  0.00     0.020 A 
ATOM     78  C   UNL A   1      44.920  27.099  37.273  1.00  0.00     0.020 A 
ATOM     79  C   UNL A   1      46.215  27.573  37.062  1.00  0.00     0.054 A 
BRANCH  79  80
ATOM     80  S   UNL A   1      47.625  26.798  37.901  1.00  0.00     0.124 S 
ATOM     81  O   UNL A   1      47.667  25.482  37.273  1.00  0.00    -0.237 OA
ATOM     82  O   UNL A   1      48.726  27.698  37.564  1.00  0.00    -0.237 OA
ATOM     83  O   UNL A   1      47.232  26.808  39.309  1.00  0.00    -0.744 OA
ENDBRANCH  79  80
ENDBRANCH  51  74
BRANCH  63  84
ATOM     84  C   UNL A   1      39.639  33.880  37.697  1.00  0.00    -0.014 A 
ATOM     85  C   UNL A   1      38.912  33.361  38.784  1.00  0.00     0.010 A 
ATOM     86  C   UNL A   1      40.276  35.128  37.832  1.00  0.00     0.010 A 
ATOM     87  C   UNL A   1      38.805  34.089  39.972  1.00  0.00     0.020 A 
ATOM     88  C   UNL A   1      40.195  35.844  39.028  1.00  0.00     0.020 A 
ATOM     89  C   UNL A   1      39.449  35.325  40.088  1.00  0.00     0.054 A 
BRANCH  89  90
ATOM     90  S   UNL A   1      39.338  36.224  41.658  1.00  0.00     0.124 S 
ATOM     91  O   UNL A   1      40.542  35.774  42.352  1.00  0.00    -0.237 OA
ATOM     92  O   UNL A   1      39.344  37.621  41.229  1.00  0.00    -0.237 OA
ATOM     93  O   UNL A   1      38.078  35.761  42.235  1.00  0.00    -0.744 OA
ENDBRANCH  89  90
ENDBRANCH  63  84
ENDBRANCH  37  38
ENDBRANCH  29  32
ENDBRANCH  27  28
ENDBRANCH  26  27
ENDBRANCH  25  26
ENDBRANCH   1  25
TORSDOF 19
ENDMDL
MODEL 2
REMARK VINA RESULT:     -10.9      1.154      8.184
REMARK SMILES Cc1cnc(N2CCO[C@H](CC(=O)NCCCCCCNC(=O)c3ccc(-c4c5nc(c(-c6ccc(S(=O)(=O)[O-])cc6)c6ccc([nH]6)c(-c6ccc(S(=O)(=O)[O-])cc6)c6nc(c(-c7ccc(S(=O)(=O)[O-])cc7)c7ccc4[nH]7)C=C6)C=C5)cc3)C2)c([N+](=O)[O-])c1
REMARK SMILES IDX 17 1 16 2 15 3 14 4 12 5 13 6 11 8 10 9 6 10 7 11 84 12 8 13
REMARK SMILES IDX 9 14 5 15 1 16 2 17 3 18 89 19 4 20 85 21 86 22 87 23 88 24
REMARK SMILES IDX 18 25 19 26 20 27 21 28 22 29 23 31 24 32 25 33 83 34 26 35
REMARK SMILES IDX 82 36 27 37 28 38 29 39 76 40 30 41 81 42 75 43 77 44 31 45
REMARK SMILES IDX 80 46 74 47 73 48 32 50 62 51 43 52 61 53 44 54 47 55 60 56
REMARK SMILES IDX 78 57 45 58 46 59 59 61 79 62 48 63 33 64 34 65 42 66 35 67
REMARK SMILES IDX 41 68 36 69 37 70 38 71 39 72 40 73 63 74 64 75 72 76 65 77
REMARK SMILES IDX 71 78 66 79 67 80 68 81 69 82 70 83 49 84 50 85 58 86 51 87
REMARK SMILES IDX 57 88 52 89 53 90 54 91 55 92 56 93
REMARK H PARENT 14 7 21 30 77 49 47 60
REMARK Flexibility Score: inf
ROOT
ATOM      1  C   UNL A   1      40.216  22.480  27.043  1.00  0.00     0.002 C 
ENDROOT
BRANCH   1   2
ATOM      2  C   UNL A   1      39.893  21.247  26.189  1.00  0.00     0.021 C 
BRANCH   2   3
ATOM      3  C   UNL A   1      38.488  21.289  25.596  1.00  0.00     0.116 C 
BRANCH   3   4
ATOM      4  N   UNL A   1      37.866  22.564  25.894  1.00  0.00    -0.356 N 
ATOM      5  C   UNL A   1      36.541  22.859  25.933  1.00  0.00     0.222 C 
ATOM      6  O   UNL A   1      36.184  24.037  25.963  1.00  0.00    -0.275 OA
ATOM      7  H   UNL A   1      38.481  23.308  26.094  1.00  0.00     0.163 HD
BRANCH   5   8
ATOM      8  C   UNL A   1      35.542  21.736  25.994  1.00  0.00     0.133 C 
BRANCH   8   9
ATOM      9  C   UNL A   1      35.084  21.257  24.605  1.00  0.00     0.147 C 
ATOM     10  N   UNL A   1      33.090  22.587  24.754  1.00  0.00    -0.346 N 
ATOM     11  C   UNL A   1      32.194  21.432  24.770  1.00  0.00     0.147 C 
ATOM     12  C   UNL A   1      34.277  22.382  23.922  1.00  0.00     0.151 C 
ATOM     13  C   UNL A   1      32.987  20.207  25.271  1.00  0.00     0.182 C 
ATOM     14  O   UNL A   1      34.280  20.048  24.642  1.00  0.00    -0.374 OA
BRANCH  10  15
ATOM     15  C   UNL A   1      32.671  23.863  25.013  1.00  0.00     0.208 A 
ATOM     16  C   UNL A   1      31.973  28.032  25.739  1.00  0.00     0.046 C 
ATOM     17  C   UNL A   1      32.175  26.570  25.510  1.00  0.00    -0.026 A 
ATOM     18  C   UNL A   1      32.797  26.106  24.362  1.00  0.00     0.117 A 
ATOM     19  C   UNL A   1      31.778  25.618  26.442  1.00  0.00     0.094 A 
ATOM     20  N   UNL A   1      33.049  24.800  24.107  1.00  0.00    -0.233 NA
ATOM     21  C   UNL A   1      32.030  24.260  26.190  1.00  0.00     0.311 A 
BRANCH  21  22
ATOM     22  N   UNL A   1      31.760  23.329  27.271  1.00  0.00     0.066 N 
ATOM     23  O   UNL A   1      30.586  23.051  27.542  1.00  0.00    -0.258 OA
ATOM     24  O   UNL A   1      32.740  22.915  27.911  1.00  0.00    -0.258 OA
ENDBRANCH  21  22
ENDBRANCH  10  15
ENDBRANCH   8   9
ENDBRANCH   5   8
ENDBRANCH   3   4
ENDBRANCH   2   3
ENDBRANCH   1   2
BRANCH   1  25
ATOM     25  C   UNL A   1      41.251  22.231  28.146  1.00  0.00     0.002 C 
BRANCH  25  26
ATOM     26  C   UNL A   1      42.125  23.443  28.480  1.00  0.00     0.021 C 
BRANCH  26  27
ATOM     27  C   UNL A   1      43.159  23.775  27.409  1.00  0.00     0.116 C 
BRANCH  27  28
ATOM     28  N   UNL A   1      42.552  24.427  26.260  1.00  0.00    -0.352 N 
ATOM     29  C   UNL A   1      41.751  25.541  26.223  1.00  0.00     0.251 C 
ATOM     30  H   UNL A   1      42.742  24.013  25.388  1.00  0.00     0.163 HD
ATOM     31  O   UNL A   1      41.142  25.829  25.198  1.00  0.00    -0.269 OA
BRANCH  29  32
ATOM     32  C   UNL A   1      41.617  26.380  27.432  1.00  0.00     0.039 A 
ATOM     33  C   UNL A   1      42.614  27.313  27.725  1.00  0.00     0.014 A 
ATOM     34  C   UNL A   1      40.508  26.243  28.271  1.00  0.00     0.014 A 
ATOM     35  C   UNL A   1      42.468  28.151  28.832  1.00  0.00     0.010 A 
ATOM     36  C   UNL A   1      40.328  27.129  29.329  1.00  0.00     0.010 A 
ATOM     37  C   UNL A   1      41.309  28.088  29.624  1.00  0.00    -0.014 A 
BRANCH  37  38
ATOM     38  C   UNL A   1      41.102  29.016  30.764  1.00  0.00     0.031 A 
ATOM     39  C   UNL A   1      41.957  28.898  31.997  1.00  0.00     0.074 A 
ATOM     40  C   UNL A   1      40.101  29.917  30.716  1.00  0.00     0.049 A 
ATOM     41  N   UNL A   1      41.880  29.567  33.119  1.00  0.00    -0.248 NA
ATOM     42  C   UNL A   1      43.019  27.880  31.977  1.00  0.00     0.031 C 
ATOM     43  C   UNL A   1      39.180  30.104  29.591  1.00  0.00     0.029 A 
ATOM     44  N   UNL A   1      39.683  30.841  31.641  1.00  0.00    -0.354 N 
ATOM     45  C   UNL A   1      42.869  29.041  33.941  1.00  0.00     0.074 A 
ATOM     46  C   UNL A   1      43.499  27.964  33.208  1.00  0.00     0.031 C 
ATOM     47  C   UNL A   1      38.325  31.096  29.883  1.00  0.00     0.029 A 
ATOM     48  C   UNL A   1      38.603  31.586  31.229  1.00  0.00     0.049 A 
ATOM     49  H   UNL A   1      40.117  30.960  32.517  1.00  0.00     0.167 HD
ATOM     50  C   UNL A   1      43.233  29.429  35.186  1.00  0.00     0.031 A 
ATOM     51  C   UNL A   1      37.907  32.547  31.866  1.00  0.00     0.031 A 
ATOM     52  C   UNL A   1      42.609  30.507  35.907  1.00  0.00     0.049 A 
ATOM     53  C   UNL A   1      38.318  32.950  33.257  1.00  0.00     0.074 A 
ATOM     54  C   UNL A   1      42.938  31.013  37.152  1.00  0.00     0.029 A 
ATOM     55  N   UNL A   1      41.523  31.241  35.452  1.00  0.00    -0.354 N 
ATOM     56  N   UNL A   1      39.298  32.483  33.993  1.00  0.00    -0.248 NA
ATOM     57  C   UNL A   1      37.537  34.017  33.897  1.00  0.00     0.031 C 
ATOM     58  C   UNL A   1      42.018  32.015  37.473  1.00  0.00     0.029 A 
ATOM     59  C   UNL A   1      41.155  32.179  36.401  1.00  0.00     0.049 A 
ATOM     60  H   UNL A   1      41.081  31.115  34.581  1.00  0.00     0.167 HD
ATOM     61  C   UNL A   1      39.271  33.221  35.171  1.00  0.00     0.074 A 
ATOM     62  C   UNL A   1      38.185  34.172  35.043  1.00  0.00     0.031 C 
ATOM     63  C   UNL A   1      40.074  33.121  36.259  1.00  0.00     0.031 A 
BRANCH  50  64
ATOM     64  C   UNL A   1      44.356  28.677  35.853  1.00  0.00    -0.014 A 
ATOM     65  C   UNL A   1      45.690  29.112  35.743  1.00  0.00     0.010 A 
ATOM     66  C   UNL A   1      44.070  27.545  36.637  1.00  0.00     0.010 A 
ATOM     67  C   UNL A   1      46.720  28.403  36.368  1.00  0.00     0.020 A 
ATOM     68  C   UNL A   1      45.093  26.851  37.289  1.00  0.00     0.020 A 
ATOM     69  C   UNL A   1      46.415  27.275  37.136  1.00  0.00     0.054 A 
BRANCH  69  70
ATOM     70  S   UNL A   1      47.769  26.390  37.954  1.00  0.00     0.124 S 
ATOM     71  O   UNL A   1      47.570  26.761  39.353  1.00  0.00    -0.237 OA
ATOM     72  O   UNL A   1      47.482  24.995  37.628  1.00  0.00    -0.237 OA
ATOM     73  O   UNL A   1      48.970  26.939  37.330  1.00  0.00    -0.744 OA
ENDBRANCH  69  70
ENDBRANCH  50  64
BRANCH  51  74
ATOM     74  C   UNL A   1      36.754  33.202  31.189  1.00  0.00    -0.014 A 
ATOM     75  C   UNL A   1      36.930  33.877  29.968  1.00  0.00     0.010 A 
ATOM     76  C   UNL A   1      35.467  33.142  31.756  1.00  0.00     0.010 A 
ATOM     77  C   UNL A   1      35.848  34.496  29.337  1.00  0.00     0.020 A 
ATOM     78  C   UNL A   1      34.376  33.735  31.113  1.00  0.00     0.020 A 
ATOM     79  C   UNL A   1      34.576  34.418  29.913  1.00  0.00     0.054 A 
BRANCH  79  80
ATOM     80  S   UNL A   1      33.177  35.189  29.051  1.00  0.00     0.124 S 
ATOM     81  O   UNL A   1      32.815  34.161  28.081  1.00  0.00    -0.237 OA
ATOM     82  O   UNL A   1      32.221  35.405  30.134  1.00  0.00    -0.237 OA
ATOM     83  O   UNL A   1      33.754  36.408  28.487  1.00  0.00    -0.744 OA
ENDBRANCH  79  80
ENDBRANCH  51  74
BRANCH  63  84
ATOM     84  C   UNL A   1      39.842  34.092  37.387  1.00  0.00    -0.014 A 
ATOM     85  C   UNL A   1      39.058  33.746  38.502  1.00  0.00     0.010 A 
ATOM     86  C   UNL A   1      40.476  35.348  37.358  1.00  0.00     0.010 A 
ATOM     87  C   UNL A   1      38.892  34.650  39.555  1.00  0.00     0.020 A 
ATOM     88  C   UNL A   1      40.336  36.242  38.422  1.00  0.00     0.020 A 
ATOM     89  C   UNL A   1      39.534  35.891  39.510  1.00  0.00     0.054 A 
BRANCH  89  90
ATOM     90  S   UNL A   1      39.345  37.023  40.913  1.00  0.00     0.124 S 
ATOM     91  O   UNL A   1      38.557  36.222  41.846  1.00  0.00    -0.237 OA
ATOM     92  O   UNL A   1      40.729  37.273  41.312  1.00  0.00    -0.237 OA
ATOM     93  O   UNL A   1      38.651  38.175  40.341  1.00  0.00    -0.744 OA
ENDBRANCH  89  90
ENDBRANCH  63  84
ENDBRANCH  37  38
ENDBRANCH  29  32
ENDBRANCH  27  28
ENDBRANCH  26  27
ENDBRANCH  25  26
ENDBRANCH   1  25
TORSDOF 19
ENDMDL
MODEL 3
REMARK VINA RESULT:     -10.6      6.433      8.814
REMARK SMILES Cc1cnc(N2CCO[C@H](CC(=O)NCCCCCCNC(=O)c3ccc(-c4c5nc(c(-c6ccc(S(=O)(=O)[O-])cc6)c6ccc([nH]6)c(-c6ccc(S(=O)(=O)[O-])cc6)c6nc(c(-c7ccc(S(=O)(=O)[O-])cc7)c7ccc4[nH]7)C=C6)C=C5)cc3)C2)c([N+](=O)[O-])c1
REMARK SMILES IDX 17 1 16 2 15 3 14 4 12 5 13 6 11 8 10 9 6 10 7 11 84 12 8 13
REMARK SMILES IDX 9 14 5 15 1 16 2 17 3 18 89 19 4 20 85 21 86 22 87 23 88 24
REMARK SMILES IDX 18 25 19 26 20 27 21 28 22 29 23 31 24 32 25 33 83 34 26 35
REMARK SMILES IDX 82 36 27 37 28 38 29 39 76 40 30 41 81 42 75 43 77 44 31 45
REMARK SMILES IDX 80 46 74 47 73 48 32 50 62 51 43 52 61 53 44 54 47 55 60 56
REMARK SMILES IDX 78 57 45 58 46 59 59 61 79 62 48 63 33 64 34 65 42 66 35 67
REMARK SMILES IDX 41 68 36 69 37 70 38 71 39 72 40 73 63 74 64 75 72 76 65 77
REMARK SMILES IDX 71 78 66 79 67 80 68 81 69 82 70 83 49 84 50 85 58 86 51 87
REMARK SMILES IDX 57 88 52 89 53 90 54 91 55 92 56 93
REMARK H PARENT 14 7 21 30 77 49 47 60
REMARK Flexibility Score: inf
ROOT
ATOM      1  C   UNL A   1      38.843  21.853  25.748  1.00  0.00     0.002 C 
ENDROOT
BRANCH   1   2
ATOM      2  C   UNL A   1      38.259  23.165  26.286  1.00  0.00     0.021 C 
BRANCH   2   3
ATOM      3  C   UNL A   1      36.848  23.440  25.774  1.00  0.00     0.116 C 
BRANCH   3   4
ATOM      4  N   UNL A   1      35.904  22.570  26.446  1.00  0.00    -0.356 N 
ATOM      5  C   UNL A   1      34.616  22.837  26.786  1.00  0.00     0.222 C 
ATOM      6  O   UNL A   1      34.027  22.086  27.564  1.00  0.00    -0.275 OA
ATOM      7  H   UNL A   1      36.236  21.673  26.684  1.00  0.00     0.163 HD
BRANCH   5   8
ATOM      8  C   UNL A   1      33.924  24.018  26.161  1.00  0.00     0.133 C 
BRANCH   8   9
ATOM      9  C   UNL A   1      33.262  23.688  24.812  1.00  0.00     0.147 C 
ATOM     10  N   UNL A   1      31.833  25.610  24.990  1.00  0.00    -0.346 N 
ATOM     11  C   UNL A   1      30.606  24.820  25.088  1.00  0.00     0.147 C 
ATOM     12  C   UNL A   1      32.840  25.000  24.119  1.00  0.00     0.151 C 
ATOM     13  C   UNL A   1      30.972  23.413  25.605  1.00  0.00     0.182 C 
ATOM     14  O   UNL A   1      32.105  22.817  24.930  1.00  0.00    -0.374 OA
BRANCH  10  15
ATOM     15  C   UNL A   1      31.876  26.958  25.215  1.00  0.00     0.208 A 
ATOM     16  C   UNL A   1      31.761  31.050  26.496  1.00  0.00     0.046 C 
ATOM     17  C   UNL A   1      31.802  29.641  26.003  1.00  0.00    -0.026 A 
ATOM     18  C   UNL A   1      32.428  28.645  26.737  1.00  0.00     0.117 A 
ATOM     19  C   UNL A   1      31.196  29.260  24.812  1.00  0.00     0.094 A 
ATOM     20  N   UNL A   1      32.469  27.341  26.373  1.00  0.00    -0.233 NA
ATOM     21  C   UNL A   1      31.234  27.912  24.420  1.00  0.00     0.311 A 
BRANCH  21  22
ATOM     22  N   UNL A   1      30.434  27.540  23.266  1.00  0.00     0.066 N 
ATOM     23  O   UNL A   1      29.204  27.490  23.381  1.00  0.00    -0.258 OA
ATOM     24  O   UNL A   1      31.052  27.224  22.236  1.00  0.00    -0.258 OA
ENDBRANCH  21  22
ENDBRANCH  10  15
ENDBRANCH   8   9
ENDBRANCH   5   8
ENDBRANCH   3   4
ENDBRANCH   2   3
ENDBRANCH   1   2
BRANCH   1  25
ATOM     25  C   UNL A   1      40.135  21.404  26.439  1.00  0.00     0.002 C 
BRANCH  25  26
ATOM     26  C   UNL A   1      40.493  19.932  26.221  1.00  0.00     0.021 C 
BRANCH  26  27
ATOM     27  C   UNL A   1      41.875  19.547  26.739  1.00  0.00     0.116 C 
BRANCH  27  28
ATOM     28  N   UNL A   1      42.771  19.180  25.654  1.00  0.00    -0.352 N 
ATOM     29  C   UNL A   1      43.622  19.977  24.929  1.00  0.00     0.251 C 
ATOM     30  H   UNL A   1      42.769  18.227  25.406  1.00  0.00     0.163 HD
ATOM     31  O   UNL A   1      44.142  19.551  23.903  1.00  0.00    -0.269 OA
BRANCH  29  32
ATOM     32  C   UNL A   1      43.890  21.356  25.387  1.00  0.00     0.039 A 
ATOM     33  C   UNL A   1      44.553  21.551  26.600  1.00  0.00     0.014 A 
ATOM     34  C   UNL A   1      43.490  22.450  24.615  1.00  0.00     0.014 A 
ATOM     35  C   UNL A   1      44.865  22.848  27.013  1.00  0.00     0.010 A 
ATOM     36  C   UNL A   1      43.867  23.735  24.991  1.00  0.00     0.010 A 
ATOM     37  C   UNL A   1      44.554  23.948  26.196  1.00  0.00    -0.014 A 
BRANCH  37  38
ATOM     38  C   UNL A   1      44.937  25.329  26.582  1.00  0.00     0.031 A 
ATOM     39  C   UNL A   1      43.895  26.284  27.100  1.00  0.00     0.074 A 
ATOM     40  C   UNL A   1      46.207  25.744  26.402  1.00  0.00     0.049 A 
ATOM     41  N   UNL A   1      44.021  27.546  27.420  1.00  0.00    -0.248 NA
ATOM     42  C   UNL A   1      42.529  25.760  27.254  1.00  0.00     0.031 C 
ATOM     43  C   UNL A   1      47.300  24.923  25.873  1.00  0.00     0.029 A 
ATOM     44  N   UNL A   1      46.792  26.963  26.635  1.00  0.00    -0.354 N 
ATOM     45  C   UNL A   1      42.753  27.970  27.796  1.00  0.00     0.074 A 
ATOM     46  C   UNL A   1      41.861  26.845  27.617  1.00  0.00     0.031 C 
ATOM     47  C   UNL A   1      48.425  25.654  25.847  1.00  0.00     0.029 A 
ATOM     48  C   UNL A   1      48.128  27.005  26.311  1.00  0.00     0.049 A 
ATOM     49  H   UNL A   1      46.302  27.734  27.001  1.00  0.00     0.167 HD
ATOM     50  C   UNL A   1      42.366  29.180  28.265  1.00  0.00     0.031 A 
ATOM     51  C   UNL A   1      49.012  28.020  26.370  1.00  0.00     0.031 A 
ATOM     52  C   UNL A   1      43.259  30.294  28.450  1.00  0.00     0.049 A 
ATOM     53  C   UNL A   1      48.557  29.361  26.878  1.00  0.00     0.074 A 
ATOM     54  C   UNL A   1      42.977  31.545  28.968  1.00  0.00     0.029 A 
ATOM     55  N   UNL A   1      44.606  30.293  28.116  1.00  0.00    -0.354 N 
ATOM     56  N   UNL A   1      47.365  29.723  27.289  1.00  0.00    -0.248 NA
ATOM     57  C   UNL A   1      49.567  30.426  26.940  1.00  0.00     0.031 C 
ATOM     58  C   UNL A   1      44.139  32.319  28.897  1.00  0.00     0.029 A 
ATOM     59  C   UNL A   1      45.162  31.530  28.396  1.00  0.00     0.049 A 
ATOM     60  H   UNL A   1      45.094  29.526  27.739  1.00  0.00     0.167 HD
ATOM     61  C   UNL A   1      47.490  31.049  27.688  1.00  0.00     0.074 A 
ATOM     62  C   UNL A   1      48.875  31.420  27.481  1.00  0.00     0.031 C 
ATOM     63  C   UNL A   1      46.544  31.883  28.185  1.00  0.00     0.031 A 
BRANCH  50  64
ATOM     64  C   UNL A   1      40.910  29.367  28.605  1.00  0.00    -0.014 A 
ATOM     65  C   UNL A   1      40.483  29.483  29.941  1.00  0.00     0.010 A 
ATOM     66  C   UNL A   1      39.959  29.470  27.574  1.00  0.00     0.010 A 
ATOM     67  C   UNL A   1      39.129  29.655  30.240  1.00  0.00     0.020 A 
ATOM     68  C   UNL A   1      38.607  29.673  27.867  1.00  0.00     0.020 A 
ATOM     69  C   UNL A   1      38.199  29.748  29.200  1.00  0.00     0.054 A 
BRANCH  69  70
ATOM     70  S   UNL A   1      36.451  29.995  29.617  1.00  0.00     0.124 S 
ATOM     71  O   UNL A   1      35.779  29.326  28.505  1.00  0.00    -0.237 OA
ATOM     72  O   UNL A   1      36.335  29.328  30.912  1.00  0.00    -0.237 OA
ATOM     73  O   UNL A   1      36.304  31.447  29.651  1.00  0.00    -0.744 OA
ENDBRANCH  69  70
ENDBRANCH  50  64
BRANCH  51  74
ATOM     74  C   UNL A   1      50.423  27.801  25.945  1.00  0.00    -0.014 A 
ATOM     75  C   UNL A   1      50.827  28.093  24.630  1.00  0.00     0.010 A 
ATOM     76  C   UNL A   1      51.374  27.312  26.859  1.00  0.00     0.010 A 
ATOM     77  C   UNL A   1      52.149  27.881  24.231  1.00  0.00     0.020 A 
ATOM     78  C   UNL A   1      52.705  27.127  26.472  1.00  0.00     0.020 A 
ATOM     79  C   UNL A   1      53.081  27.401  25.157  1.00  0.00     0.054 A 
BRANCH  79  80
ATOM     80  S   UNL A   1      54.804  27.180  24.629  1.00  0.00     0.124 S 
ATOM     81  O   UNL A   1      54.654  26.328  23.454  1.00  0.00    -0.237 OA
ATOM     82  O   UNL A   1      55.232  28.552  24.368  1.00  0.00    -0.237 OA
ATOM     83  O   UNL A   1      55.436  26.548  25.785  1.00  0.00    -0.744 OA
ENDBRANCH  79  80
ENDBRANCH  51  74
BRANCH  63  84
ATOM     84  C   UNL A   1      46.977  33.270  28.582  1.00  0.00    -0.014 A 
ATOM     85  C   UNL A   1      47.488  33.540  29.864  1.00  0.00     0.010 A 
ATOM     86  C   UNL A   1      46.933  34.306  27.630  1.00  0.00     0.010 A 
ATOM     87  C   UNL A   1      47.921  34.827  30.194  1.00  0.00     0.020 A 
ATOM     88  C   UNL A   1      47.393  35.586  27.946  1.00  0.00     0.020 A 
ATOM     89  C   UNL A   1      47.873  35.842  29.232  1.00  0.00     0.054 A 
BRANCH  89  90
ATOM     90  S   UNL A   1      48.492  37.489  29.670  1.00  0.00     0.124 S 
ATOM     91  O   UNL A   1      47.717  37.796  30.869  1.00  0.00    -0.237 OA
ATOM     92  O   UNL A   1      49.917  37.248  29.887  1.00  0.00    -0.237 OA
ATOM     93  O   UNL A   1      48.175  38.302  28.498  1.00  0.00    -0.744 OA
ENDBRANCH  89  90
ENDBRANCH  63  84
ENDBRANCH  37  38
ENDBRANCH  29  32
ENDBRANCH  27  28
ENDBRANCH  26  27
ENDBRANCH  25  26
ENDBRANCH   1  25
TORSDOF 19
ENDMDL
