MODEL 1
REMARK VINA RESULT:      -9.3      0.000      0.000
REMARK SMILES O=C(NCCCCCCNC(=O)[C@H]1Cc2ccc(Cl)cc2C[N@@H+]1Cc1ccccc1Cl)c1ccc(-c2c3nc(c(-c4ccc(S(=O)(=O)[O-])cc4)c4ccc([nH]4)c(-c4ccc(S(=O)(=O)[O-])cc4)c4nc(c(-c5ccc(S(=O)(=O)[O-])cc5)c5ccc2[nH]5)C=C4)C=C3)cc1
REMARK SMILES IDX 6 1 5 2 4 3 3 4 1 5 2 6 32 8 33 9 91 10 34 11 90 12 35 13
REMARK SMILES IDX 36 14 37 15 84 16 38 17 89 18 83 19 85 20 39 21 88 22 82 23
REMARK SMILES IDX 81 24 40 26 70 27 51 28 69 29 52 30 55 31 68 32 86 33 53 34
REMARK SMILES IDX 54 35 67 37 87 38 56 39 41 40 42 41 50 42 43 43 49 44 44 45
REMARK SMILES IDX 45 46 46 47 47 48 48 49 71 50 72 51 80 52 73 53 79 54 74 55
REMARK SMILES IDX 75 56 76 57 77 58 78 59 57 60 58 61 66 62 59 63 65 64 60 65
REMARK SMILES IDX 61 66 62 67 63 68 64 69 7 70 8 71 9 72 10 73 11 74 12 76
REMARK SMILES IDX 13 77 14 78 23 79 15 80 22 81 16 83 21 84 17 85 20 86 18 87
REMARK SMILES IDX 19 88 24 89 25 90 26 91 30 92 27 93 29 94 31 95 28 96
REMARK H PARENT 3 7 85 25 55 36 10 75 23 82
REMARK Flexibility Score: inf
ROOT
ATOM      1  C   UNL A   1      37.152  33.139  29.017  1.00  0.00     0.002 C 
ENDROOT
BRANCH   1   2
ATOM      2  C   UNL A   1      35.748  33.287  28.428  1.00  0.00     0.021 C 
BRANCH   2   3
ATOM      3  C   UNL A   1      34.653  32.495  29.126  1.00  0.00     0.116 C 
BRANCH   3   4
ATOM      4  N   UNL A   1      34.006  31.527  28.260  1.00  0.00    -0.352 N 
ATOM      5  O   UNL A   1      33.858  29.755  26.882  1.00  0.00    -0.269 OA
ATOM      6  C   UNL A   1      34.527  30.392  27.685  1.00  0.00     0.251 C 
ATOM      7  H   UNL A   1      33.060  31.709  28.054  1.00  0.00     0.163 HD
BRANCH   6   8
ATOM      8  C   UNL A   1      35.905  29.958  28.019  1.00  0.00     0.039 A 
ATOM      9  C   UNL A   1      36.898  30.074  27.045  1.00  0.00     0.014 A 
ATOM     10  C   UNL A   1      36.218  29.429  29.275  1.00  0.00     0.014 A 
ATOM     11  C   UNL A   1      38.206  29.685  27.341  1.00  0.00     0.010 A 
ATOM     12  C   UNL A   1      37.540  29.142  29.601  1.00  0.00     0.010 A 
ATOM     13  C   UNL A   1      38.543  29.232  28.629  1.00  0.00    -0.014 A 
BRANCH  13  14
ATOM     14  C   UNL A   1      39.930  28.800  28.945  1.00  0.00     0.031 A 
ATOM     15  C   UNL A   1      40.852  29.716  29.705  1.00  0.00     0.074 A 
ATOM     16  C   UNL A   1      40.360  27.586  28.551  1.00  0.00     0.049 A 
ATOM     17  N   UNL A   1      42.080  29.502  30.105  1.00  0.00    -0.248 NA
ATOM     18  C   UNL A   1      40.344  31.059  30.038  1.00  0.00     0.031 C 
ATOM     19  C   UNL A   1      39.575  26.628  27.770  1.00  0.00     0.029 A 
ATOM     20  N   UNL A   1      41.552  26.940  28.768  1.00  0.00    -0.354 N 
ATOM     21  C   UNL A   1      42.480  30.671  30.740  1.00  0.00     0.074 A 
ATOM     22  C   UNL A   1      41.406  31.625  30.590  1.00  0.00     0.031 C 
ATOM     23  C   UNL A   1      40.283  25.497  27.624  1.00  0.00     0.029 A 
ATOM     24  C   UNL A   1      41.588  25.662  28.262  1.00  0.00     0.049 A 
ATOM     25  H   UNL A   1      42.310  27.354  29.240  1.00  0.00     0.167 HD
ATOM     26  C   UNL A   1      43.619  30.915  31.430  1.00  0.00     0.031 A 
ATOM     27  C   UNL A   1      42.551  24.719  28.315  1.00  0.00     0.031 A 
ATOM     28  C   UNL A   1      44.680  29.955  31.587  1.00  0.00     0.049 A 
ATOM     29  C   UNL A   1      43.815  25.012  29.073  1.00  0.00     0.074 A 
ATOM     30  C   UNL A   1      45.862  30.091  32.293  1.00  0.00     0.029 A 
ATOM     31  N   UNL A   1      44.686  28.680  31.040  1.00  0.00    -0.354 N 
ATOM     32  N   UNL A   1      44.152  26.104  29.718  1.00  0.00    -0.248 NA
ATOM     33  C   UNL A   1      44.820  23.943  29.130  1.00  0.00     0.031 C 
ATOM     34  C   UNL A   1      46.612  28.926  32.115  1.00  0.00     0.029 A 
ATOM     35  C   UNL A   1      45.865  28.029  31.366  1.00  0.00     0.049 A 
ATOM     36  H   UNL A   1      43.959  28.293  30.500  1.00  0.00     0.167 HD
ATOM     37  C   UNL A   1      45.408  25.854  30.260  1.00  0.00     0.074 A 
ATOM     38  C   UNL A   1      45.750  24.492  29.902  1.00  0.00     0.031 C 
ATOM     39  C   UNL A   1      46.208  26.681  30.979  1.00  0.00     0.031 A 
BRANCH  26  40
ATOM     40  C   UNL A   1      43.762  32.260  32.102  1.00  0.00    -0.014 A 
ATOM     41  C   UNL A   1      44.507  33.284  31.491  1.00  0.00     0.010 A 
ATOM     42  C   UNL A   1      43.226  32.482  33.386  1.00  0.00     0.010 A 
ATOM     43  C   UNL A   1      44.736  34.492  32.157  1.00  0.00     0.020 A 
ATOM     44  C   UNL A   1      43.421  33.702  34.040  1.00  0.00     0.020 A 
ATOM     45  C   UNL A   1      44.197  34.689  33.431  1.00  0.00     0.054 A 
BRANCH  45  46
ATOM     46  S   UNL A   1      44.522  36.255  34.288  1.00  0.00     0.124 S 
ATOM     47  O   UNL A   1      43.224  36.918  34.219  1.00  0.00    -0.237 OA
ATOM     48  O   UNL A   1      44.936  35.811  35.616  1.00  0.00    -0.237 OA
ATOM     49  O   UNL A   1      45.580  36.870  33.489  1.00  0.00    -0.744 OA
ENDBRANCH  45  46
ENDBRANCH  26  40
BRANCH  27  50
ATOM     50  C   UNL A   1      42.296  23.396  27.676  1.00  0.00    -0.014 A 
ATOM     51  C   UNL A   1      41.824  22.316  28.445  1.00  0.00     0.010 A 
ATOM     52  C   UNL A   1      42.645  23.174  26.332  1.00  0.00     0.010 A 
ATOM     53  C   UNL A   1      41.784  21.026  27.909  1.00  0.00     0.020 A 
ATOM     54  C   UNL A   1      42.571  21.890  25.780  1.00  0.00     0.020 A 
ATOM     55  C   UNL A   1      42.180  20.819  26.585  1.00  0.00     0.054 A 
BRANCH  55  56
ATOM     56  S   UNL A   1      42.227  19.120  25.950  1.00  0.00     0.124 S 
ATOM     57  O   UNL A   1      40.813  18.862  25.686  1.00  0.00    -0.237 OA
ATOM     58  O   UNL A   1      43.075  19.245  24.769  1.00  0.00    -0.237 OA
ATOM     59  O   UNL A   1      42.805  18.357  27.053  1.00  0.00    -0.744 OA
ENDBRANCH  55  56
ENDBRANCH  27  50
BRANCH  39  60
ATOM     60  C   UNL A   1      47.560  26.161  31.402  1.00  0.00    -0.014 A 
ATOM     61  C   UNL A   1      48.566  25.944  30.442  1.00  0.00     0.010 A 
ATOM     62  C   UNL A   1      47.801  25.789  32.737  1.00  0.00     0.010 A 
ATOM     63  C   UNL A   1      49.776  25.344  30.803  1.00  0.00     0.020 A 
ATOM     64  C   UNL A   1      49.024  25.226  33.110  1.00  0.00     0.020 A 
ATOM     65  C   UNL A   1      49.996  24.985  32.135  1.00  0.00     0.054 A 
BRANCH  65  66
ATOM     66  S   UNL A   1      51.571  24.209  32.586  1.00  0.00     0.124 S 
ATOM     67  O   UNL A   1      51.435  22.877  32.004  1.00  0.00    -0.237 OA
ATOM     68  O   UNL A   1      52.553  25.080  31.944  1.00  0.00    -0.237 OA
ATOM     69  O   UNL A   1      51.571  24.255  34.046  1.00  0.00    -0.744 OA
ENDBRANCH  65  66
ENDBRANCH  39  60
ENDBRANCH  13  14
ENDBRANCH   6   8
ENDBRANCH   3   4
ENDBRANCH   2   3
ENDBRANCH   1   2
BRANCH   1  70
ATOM     70  C   UNL A   1      37.745  34.379  29.690  1.00  0.00     0.002 C 
BRANCH  70  71
ATOM     71  C   UNL A   1      38.599  34.151  30.942  1.00  0.00     0.021 C 
BRANCH  71  72
ATOM     72  C   UNL A   1      38.079  34.779  32.229  1.00  0.00     0.116 C 
BRANCH  72  73
ATOM     73  N   UNL A   1      37.084  33.972  32.905  1.00  0.00    -0.351 N 
ATOM     74  C   UNL A   1      37.098  33.469  34.174  1.00  0.00     0.278 C 
ATOM     75  H   UNL A   1      36.285  33.754  32.374  1.00  0.00     0.163 HD
ATOM     76  O   UNL A   1      36.100  32.833  34.538  1.00  0.00    -0.268 OA
BRANCH  74  77
ATOM     77  C   UNL A   1      38.340  33.529  35.085  1.00  0.00     0.279 C 
ATOM     78  C   UNL A   1      37.778  33.908  36.473  1.00  0.00     0.111 C 
ATOM     79  N   UNL A   1      39.167  32.295  35.100  1.00  0.00    -0.317 N 
ATOM     80  C   UNL A   1      38.780  33.803  37.588  1.00  0.00    -0.033 A 
ATOM     81  C   UNL A   1      40.242  32.357  36.101  1.00  0.00     0.300 C 
ATOM     82  H   UNL A   1      38.510  31.565  35.375  1.00  0.00     0.349 HD
ATOM     83  C   UNL A   1      38.570  34.483  38.797  1.00  0.00     0.006 A 
ATOM     84  C   UNL A   1      39.899  32.979  37.433  1.00  0.00     0.011 A 
ATOM     85  C   UNL A   1      39.484  34.360  39.843  1.00  0.00     0.021 A 
ATOM     86  C   UNL A   1      40.807  32.852  38.498  1.00  0.00     0.030 A 
ATOM     87  C   UNL A   1      40.599  33.540  39.691  1.00  0.00     0.041 A 
ATOM     88  Cl  UNL A   1      41.740  33.400  40.971  1.00  0.00    -0.084 Cl
BRANCH  79  89
ATOM     89  C   UNL A   1      39.683  31.860  33.774  1.00  0.00     0.301 C 
BRANCH  89  90
ATOM     90  C   UNL A   1      39.801  30.372  33.503  1.00  0.00     0.025 A 
ATOM     91  C   UNL A   1      41.012  29.711  33.787  1.00  0.00     0.011 A 
ATOM     92  C   UNL A   1      38.743  29.596  32.998  1.00  0.00     0.049 A 
ATOM     93  C   UNL A   1      41.205  28.369  33.460  1.00  0.00     0.001 A 
ATOM     94  C   UNL A   1      38.936  28.248  32.673  1.00  0.00     0.021 A 
ATOM     95  Cl  UNL A   1      37.134  30.205  32.825  1.00  0.00    -0.084 Cl
ATOM     96  C   UNL A   1      40.172  27.642  32.881  1.00  0.00     0.002 A 
ENDBRANCH  89  90
ENDBRANCH  79  89
ENDBRANCH  74  77
ENDBRANCH  72  73
ENDBRANCH  71  72
ENDBRANCH  70  71
ENDBRANCH   1  70
TORSDOF 18
ENDMDL
MODEL 2
REMARK VINA RESULT:      -8.9      4.903      8.699
REMARK SMILES O=C(NCCCCCCNC(=O)[C@H]1Cc2ccc(Cl)cc2C[N@@H+]1Cc1ccccc1Cl)c1ccc(-c2c3nc(c(-c4ccc(S(=O)(=O)[O-])cc4)c4ccc([nH]4)c(-c4ccc(S(=O)(=O)[O-])cc4)c4nc(c(-c5ccc(S(=O)(=O)[O-])cc5)c5ccc2[nH]5)C=C4)C=C3)cc1
REMARK SMILES IDX 6 1 5 2 4 3 3 4 1 5 2 6 32 8 33 9 91 10 34 11 90 12 35 13
REMARK SMILES IDX 36 14 37 15 84 16 38 17 89 18 83 19 85 20 39 21 88 22 82 23
REMARK SMILES IDX 81 24 40 26 70 27 51 28 69 29 52 30 55 31 68 32 86 33 53 34
REMARK SMILES IDX 54 35 67 37 87 38 56 39 41 40 42 41 50 42 43 43 49 44 44 45
REMARK SMILES IDX 45 46 46 47 47 48 48 49 71 50 72 51 80 52 73 53 79 54 74 55
REMARK SMILES IDX 75 56 76 57 77 58 78 59 57 60 58 61 66 62 59 63 65 64 60 65
REMARK SMILES IDX 61 66 62 67 63 68 64 69 7 70 8 71 9 72 10 73 11 74 12 76
REMARK SMILES IDX 13 77 14 78 23 79 15 80 22 81 16 83 21 84 17 85 20 86 18 87
REMARK SMILES IDX 19 88 24 89 25 90 26 91 30 92 27 93 29 94 31 95 28 96
REMARK H PARENT 3 7 85 25 55 36 10 75 23 82
REMARK Flexibility Score: inf
ROOT
ATOM      1  C   UNL A   1      33.841  30.767  26.978  1.00  0.00     0.002 C 
ENDROOT
BRANCH   1   2
ATOM      2  C   UNL A   1      34.808  30.153  27.992  1.00  0.00     0.021 C 
BRANCH   2   3
ATOM      3  C   UNL A   1      35.631  31.143  28.802  1.00  0.00     0.116 C 
BRANCH   3   4
ATOM      4  N   UNL A   1      35.576  30.899  30.232  1.00  0.00    -0.352 N 
ATOM      5  O   UNL A   1      36.234  30.071  32.217  1.00  0.00    -0.269 OA
ATOM      6  C   UNL A   1      36.506  30.296  31.045  1.00  0.00     0.251 C 
ATOM      7  H   UNL A   1      34.757  31.209  30.683  1.00  0.00     0.163 HD
BRANCH   6   8
ATOM      8  C   UNL A   1      37.823  29.896  30.495  1.00  0.00     0.039 A 
ATOM      9  C   UNL A   1      38.057  30.060  29.129  1.00  0.00     0.014 A 
ATOM     10  C   UNL A   1      38.819  29.353  31.313  1.00  0.00     0.014 A 
ATOM     11  C   UNL A   1      39.296  29.704  28.592  1.00  0.00     0.010 A 
ATOM     12  C   UNL A   1      40.086  29.099  30.795  1.00  0.00     0.010 A 
ATOM     13  C   UNL A   1      40.329  29.237  29.423  1.00  0.00    -0.014 A 
BRANCH  13  14
ATOM     14  C   UNL A   1      41.643  28.840  28.855  1.00  0.00     0.031 A 
ATOM     15  C   UNL A   1      42.777  29.831  28.808  1.00  0.00     0.074 A 
ATOM     16  C   UNL A   1      41.820  27.591  28.382  1.00  0.00     0.049 A 
ATOM     17  N   UNL A   1      44.003  29.659  28.384  1.00  0.00    -0.248 NA
ATOM     18  C   UNL A   1      42.493  31.201  29.270  1.00  0.00     0.031 C 
ATOM     19  C   UNL A   1      40.785  26.557  28.332  1.00  0.00     0.029 A 
ATOM     20  N   UNL A   1      42.934  26.972  27.873  1.00  0.00    -0.354 N 
ATOM     21  C   UNL A   1      44.632  30.889  28.538  1.00  0.00     0.074 A 
ATOM     22  C   UNL A   1      43.631  31.822  29.002  1.00  0.00     0.031 C 
ATOM     23  C   UNL A   1      41.327  25.417  27.876  1.00  0.00     0.029 A 
ATOM     24  C   UNL A   1      42.735  25.647  27.561  1.00  0.00     0.049 A 
ATOM     25  H   UNL A   1      43.794  27.433  27.743  1.00  0.00     0.167 HD
ATOM     26  C   UNL A   1      45.936  31.204  28.360  1.00  0.00     0.031 A 
ATOM     27  C   UNL A   1      43.588  24.715  27.089  1.00  0.00     0.031 A 
ATOM     28  C   UNL A   1      46.931  30.265  27.911  1.00  0.00     0.049 A 
ATOM     29  C   UNL A   1      45.029  25.085  26.882  1.00  0.00     0.074 A 
ATOM     30  C   UNL A   1      48.285  30.474  27.726  1.00  0.00     0.029 A 
ATOM     31  N   UNL A   1      46.683  28.939  27.584  1.00  0.00    -0.354 N 
ATOM     32  N   UNL A   1      45.619  26.239  27.090  1.00  0.00    -0.248 NA
ATOM     33  C   UNL A   1      45.926  24.028  26.398  1.00  0.00     0.031 C 
ATOM     34  C   UNL A   1      48.843  29.297  27.222  1.00  0.00     0.029 A 
ATOM     35  C   UNL A   1      47.854  28.326  27.169  1.00  0.00     0.049 A 
ATOM     36  H   UNL A   1      45.804  28.498  27.639  1.00  0.00     0.167 HD
ATOM     37  C   UNL A   1      46.958  26.047  26.764  1.00  0.00     0.074 A 
ATOM     38  C   UNL A   1      47.096  24.654  26.386  1.00  0.00     0.031 C 
ATOM     39  C   UNL A   1      47.975  26.945  26.766  1.00  0.00     0.031 A 
BRANCH  26  40
ATOM     40  C   UNL A   1      46.373  32.612  28.687  1.00  0.00    -0.014 A 
ATOM     41  C   UNL A   1      46.495  33.024  30.026  1.00  0.00     0.010 A 
ATOM     42  C   UNL A   1      46.584  33.556  27.663  1.00  0.00     0.010 A 
ATOM     43  C   UNL A   1      46.791  34.355  30.336  1.00  0.00     0.020 A 
ATOM     44  C   UNL A   1      46.918  34.878  27.968  1.00  0.00     0.020 A 
ATOM     45  C   UNL A   1      46.994  35.275  29.304  1.00  0.00     0.054 A 
BRANCH  45  46
ATOM     46  S   UNL A   1      47.358  37.001  29.726  1.00  0.00     0.124 S 
ATOM     47  O   UNL A   1      48.763  37.120  29.348  1.00  0.00    -0.237 OA
ATOM     48  O   UNL A   1      46.414  37.739  28.891  1.00  0.00    -0.237 OA
ATOM     49  O   UNL A   1      47.090  37.067  31.161  1.00  0.00    -0.744 OA
ENDBRANCH  45  46
ENDBRANCH  26  40
BRANCH  27  50
ATOM     50  C   UNL A   1      43.081  23.332  26.854  1.00  0.00    -0.014 A 
ATOM     51  C   UNL A   1      42.791  22.488  27.943  1.00  0.00     0.010 A 
ATOM     52  C   UNL A   1      43.010  22.810  25.551  1.00  0.00     0.010 A 
ATOM     53  C   UNL A   1      42.522  21.132  27.740  1.00  0.00     0.020 A 
ATOM     54  C   UNL A   1      42.705  21.461  25.340  1.00  0.00     0.020 A 
ATOM     55  C   UNL A   1      42.503  20.623  26.439  1.00  0.00     0.054 A 
BRANCH  55  56
ATOM     56  S   UNL A   1      42.264  18.839  26.210  1.00  0.00     0.124 S 
ATOM     57  O   UNL A   1      43.245  18.539  25.169  1.00  0.00    -0.237 OA
ATOM     58  O   UNL A   1      42.570  18.305  27.534  1.00  0.00    -0.237 OA
ATOM     59  O   UNL A   1      40.867  18.729  25.802  1.00  0.00    -0.744 OA
ENDBRANCH  55  56
ENDBRANCH  27  50
BRANCH  39  60
ATOM     60  C   UNL A   1      49.333  26.471  26.310  1.00  0.00    -0.014 A 
ATOM     61  C   UNL A   1      50.186  25.800  27.207  1.00  0.00     0.010 A 
ATOM     62  C   UNL A   1      49.806  26.781  25.022  1.00  0.00     0.010 A 
ATOM     63  C   UNL A   1      51.491  25.470  26.834  1.00  0.00     0.020 A 
ATOM     64  C   UNL A   1      51.098  26.417  24.632  1.00  0.00     0.020 A 
ATOM     65  C   UNL A   1      51.941  25.784  25.549  1.00  0.00     0.054 A 
BRANCH  65  66
ATOM     66  S   UNL A   1      53.638  25.348  25.082  1.00  0.00     0.124 S 
ATOM     67  O   UNL A   1      53.708  25.821  23.702  1.00  0.00    -0.237 OA
ATOM     68  O   UNL A   1      54.439  26.098  26.046  1.00  0.00    -0.237 OA
ATOM     69  O   UNL A   1      53.677  23.896  25.246  1.00  0.00    -0.744 OA
ENDBRANCH  65  66
ENDBRANCH  39  60
ENDBRANCH  13  14
ENDBRANCH   6   8
ENDBRANCH   3   4
ENDBRANCH   2   3
ENDBRANCH   1   2
BRANCH   1  70
ATOM     70  C   UNL A   1      32.359  30.429  27.158  1.00  0.00     0.002 C 
BRANCH  70  71
ATOM     71  C   UNL A   1      31.778  29.339  26.250  1.00  0.00     0.021 C 
BRANCH  71  72
ATOM     72  C   UNL A   1      32.017  27.902  26.697  1.00  0.00     0.116 C 
BRANCH  72  73
ATOM     73  N   UNL A   1      30.814  27.095  26.715  1.00  0.00    -0.351 N 
ATOM     74  C   UNL A   1      30.642  25.794  26.340  1.00  0.00     0.278 C 
ATOM     75  H   UNL A   1      30.006  27.549  27.045  1.00  0.00     0.163 HD
ATOM     76  O   UNL A   1      29.511  25.311  26.487  1.00  0.00    -0.268 OA
BRANCH  74  77
ATOM     77  C   UNL A   1      31.732  24.981  25.614  1.00  0.00     0.279 C 
ATOM     78  C   UNL A   1      32.412  24.166  26.736  1.00  0.00     0.111 C 
ATOM     79  N   UNL A   1      31.244  24.143  24.489  1.00  0.00    -0.317 N 
ATOM     80  C   UNL A   1      33.365  23.117  26.239  1.00  0.00    -0.033 A 
ATOM     81  C   UNL A   1      32.298  23.276  23.942  1.00  0.00     0.300 C 
ATOM     82  H   UNL A   1      30.530  23.553  24.916  1.00  0.00     0.349 HD
ATOM     83  C   UNL A   1      34.347  22.588  27.091  1.00  0.00     0.006 A 
ATOM     84  C   UNL A   1      33.234  22.629  24.935  1.00  0.00     0.011 A 
ATOM     85  C   UNL A   1      35.211  21.592  26.639  1.00  0.00     0.021 A 
ATOM     86  C   UNL A   1      34.102  21.616  24.493  1.00  0.00     0.030 A 
ATOM     87  C   UNL A   1      35.082  21.106  25.341  1.00  0.00     0.041 A 
ATOM     88  Cl  UNL A   1      36.158  19.890  24.771  1.00  0.00    -0.084 Cl
BRANCH  79  89
ATOM     89  C   UNL A   1      30.532  24.879  23.410  1.00  0.00     0.301 C 
BRANCH  89  90
ATOM     90  C   UNL A   1      30.974  26.296  23.094  1.00  0.00     0.025 A 
ATOM     91  C   UNL A   1      32.296  26.528  22.666  1.00  0.00     0.011 A 
ATOM     92  C   UNL A   1      30.117  27.406  23.183  1.00  0.00     0.049 A 
ATOM     93  C   UNL A   1      32.781  27.821  22.464  1.00  0.00     0.001 A 
ATOM     94  C   UNL A   1      30.603  28.703  22.977  1.00  0.00     0.021 A 
ATOM     95  Cl  UNL A   1      28.417  27.259  23.460  1.00  0.00    -0.084 Cl
ATOM     96  C   UNL A   1      31.939  28.911  22.642  1.00  0.00     0.002 A 
ENDBRANCH  89  90
ENDBRANCH  79  89
ENDBRANCH  74  77
ENDBRANCH  72  73
ENDBRANCH  71  72
ENDBRANCH  70  71
ENDBRANCH   1  70
TORSDOF 18
ENDMDL
MODEL 3
REMARK VINA RESULT:      -8.7      4.877      9.495
REMARK SMILES O=C(NCCCCCCNC(=O)[C@H]1Cc2ccc(Cl)cc2C[N@@H+]1Cc1ccccc1Cl)c1ccc(-c2c3nc(c(-c4ccc(S(=O)(=O)[O-])cc4)c4ccc([nH]4)c(-c4ccc(S(=O)(=O)[O-])cc4)c4nc(c(-c5ccc(S(=O)(=O)[O-])cc5)c5ccc2[nH]5)C=C4)C=C3)cc1
REMARK SMILES IDX 6 1 5 2 4 3 3 4 1 5 2 6 32 8 33 9 91 10 34 11 90 12 35 13
REMARK SMILES IDX 36 14 37 15 84 16 38 17 89 18 83 19 85 20 39 21 88 22 82 23
REMARK SMILES IDX 81 24 40 26 70 27 51 28 69 29 52 30 55 31 68 32 86 33 53 34
REMARK SMILES IDX 54 35 67 37 87 38 56 39 41 40 42 41 50 42 43 43 49 44 44 45
REMARK SMILES IDX 45 46 46 47 47 48 48 49 71 50 72 51 80 52 73 53 79 54 74 55
REMARK SMILES IDX 75 56 76 57 77 58 78 59 57 60 58 61 66 62 59 63 65 64 60 65
REMARK SMILES IDX 61 66 62 67 63 68 64 69 7 70 8 71 9 72 10 73 11 74 12 76
REMARK SMILES IDX 13 77 14 78 23 79 15 80 22 81 16 83 21 84 17 85 20 86 18 87
REMARK SMILES IDX 19 88 24 89 25 90 26 91 30 92 27 93 29 94 31 95 28 96
REMARK H PARENT 3 7 85 25 55 36 10 75 23 82
REMARK Flexibility Score: inf
ROOT
ATOM      1  C   UNL A   1      34.631  30.743  27.850  1.00  0.00     0.002 C 
ENDROOT
BRANCH   1   2
ATOM      2  C   UNL A   1      34.304  32.162  27.385  1.00  0.00     0.021 C 
BRANCH   2   3
ATOM      3  C   UNL A   1      32.854  32.592  27.545  1.00  0.00     0.116 C 
BRANCH   3   4
ATOM      4  N   UNL A   1      32.704  33.999  27.868  1.00  0.00    -0.352 N 
ATOM      5  O   UNL A   1      33.086  35.920  28.974  1.00  0.00    -0.269 OA
ATOM      6  C   UNL A   1      33.435  34.769  28.741  1.00  0.00     0.251 C 
ATOM      7  H   UNL A   1      31.978  34.466  27.397  1.00  0.00     0.163 HD
BRANCH   6   8
ATOM      8  C   UNL A   1      34.624  34.200  29.417  1.00  0.00     0.039 A 
ATOM      9  C   UNL A   1      34.433  33.366  30.520  1.00  0.00     0.014 A 
ATOM     10  C   UNL A   1      35.920  34.491  28.979  1.00  0.00     0.014 A 
ATOM     11  C   UNL A   1      35.539  32.806  31.164  1.00  0.00     0.010 A 
ATOM     12  C   UNL A   1      37.013  33.849  29.556  1.00  0.00     0.010 A 
ATOM     13  C   UNL A   1      36.838  33.028  30.676  1.00  0.00    -0.014 A 
BRANCH  13  14
ATOM     14  C   UNL A   1      38.020  32.449  31.368  1.00  0.00     0.031 A 
ATOM     15  C   UNL A   1      38.463  32.999  32.698  1.00  0.00     0.074 A 
ATOM     16  C   UNL A   1      38.695  31.430  30.801  1.00  0.00     0.049 A 
ATOM     17  N   UNL A   1      39.444  32.603  33.467  1.00  0.00    -0.248 NA
ATOM     18  C   UNL A   1      37.727  34.163  33.223  1.00  0.00     0.031 C 
ATOM     19  C   UNL A   1      38.391  30.843  29.496  1.00  0.00     0.029 A 
ATOM     20  N   UNL A   1      39.762  30.696  31.256  1.00  0.00    -0.354 N 
ATOM     21  C   UNL A   1      39.434  33.457  34.563  1.00  0.00     0.074 A 
ATOM     22  C   UNL A   1      38.416  34.452  34.317  1.00  0.00     0.031 C 
ATOM     23  C   UNL A   1      39.212  29.802  29.281  1.00  0.00     0.029 A 
ATOM     24  C   UNL A   1      40.129  29.674  30.412  1.00  0.00     0.049 A 
ATOM     25  H   UNL A   1      40.221  30.883  32.107  1.00  0.00     0.167 HD
ATOM     26  C   UNL A   1      40.171  33.393  35.697  1.00  0.00     0.031 A 
ATOM     27  C   UNL A   1      41.083  28.728  30.535  1.00  0.00     0.031 A 
ATOM     28  C   UNL A   1      41.175  32.390  35.942  1.00  0.00     0.049 A 
ATOM     29  C   UNL A   1      41.902  28.680  31.793  1.00  0.00     0.074 A 
ATOM     30  C   UNL A   1      41.956  32.217  37.070  1.00  0.00     0.029 A 
ATOM     31  N   UNL A   1      41.530  31.387  35.052  1.00  0.00    -0.354 N 
ATOM     32  N   UNL A   1      41.838  29.461  32.846  1.00  0.00    -0.248 NA
ATOM     33  C   UNL A   1      42.906  27.613  31.894  1.00  0.00     0.031 C 
ATOM     34  C   UNL A   1      42.831  31.154  36.834  1.00  0.00     0.029 A 
ATOM     35  C   UNL A   1      42.542  30.610  35.592  1.00  0.00     0.049 A 
ATOM     36  H   UNL A   1      41.124  31.246  34.166  1.00  0.00     0.167 HD
ATOM     37  C   UNL A   1      42.793  28.980  33.736  1.00  0.00     0.074 A 
ATOM     38  C   UNL A   1      43.388  27.814  33.114  1.00  0.00     0.031 C 
ATOM     39  C   UNL A   1      43.149  29.467  34.951  1.00  0.00     0.031 A 
BRANCH  26  40
ATOM     40  C   UNL A   1      39.894  34.410  36.778  1.00  0.00    -0.014 A 
ATOM     41  C   UNL A   1      40.572  35.642  36.784  1.00  0.00     0.010 A 
ATOM     42  C   UNL A   1      39.018  34.110  37.840  1.00  0.00     0.010 A 
ATOM     43  C   UNL A   1      40.403  36.542  37.842  1.00  0.00     0.020 A 
ATOM     44  C   UNL A   1      38.817  35.023  38.879  1.00  0.00     0.020 A 
ATOM     45  C   UNL A   1      39.531  36.222  38.886  1.00  0.00     0.054 A 
BRANCH  45  46
ATOM     46  S   UNL A   1      39.340  37.393  40.258  1.00  0.00     0.124 S 
ATOM     47  O   UNL A   1      38.621  36.594  41.246  1.00  0.00    -0.237 OA
ATOM     48  O   UNL A   1      40.724  37.718  40.594  1.00  0.00    -0.237 OA
ATOM     49  O   UNL A   1      38.578  38.491  39.668  1.00  0.00    -0.744 OA
ENDBRANCH  45  46
ENDBRANCH  26  40
BRANCH  27  50
ATOM     50  C   UNL A   1      41.243  27.724  29.444  1.00  0.00    -0.014 A 
ATOM     51  C   UNL A   1      40.318  26.672  29.306  1.00  0.00     0.010 A 
ATOM     52  C   UNL A   1      42.384  27.740  28.622  1.00  0.00     0.010 A 
ATOM     53  C   UNL A   1      40.572  25.613  28.430  1.00  0.00     0.020 A 
ATOM     54  C   UNL A   1      42.623  26.700  27.717  1.00  0.00     0.020 A 
ATOM     55  C   UNL A   1      41.735  25.624  27.657  1.00  0.00     0.054 A 
BRANCH  55  56
ATOM     56  S   UNL A   1      42.096  24.184  26.614  1.00  0.00     0.124 S 
ATOM     57  O   UNL A   1      42.631  24.816  25.410  1.00  0.00    -0.237 OA
ATOM     58  O   UNL A   1      43.062  23.443  27.417  1.00  0.00    -0.237 OA
ATOM     59  O   UNL A   1      40.795  23.541  26.455  1.00  0.00    -0.744 OA
ENDBRANCH  55  56
ENDBRANCH  27  50
BRANCH  39  60
ATOM     60  C   UNL A   1      44.267  28.770  35.688  1.00  0.00    -0.014 A 
ATOM     61  C   UNL A   1      43.974  27.754  36.617  1.00  0.00     0.010 A 
ATOM     62  C   UNL A   1      45.600  29.192  35.537  1.00  0.00     0.010 A 
ATOM     63  C   UNL A   1      44.988  27.191  37.397  1.00  0.00     0.020 A 
ATOM     64  C   UNL A   1      46.623  28.604  36.286  1.00  0.00     0.020 A 
ATOM     65  C   UNL A   1      46.307  27.622  37.229  1.00  0.00     0.054 A 
BRANCH  65  66
ATOM     66  S   UNL A   1      47.609  26.879  38.248  1.00  0.00     0.124 S 
ATOM     67  O   UNL A   1      47.131  25.508  38.406  1.00  0.00    -0.237 OA
ATOM     68  O   UNL A   1      48.799  27.039  37.415  1.00  0.00    -0.237 OA
ATOM     69  O   UNL A   1      47.597  27.688  39.465  1.00  0.00    -0.744 OA
ENDBRANCH  65  66
ENDBRANCH  39  60
ENDBRANCH  13  14
ENDBRANCH   6   8
ENDBRANCH   3   4
ENDBRANCH   2   3
ENDBRANCH   1   2
BRANCH   1  70
ATOM     70  C   UNL A   1      33.653  29.643  27.424  1.00  0.00     0.002 C 
BRANCH  70  71
ATOM     71  C   UNL A   1      33.879  29.006  26.049  1.00  0.00     0.021 C 
BRANCH  71  72
ATOM     72  C   UNL A   1      33.030  29.558  24.910  1.00  0.00     0.116 C 
BRANCH  72  73
ATOM     73  N   UNL A   1      33.545  29.233  23.596  1.00  0.00    -0.351 N 
ATOM     74  C   UNL A   1      33.191  28.216  22.757  1.00  0.00     0.278 C 
ATOM     75  H   UNL A   1      34.251  29.830  23.259  1.00  0.00     0.163 HD
ATOM     76  O   UNL A   1      33.757  28.171  21.657  1.00  0.00    -0.268 OA
BRANCH  74  77
ATOM     77  C   UNL A   1      32.256  27.067  23.184  1.00  0.00     0.279 C 
ATOM     78  C   UNL A   1      32.932  26.471  24.439  1.00  0.00     0.111 C 
ATOM     79  N   UNL A   1      30.841  27.458  23.405  1.00  0.00    -0.317 N 
ATOM     80  C   UNL A   1      32.083  25.474  25.176  1.00  0.00    -0.033 A 
ATOM     81  C   UNL A   1      30.038  26.358  23.959  1.00  0.00     0.300 C 
ATOM     82  H   UNL A   1      30.900  28.199  24.103  1.00  0.00     0.349 HD
ATOM     83  C   UNL A   1      32.670  24.559  26.062  1.00  0.00     0.006 A 
ATOM     84  C   UNL A   1      30.694  25.499  25.014  1.00  0.00     0.011 A 
ATOM     85  C   UNL A   1      31.879  23.655  26.770  1.00  0.00     0.021 A 
ATOM     86  C   UNL A   1      29.904  24.592  25.742  1.00  0.00     0.030 A 
ATOM     87  C   UNL A   1      30.497  23.678  26.609  1.00  0.00     0.041 A 
ATOM     88  Cl  UNL A   1      29.516  22.552  27.465  1.00  0.00    -0.084 Cl
BRANCH  79  89
ATOM     89  C   UNL A   1      30.166  28.089  22.238  1.00  0.00     0.301 C 
BRANCH  89  90
ATOM     90  C   UNL A   1      29.334  29.335  22.478  1.00  0.00     0.025 A 
ATOM     91  C   UNL A   1      29.803  30.579  22.014  1.00  0.00     0.011 A 
ATOM     92  C   UNL A   1      28.086  29.313  23.126  1.00  0.00     0.049 A 
ATOM     93  C   UNL A   1      29.127  31.766  22.299  1.00  0.00     0.001 A 
ATOM     94  C   UNL A   1      27.407  30.504  23.409  1.00  0.00     0.021 A 
ATOM     95  Cl  UNL A   1      27.270  27.846  23.538  1.00  0.00    -0.084 Cl
ATOM     96  C   UNL A   1      27.938  31.730  23.018  1.00  0.00     0.002 A 
ENDBRANCH  89  90
ENDBRANCH  79  89
ENDBRANCH  74  77
ENDBRANCH  72  73
ENDBRANCH  71  72
ENDBRANCH  70  71
ENDBRANCH   1  70
TORSDOF 18
ENDMDL
