MODEL 1
REMARK VINA RESULT:      -9.7      0.000      0.000
REMARK SMILES CC(C)C[C@H](CNC(=O)c1cc(F)ccc1Br)C(=O)NCCCCCCNC(=O)c1ccc(-c2c3nc(c(-c4ccc(S(=O)(=O)[O-])cc4)c4ccc([nH]4)c(-c4ccc(S(=O)(=O)[O-])cc4)c4nc(c(-c5ccc(S(=O)(=O)[O-])cc5)c5ccc2[nH]5)C=C4)C=C3)cc1
REMARK SMILES IDX 23 1 22 2 21 3 20 4 18 5 19 6 5 8 4 9 2 10 1 11 3 12 6 13
REMARK SMILES IDX 7 14 8 15 9 17 10 18 11 19 16 20 12 21 15 22 17 23 13 24
REMARK SMILES IDX 14 25 24 26 25 27 26 28 27 29 28 30 29 32 30 33 31 34 89 35
REMARK SMILES IDX 32 36 88 37 33 38 34 39 35 40 82 41 36 42 87 43 81 44 83 45
REMARK SMILES IDX 37 46 86 47 80 48 79 49 38 51 68 52 49 53 67 54 50 55 53 56
REMARK SMILES IDX 66 57 84 58 51 59 52 60 65 62 85 63 54 64 39 65 40 66 48 67
REMARK SMILES IDX 41 68 47 69 42 70 43 71 44 72 45 73 46 74 69 75 70 76 78 77
REMARK SMILES IDX 71 78 77 79 72 80 73 81 74 82 75 83 76 84 55 85 56 86 64 87
REMARK SMILES IDX 57 88 63 89 58 90 59 91 60 92 61 93 62 94
REMARK H PARENT 20 7 7 16 27 31 83 50 53 61
REMARK Flexibility Score: inf
ROOT
ATOM      1  C   UNL A   1      36.116  22.171  24.602  1.00  0.00     0.002 C 
ENDROOT
BRANCH   1   2
ATOM      2  C   UNL A   1      35.558  23.006  23.445  1.00  0.00     0.021 C 
BRANCH   2   3
ATOM      3  C   UNL A   1      34.942  24.339  23.864  1.00  0.00     0.116 C 
BRANCH   3   4
ATOM      4  N   UNL A   1      34.077  24.874  22.829  1.00  0.00    -0.356 N 
ATOM      5  C   UNL A   1      33.097  25.814  22.892  1.00  0.00     0.224 C 
ATOM      6  O   UNL A   1      32.464  26.056  21.861  1.00  0.00    -0.275 OA
ATOM      7  H   UNL A   1      34.224  24.493  21.933  1.00  0.00     0.163 HD
BRANCH   5   8
ATOM      8  C   UNL A   1      32.781  26.563  24.184  1.00  0.00     0.098 C 
BRANCH   8   9
ATOM      9  C   UNL A   1      33.336  28.002  24.194  1.00  0.00     0.018 C 
BRANCH   9  10
ATOM     10  C   UNL A   1      32.287  29.100  24.486  1.00  0.00    -0.017 C 
ATOM     11  C   UNL A   1      31.042  28.964  23.609  1.00  0.00     0.007 C 
ATOM     12  C   UNL A   1      31.887  29.055  25.964  1.00  0.00     0.007 C 
ENDBRANCH   9  10
ENDBRANCH   8   9
BRANCH   8  13
ATOM     13  C   UNL A   1      33.119  25.677  25.400  1.00  0.00     0.129 C 
BRANCH  13  14
ATOM     14  N   UNL A   1      31.982  25.290  26.225  1.00  0.00    -0.351 N 
ATOM     15  C   UNL A   1      31.311  24.101  26.301  1.00  0.00     0.252 C 
ATOM     16  H   UNL A   1      31.643  25.997  26.820  1.00  0.00     0.163 HD
ATOM     17  O   UNL A   1      30.329  23.989  27.031  1.00  0.00    -0.269 OA
BRANCH  15  18
ATOM     18  C   UNL A   1      31.789  22.935  25.546  1.00  0.00     0.056 A 
ATOM     19  C   UNL A   1      31.400  22.821  24.205  1.00  0.00     0.054 A 
ATOM     20  C   UNL A   1      32.674  22.005  26.106  1.00  0.00     0.030 A 
ATOM     21  C   UNL A   1      31.870  21.756  23.449  1.00  0.00     0.124 A 
ATOM     22  C   UNL A   1      33.149  20.945  25.324  1.00  0.00     0.019 A 
ATOM     23  Br  UNL A   1      33.246  22.086  27.912  1.00  0.00    -0.050 Br
ATOM     24  F   UNL A   1      31.480  21.629  22.175  1.00  0.00    -0.207 F 
ATOM     25  C   UNL A   1      32.740  20.818  23.995  1.00  0.00     0.040 A 
ENDBRANCH  15  18
ENDBRANCH  13  14
ENDBRANCH   8  13
ENDBRANCH   5   8
ENDBRANCH   3   4
ENDBRANCH   2   3
ENDBRANCH   1   2
BRANCH   1  26
ATOM     26  C   UNL A   1      37.633  22.252  24.798  1.00  0.00     0.002 C 
BRANCH  26  27
ATOM     27  C   UNL A   1      38.359  20.909  24.924  1.00  0.00     0.021 C 
BRANCH  27  28
ATOM     28  C   UNL A   1      39.105  20.688  26.238  1.00  0.00     0.116 C 
BRANCH  28  29
ATOM     29  N   UNL A   1      40.161  19.699  26.116  1.00  0.00    -0.352 N 
ATOM     30  C   UNL A   1      41.522  19.876  26.131  1.00  0.00     0.251 C 
ATOM     31  H   UNL A   1      39.857  18.769  26.007  1.00  0.00     0.163 HD
ATOM     32  O   UNL A   1      42.261  18.933  25.857  1.00  0.00    -0.269 OA
BRANCH  30  33
ATOM     33  C   UNL A   1      42.100  21.199  26.452  1.00  0.00     0.039 A 
ATOM     34  C   UNL A   1      42.339  22.098  25.409  1.00  0.00     0.014 A 
ATOM     35  C   UNL A   1      42.433  21.546  27.766  1.00  0.00     0.014 A 
ATOM     36  C   UNL A   1      42.869  23.360  25.686  1.00  0.00     0.010 A 
ATOM     37  C   UNL A   1      42.911  22.825  28.048  1.00  0.00     0.010 A 
ATOM     38  C   UNL A   1      43.140  23.742  27.010  1.00  0.00    -0.014 A 
BRANCH  38  39
ATOM     39  C   UNL A   1      43.677  25.090  27.322  1.00  0.00     0.031 A 
ATOM     40  C   UNL A   1      45.138  25.388  27.115  1.00  0.00     0.074 A 
ATOM     41  C   UNL A   1      42.863  26.032  27.837  1.00  0.00     0.049 A 
ATOM     42  N   UNL A   1      45.801  26.485  27.376  1.00  0.00    -0.248 NA
ATOM     43  C   UNL A   1      45.964  24.303  26.561  1.00  0.00     0.031 C 
ATOM     44  C   UNL A   1      41.436  25.858  28.119  1.00  0.00     0.029 A 
ATOM     45  N   UNL A   1      43.122  27.324  28.220  1.00  0.00    -0.354 N 
ATOM     46  C   UNL A   1      47.121  26.220  27.034  1.00  0.00     0.074 A 
ATOM     47  C   UNL A   1      47.172  24.845  26.584  1.00  0.00     0.031 C 
ATOM     48  C   UNL A   1      40.944  27.005  28.614  1.00  0.00     0.029 A 
ATOM     49  C   UNL A   1      42.021  27.985  28.710  1.00  0.00     0.049 A 
ATOM     50  H   UNL A   1      44.013  27.737  28.151  1.00  0.00     0.167 HD
ATOM     51  C   UNL A   1      48.192  27.049  27.073  1.00  0.00     0.031 A 
ATOM     52  C   UNL A   1      41.894  29.240  29.183  1.00  0.00     0.031 A 
ATOM     53  C   UNL A   1      48.141  28.419  27.507  1.00  0.00     0.049 A 
ATOM     54  C   UNL A   1      43.092  30.147  29.201  1.00  0.00     0.074 A 
ATOM     55  C   UNL A   1      49.166  29.349  27.552  1.00  0.00     0.029 A 
ATOM     56  N   UNL A   1      47.000  29.060  27.965  1.00  0.00    -0.354 N 
ATOM     57  N   UNL A   1      44.324  29.888  28.833  1.00  0.00    -0.248 NA
ATOM     58  C   UNL A   1      42.879  31.518  29.684  1.00  0.00     0.031 C 
ATOM     59  C   UNL A   1      48.649  30.545  28.063  1.00  0.00     0.029 A 
ATOM     60  C   UNL A   1      47.294  30.370  28.299  1.00  0.00     0.049 A 
ATOM     61  H   UNL A   1      46.111  28.643  28.042  1.00  0.00     0.167 HD
ATOM     62  C   UNL A   1      45.028  31.074  29.017  1.00  0.00     0.074 A 
ATOM     63  C   UNL A   1      44.082  32.051  29.516  1.00  0.00     0.031 C 
ATOM     64  C   UNL A   1      46.340  31.329  28.791  1.00  0.00     0.031 A 
BRANCH  51  65
ATOM     65  C   UNL A   1      49.515  26.485  26.630  1.00  0.00    -0.014 A 
ATOM     66  C   UNL A   1      50.403  25.915  27.560  1.00  0.00     0.010 A 
ATOM     67  C   UNL A   1      49.869  26.507  25.270  1.00  0.00     0.010 A 
ATOM     68  C   UNL A   1      51.642  25.420  27.144  1.00  0.00     0.020 A 
ATOM     69  C   UNL A   1      51.097  25.990  24.846  1.00  0.00     0.020 A 
ATOM     70  C   UNL A   1      51.984  25.469  25.790  1.00  0.00     0.054 A 
BRANCH  70  71
ATOM     71  S   UNL A   1      53.596  24.815  25.273  1.00  0.00     0.124 S 
ATOM     72  O   UNL A   1      53.893  25.641  24.105  1.00  0.00    -0.237 OA
ATOM     73  O   UNL A   1      54.436  25.059  26.443  1.00  0.00    -0.237 OA
ATOM     74  O   UNL A   1      53.322  23.409  24.988  1.00  0.00    -0.744 OA
ENDBRANCH  70  71
ENDBRANCH  51  65
BRANCH  52  75
ATOM     75  C   UNL A   1      40.570  29.721  29.660  1.00  0.00    -0.014 A 
ATOM     76  C   UNL A   1      39.552  30.027  28.739  1.00  0.00     0.010 A 
ATOM     77  C   UNL A   1      40.318  29.868  31.035  1.00  0.00     0.010 A 
ATOM     78  C   UNL A   1      38.311  30.489  29.185  1.00  0.00     0.020 A 
ATOM     79  C   UNL A   1      39.071  30.309  31.485  1.00  0.00     0.020 A 
ATOM     80  C   UNL A   1      38.079  30.629  30.556  1.00  0.00     0.054 A 
BRANCH  80  81
ATOM     81  S   UNL A   1      36.444  31.182  31.120  1.00  0.00     0.124 S 
ATOM     82  O   UNL A   1      36.768  32.425  31.813  1.00  0.00    -0.237 OA
ATOM     83  O   UNL A   1      35.707  31.329  29.868  1.00  0.00    -0.237 OA
ATOM     84  O   UNL A   1      35.992  30.085  31.973  1.00  0.00    -0.744 OA
ENDBRANCH  80  81
ENDBRANCH  52  75
BRANCH  64  85
ATOM     85  C   UNL A   1      46.820  32.731  29.047  1.00  0.00    -0.014 A 
ATOM     86  C   UNL A   1      46.834  33.692  28.022  1.00  0.00     0.010 A 
ATOM     87  C   UNL A   1      47.224  33.100  30.343  1.00  0.00     0.010 A 
ATOM     88  C   UNL A   1      47.275  34.993  28.282  1.00  0.00     0.020 A 
ATOM     89  C   UNL A   1      47.646  34.404  30.610  1.00  0.00     0.020 A 
ATOM     90  C   UNL A   1      47.684  35.339  29.574  1.00  0.00     0.054 A 
BRANCH  90  91
ATOM     91  S   UNL A   1      48.218  37.041  29.900  1.00  0.00     0.124 S 
ATOM     92  O   UNL A   1      49.014  37.341  28.713  1.00  0.00    -0.237 OA
ATOM     93  O   UNL A   1      46.953  37.764  30.007  1.00  0.00    -0.237 OA
ATOM     94  O   UNL A   1      48.973  36.932  31.147  1.00  0.00    -0.744 OA
ENDBRANCH  90  91
ENDBRANCH  64  85
ENDBRANCH  38  39
ENDBRANCH  30  33
ENDBRANCH  28  29
ENDBRANCH  27  28
ENDBRANCH  26  27
ENDBRANCH   1  26
TORSDOF 21
ENDMDL
MODEL 2
REMARK VINA RESULT:      -9.6      5.255      9.229
REMARK SMILES CC(C)C[C@H](CNC(=O)c1cc(F)ccc1Br)C(=O)NCCCCCCNC(=O)c1ccc(-c2c3nc(c(-c4ccc(S(=O)(=O)[O-])cc4)c4ccc([nH]4)c(-c4ccc(S(=O)(=O)[O-])cc4)c4nc(c(-c5ccc(S(=O)(=O)[O-])cc5)c5ccc2[nH]5)C=C4)C=C3)cc1
REMARK SMILES IDX 23 1 22 2 21 3 20 4 18 5 19 6 5 8 4 9 2 10 1 11 3 12 6 13
REMARK SMILES IDX 7 14 8 15 9 17 10 18 11 19 16 20 12 21 15 22 17 23 13 24
REMARK SMILES IDX 14 25 24 26 25 27 26 28 27 29 28 30 29 32 30 33 31 34 89 35
REMARK SMILES IDX 32 36 88 37 33 38 34 39 35 40 82 41 36 42 87 43 81 44 83 45
REMARK SMILES IDX 37 46 86 47 80 48 79 49 38 51 68 52 49 53 67 54 50 55 53 56
REMARK SMILES IDX 66 57 84 58 51 59 52 60 65 62 85 63 54 64 39 65 40 66 48 67
REMARK SMILES IDX 41 68 47 69 42 70 43 71 44 72 45 73 46 74 69 75 70 76 78 77
REMARK SMILES IDX 71 78 77 79 72 80 73 81 74 82 75 83 76 84 55 85 56 86 64 87
REMARK SMILES IDX 57 88 63 89 58 90 59 91 60 92 61 93 62 94
REMARK H PARENT 20 7 7 16 27 31 83 50 53 61
REMARK Flexibility Score: inf
ROOT
ATOM      1  C   UNL A   1      43.251  22.994  24.706  1.00  0.00     0.002 C 
ENDROOT
BRANCH   1   2
ATOM      2  C   UNL A   1      44.723  23.410  24.784  1.00  0.00     0.021 C 
BRANCH   2   3
ATOM      3  C   UNL A   1      44.990  24.642  25.644  1.00  0.00     0.116 C 
BRANCH   3   4
ATOM      4  N   UNL A   1      44.178  25.770  25.228  1.00  0.00    -0.356 N 
ATOM      5  C   UNL A   1      44.352  27.105  25.413  1.00  0.00     0.224 C 
ATOM      6  O   UNL A   1      43.474  27.864  24.998  1.00  0.00    -0.275 OA
ATOM      7  H   UNL A   1      43.365  25.527  24.727  1.00  0.00     0.163 HD
BRANCH   5   8
ATOM      8  C   UNL A   1      45.592  27.667  26.104  1.00  0.00     0.098 C 
BRANCH   8   9
ATOM      9  C   UNL A   1      45.250  28.596  27.287  1.00  0.00     0.018 C 
BRANCH   9  10
ATOM     10  C   UNL A   1      45.180  30.099  26.932  1.00  0.00    -0.017 C 
ATOM     11  C   UNL A   1      43.760  30.657  27.038  1.00  0.00     0.007 C 
ATOM     12  C   UNL A   1      46.118  30.892  27.847  1.00  0.00     0.007 C 
ENDBRANCH   9  10
ENDBRANCH   8   9
BRANCH   8  13
ATOM     13  C   UNL A   1      46.577  28.214  25.051  1.00  0.00     0.129 C 
BRANCH  13  14
ATOM     14  N   UNL A   1      47.086  27.231  24.103  1.00  0.00    -0.351 N 
ATOM     15  C   UNL A   1      48.339  26.698  23.971  1.00  0.00     0.252 C 
ATOM     16  H   UNL A   1      46.423  26.899  23.455  1.00  0.00     0.163 HD
ATOM     17  O   UNL A   1      48.585  25.912  23.060  1.00  0.00    -0.269 OA
BRANCH  15  18
ATOM     18  C   UNL A   1      49.387  27.029  24.946  1.00  0.00     0.056 A 
ATOM     19  C   UNL A   1      50.324  28.009  24.591  1.00  0.00     0.054 A 
ATOM     20  C   UNL A   1      49.414  26.456  26.223  1.00  0.00     0.030 A 
ATOM     21  C   UNL A   1      51.300  28.377  25.505  1.00  0.00     0.124 A 
ATOM     22  C   UNL A   1      50.399  26.851  27.137  1.00  0.00     0.019 A 
ATOM     23  Br  UNL A   1      48.186  25.122  26.780  1.00  0.00    -0.050 Br
ATOM     24  F   UNL A   1      52.212  29.294  25.161  1.00  0.00    -0.207 F 
ATOM     25  C   UNL A   1      51.346  27.809  26.774  1.00  0.00     0.040 A 
ENDBRANCH  15  18
ENDBRANCH  13  14
ENDBRANCH   8  13
ENDBRANCH   5   8
ENDBRANCH   3   4
ENDBRANCH   2   3
ENDBRANCH   1   2
BRANCH   1  26
ATOM     26  C   UNL A   1      42.813  21.939  25.728  1.00  0.00     0.002 C 
BRANCH  26  27
ATOM     27  C   UNL A   1      42.124  22.479  26.985  1.00  0.00     0.021 C 
BRANCH  27  28
ATOM     28  C   UNL A   1      40.862  21.732  27.411  1.00  0.00     0.116 C 
BRANCH  28  29
ATOM     29  N   UNL A   1      39.749  21.964  26.508  1.00  0.00    -0.352 N 
ATOM     30  C   UNL A   1      39.011  23.106  26.315  1.00  0.00     0.251 C 
ATOM     31  H   UNL A   1      39.486  21.194  25.956  1.00  0.00     0.163 HD
ATOM     32  O   UNL A   1      38.001  23.067  25.616  1.00  0.00    -0.269 OA
BRANCH  30  33
ATOM     33  C   UNL A   1      39.413  24.374  26.963  1.00  0.00     0.039 A 
ATOM     34  C   UNL A   1      38.977  24.629  28.266  1.00  0.00     0.014 A 
ATOM     35  C   UNL A   1      40.189  25.321  26.286  1.00  0.00     0.014 A 
ATOM     36  C   UNL A   1      39.356  25.810  28.908  1.00  0.00     0.010 A 
ATOM     37  C   UNL A   1      40.610  26.475  26.945  1.00  0.00     0.010 A 
ATOM     38  C   UNL A   1      40.193  26.734  28.260  1.00  0.00    -0.014 A 
BRANCH  38  39
ATOM     39  C   UNL A   1      40.625  27.980  28.939  1.00  0.00     0.031 A 
ATOM     40  C   UNL A   1      42.001  28.075  29.541  1.00  0.00     0.074 A 
ATOM     41  C   UNL A   1      39.766  29.011  29.056  1.00  0.00     0.049 A 
ATOM     42  N   UNL A   1      42.541  29.059  30.215  1.00  0.00    -0.248 NA
ATOM     43  C   UNL A   1      42.877  26.903  29.382  1.00  0.00     0.031 C 
ATOM     44  C   UNL A   1      38.391  29.031  28.547  1.00  0.00     0.029 A 
ATOM     45  N   UNL A   1      39.919  30.240  29.647  1.00  0.00    -0.354 N 
ATOM     46  C   UNL A   1      43.810  28.621  30.574  1.00  0.00     0.074 A 
ATOM     47  C   UNL A   1      43.945  27.267  30.077  1.00  0.00     0.031 C 
ATOM     48  C   UNL A   1      37.836  30.220  28.834  1.00  0.00     0.029 A 
ATOM     49  C   UNL A   1      38.800  31.034  29.568  1.00  0.00     0.049 A 
ATOM     50  H   UNL A   1      40.752  30.525  30.088  1.00  0.00     0.167 HD
ATOM     51  C   UNL A   1      44.782  29.288  31.241  1.00  0.00     0.031 A 
ATOM     52  C   UNL A   1      38.575  32.277  30.034  1.00  0.00     0.031 A 
ATOM     53  C   UNL A   1      44.655  30.636  31.724  1.00  0.00     0.049 A 
ATOM     54  C   UNL A   1      39.675  33.004  30.757  1.00  0.00     0.074 A 
ATOM     55  C   UNL A   1      45.596  31.409  32.383  1.00  0.00     0.029 A 
ATOM     56  N   UNL A   1      43.516  31.416  31.595  1.00  0.00    -0.354 N 
ATOM     57  N   UNL A   1      40.883  32.586  31.048  1.00  0.00    -0.248 NA
ATOM     58  C   UNL A   1      39.384  34.375  31.199  1.00  0.00     0.031 C 
ATOM     59  C   UNL A   1      45.015  32.649  32.675  1.00  0.00     0.029 A 
ATOM     60  C   UNL A   1      43.727  32.660  32.165  1.00  0.00     0.049 A 
ATOM     61  H   UNL A   1      42.679  31.127  31.162  1.00  0.00     0.167 HD
ATOM     62  C   UNL A   1      41.506  33.653  31.687  1.00  0.00     0.074 A 
ATOM     63  C   UNL A   1      40.546  34.737  31.727  1.00  0.00     0.031 C 
ATOM     64  C   UNL A   1      42.762  33.728  32.192  1.00  0.00     0.031 A 
BRANCH  51  65
ATOM     65  C   UNL A   1      46.075  28.556  31.484  1.00  0.00    -0.014 A 
ATOM     66  C   UNL A   1      47.118  28.603  30.541  1.00  0.00     0.010 A 
ATOM     67  C   UNL A   1      46.258  27.828  32.673  1.00  0.00     0.010 A 
ATOM     68  C   UNL A   1      48.303  27.898  30.761  1.00  0.00     0.020 A 
ATOM     69  C   UNL A   1      47.452  27.141  32.908  1.00  0.00     0.020 A 
ATOM     70  C   UNL A   1      48.459  27.163  31.941  1.00  0.00     0.054 A 
BRANCH  70  71
ATOM     71  S   UNL A   1      50.009  26.258  32.207  1.00  0.00     0.124 S 
ATOM     72  O   UNL A   1      50.716  26.500  30.951  1.00  0.00    -0.237 OA
ATOM     73  O   UNL A   1      50.573  26.918  33.381  1.00  0.00    -0.237 OA
ATOM     74  O   UNL A   1      49.571  24.881  32.420  1.00  0.00    -0.744 OA
ENDBRANCH  70  71
ENDBRANCH  51  65
BRANCH  52  75
ATOM     75  C   UNL A   1      37.256  32.925  29.811  1.00  0.00    -0.014 A 
ATOM     76  C   UNL A   1      37.030  33.700  28.659  1.00  0.00     0.010 A 
ATOM     77  C   UNL A   1      36.216  32.764  30.744  1.00  0.00     0.010 A 
ATOM     78  C   UNL A   1      35.794  34.318  28.453  1.00  0.00     0.020 A 
ATOM     79  C   UNL A   1      34.971  33.363  30.529  1.00  0.00     0.020 A 
ATOM     80  C   UNL A   1      34.772  34.147  29.391  1.00  0.00     0.054 A 
BRANCH  80  81
ATOM     81  S   UNL A   1      33.156  34.914  29.083  1.00  0.00     0.124 S 
ATOM     82  O   UNL A   1      32.552  34.889  30.411  1.00  0.00    -0.237 OA
ATOM     83  O   UNL A   1      33.522  36.236  28.579  1.00  0.00    -0.237 OA
ATOM     84  O   UNL A   1      32.544  34.029  28.095  1.00  0.00    -0.744 OA
ENDBRANCH  80  81
ENDBRANCH  52  75
BRANCH  64  85
ATOM     85  C   UNL A   1      43.180  35.038  32.800  1.00  0.00    -0.014 A 
ATOM     86  C   UNL A   1      42.821  35.375  34.116  1.00  0.00     0.010 A 
ATOM     87  C   UNL A   1      43.979  35.924  32.055  1.00  0.00     0.010 A 
ATOM     88  C   UNL A   1      43.226  36.594  34.666  1.00  0.00     0.020 A 
ATOM     89  C   UNL A   1      44.403  37.134  32.609  1.00  0.00     0.020 A 
ATOM     90  C   UNL A   1      44.011  37.469  33.907  1.00  0.00     0.054 A 
BRANCH  90  91
ATOM     91  S   UNL A   1      44.558  39.029  34.652  1.00  0.00     0.124 S 
ATOM     92  O   UNL A   1      45.845  39.243  33.996  1.00  0.00    -0.237 OA
ATOM     93  O   UNL A   1      43.497  39.960  34.273  1.00  0.00    -0.237 OA
ATOM     94  O   UNL A   1      44.628  38.723  36.079  1.00  0.00    -0.744 OA
ENDBRANCH  90  91
ENDBRANCH  64  85
ENDBRANCH  38  39
ENDBRANCH  30  33
ENDBRANCH  28  29
ENDBRANCH  27  28
ENDBRANCH  26  27
ENDBRANCH   1  26
TORSDOF 21
ENDMDL
MODEL 3
REMARK VINA RESULT:      -9.5      5.325      9.640
REMARK SMILES CC(C)C[C@H](CNC(=O)c1cc(F)ccc1Br)C(=O)NCCCCCCNC(=O)c1ccc(-c2c3nc(c(-c4ccc(S(=O)(=O)[O-])cc4)c4ccc([nH]4)c(-c4ccc(S(=O)(=O)[O-])cc4)c4nc(c(-c5ccc(S(=O)(=O)[O-])cc5)c5ccc2[nH]5)C=C4)C=C3)cc1
REMARK SMILES IDX 23 1 22 2 21 3 20 4 18 5 19 6 5 8 4 9 2 10 1 11 3 12 6 13
REMARK SMILES IDX 7 14 8 15 9 17 10 18 11 19 16 20 12 21 15 22 17 23 13 24
REMARK SMILES IDX 14 25 24 26 25 27 26 28 27 29 28 30 29 32 30 33 31 34 89 35
REMARK SMILES IDX 32 36 88 37 33 38 34 39 35 40 82 41 36 42 87 43 81 44 83 45
REMARK SMILES IDX 37 46 86 47 80 48 79 49 38 51 68 52 49 53 67 54 50 55 53 56
REMARK SMILES IDX 66 57 84 58 51 59 52 60 65 62 85 63 54 64 39 65 40 66 48 67
REMARK SMILES IDX 41 68 47 69 42 70 43 71 44 72 45 73 46 74 69 75 70 76 78 77
REMARK SMILES IDX 71 78 77 79 72 80 73 81 74 82 75 83 76 84 55 85 56 86 64 87
REMARK SMILES IDX 57 88 63 89 58 90 59 91 60 92 61 93 62 94
REMARK H PARENT 20 7 7 16 27 31 83 50 53 61
REMARK Flexibility Score: inf
ROOT
ATOM      1  C   UNL A   1      43.259  23.155  25.169  1.00  0.00     0.002 C 
ENDROOT
BRANCH   1   2
ATOM      2  C   UNL A   1      44.662  22.695  24.762  1.00  0.00     0.021 C 
BRANCH   2   3
ATOM      3  C   UNL A   1      45.798  23.383  25.514  1.00  0.00     0.116 C 
BRANCH   3   4
ATOM      4  N   UNL A   1      46.760  23.974  24.601  1.00  0.00    -0.356 N 
ATOM      5  C   UNL A   1      47.232  25.245  24.511  1.00  0.00     0.224 C 
ATOM      6  O   UNL A   1      48.019  25.504  23.598  1.00  0.00    -0.275 OA
ATOM      7  H   UNL A   1      47.134  23.348  23.938  1.00  0.00     0.163 HD
BRANCH   5   8
ATOM      8  C   UNL A   1      46.819  26.329  25.503  1.00  0.00     0.098 C 
BRANCH   8   9
ATOM      9  C   UNL A   1      46.099  27.515  24.829  1.00  0.00     0.018 C 
BRANCH   9  10
ATOM     10  C   UNL A   1      44.673  27.794  25.357  1.00  0.00    -0.017 C 
ATOM     11  C   UNL A   1      43.938  26.513  25.752  1.00  0.00     0.007 C 
ATOM     12  C   UNL A   1      44.741  28.743  26.558  1.00  0.00     0.007 C 
ENDBRANCH   9  10
ENDBRANCH   8   9
BRANCH   8  13
ATOM     13  C   UNL A   1      48.002  26.670  26.432  1.00  0.00     0.129 C 
BRANCH  13  14
ATOM     14  N   UNL A   1      48.506  28.033  26.326  1.00  0.00    -0.351 N 
ATOM     15  C   UNL A   1      49.789  28.506  26.372  1.00  0.00     0.252 C 
ATOM     16  H   UNL A   1      47.814  28.722  26.202  1.00  0.00     0.163 HD
ATOM     17  O   UNL A   1      50.006  29.714  26.317  1.00  0.00    -0.269 OA
BRANCH  15  18
ATOM     18  C   UNL A   1      50.918  27.568  26.441  1.00  0.00     0.056 A 
ATOM     19  C   UNL A   1      51.380  27.194  27.709  1.00  0.00     0.054 A 
ATOM     20  C   UNL A   1      51.471  26.993  25.290  1.00  0.00     0.030 A 
ATOM     21  C   UNL A   1      52.415  26.276  27.811  1.00  0.00     0.124 A 
ATOM     22  C   UNL A   1      52.505  26.058  25.413  1.00  0.00     0.019 A 
ATOM     23  Br  UNL A   1      50.905  27.448  23.537  1.00  0.00    -0.050 Br
ATOM     24  F   UNL A   1      52.877  25.935  29.020  1.00  0.00    -0.207 F 
ATOM     25  C   UNL A   1      52.981  25.704  26.677  1.00  0.00     0.040 A 
ENDBRANCH  15  18
ENDBRANCH  13  14
ENDBRANCH   8  13
ENDBRANCH   5   8
ENDBRANCH   3   4
ENDBRANCH   2   3
ENDBRANCH   1   2
BRANCH   1  26
ATOM     26  C   UNL A   1      42.346  22.059  25.728  1.00  0.00     0.002 C 
BRANCH  26  27
ATOM     27  C   UNL A   1      41.819  22.295  27.147  1.00  0.00     0.021 C 
BRANCH  27  28
ATOM     28  C   UNL A   1      40.525  21.563  27.495  1.00  0.00     0.116 C 
BRANCH  28  29
ATOM     29  N   UNL A   1      39.467  21.821  26.534  1.00  0.00    -0.352 N 
ATOM     30  C   UNL A   1      38.809  22.994  26.261  1.00  0.00     0.251 C 
ATOM     31  H   UNL A   1      39.183  21.044  26.001  1.00  0.00     0.163 HD
ATOM     32  O   UNL A   1      37.829  22.984  25.518  1.00  0.00    -0.269 OA
BRANCH  30  33
ATOM     33  C   UNL A   1      39.257  24.263  26.875  1.00  0.00     0.039 A 
ATOM     34  C   UNL A   1      38.910  24.525  28.203  1.00  0.00     0.014 A 
ATOM     35  C   UNL A   1      39.990  25.204  26.143  1.00  0.00     0.014 A 
ATOM     36  C   UNL A   1      39.336  25.708  28.812  1.00  0.00     0.010 A 
ATOM     37  C   UNL A   1      40.459  26.359  26.767  1.00  0.00     0.010 A 
ATOM     38  C   UNL A   1      40.131  26.625  28.106  1.00  0.00    -0.014 A 
BRANCH  38  39
ATOM     39  C   UNL A   1      40.612  27.873  28.749  1.00  0.00     0.031 A 
ATOM     40  C   UNL A   1      42.019  27.958  29.276  1.00  0.00     0.074 A 
ATOM     41  C   UNL A   1      39.771  28.914  28.901  1.00  0.00     0.049 A 
ATOM     42  N   UNL A   1      42.604  28.941  29.912  1.00  0.00    -0.248 NA
ATOM     43  C   UNL A   1      42.872  26.774  29.083  1.00  0.00     0.031 C 
ATOM     44  C   UNL A   1      38.373  28.946  28.466  1.00  0.00     0.029 A 
ATOM     45  N   UNL A   1      39.969  30.147  29.471  1.00  0.00    -0.354 N 
ATOM     46  C   UNL A   1      43.886  28.492  30.206  1.00  0.00     0.074 A 
ATOM     47  C   UNL A   1      43.980  27.133  29.716  1.00  0.00     0.031 C 
ATOM     48  C   UNL A   1      37.846  30.143  28.770  1.00  0.00     0.029 A 
ATOM     49  C   UNL A   1      38.856  30.953  29.444  1.00  0.00     0.049 A 
ATOM     50  H   UNL A   1      40.828  30.426  29.864  1.00  0.00     0.167 HD
ATOM     51  C   UNL A   1      44.900  29.154  30.815  1.00  0.00     0.031 A 
ATOM     52  C   UNL A   1      38.670  32.203  29.909  1.00  0.00     0.031 A 
ATOM     53  C   UNL A   1      44.812  30.508  31.291  1.00  0.00     0.049 A 
ATOM     54  C   UNL A   1      39.814  32.924  30.565  1.00  0.00     0.074 A 
ATOM     55  C   UNL A   1      45.796  31.277  31.891  1.00  0.00     0.029 A 
ATOM     56  N   UNL A   1      43.677  31.300  31.215  1.00  0.00    -0.354 N 
ATOM     57  N   UNL A   1      41.032  32.495  30.796  1.00  0.00    -0.248 NA
ATOM     58  C   UNL A   1      39.563  34.302  31.008  1.00  0.00     0.031 C 
ATOM     59  C   UNL A   1      45.245  32.526  32.201  1.00  0.00     0.029 A 
ATOM     60  C   UNL A   1      43.931  32.546  31.760  1.00  0.00     0.049 A 
ATOM     61  H   UNL A   1      42.815  31.016  30.830  1.00  0.00     0.167 HD
ATOM     62  C   UNL A   1      41.700  33.561  31.390  1.00  0.00     0.074 A 
ATOM     63  C   UNL A   1      40.755  34.656  31.471  1.00  0.00     0.031 C 
ATOM     64  C   UNL A   1      42.981  33.625  31.828  1.00  0.00     0.031 A 
BRANCH  51  65
ATOM     65  C   UNL A   1      46.195  28.410  30.996  1.00  0.00    -0.014 A 
ATOM     66  C   UNL A   1      46.325  27.420  31.987  1.00  0.00     0.010 A 
ATOM     67  C   UNL A   1      47.290  28.690  30.159  1.00  0.00     0.010 A 
ATOM     68  C   UNL A   1      47.540  26.756  32.167  1.00  0.00     0.020 A 
ATOM     69  C   UNL A   1      48.500  28.010  30.321  1.00  0.00     0.020 A 
ATOM     70  C   UNL A   1      48.624  27.061  31.338  1.00  0.00     0.054 A 
BRANCH  70  71
ATOM     71  S   UNL A   1      50.190  26.182  31.588  1.00  0.00     0.124 S 
ATOM     72  O   UNL A   1      51.169  27.236  31.333  1.00  0.00    -0.237 OA
ATOM     73  O   UNL A   1      50.095  25.736  32.976  1.00  0.00    -0.237 OA
ATOM     74  O   UNL A   1      50.150  25.115  30.591  1.00  0.00    -0.744 OA
ENDBRANCH  70  71
ENDBRANCH  51  65
BRANCH  52  75
ATOM     75  C   UNL A   1      37.348  32.863  29.749  1.00  0.00    -0.014 A 
ATOM     76  C   UNL A   1      36.463  32.954  30.839  1.00  0.00     0.010 A 
ATOM     77  C   UNL A   1      36.970  33.412  28.511  1.00  0.00     0.010 A 
ATOM     78  C   UNL A   1      35.216  33.565  30.688  1.00  0.00     0.020 A 
ATOM     79  C   UNL A   1      35.732  34.044  28.363  1.00  0.00     0.020 A 
ATOM     80  C   UNL A   1      34.857  34.105  29.450  1.00  0.00     0.054 A 
BRANCH  80  81
ATOM     81  S   UNL A   1      33.254  34.940  29.285  1.00  0.00     0.124 S 
ATOM     82  O   UNL A   1      33.649  36.259  28.799  1.00  0.00    -0.237 OA
ATOM     83  O   UNL A   1      32.552  34.096  28.322  1.00  0.00    -0.237 OA
ATOM     84  O   UNL A   1      32.712  34.905  30.641  1.00  0.00    -0.744 OA
ENDBRANCH  80  81
ENDBRANCH  52  75
BRANCH  64  85
ATOM     85  C   UNL A   1      43.445  34.937  32.400  1.00  0.00    -0.014 A 
ATOM     86  C   UNL A   1      43.257  35.243  33.758  1.00  0.00     0.010 A 
ATOM     87  C   UNL A   1      44.115  35.856  31.572  1.00  0.00     0.010 A 
ATOM     88  C   UNL A   1      43.703  36.463  34.273  1.00  0.00     0.020 A 
ATOM     89  C   UNL A   1      44.580  37.067  32.089  1.00  0.00     0.020 A 
ATOM     90  C   UNL A   1      44.358  37.370  33.433  1.00  0.00     0.054 A 
BRANCH  90  91
ATOM     91  S   UNL A   1      44.962  38.933  34.128  1.00  0.00     0.124 S 
ATOM     92  O   UNL A   1      43.753  39.750  34.131  1.00  0.00    -0.237 OA
ATOM     93  O   UNL A   1      45.454  38.534  35.445  1.00  0.00    -0.237 OA
ATOM     94  O   UNL A   1      45.997  39.351  33.185  1.00  0.00    -0.744 OA
ENDBRANCH  90  91
ENDBRANCH  64  85
ENDBRANCH  38  39
ENDBRANCH  30  33
ENDBRANCH  28  29
ENDBRANCH  27  28
ENDBRANCH  26  27
ENDBRANCH   1  26
TORSDOF 21
ENDMDL
