MODEL 1
REMARK VINA RESULT:      -9.6      0.000      0.000
REMARK SMILES CCNS(=O)(=O)c1ccc(CC(=O)NCCCCCCNC(=O)c2ccc(-c3c4nc(c(-c5ccc(S(=O)(=O)[O-])cc5)c5ccc([nH]5)c(-c5ccc(S(=O)(=O)[O-])cc5)c5nc(c(-c6ccc(S(=O)(=O)[O-])cc6)c6ccc3[nH]6)C=C5)C=C4)cc2)cc1
REMARK SMILES IDX 17 1 16 2 15 3 14 4 12 5 13 6 11 8 10 9 7 10 8 11 85 12 9 13
REMARK SMILES IDX 84 14 4 15 5 16 6 17 3 18 2 20 1 21 18 22 19 23 20 24 21 25
REMARK SMILES IDX 22 26 23 28 24 29 25 30 83 31 26 32 82 33 27 34 28 35 29 36
REMARK SMILES IDX 76 37 30 38 81 39 75 40 77 41 31 42 80 43 74 44 73 45 32 47
REMARK SMILES IDX 62 48 43 49 61 50 44 51 47 52 60 53 78 54 45 55 46 56 59 58
REMARK SMILES IDX 79 59 48 60 33 61 34 62 42 63 35 64 41 65 36 66 37 67 38 68
REMARK SMILES IDX 39 69 40 70 63 71 64 72 72 73 65 74 71 75 66 76 67 77 68 78
REMARK SMILES IDX 69 79 70 80 49 81 50 82 58 83 51 84 57 85 52 86 53 87 54 88
REMARK SMILES IDX 55 89 56 90
REMARK H PARENT 14 7 3 19 21 27 77 46 47 57
REMARK Flexibility Score: inf
ROOT
ATOM      1  C   UNL A   1      33.645  27.883  23.716  1.00  0.00     0.002 C 
ENDROOT
BRANCH   1   2
ATOM      2  C   UNL A   1      32.956  29.214  23.383  1.00  0.00     0.021 C 
BRANCH   2   3
ATOM      3  C   UNL A   1      31.611  29.411  24.086  1.00  0.00     0.116 C 
BRANCH   3   4
ATOM      4  N   UNL A   1      30.547  29.640  23.126  1.00  0.00    -0.356 N 
ATOM      5  C   UNL A   1      29.494  28.834  22.806  1.00  0.00     0.224 C 
ATOM      6  O   UNL A   1      28.762  29.165  21.870  1.00  0.00    -0.275 OA
ATOM      7  H   UNL A   1      30.591  30.495  22.639  1.00  0.00     0.163 HD
BRANCH   5   8
ATOM      8  C   UNL A   1      29.214  27.586  23.627  1.00  0.00     0.135 C 
BRANCH   8   9
ATOM      9  C   UNL A   1      30.202  26.463  23.413  1.00  0.00    -0.039 A 
ATOM     10  C   UNL A   1      31.965  24.344  22.962  1.00  0.00     0.082 A 
ATOM     11  C   UNL A   1      31.264  24.415  24.168  1.00  0.00     0.022 A 
ATOM     12  C   UNL A   1      31.828  25.340  21.995  1.00  0.00     0.022 A 
ATOM     13  C   UNL A   1      30.386  25.475  24.392  1.00  0.00     0.005 A 
ATOM     14  C   UNL A   1      30.954  26.401  22.227  1.00  0.00     0.005 A 
BRANCH  10  15
ATOM     15  S   UNL A   1      33.024  22.961  22.638  1.00  0.00     0.240 S 
ATOM     16  O   UNL A   1      34.027  23.355  21.675  1.00  0.00    -0.207 OA
ATOM     17  O   UNL A   1      32.181  21.805  22.430  1.00  0.00    -0.207 OA
BRANCH  15  18
ATOM     18  N   UNL A   1      33.791  22.742  24.121  1.00  0.00    -0.211 NA
ATOM     19  H   UNL A   1      33.225  23.213  24.826  1.00  0.00     0.141 HD
BRANCH  18  20
ATOM     20  C   UNL A   1      35.164  23.228  24.271  1.00  0.00     0.095 C 
ATOM     21  C   UNL A   1      35.207  24.283  25.362  1.00  0.00     0.022 C 
ENDBRANCH  18  20
ENDBRANCH  15  18
ENDBRANCH  10  15
ENDBRANCH   8   9
ENDBRANCH   5   8
ENDBRANCH   3   4
ENDBRANCH   2   3
ENDBRANCH   1   2
BRANCH   1  22
ATOM     22  C   UNL A   1      33.422  27.373  25.145  1.00  0.00     0.002 C 
BRANCH  22  23
ATOM     23  C   UNL A   1      34.341  27.984  26.206  1.00  0.00     0.021 C 
BRANCH  23  24
ATOM     24  C   UNL A   1      33.626  28.485  27.457  1.00  0.00     0.116 C 
BRANCH  24  25
ATOM     25  N   UNL A   1      33.640  29.936  27.552  1.00  0.00    -0.352 N 
ATOM     26  C   UNL A   1      34.616  30.768  28.043  1.00  0.00     0.251 C 
ATOM     27  H   UNL A   1      32.833  30.388  27.213  1.00  0.00     0.163 HD
ATOM     28  O   UNL A   1      34.371  31.957  28.226  1.00  0.00    -0.269 OA
BRANCH  26  29
ATOM     29  C   UNL A   1      35.954  30.227  28.369  1.00  0.00     0.039 A 
ATOM     30  C   UNL A   1      36.939  30.217  27.379  1.00  0.00     0.014 A 
ATOM     31  C   UNL A   1      36.232  29.720  29.641  1.00  0.00     0.014 A 
ATOM     32  C   UNL A   1      38.222  29.754  27.683  1.00  0.00     0.010 A 
ATOM     33  C   UNL A   1      37.527  29.323  29.962  1.00  0.00     0.010 A 
ATOM     34  C   UNL A   1      38.536  29.335  28.985  1.00  0.00    -0.014 A 
BRANCH  34  35
ATOM     35  C   UNL A   1      39.915  28.917  29.348  1.00  0.00     0.031 A 
ATOM     36  C   UNL A   1      40.842  29.877  30.046  1.00  0.00     0.074 A 
ATOM     37  C   UNL A   1      40.356  27.695  28.990  1.00  0.00     0.049 A 
ATOM     38  N   UNL A   1      42.095  29.712  30.386  1.00  0.00    -0.248 NA
ATOM     39  C   UNL A   1      40.297  31.202  30.381  1.00  0.00     0.031 C 
ATOM     40  C   UNL A   1      39.570  26.687  28.274  1.00  0.00     0.029 A 
ATOM     41  N   UNL A   1      41.577  27.094  29.171  1.00  0.00    -0.354 N 
ATOM     42  C   UNL A   1      42.493  30.915  30.958  1.00  0.00     0.074 A 
ATOM     43  C   UNL A   1      41.364  31.815  30.876  1.00  0.00     0.031 C 
ATOM     44  C   UNL A   1      40.320  25.587  28.097  1.00  0.00     0.029 A 
ATOM     45  C   UNL A   1      41.649  25.823  28.650  1.00  0.00     0.049 A 
ATOM     46  H   UNL A   1      42.329  27.532  29.631  1.00  0.00     0.167 HD
ATOM     47  C   UNL A   1      43.685  31.235  31.516  1.00  0.00     0.031 A 
ATOM     48  C   UNL A   1      42.673  24.948  28.611  1.00  0.00     0.031 A 
ATOM     49  C   UNL A   1      44.804  30.333  31.606  1.00  0.00     0.049 A 
ATOM     50  C   UNL A   1      43.988  25.327  29.234  1.00  0.00     0.074 A 
ATOM     51  C   UNL A   1      46.032  30.544  32.207  1.00  0.00     0.029 A 
ATOM     52  N   UNL A   1      44.831  29.051  31.079  1.00  0.00    -0.354 N 
ATOM     53  N   UNL A   1      44.323  26.446  29.831  1.00  0.00    -0.248 NA
ATOM     54  C   UNL A   1      45.058  24.322  29.189  1.00  0.00     0.031 C 
ATOM     55  C   UNL A   1      46.822  29.410  31.997  1.00  0.00     0.029 A 
ATOM     56  C   UNL A   1      46.065  28.468  31.318  1.00  0.00     0.049 A 
ATOM     57  H   UNL A   1      44.084  28.618  30.605  1.00  0.00     0.167 HD
ATOM     58  C   UNL A   1      45.635  26.270  30.256  1.00  0.00     0.074 A 
ATOM     59  C   UNL A   1      46.027  24.931  29.860  1.00  0.00     0.031 C 
ATOM     60  C   UNL A   1      46.442  27.137  30.915  1.00  0.00     0.031 A 
BRANCH  47  61
ATOM     61  C   UNL A   1      43.844  32.628  32.067  1.00  0.00    -0.014 A 
ATOM     62  C   UNL A   1      44.318  33.680  31.263  1.00  0.00     0.010 A 
ATOM     63  C   UNL A   1      43.479  32.899  33.399  1.00  0.00     0.010 A 
ATOM     64  C   UNL A   1      44.467  34.965  31.791  1.00  0.00     0.020 A 
ATOM     65  C   UNL A   1      43.597  34.189  33.923  1.00  0.00     0.020 A 
ATOM     66  C   UNL A   1      44.109  35.210  33.121  1.00  0.00     0.054 A 
BRANCH  66  67
ATOM     67  S   UNL A   1      44.296  36.891  33.775  1.00  0.00     0.124 S 
ATOM     68  O   UNL A   1      44.095  36.679  35.207  1.00  0.00    -0.237 OA
ATOM     69  O   UNL A   1      45.658  37.241  33.378  1.00  0.00    -0.237 OA
ATOM     70  O   UNL A   1      43.241  37.646  33.104  1.00  0.00    -0.744 OA
ENDBRANCH  66  67
ENDBRANCH  47  61
BRANCH  48  71
ATOM     71  C   UNL A   1      42.486  23.618  27.969  1.00  0.00    -0.014 A 
ATOM     72  C   UNL A   1      42.860  23.411  26.630  1.00  0.00     0.010 A 
ATOM     73  C   UNL A   1      41.949  22.544  28.703  1.00  0.00     0.010 A 
ATOM     74  C   UNL A   1      42.688  22.160  26.032  1.00  0.00     0.020 A 
ATOM     75  C   UNL A   1      41.801  21.284  28.116  1.00  0.00     0.020 A 
ATOM     76  C   UNL A   1      42.163  21.103  26.780  1.00  0.00     0.054 A 
BRANCH  76  77
ATOM     77  S   UNL A   1      42.004  19.472  26.000  1.00  0.00     0.124 S 
ATOM     78  O   UNL A   1      40.575  19.409  25.716  1.00  0.00    -0.237 OA
ATOM     79  O   UNL A   1      42.878  19.592  24.837  1.00  0.00    -0.237 OA
ATOM     80  O   UNL A   1      42.479  18.554  27.033  1.00  0.00    -0.744 OA
ENDBRANCH  76  77
ENDBRANCH  48  71
BRANCH  60  81
ATOM     81  C   UNL A   1      47.822  26.658  31.281  1.00  0.00    -0.014 A 
ATOM     82  C   UNL A   1      48.079  26.047  32.520  1.00  0.00     0.010 A 
ATOM     83  C   UNL A   1      48.866  26.773  30.344  1.00  0.00     0.010 A 
ATOM     84  C   UNL A   1      49.362  25.586  32.829  1.00  0.00     0.020 A 
ATOM     85  C   UNL A   1      50.143  26.290  30.638  1.00  0.00     0.020 A 
ATOM     86  C   UNL A   1      50.386  25.712  31.885  1.00  0.00     0.054 A 
BRANCH  86  87
ATOM     87  S   UNL A   1      52.032  25.067  32.293  1.00  0.00     0.124 S 
ATOM     88  O   UNL A   1      52.838  25.573  31.184  1.00  0.00    -0.237 OA
ATOM     89  O   UNL A   1      52.301  25.674  33.593  1.00  0.00    -0.237 OA
ATOM     90  O   UNL A   1      51.841  23.618  32.315  1.00  0.00    -0.744 OA
ENDBRANCH  86  87
ENDBRANCH  60  81
ENDBRANCH  34  35
ENDBRANCH  26  29
ENDBRANCH  24  25
ENDBRANCH  23  24
ENDBRANCH  22  23
ENDBRANCH   1  22
TORSDOF 20
ENDMDL
MODEL 2
REMARK VINA RESULT:      -9.4      3.303      3.917
REMARK SMILES CCNS(=O)(=O)c1ccc(CC(=O)NCCCCCCNC(=O)c2ccc(-c3c4nc(c(-c5ccc(S(=O)(=O)[O-])cc5)c5ccc([nH]5)c(-c5ccc(S(=O)(=O)[O-])cc5)c5nc(c(-c6ccc(S(=O)(=O)[O-])cc6)c6ccc3[nH]6)C=C5)C=C4)cc2)cc1
REMARK SMILES IDX 17 1 16 2 15 3 14 4 12 5 13 6 11 8 10 9 7 10 8 11 85 12 9 13
REMARK SMILES IDX 84 14 4 15 5 16 6 17 3 18 2 20 1 21 18 22 19 23 20 24 21 25
REMARK SMILES IDX 22 26 23 28 24 29 25 30 83 31 26 32 82 33 27 34 28 35 29 36
REMARK SMILES IDX 76 37 30 38 81 39 75 40 77 41 31 42 80 43 74 44 73 45 32 47
REMARK SMILES IDX 62 48 43 49 61 50 44 51 47 52 60 53 78 54 45 55 46 56 59 58
REMARK SMILES IDX 79 59 48 60 33 61 34 62 42 63 35 64 41 65 36 66 37 67 38 68
REMARK SMILES IDX 39 69 40 70 63 71 64 72 72 73 65 74 71 75 66 76 67 77 68 78
REMARK SMILES IDX 69 79 70 80 49 81 50 82 58 83 51 84 57 85 52 86 53 87 54 88
REMARK SMILES IDX 55 89 56 90
REMARK H PARENT 14 7 3 19 21 27 77 46 47 57
REMARK Flexibility Score: inf
ROOT
ATOM      1  C   UNL A   1      33.700  28.619  24.624  1.00  0.00     0.002 C 
ENDROOT
BRANCH   1   2
ATOM      2  C   UNL A   1      32.418  28.795  23.798  1.00  0.00     0.021 C 
BRANCH   2   3
ATOM      3  C   UNL A   1      31.130  28.674  24.615  1.00  0.00     0.116 C 
BRANCH   3   4
ATOM      4  N   UNL A   1      30.229  27.698  24.031  1.00  0.00    -0.356 N 
ATOM      5  C   UNL A   1      29.895  26.457  24.491  1.00  0.00     0.224 C 
ATOM      6  O   UNL A   1      29.198  25.732  23.777  1.00  0.00    -0.275 OA
ATOM      7  H   UNL A   1      29.800  27.967  23.187  1.00  0.00     0.163 HD
BRANCH   5   8
ATOM      8  C   UNL A   1      30.340  26.013  25.874  1.00  0.00     0.135 C 
BRANCH   8   9
ATOM      9  C   UNL A   1      31.401  24.936  25.874  1.00  0.00    -0.039 A 
ATOM     10  C   UNL A   1      33.335  22.925  25.785  1.00  0.00     0.082 A 
ATOM     11  C   UNL A   1      32.131  22.695  26.455  1.00  0.00     0.022 A 
ATOM     12  C   UNL A   1      33.603  24.160  25.194  1.00  0.00     0.022 A 
ATOM     13  C   UNL A   1      31.167  23.703  26.499  1.00  0.00     0.005 A 
ATOM     14  C   UNL A   1      32.638  25.164  25.249  1.00  0.00     0.005 A 
BRANCH  10  15
ATOM     15  S   UNL A   1      34.534  21.625  25.657  1.00  0.00     0.240 S 
ATOM     16  O   UNL A   1      35.444  21.716  26.776  1.00  0.00    -0.207 OA
ATOM     17  O   UNL A   1      35.006  21.601  24.291  1.00  0.00    -0.207 OA
BRANCH  15  18
ATOM     18  N   UNL A   1      33.591  20.247  25.869  1.00  0.00    -0.211 NA
ATOM     19  H   UNL A   1      33.808  19.871  26.791  1.00  0.00     0.141 HD
BRANCH  18  20
ATOM     20  C   UNL A   1      33.738  19.151  24.909  1.00  0.00     0.095 C 
ATOM     21  C   UNL A   1      32.483  18.296  24.925  1.00  0.00     0.022 C 
ENDBRANCH  18  20
ENDBRANCH  15  18
ENDBRANCH  10  15
ENDBRANCH   8   9
ENDBRANCH   5   8
ENDBRANCH   3   4
ENDBRANCH   2   3
ENDBRANCH   1   2
BRANCH   1  22
ATOM     22  C   UNL A   1      33.485  28.451  26.133  1.00  0.00     0.002 C 
BRANCH  22  23
ATOM     23  C   UNL A   1      33.899  29.653  26.988  1.00  0.00     0.021 C 
BRANCH  23  24
ATOM     24  C   UNL A   1      35.253  29.510  27.676  1.00  0.00     0.116 C 
BRANCH  24  25
ATOM     25  N   UNL A   1      35.301  30.224  28.942  1.00  0.00    -0.352 N 
ATOM     26  C   UNL A   1      36.324  30.314  29.854  1.00  0.00     0.251 C 
ATOM     27  H   UNL A   1      34.481  30.714  29.180  1.00  0.00     0.163 HD
ATOM     28  O   UNL A   1      36.115  30.797  30.962  1.00  0.00    -0.269 OA
BRANCH  26  29
ATOM     29  C   UNL A   1      37.671  29.811  29.505  1.00  0.00     0.039 A 
ATOM     30  C   UNL A   1      38.078  29.836  28.169  1.00  0.00     0.014 A 
ATOM     31  C   UNL A   1      38.525  29.306  30.489  1.00  0.00     0.014 A 
ATOM     32  C   UNL A   1      39.364  29.411  27.828  1.00  0.00     0.010 A 
ATOM     33  C   UNL A   1      39.829  28.947  30.159  1.00  0.00     0.010 A 
ATOM     34  C   UNL A   1      40.262  28.994  28.824  1.00  0.00    -0.014 A 
BRANCH  34  35
ATOM     35  C   UNL A   1      41.660  28.616  28.491  1.00  0.00     0.031 A 
ATOM     36  C   UNL A   1      42.745  29.659  28.466  1.00  0.00     0.074 A 
ATOM     37  C   UNL A   1      41.941  27.343  28.145  1.00  0.00     0.049 A 
ATOM     38  N   UNL A   1      44.006  29.529  28.141  1.00  0.00    -0.248 NA
ATOM     39  C   UNL A   1      42.357  31.031  28.830  1.00  0.00     0.031 C 
ATOM     40  C   UNL A   1      40.970  26.247  28.089  1.00  0.00     0.029 A 
ATOM     41  N   UNL A   1      43.123  26.759  27.766  1.00  0.00    -0.354 N 
ATOM     42  C   UNL A   1      44.556  30.802  28.243  1.00  0.00     0.074 A 
ATOM     43  C   UNL A   1      43.483  31.697  28.615  1.00  0.00     0.031 C 
ATOM     44  C   UNL A   1      41.601  25.120  27.721  1.00  0.00     0.029 A 
ATOM     45  C   UNL A   1      43.008  25.418  27.477  1.00  0.00     0.049 A 
ATOM     46  H   UNL A   1      43.973  27.251  27.707  1.00  0.00     0.167 HD
ATOM     47  C   UNL A   1      45.843  31.186  28.061  1.00  0.00     0.031 A 
ATOM     48  C   UNL A   1      43.928  24.530  27.053  1.00  0.00     0.031 A 
ATOM     49  C   UNL A   1      46.911  30.291  27.701  1.00  0.00     0.049 A 
ATOM     50  C   UNL A   1      45.348  24.982  26.854  1.00  0.00     0.074 A 
ATOM     51  C   UNL A   1      48.257  30.575  27.554  1.00  0.00     0.029 A 
ATOM     52  N   UNL A   1      46.755  28.940  27.432  1.00  0.00    -0.354 N 
ATOM     53  N   UNL A   1      45.863  26.176  27.022  1.00  0.00    -0.248 NA
ATOM     54  C   UNL A   1      46.314  23.964  26.420  1.00  0.00     0.031 C 
ATOM     55  C   UNL A   1      48.907  29.407  27.142  1.00  0.00     0.029 A 
ATOM     56  C   UNL A   1      47.977  28.381  27.093  1.00  0.00     0.049 A 
ATOM     57  H   UNL A   1      45.902  28.450  27.475  1.00  0.00     0.167 HD
ATOM     58  C   UNL A   1      47.218  26.048  26.739  1.00  0.00     0.074 A 
ATOM     59  C   UNL A   1      47.445  24.656  26.404  1.00  0.00     0.031 C 
ATOM     60  C   UNL A   1      48.187  26.996  26.758  1.00  0.00     0.031 A 
BRANCH  47  61
ATOM     61  C   UNL A   1      46.164  32.647  28.239  1.00  0.00    -0.014 A 
ATOM     62  C   UNL A   1      46.096  33.546  27.159  1.00  0.00     0.010 A 
ATOM     63  C   UNL A   1      46.502  33.139  29.514  1.00  0.00     0.010 A 
ATOM     64  C   UNL A   1      46.404  34.896  27.338  1.00  0.00     0.020 A 
ATOM     65  C   UNL A   1      46.781  34.494  29.705  1.00  0.00     0.020 A 
ATOM     66  C   UNL A   1      46.749  35.362  28.611  1.00  0.00     0.054 A 
BRANCH  66  67
ATOM     67  S   UNL A   1      47.128  37.123  28.819  1.00  0.00     0.124 S 
ATOM     68  O   UNL A   1      48.520  37.184  28.379  1.00  0.00    -0.237 OA
ATOM     69  O   UNL A   1      46.161  37.766  27.934  1.00  0.00    -0.237 OA
ATOM     70  O   UNL A   1      46.915  37.358  30.245  1.00  0.00    -0.744 OA
ENDBRANCH  66  67
ENDBRANCH  47  61
BRANCH  48  71
ATOM     71  C   UNL A   1      43.532  23.117  26.802  1.00  0.00    -0.014 A 
ATOM     72  C   UNL A   1      43.816  22.502  25.571  1.00  0.00     0.010 A 
ATOM     73  C   UNL A   1      42.884  22.372  27.806  1.00  0.00     0.010 A 
ATOM     74  C   UNL A   1      43.448  21.174  25.341  1.00  0.00     0.020 A 
ATOM     75  C   UNL A   1      42.539  21.035  27.589  1.00  0.00     0.020 A 
ATOM     76  C   UNL A   1      42.814  20.447  26.353  1.00  0.00     0.054 A 
BRANCH  76  77
ATOM     77  S   UNL A   1      42.399  18.706  26.053  1.00  0.00     0.124 S 
ATOM     78  O   UNL A   1      40.985  18.787  25.705  1.00  0.00    -0.237 OA
ATOM     79  O   UNL A   1      43.303  18.350  24.963  1.00  0.00    -0.237 OA
ATOM     80  O   UNL A   1      42.694  18.062  27.331  1.00  0.00    -0.744 OA
ENDBRANCH  76  77
ENDBRANCH  48  71
BRANCH  60  81
ATOM     81  C   UNL A   1      49.591  26.558  26.436  1.00  0.00    -0.014 A 
ATOM     82  C   UNL A   1      50.402  25.937  27.401  1.00  0.00     0.010 A 
ATOM     83  C   UNL A   1      50.085  26.722  25.128  1.00  0.00     0.010 A 
ATOM     84  C   UNL A   1      51.694  25.514  27.074  1.00  0.00     0.020 A 
ATOM     85  C   UNL A   1      51.365  26.277  24.789  1.00  0.00     0.020 A 
ATOM     86  C   UNL A   1      52.167  25.689  25.769  1.00  0.00     0.054 A 
BRANCH  86  87
ATOM     87  S   UNL A   1      53.830  25.094  25.357  1.00  0.00     0.124 S 
ATOM     88  O   UNL A   1      53.654  23.644  25.406  1.00  0.00    -0.237 OA
ATOM     89  O   UNL A   1      54.052  25.655  24.028  1.00  0.00    -0.237 OA
ATOM     90  O   UNL A   1      54.671  25.655  26.413  1.00  0.00    -0.744 OA
ENDBRANCH  86  87
ENDBRANCH  60  81
ENDBRANCH  34  35
ENDBRANCH  26  29
ENDBRANCH  24  25
ENDBRANCH  23  24
ENDBRANCH  22  23
ENDBRANCH   1  22
TORSDOF 20
ENDMDL
MODEL 3
REMARK VINA RESULT:      -9.2      4.354     10.686
REMARK SMILES CCNS(=O)(=O)c1ccc(CC(=O)NCCCCCCNC(=O)c2ccc(-c3c4nc(c(-c5ccc(S(=O)(=O)[O-])cc5)c5ccc([nH]5)c(-c5ccc(S(=O)(=O)[O-])cc5)c5nc(c(-c6ccc(S(=O)(=O)[O-])cc6)c6ccc3[nH]6)C=C5)C=C4)cc2)cc1
REMARK SMILES IDX 17 1 16 2 15 3 14 4 12 5 13 6 11 8 10 9 7 10 8 11 85 12 9 13
REMARK SMILES IDX 84 14 4 15 5 16 6 17 3 18 2 20 1 21 18 22 19 23 20 24 21 25
REMARK SMILES IDX 22 26 23 28 24 29 25 30 83 31 26 32 82 33 27 34 28 35 29 36
REMARK SMILES IDX 76 37 30 38 81 39 75 40 77 41 31 42 80 43 74 44 73 45 32 47
REMARK SMILES IDX 62 48 43 49 61 50 44 51 47 52 60 53 78 54 45 55 46 56 59 58
REMARK SMILES IDX 79 59 48 60 33 61 34 62 42 63 35 64 41 65 36 66 37 67 38 68
REMARK SMILES IDX 39 69 40 70 63 71 64 72 72 73 65 74 71 75 66 76 67 77 68 78
REMARK SMILES IDX 69 79 70 80 49 81 50 82 58 83 51 84 57 85 52 86 53 87 54 88
REMARK SMILES IDX 55 89 56 90
REMARK H PARENT 14 7 3 19 21 27 77 46 47 57
REMARK Flexibility Score: inf
ROOT
ATOM      1  C   UNL A   1      42.493  22.080  28.248  1.00  0.00     0.002 C 
ENDROOT
BRANCH   1   2
ATOM      2  C   UNL A   1      42.582  21.639  26.781  1.00  0.00     0.021 C 
BRANCH   2   3
ATOM      3  C   UNL A   1      41.223  21.470  26.098  1.00  0.00     0.116 C 
BRANCH   3   4
ATOM      4  N   UNL A   1      40.351  22.594  26.383  1.00  0.00    -0.356 N 
ATOM      5  C   UNL A   1      39.020  22.735  26.116  1.00  0.00     0.224 C 
ATOM      6  O   UNL A   1      38.488  23.826  26.334  1.00  0.00    -0.275 OA
ATOM      7  H   UNL A   1      40.778  23.361  26.829  1.00  0.00     0.163 HD
BRANCH   5   8
ATOM      8  C   UNL A   1      38.216  21.549  25.610  1.00  0.00     0.135 C 
BRANCH   8   9
ATOM      9  C   UNL A   1      36.929  21.920  24.908  1.00  0.00    -0.039 A 
ATOM     10  C   UNL A   1      34.564  22.693  23.643  1.00  0.00     0.082 A 
ATOM     11  C   UNL A   1      34.504  21.997  24.852  1.00  0.00     0.022 A 
ATOM     12  C   UNL A   1      35.789  22.972  23.037  1.00  0.00     0.022 A 
ATOM     13  C   UNL A   1      35.688  21.610  25.481  1.00  0.00     0.005 A 
ATOM     14  C   UNL A   1      36.967  22.576  23.667  1.00  0.00     0.005 A 
BRANCH  10  15
ATOM     15  S   UNL A   1      33.069  23.256  22.875  1.00  0.00     0.240 S 
ATOM     16  O   UNL A   1      32.233  22.113  22.585  1.00  0.00    -0.207 OA
ATOM     17  O   UNL A   1      33.436  24.211  21.853  1.00  0.00    -0.207 OA
BRANCH  15  18
ATOM     18  N   UNL A   1      32.337  24.130  24.115  1.00  0.00    -0.211 NA
ATOM     19  H   UNL A   1      32.933  24.042  24.938  1.00  0.00     0.141 HD
BRANCH  18  20
ATOM     20  C   UNL A   1      30.980  23.757  24.520  1.00  0.00     0.095 C 
ATOM     21  C   UNL A   1      31.052  22.664  25.571  1.00  0.00     0.022 C 
ENDBRANCH  18  20
ENDBRANCH  15  18
ENDBRANCH  10  15
ENDBRANCH   8   9
ENDBRANCH   5   8
ENDBRANCH   3   4
ENDBRANCH   2   3
ENDBRANCH   1   2
BRANCH   1  22
ATOM     22  C   UNL A   1      43.478  23.181  28.659  1.00  0.00     0.002 C 
BRANCH  22  23
ATOM     23  C   UNL A   1      44.655  23.393  27.703  1.00  0.00     0.021 C 
BRANCH  23  24
ATOM     24  C   UNL A   1      44.679  24.752  27.011  1.00  0.00     0.116 C 
BRANCH  24  25
ATOM     25  N   UNL A   1      43.673  24.851  25.965  1.00  0.00    -0.352 N 
ATOM     26  C   UNL A   1      42.461  25.497  25.979  1.00  0.00     0.251 C 
ATOM     27  H   UNL A   1      43.894  24.388  25.124  1.00  0.00     0.163 HD
ATOM     28  O   UNL A   1      41.656  25.305  25.073  1.00  0.00    -0.269 OA
BRANCH  26  29
ATOM     29  C   UNL A   1      42.122  26.407  27.094  1.00  0.00     0.039 A 
ATOM     30  C   UNL A   1      41.230  25.970  28.076  1.00  0.00     0.014 A 
ATOM     31  C   UNL A   1      42.670  27.690  27.165  1.00  0.00     0.014 A 
ATOM     32  C   UNL A   1      40.935  26.797  29.163  1.00  0.00     0.010 A 
ATOM     33  C   UNL A   1      42.430  28.486  28.282  1.00  0.00     0.010 A 
ATOM     34  C   UNL A   1      41.558  28.049  29.292  1.00  0.00    -0.014 A 
BRANCH  34  35
ATOM     35  C   UNL A   1      41.321  28.908  30.481  1.00  0.00     0.031 A 
ATOM     36  C   UNL A   1      42.160  28.742  31.720  1.00  0.00     0.074 A 
ATOM     37  C   UNL A   1      40.305  29.794  30.470  1.00  0.00     0.049 A 
ATOM     38  N   UNL A   1      42.061  29.356  32.871  1.00  0.00    -0.248 NA
ATOM     39  C   UNL A   1      43.234  27.736  31.666  1.00  0.00     0.031 C 
ATOM     40  C   UNL A   1      39.392  30.022  29.346  1.00  0.00     0.029 A 
ATOM     41  N   UNL A   1      39.863  30.662  31.436  1.00  0.00    -0.354 N 
ATOM     42  C   UNL A   1      43.044  28.801  33.682  1.00  0.00     0.074 A 
ATOM     43  C   UNL A   1      43.697  27.769  32.907  1.00  0.00     0.031 C 
ATOM     44  C   UNL A   1      38.515  30.982  29.680  1.00  0.00     0.029 A 
ATOM     45  C   UNL A   1      38.775  31.410  31.050  1.00  0.00     0.049 A 
ATOM     46  H   UNL A   1      40.285  30.742  32.322  1.00  0.00     0.167 HD
ATOM     47  C   UNL A   1      43.384  29.133  34.951  1.00  0.00     0.031 A 
ATOM     48  C   UNL A   1      38.059  32.331  31.724  1.00  0.00     0.031 A 
ATOM     49  C   UNL A   1      42.739  30.168  35.716  1.00  0.00     0.049 A 
ATOM     50  C   UNL A   1      38.453  32.680  33.134  1.00  0.00     0.074 A 
ATOM     51  C   UNL A   1      43.051  30.619  36.986  1.00  0.00     0.029 A 
ATOM     52  N   UNL A   1      41.652  30.912  35.283  1.00  0.00    -0.354 N 
ATOM     53  N   UNL A   1      39.429  32.191  33.860  1.00  0.00    -0.248 NA
ATOM     54  C   UNL A   1      37.655  33.712  33.809  1.00  0.00     0.031 C 
ATOM     55  C   UNL A   1      42.119  31.599  37.344  1.00  0.00     0.029 A 
ATOM     56  C   UNL A   1      41.263  31.801  36.272  1.00  0.00     0.049 A 
ATOM     57  H   UNL A   1      41.219  30.821  34.403  1.00  0.00     0.167 HD
ATOM     58  C   UNL A   1      39.381  32.875  35.069  1.00  0.00     0.074 A 
ATOM     59  C   UNL A   1      38.287  33.822  34.970  1.00  0.00     0.031 C 
ATOM     60  C   UNL A   1      40.171  32.734  36.162  1.00  0.00     0.031 A 
BRANCH  47  61
ATOM     61  C   UNL A   1      44.502  28.358  35.598  1.00  0.00    -0.014 A 
ATOM     62  C   UNL A   1      44.256  27.147  36.270  1.00  0.00     0.010 A 
ATOM     63  C   UNL A   1      45.825  28.827  35.500  1.00  0.00     0.010 A 
ATOM     64  C   UNL A   1      45.303  26.443  36.870  1.00  0.00     0.020 A 
ATOM     65  C   UNL A   1      46.880  28.111  36.073  1.00  0.00     0.020 A 
ATOM     66  C   UNL A   1      46.609  26.933  36.772  1.00  0.00     0.054 A 
BRANCH  66  67
ATOM     67  S   UNL A   1      47.951  25.991  37.547  1.00  0.00     0.124 S 
ATOM     68  O   UNL A   1      48.380  26.899  38.608  1.00  0.00    -0.237 OA
ATOM     69  O   UNL A   1      47.275  24.777  37.995  1.00  0.00    -0.237 OA
ATOM     70  O   UNL A   1      48.913  25.802  36.464  1.00  0.00    -0.744 OA
ENDBRANCH  66  67
ENDBRANCH  47  61
BRANCH  48  71
ATOM     71  C   UNL A   1      36.903  32.999  31.065  1.00  0.00    -0.014 A 
ATOM     72  C   UNL A   1      37.080  33.726  29.876  1.00  0.00     0.010 A 
ATOM     73  C   UNL A   1      35.612  32.892  31.618  1.00  0.00     0.010 A 
ATOM     74  C   UNL A   1      35.991  34.347  29.257  1.00  0.00     0.020 A 
ATOM     75  C   UNL A   1      34.518  33.489  30.987  1.00  0.00     0.020 A 
ATOM     76  C   UNL A   1      34.716  34.222  29.815  1.00  0.00     0.054 A 
BRANCH  76  77
ATOM     77  S   UNL A   1      33.308  34.986  28.962  1.00  0.00     0.124 S 
ATOM     78  O   UNL A   1      32.983  33.983  27.954  1.00  0.00    -0.237 OA
ATOM     79  O   UNL A   1      32.335  35.143  30.039  1.00  0.00    -0.237 OA
ATOM     80  O   UNL A   1      33.862  36.237  28.447  1.00  0.00    -0.744 OA
ENDBRANCH  76  77
ENDBRANCH  48  71
BRANCH  60  81
ATOM     81  C   UNL A   1      39.905  33.644  37.332  1.00  0.00    -0.014 A 
ATOM     82  C   UNL A   1      40.344  34.979  37.333  1.00  0.00     0.010 A 
ATOM     83  C   UNL A   1      39.154  33.168  38.422  1.00  0.00     0.010 A 
ATOM     84  C   UNL A   1      40.064  35.814  38.419  1.00  0.00     0.020 A 
ATOM     85  C   UNL A   1      38.849  34.006  39.497  1.00  0.00     0.020 A 
ATOM     86  C   UNL A   1      39.319  35.321  39.494  1.00  0.00     0.054 A 
BRANCH  86  87
ATOM     87  S   UNL A   1      38.931  36.436  40.871  1.00  0.00     0.124 S 
ATOM     88  O   UNL A   1      40.205  36.495  41.582  1.00  0.00    -0.237 OA
ATOM     89  O   UNL A   1      38.536  37.664  40.188  1.00  0.00    -0.237 OA
ATOM     90  O   UNL A   1      37.852  35.750  41.581  1.00  0.00    -0.744 OA
ENDBRANCH  86  87
ENDBRANCH  60  81
ENDBRANCH  34  35
ENDBRANCH  26  29
ENDBRANCH  24  25
ENDBRANCH  23  24
ENDBRANCH  22  23
ENDBRANCH   1  22
TORSDOF 20
ENDMDL
