MODEL 1
REMARK VINA RESULT:     -11.1      0.000      0.000
REMARK SMILES Cc1cc(C(=O)NCCCCCCNC(=O)c2ccc(-c3c4nc(c(-c5ccc(S(=O)(=O)[O-])cc5)c5ccc([nH]5)c(-c5ccc(S(=O)(=O)[O-])cc5)c5nc(c(-c6ccc(S(=O)(=O)[O-])cc6)c6ccc3[nH]6)C=C5)C=C4)cc2)nc(N2CCN(c3ccccc3Cl)CC2)n1
REMARK SMILES IDX 11 1 10 2 9 3 8 4 7 5 5 6 6 7 4 9 1 10 2 11 3 12 92 13 78 14
REMARK SMILES IDX 77 15 79 16 80 17 91 18 81 19 90 20 82 21 83 22 84 23 88 24
REMARK SMILES IDX 85 25 87 26 89 27 86 28 12 29 13 30 14 31 15 32 16 34 17 35
REMARK SMILES IDX 18 36 76 37 19 38 75 39 20 40 21 41 22 42 69 43 23 44 74 45
REMARK SMILES IDX 68 46 70 47 24 48 73 49 67 50 66 51 25 53 55 54 36 55 54 56
REMARK SMILES IDX 37 57 40 58 53 59 71 60 38 61 39 62 52 64 72 65 41 66 26 67
REMARK SMILES IDX 27 68 35 69 28 70 34 71 29 72 30 73 31 74 32 75 33 76 56 77
REMARK SMILES IDX 57 78 65 79 58 80 64 81 59 82 60 83 61 84 62 85 63 86 42 87
REMARK SMILES IDX 43 88 51 89 44 90 50 91 45 92 46 93 47 94 48 95 49 96
REMARK H PARENT 7 8 14 33 70 52 40 63
REMARK Flexibility Score: inf
ROOT
ATOM      1  C   UNL A   1      34.785  33.389  28.295  1.00  0.00     0.002 C 
ENDROOT
BRANCH   1   2
ATOM      2  C   UNL A   1      34.588  31.868  28.350  1.00  0.00     0.002 C 
BRANCH   2   3
ATOM      3  C   UNL A   1      33.582  31.323  27.326  1.00  0.00     0.021 C 
BRANCH   3   4
ATOM      4  C   UNL A   1      33.831  29.853  26.993  1.00  0.00     0.116 C 
BRANCH   4   5
ATOM      5  N   UNL A   1      32.871  29.044  27.705  1.00  0.00    -0.351 N 
ATOM      6  C   UNL A   1      31.885  28.189  27.291  1.00  0.00     0.270 C 
ATOM      7  O   UNL A   1      31.123  27.780  28.173  1.00  0.00    -0.268 OA
ATOM      8  H   UNL A   1      32.940  29.122  28.684  1.00  0.00     0.163 HD
BRANCH   6   9
ATOM      9  C   UNL A   1      31.739  27.683  25.883  1.00  0.00     0.133 A 
ATOM     10  C   UNL A   1      30.692  28.394  22.375  1.00  0.00     0.067 C 
ATOM     11  C   UNL A   1      31.264  27.737  23.597  1.00  0.00     0.044 A 
ATOM     12  C   UNL A   1      31.096  28.308  24.844  1.00  0.00     0.058 A 
ATOM     13  N   UNL A   1      31.911  26.567  23.415  1.00  0.00    -0.218 NA
ATOM     14  C   UNL A   1      32.370  25.949  24.508  1.00  0.00     0.226 A 
ATOM     15  N   UNL A   1      32.337  26.493  25.721  1.00  0.00    -0.208 NA
BRANCH  14  16
ATOM     16  N   UNL A   1      32.861  24.673  24.454  1.00  0.00    -0.337 N 
ATOM     17  C   UNL A   1      33.061  23.996  23.179  1.00  0.00     0.141 C 
ATOM     18  C   UNL A   1      32.424  23.831  25.578  1.00  0.00     0.141 C 
ATOM     19  C   UNL A   1      34.065  22.831  23.379  1.00  0.00     0.138 C 
ATOM     20  C   UNL A   1      33.385  22.649  25.772  1.00  0.00     0.138 C 
ATOM     21  N   UNL A   1      33.624  21.973  24.489  1.00  0.00    -0.367 N 
BRANCH  21  22
ATOM     22  C   UNL A   1      33.626  20.600  24.401  1.00  0.00     0.056 A 
ATOM     23  C   UNL A   1      32.451  19.926  24.037  1.00  0.00     0.027 A 
ATOM     24  C   UNL A   1      34.767  19.816  24.675  1.00  0.00     0.064 A 
ATOM     25  C   UNL A   1      32.408  18.532  23.944  1.00  0.00     0.002 A 
ATOM     26  C   UNL A   1      34.724  18.421  24.592  1.00  0.00     0.023 A 
ATOM     27  Cl  UNL A   1      36.259  20.521  25.206  1.00  0.00    -0.082 Cl
ATOM     28  C   UNL A   1      33.546  17.779  24.226  1.00  0.00     0.002 A 
ENDBRANCH  21  22
ENDBRANCH  14  16
ENDBRANCH   6   9
ENDBRANCH   4   5
ENDBRANCH   3   4
ENDBRANCH   2   3
ENDBRANCH   1   2
BRANCH   1  29
ATOM     29  C   UNL A   1      33.486  34.197  28.362  1.00  0.00     0.021 C 
BRANCH  29  30
ATOM     30  C   UNL A   1      33.647  35.560  29.027  1.00  0.00     0.116 C 
BRANCH  30  31
ATOM     31  N   UNL A   1      32.787  35.681  30.193  1.00  0.00    -0.352 N 
ATOM     32  C   UNL A   1      32.912  35.087  31.423  1.00  0.00     0.251 C 
ATOM     33  H   UNL A   1      32.007  36.273  30.085  1.00  0.00     0.163 HD
ATOM     34  O   UNL A   1      31.967  35.080  32.203  1.00  0.00    -0.269 OA
BRANCH  32  35
ATOM     35  C   UNL A   1      34.192  34.449  31.794  1.00  0.00     0.039 A 
ATOM     36  C   UNL A   1      35.377  35.177  31.666  1.00  0.00     0.014 A 
ATOM     37  C   UNL A   1      34.221  33.129  32.257  1.00  0.00     0.014 A 
ATOM     38  C   UNL A   1      36.587  34.596  32.048  1.00  0.00     0.010 A 
ATOM     39  C   UNL A   1      35.417  32.579  32.706  1.00  0.00     0.010 A 
ATOM     40  C   UNL A   1      36.613  33.304  32.597  1.00  0.00    -0.014 A 
BRANCH  40  41
ATOM     41  C   UNL A   1      37.883  32.689  33.060  1.00  0.00     0.031 A 
ATOM     42  C   UNL A   1      38.394  32.968  34.449  1.00  0.00     0.074 A 
ATOM     43  C   UNL A   1      38.603  31.929  32.211  1.00  0.00     0.049 A 
ATOM     44  N   UNL A   1      39.504  32.566  35.013  1.00  0.00    -0.248 NA
ATOM     45  C   UNL A   1      37.563  33.827  35.307  1.00  0.00     0.031 C 
ATOM     46  C   UNL A   1      38.230  31.617  30.829  1.00  0.00     0.029 A 
ATOM     47  N   UNL A   1      39.801  31.283  32.383  1.00  0.00    -0.354 N 
ATOM     48  C   UNL A   1      39.514  33.137  36.279  1.00  0.00     0.074 A 
ATOM     49  C   UNL A   1      38.323  33.951  36.385  1.00  0.00     0.031 C 
ATOM     50  C   UNL A   1      39.164  30.817  30.290  1.00  0.00     0.029 A 
ATOM     51  C   UNL A   1      40.223  30.595  31.269  1.00  0.00     0.049 A 
ATOM     52  H   UNL A   1      40.311  31.311  33.225  1.00  0.00     0.167 HD
ATOM     53  C   UNL A   1      40.422  32.984  37.272  1.00  0.00     0.031 A 
ATOM     54  C   UNL A   1      41.339  29.872  31.058  1.00  0.00     0.031 A 
ATOM     55  C   UNL A   1      41.598  32.160  37.166  1.00  0.00     0.049 A 
ATOM     56  C   UNL A   1      42.339  29.728  32.174  1.00  0.00     0.074 A 
ATOM     57  C   UNL A   1      42.547  31.889  38.136  1.00  0.00     0.029 A 
ATOM     58  N   UNL A   1      41.986  31.475  36.025  1.00  0.00    -0.354 N 
ATOM     59  N   UNL A   1      42.295  30.220  33.389  1.00  0.00    -0.248 NA
ATOM     60  C   UNL A   1      43.535  28.920  31.893  1.00  0.00     0.031 C 
ATOM     61  C   UNL A   1      43.540  31.089  37.563  1.00  0.00     0.029 A 
ATOM     62  C   UNL A   1      43.175  30.806  36.257  1.00  0.00     0.049 A 
ATOM     63  H   UNL A   1      41.489  31.467  35.175  1.00  0.00     0.167 HD
ATOM     64  C   UNL A   1      43.440  29.756  34.026  1.00  0.00     0.074 A 
ATOM     65  C   UNL A   1      44.148  28.933  33.068  1.00  0.00     0.031 C 
ATOM     66  C   UNL A   1      43.866  29.988  35.293  1.00  0.00     0.031 A 
BRANCH  53  67
ATOM     67  C   UNL A   1      40.186  33.726  38.561  1.00  0.00    -0.014 A 
ATOM     68  C   UNL A   1      39.541  33.113  39.649  1.00  0.00     0.010 A 
ATOM     69  C   UNL A   1      40.668  35.041  38.707  1.00  0.00     0.010 A 
ATOM     70  C   UNL A   1      39.350  33.809  40.846  1.00  0.00     0.020 A 
ATOM     71  C   UNL A   1      40.506  35.731  39.911  1.00  0.00     0.020 A 
ATOM     72  C   UNL A   1      39.834  35.115  40.968  1.00  0.00     0.054 A 
BRANCH  72  73
ATOM     73  S   UNL A   1      39.604  35.982  42.545  1.00  0.00     0.124 S 
ATOM     74  O   UNL A   1      39.578  37.378  42.120  1.00  0.00    -0.237 OA
ATOM     75  O   UNL A   1      38.332  35.445  43.022  1.00  0.00    -0.237 OA
ATOM     76  O   UNL A   1      40.775  35.593  43.329  1.00  0.00    -0.744 OA
ENDBRANCH  72  73
ENDBRANCH  53  67
BRANCH  54  77
ATOM     77  C   UNL A   1      41.568  29.218  29.739  1.00  0.00    -0.014 A 
ATOM     78  C   UNL A   1      42.266  29.891  28.721  1.00  0.00     0.010 A 
ATOM     79  C   UNL A   1      41.088  27.918  29.496  1.00  0.00     0.010 A 
ATOM     80  C   UNL A   1      42.454  29.287  27.473  1.00  0.00     0.020 A 
ATOM     81  C   UNL A   1      41.302  27.299  28.261  1.00  0.00     0.020 A 
ATOM     82  C   UNL A   1      41.972  27.995  27.252  1.00  0.00     0.054 A 
BRANCH  82  83
ATOM     83  S   UNL A   1      42.260  27.218  25.638  1.00  0.00     0.124 S 
ATOM     84  O   UNL A   1      41.113  26.323  25.523  1.00  0.00    -0.237 OA
ATOM     85  O   UNL A   1      42.264  28.364  24.733  1.00  0.00    -0.237 OA
ATOM     86  O   UNL A   1      43.555  26.560  25.803  1.00  0.00    -0.744 OA
ENDBRANCH  82  83
ENDBRANCH  54  77
BRANCH  66  87
ATOM     87  C   UNL A   1      45.138  29.312  35.732  1.00  0.00    -0.014 A 
ATOM     88  C   UNL A   1      45.127  28.021  36.287  1.00  0.00     0.010 A 
ATOM     89  C   UNL A   1      46.370  29.963  35.533  1.00  0.00     0.010 A 
ATOM     90  C   UNL A   1      46.323  27.406  36.665  1.00  0.00     0.020 A 
ATOM     91  C   UNL A   1      47.570  29.339  35.880  1.00  0.00     0.020 A 
ATOM     92  C   UNL A   1      47.537  28.068  36.458  1.00  0.00     0.054 A 
BRANCH  92  93
ATOM     93  S   UNL A   1      49.079  27.228  36.915  1.00  0.00     0.124 S 
ATOM     94  O   UNL A   1      49.993  28.353  37.102  1.00  0.00    -0.237 OA
ATOM     95  O   UNL A   1      48.704  26.514  38.134  1.00  0.00    -0.237 OA
ATOM     96  O   UNL A   1      49.365  26.377  35.763  1.00  0.00    -0.744 OA
ENDBRANCH  92  93
ENDBRANCH  66  87
ENDBRANCH  40  41
ENDBRANCH  32  35
ENDBRANCH  30  31
ENDBRANCH  29  30
ENDBRANCH   1  29
TORSDOF 18
ENDMDL
MODEL 2
REMARK VINA RESULT:     -11.0      6.519     12.177
REMARK SMILES Cc1cc(C(=O)NCCCCCCNC(=O)c2ccc(-c3c4nc(c(-c5ccc(S(=O)(=O)[O-])cc5)c5ccc([nH]5)c(-c5ccc(S(=O)(=O)[O-])cc5)c5nc(c(-c6ccc(S(=O)(=O)[O-])cc6)c6ccc3[nH]6)C=C5)C=C4)cc2)nc(N2CCN(c3ccccc3Cl)CC2)n1
REMARK SMILES IDX 11 1 10 2 9 3 8 4 7 5 5 6 6 7 4 9 1 10 2 11 3 12 92 13 78 14
REMARK SMILES IDX 77 15 79 16 80 17 91 18 81 19 90 20 82 21 83 22 84 23 88 24
REMARK SMILES IDX 85 25 87 26 89 27 86 28 12 29 13 30 14 31 15 32 16 34 17 35
REMARK SMILES IDX 18 36 76 37 19 38 75 39 20 40 21 41 22 42 69 43 23 44 74 45
REMARK SMILES IDX 68 46 70 47 24 48 73 49 67 50 66 51 25 53 55 54 36 55 54 56
REMARK SMILES IDX 37 57 40 58 53 59 71 60 38 61 39 62 52 64 72 65 41 66 26 67
REMARK SMILES IDX 27 68 35 69 28 70 34 71 29 72 30 73 31 74 32 75 33 76 56 77
REMARK SMILES IDX 57 78 65 79 58 80 64 81 59 82 60 83 61 84 62 85 63 86 42 87
REMARK SMILES IDX 43 88 51 89 44 90 50 91 45 92 46 93 47 94 48 95 49 96
REMARK H PARENT 7 8 14 33 70 52 40 63
REMARK Flexibility Score: inf
ROOT
ATOM      1  C   UNL A   1      39.770  22.875  26.515  1.00  0.00     0.002 C 
ENDROOT
BRANCH   1   2
ATOM      2  C   UNL A   1      38.629  23.899  26.442  1.00  0.00     0.002 C 
BRANCH   2   3
ATOM      3  C   UNL A   1      37.480  23.499  25.506  1.00  0.00     0.021 C 
BRANCH   3   4
ATOM      4  C   UNL A   1      36.118  23.942  26.039  1.00  0.00     0.116 C 
BRANCH   4   5
ATOM      5  N   UNL A   1      35.525  22.849  26.771  1.00  0.00    -0.351 N 
ATOM      6  C   UNL A   1      34.389  22.108  26.580  1.00  0.00     0.270 C 
ATOM      7  O   UNL A   1      34.083  21.346  27.503  1.00  0.00    -0.268 OA
ATOM      8  H   UNL A   1      36.040  22.582  27.566  1.00  0.00     0.163 HD
BRANCH   6   9
ATOM      9  C   UNL A   1      33.572  22.121  25.318  1.00  0.00     0.133 A 
ATOM     10  C   UNL A   1      32.133  20.178  22.478  1.00  0.00     0.067 C 
ATOM     11  C   UNL A   1      32.460  21.279  23.445  1.00  0.00     0.044 A 
ATOM     12  C   UNL A   1      33.416  21.091  24.425  1.00  0.00     0.058 A 
ATOM     13  N   UNL A   1      31.803  22.447  23.286  1.00  0.00    -0.218 NA
ATOM     14  C   UNL A   1      32.134  23.449  24.107  1.00  0.00     0.226 A 
ATOM     15  N   UNL A   1      32.964  23.303  25.135  1.00  0.00    -0.208 NA
BRANCH  14  16
ATOM     16  N   UNL A   1      31.674  24.721  23.903  1.00  0.00    -0.337 N 
ATOM     17  C   UNL A   1      30.900  25.414  24.925  1.00  0.00     0.141 C 
ATOM     18  C   UNL A   1      31.299  24.989  22.507  1.00  0.00     0.141 C 
ATOM     19  C   UNL A   1      30.960  26.941  24.653  1.00  0.00     0.138 C 
ATOM     20  C   UNL A   1      31.317  26.499  22.223  1.00  0.00     0.138 C 
ATOM     21  N   UNL A   1      30.569  27.218  23.263  1.00  0.00    -0.367 N 
BRANCH  21  22
ATOM     22  C   UNL A   1      29.698  28.233  22.935  1.00  0.00     0.056 A 
ATOM     23  C   UNL A   1      30.189  29.407  22.346  1.00  0.00     0.027 A 
ATOM     24  C   UNL A   1      28.309  28.157  23.177  1.00  0.00     0.064 A 
ATOM     25  C   UNL A   1      29.339  30.463  22.006  1.00  0.00     0.002 A 
ATOM     26  C   UNL A   1      27.458  29.217  22.847  1.00  0.00     0.023 A 
ATOM     27  Cl  UNL A   1      27.587  26.794  23.966  1.00  0.00    -0.082 Cl
ATOM     28  C   UNL A   1      27.973  30.369  22.261  1.00  0.00     0.002 A 
ENDBRANCH  21  22
ENDBRANCH  14  16
ENDBRANCH   6   9
ENDBRANCH   4   5
ENDBRANCH   3   4
ENDBRANCH   2   3
ENDBRANCH   1   2
BRANCH   1  29
ATOM     29  C   UNL A   1      39.309  21.427  26.702  1.00  0.00     0.021 C 
BRANCH  29  30
ATOM     30  C   UNL A   1      39.778  20.487  25.597  1.00  0.00     0.116 C 
BRANCH  30  31
ATOM     31  N   UNL A   1      40.685  19.477  26.116  1.00  0.00    -0.352 N 
ATOM     32  C   UNL A   1      41.997  19.608  26.496  1.00  0.00     0.251 C 
ATOM     33  H   UNL A   1      40.306  18.572  26.209  1.00  0.00     0.163 HD
ATOM     34  O   UNL A   1      42.694  18.613  26.657  1.00  0.00    -0.269 OA
BRANCH  32  35
ATOM     35  C   UNL A   1      42.562  20.957  26.701  1.00  0.00     0.039 A 
ATOM     36  C   UNL A   1      42.938  21.713  25.590  1.00  0.00     0.014 A 
ATOM     37  C   UNL A   1      42.730  21.468  27.993  1.00  0.00     0.014 A 
ATOM     38  C   UNL A   1      43.440  23.004  25.772  1.00  0.00     0.010 A 
ATOM     39  C   UNL A   1      43.160  22.780  28.168  1.00  0.00     0.010 A 
ATOM     40  C   UNL A   1      43.528  23.557  27.060  1.00  0.00    -0.014 A 
BRANCH  40  41
ATOM     41  C   UNL A   1      44.006  24.946  27.270  1.00  0.00     0.031 A 
ATOM     42  C   UNL A   1      45.451  25.292  27.025  1.00  0.00     0.074 A 
ATOM     43  C   UNL A   1      43.154  25.881  27.735  1.00  0.00     0.049 A 
ATOM     44  N   UNL A   1      46.066  26.433  27.203  1.00  0.00    -0.248 NA
ATOM     45  C   UNL A   1      46.324  24.211  26.541  1.00  0.00     0.031 C 
ATOM     46  C   UNL A   1      41.739  25.658  28.045  1.00  0.00     0.029 A 
ATOM     47  N   UNL A   1      43.353  27.205  28.034  1.00  0.00    -0.354 N 
ATOM     48  C   UNL A   1      47.396  26.203  26.872  1.00  0.00     0.074 A 
ATOM     49  C   UNL A   1      47.509  24.803  26.528  1.00  0.00     0.031 C 
ATOM     50  C   UNL A   1      41.193  26.812  28.461  1.00  0.00     0.029 A 
ATOM     51  C   UNL A   1      42.224  27.844  28.491  1.00  0.00     0.049 A 
ATOM     52  H   UNL A   1      44.223  27.655  27.932  1.00  0.00     0.167 HD
ATOM     53  C   UNL A   1      48.426  27.081  26.839  1.00  0.00     0.031 A 
ATOM     54  C   UNL A   1      42.040  29.116  28.895  1.00  0.00     0.031 A 
ATOM     55  C   UNL A   1      48.303  28.477  27.168  1.00  0.00     0.049 A 
ATOM     56  C   UNL A   1      43.205  30.069  28.861  1.00  0.00     0.074 A 
ATOM     57  C   UNL A   1      49.273  29.463  27.106  1.00  0.00     0.029 A 
ATOM     58  N   UNL A   1      47.142  29.086  27.620  1.00  0.00    -0.354 N 
ATOM     59  N   UNL A   1      44.440  29.847  28.478  1.00  0.00    -0.248 NA
ATOM     60  C   UNL A   1      42.948  31.446  29.304  1.00  0.00     0.031 C 
ATOM     61  C   UNL A   1      48.714  30.655  27.577  1.00  0.00     0.029 A 
ATOM     62  C   UNL A   1      47.378  30.427  27.868  1.00  0.00     0.049 A 
ATOM     63  H   UNL A   1      46.278  28.632  27.745  1.00  0.00     0.167 HD
ATOM     64  C   UNL A   1      45.098  31.066  28.604  1.00  0.00     0.074 A 
ATOM     65  C   UNL A   1      44.121  32.022  29.084  1.00  0.00     0.031 C 
ATOM     66  C   UNL A   1      46.394  31.367  28.343  1.00  0.00     0.031 A 
BRANCH  53  67
ATOM     67  C   UNL A   1      49.781  26.560  26.439  1.00  0.00    -0.014 A 
ATOM     68  C   UNL A   1      50.213  26.600  25.102  1.00  0.00     0.010 A 
ATOM     69  C   UNL A   1      50.660  26.073  27.426  1.00  0.00     0.010 A 
ATOM     70  C   UNL A   1      51.483  26.133  24.752  1.00  0.00     0.020 A 
ATOM     71  C   UNL A   1      51.941  25.632  27.085  1.00  0.00     0.020 A 
ATOM     72  C   UNL A   1      52.339  25.651  25.747  1.00  0.00     0.054 A 
BRANCH  72  73
ATOM     73  S   UNL A   1      53.994  25.085  25.268  1.00  0.00     0.124 S 
ATOM     74  O   UNL A   1      53.735  23.705  24.867  1.00  0.00    -0.237 OA
ATOM     75  O   UNL A   1      54.343  25.999  24.184  1.00  0.00    -0.237 OA
ATOM     76  O   UNL A   1      54.782  25.240  26.489  1.00  0.00    -0.744 OA
ENDBRANCH  72  73
ENDBRANCH  53  67
BRANCH  54  77
ATOM     77  C   UNL A   1      40.698  29.568  29.357  1.00  0.00    -0.014 A 
ATOM     78  C   UNL A   1      39.691  29.882  28.427  1.00  0.00     0.010 A 
ATOM     79  C   UNL A   1      40.422  29.687  30.731  1.00  0.00     0.010 A 
ATOM     80  C   UNL A   1      38.442  30.335  28.862  1.00  0.00     0.020 A 
ATOM     81  C   UNL A   1      39.163  30.110  31.170  1.00  0.00     0.020 A 
ATOM     82  C   UNL A   1      38.186  30.445  30.231  1.00  0.00     0.054 A 
BRANCH  82  83
ATOM     83  S   UNL A   1      36.545  31.000  30.773  1.00  0.00     0.124 S 
ATOM     84  O   UNL A   1      36.233  30.040  31.826  1.00  0.00    -0.237 OA
ATOM     85  O   UNL A   1      36.806  32.367  31.215  1.00  0.00    -0.237 OA
ATOM     86  O   UNL A   1      35.732  30.889  29.563  1.00  0.00    -0.744 OA
ENDBRANCH  82  83
ENDBRANCH  54  77
BRANCH  66  87
ATOM     87  C   UNL A   1      46.826  32.797  28.532  1.00  0.00    -0.014 A 
ATOM     88  C   UNL A   1      46.739  33.732  27.487  1.00  0.00     0.010 A 
ATOM     89  C   UNL A   1      47.277  33.221  29.796  1.00  0.00     0.010 A 
ATOM     90  C   UNL A   1      47.123  35.060  27.694  1.00  0.00     0.020 A 
ATOM     91  C   UNL A   1      47.632  34.554  30.016  1.00  0.00     0.020 A 
ATOM     92  C   UNL A   1      47.567  35.462  28.957  1.00  0.00     0.054 A 
BRANCH  92  93
ATOM     93  S   UNL A   1      48.017  37.201  29.212  1.00  0.00     0.124 S 
ATOM     94  O   UNL A   1      49.101  37.377  28.249  1.00  0.00    -0.237 OA
ATOM     95  O   UNL A   1      46.775  37.902  28.895  1.00  0.00    -0.237 OA
ATOM     96  O   UNL A   1      48.416  37.254  30.616  1.00  0.00    -0.744 OA
ENDBRANCH  92  93
ENDBRANCH  66  87
ENDBRANCH  40  41
ENDBRANCH  32  35
ENDBRANCH  30  31
ENDBRANCH  29  30
ENDBRANCH   1  29
TORSDOF 18
ENDMDL
MODEL 3
REMARK VINA RESULT:     -10.8      2.768      9.366
REMARK SMILES Cc1cc(C(=O)NCCCCCCNC(=O)c2ccc(-c3c4nc(c(-c5ccc(S(=O)(=O)[O-])cc5)c5ccc([nH]5)c(-c5ccc(S(=O)(=O)[O-])cc5)c5nc(c(-c6ccc(S(=O)(=O)[O-])cc6)c6ccc3[nH]6)C=C5)C=C4)cc2)nc(N2CCN(c3ccccc3Cl)CC2)n1
REMARK SMILES IDX 11 1 10 2 9 3 8 4 7 5 5 6 6 7 4 9 1 10 2 11 3 12 92 13 78 14
REMARK SMILES IDX 77 15 79 16 80 17 91 18 81 19 90 20 82 21 83 22 84 23 88 24
REMARK SMILES IDX 85 25 87 26 89 27 86 28 12 29 13 30 14 31 15 32 16 34 17 35
REMARK SMILES IDX 18 36 76 37 19 38 75 39 20 40 21 41 22 42 69 43 23 44 74 45
REMARK SMILES IDX 68 46 70 47 24 48 73 49 67 50 66 51 25 53 55 54 36 55 54 56
REMARK SMILES IDX 37 57 40 58 53 59 71 60 38 61 39 62 52 64 72 65 41 66 26 67
REMARK SMILES IDX 27 68 35 69 28 70 34 71 29 72 30 73 31 74 32 75 33 76 56 77
REMARK SMILES IDX 57 78 65 79 58 80 64 81 59 82 60 83 61 84 62 85 63 86 42 87
REMARK SMILES IDX 43 88 51 89 44 90 50 91 45 92 46 93 47 94 48 95 49 96
REMARK H PARENT 7 8 14 33 70 52 40 63
REMARK Flexibility Score: inf
ROOT
ATOM      1  C   UNL A   1      40.858  20.870  27.492  1.00  0.00     0.002 C 
ENDROOT
BRANCH   1   2
ATOM      2  C   UNL A   1      40.465  20.714  26.016  1.00  0.00     0.002 C 
BRANCH   2   3
ATOM      3  C   UNL A   1      39.348  19.692  25.765  1.00  0.00     0.021 C 
BRANCH   3   4
ATOM      4  C   UNL A   1      38.171  20.296  24.999  1.00  0.00     0.116 C 
BRANCH   4   5
ATOM      5  N   UNL A   1      37.912  21.621  25.510  1.00  0.00    -0.351 N 
ATOM      6  C   UNL A   1      36.798  22.416  25.512  1.00  0.00     0.270 C 
ATOM      7  O   UNL A   1      36.969  23.580  25.890  1.00  0.00    -0.268 OA
ATOM      8  H   UNL A   1      38.693  22.035  25.944  1.00  0.00     0.163 HD
BRANCH   6   9
ATOM      9  C   UNL A   1      35.416  21.939  25.163  1.00  0.00     0.133 A 
ATOM     10  C   UNL A   1      33.035  19.077  24.941  1.00  0.00     0.067 C 
ATOM     11  C   UNL A   1      33.626  20.457  24.936  1.00  0.00     0.044 A 
ATOM     12  C   UNL A   1      34.987  20.638  25.083  1.00  0.00     0.058 A 
ATOM     13  N   UNL A   1      32.772  21.485  24.752  1.00  0.00    -0.218 NA
ATOM     14  C   UNL A   1      33.301  22.712  24.687  1.00  0.00     0.226 A 
ATOM     15  N   UNL A   1      34.584  22.964  24.927  1.00  0.00    -0.208 NA
BRANCH  14  16
ATOM     16  N   UNL A   1      32.553  23.793  24.310  1.00  0.00    -0.337 N 
ATOM     17  C   UNL A   1      33.033  24.723  23.296  1.00  0.00     0.141 C 
ATOM     18  C   UNL A   1      31.771  24.375  25.411  1.00  0.00     0.141 C 
ATOM     19  C   UNL A   1      31.824  25.508  22.720  1.00  0.00     0.138 C 
ATOM     20  C   UNL A   1      30.588  25.187  24.863  1.00  0.00     0.138 C 
ATOM     21  N   UNL A   1      31.047  26.108  23.815  1.00  0.00    -0.367 N 
BRANCH  21  22
ATOM     22  C   UNL A   1      30.602  27.410  23.770  1.00  0.00     0.056 A 
ATOM     23  C   UNL A   1      29.476  27.733  22.999  1.00  0.00     0.027 A 
ATOM     24  C   UNL A   1      31.239  28.461  24.464  1.00  0.00     0.064 A 
ATOM     25  C   UNL A   1      28.997  29.043  22.920  1.00  0.00     0.002 A 
ATOM     26  C   UNL A   1      30.767  29.775  24.379  1.00  0.00     0.023 A 
ATOM     27  Cl  UNL A   1      32.681  28.208  25.391  1.00  0.00    -0.082 Cl
ATOM     28  C   UNL A   1      29.646  30.065  23.608  1.00  0.00     0.002 A 
ENDBRANCH  21  22
ENDBRANCH  14  16
ENDBRANCH   6   9
ENDBRANCH   4   5
ENDBRANCH   3   4
ENDBRANCH   2   3
ENDBRANCH   1   2
BRANCH   1  29
ATOM     29  C   UNL A   1      41.206  22.302  27.906  1.00  0.00     0.021 C 
BRANCH  29  30
ATOM     30  C   UNL A   1      40.271  23.354  27.320  1.00  0.00     0.116 C 
BRANCH  30  31
ATOM     31  N   UNL A   1      40.897  24.054  26.210  1.00  0.00    -0.352 N 
ATOM     32  C   UNL A   1      41.155  25.395  26.070  1.00  0.00     0.251 C 
ATOM     33  H   UNL A   1      41.176  23.488  25.454  1.00  0.00     0.163 HD
ATOM     34  O   UNL A   1      41.442  25.854  24.971  1.00  0.00    -0.269 OA
BRANCH  32  35
ATOM     35  C   UNL A   1      41.076  26.276  27.253  1.00  0.00     0.039 A 
ATOM     36  C   UNL A   1      41.896  27.404  27.316  1.00  0.00     0.014 A 
ATOM     37  C   UNL A   1      40.200  25.980  28.303  1.00  0.00     0.014 A 
ATOM     38  C   UNL A   1      41.804  28.263  28.413  1.00  0.00     0.010 A 
ATOM     39  C   UNL A   1      40.057  26.875  29.358  1.00  0.00     0.010 A 
ATOM     40  C   UNL A   1      40.863  28.020  29.428  1.00  0.00    -0.014 A 
BRANCH  40  41
ATOM     41  C   UNL A   1      40.712  28.950  30.574  1.00  0.00     0.031 A 
ATOM     42  C   UNL A   1      41.587  28.800  31.790  1.00  0.00     0.074 A 
ATOM     43  C   UNL A   1      39.748  29.892  30.545  1.00  0.00     0.049 A 
ATOM     44  N   UNL A   1      41.568  29.480  32.907  1.00  0.00    -0.248 NA
ATOM     45  C   UNL A   1      42.600  27.733  31.756  1.00  0.00     0.031 C 
ATOM     46  C   UNL A   1      38.812  30.113  29.438  1.00  0.00     0.029 A 
ATOM     47  N   UNL A   1      39.390  30.838  31.473  1.00  0.00    -0.354 N 
ATOM     48  C   UNL A   1      42.548  28.913  33.713  1.00  0.00     0.074 A 
ATOM     49  C   UNL A   1      43.111  27.803  32.976  1.00  0.00     0.031 C 
ATOM     50  C   UNL A   1      38.010  31.146  29.739  1.00  0.00     0.029 A 
ATOM     51  C   UNL A   1      38.340  31.633  31.074  1.00  0.00     0.049 A 
ATOM     52  H   UNL A   1      39.842  30.937  32.342  1.00  0.00     0.167 HD
ATOM     53  C   UNL A   1      42.956  29.292  34.948  1.00  0.00     0.031 A 
ATOM     54  C   UNL A   1      37.711  32.637  31.715  1.00  0.00     0.031 A 
ATOM     55  C   UNL A   1      42.402  30.408  35.670  1.00  0.00     0.049 A 
ATOM     56  C   UNL A   1      38.175  33.031  33.092  1.00  0.00     0.074 A 
ATOM     57  C   UNL A   1      42.787  30.911  36.900  1.00  0.00     0.029 A 
ATOM     58  N   UNL A   1      41.345  31.191  35.230  1.00  0.00    -0.354 N 
ATOM     59  N   UNL A   1      39.151  32.525  33.809  1.00  0.00    -0.248 NA
ATOM     60  C   UNL A   1      37.460  34.138  33.741  1.00  0.00     0.031 C 
ATOM     61  C   UNL A   1      41.926  31.962  37.230  1.00  0.00     0.029 A 
ATOM     62  C   UNL A   1      41.047  32.156  36.177  1.00  0.00     0.049 A 
ATOM     63  H   UNL A   1      40.877  31.077  34.372  1.00  0.00     0.167 HD
ATOM     64  C   UNL A   1      39.186  33.274  34.979  1.00  0.00     0.074 A 
ATOM     65  C   UNL A   1      38.145  34.275  34.868  1.00  0.00     0.031 C 
ATOM     66  C   UNL A   1      40.009  33.147  36.050  1.00  0.00     0.031 A 
BRANCH  53  67
ATOM     67  C   UNL A   1      44.051  28.493  35.603  1.00  0.00    -0.014 A 
ATOM     68  C   UNL A   1      45.398  28.885  35.506  1.00  0.00     0.010 A 
ATOM     69  C   UNL A   1      43.723  27.362  36.375  1.00  0.00     0.010 A 
ATOM     70  C   UNL A   1      46.400  28.143  36.139  1.00  0.00     0.020 A 
ATOM     71  C   UNL A   1      44.718  26.635  37.033  1.00  0.00     0.020 A 
ATOM     72  C   UNL A   1      46.052  27.022  36.899  1.00  0.00     0.054 A 
BRANCH  72  73
ATOM     73  S   UNL A   1      47.370  26.101  37.738  1.00  0.00     0.124 S 
ATOM     74  O   UNL A   1      46.671  25.577  38.909  1.00  0.00    -0.237 OA
ATOM     75  O   UNL A   1      47.753  25.108  36.738  1.00  0.00    -0.237 OA
ATOM     76  O   UNL A   1      48.380  27.119  38.021  1.00  0.00    -0.744 OA
ENDBRANCH  72  73
ENDBRANCH  53  67
BRANCH  54  77
ATOM     77  C   UNL A   1      36.580  33.350  31.059  1.00  0.00    -0.014 A 
ATOM     78  C   UNL A   1      36.741  33.928  29.787  1.00  0.00     0.010 A 
ATOM     79  C   UNL A   1      35.334  33.455  31.704  1.00  0.00     0.010 A 
ATOM     80  C   UNL A   1      35.687  34.623  29.186  1.00  0.00     0.020 A 
ATOM     81  C   UNL A   1      34.269  34.121  31.093  1.00  0.00     0.020 A 
ATOM     82  C   UNL A   1      34.457  34.714  29.842  1.00  0.00     0.054 A 
BRANCH  82  83
ATOM     83  S   UNL A   1      33.093  35.588  29.027  1.00  0.00     0.124 S 
ATOM     84  O   UNL A   1      32.473  34.522  28.246  1.00  0.00    -0.237 OA
ATOM     85  O   UNL A   1      32.314  36.082  30.159  1.00  0.00    -0.237 OA
ATOM     86  O   UNL A   1      33.770  36.623  28.247  1.00  0.00    -0.744 OA
ENDBRANCH  82  83
ENDBRANCH  54  77
BRANCH  66  87
ATOM     87  C   UNL A   1      39.846  34.137  37.172  1.00  0.00    -0.014 A 
ATOM     88  C   UNL A   1      40.400  35.426  37.098  1.00  0.00     0.010 A 
ATOM     89  C   UNL A   1      39.076  33.785  38.297  1.00  0.00     0.010 A 
ATOM     90  C   UNL A   1      40.214  36.335  38.142  1.00  0.00     0.020 A 
ATOM     91  C   UNL A   1      38.861  34.701  39.329  1.00  0.00     0.020 A 
ATOM     92  C   UNL A   1      39.445  35.968  39.251  1.00  0.00     0.054 A 
BRANCH  92  93
ATOM     93  S   UNL A   1      39.181  37.182  40.572  1.00  0.00     0.124 S 
ATOM     94  O   UNL A   1      40.525  37.725  40.758  1.00  0.00    -0.237 OA
ATOM     95  O   UNL A   1      38.210  38.096  39.976  1.00  0.00    -0.237 OA
ATOM     96  O   UNL A   1      38.674  36.380  41.684  1.00  0.00    -0.744 OA
ENDBRANCH  92  93
ENDBRANCH  66  87
ENDBRANCH  40  41
ENDBRANCH  32  35
ENDBRANCH  30  31
ENDBRANCH  29  30
ENDBRANCH   1  29
TORSDOF 18
ENDMDL
