MODEL 1
REMARK VINA RESULT:     -11.9      0.000      0.000
REMARK SMILES Cc1cc(C)cc(Nc2nc(C)cc(C(=O)NCCCCCCNC(=O)c3ccc(-c4c5nc(c(-c6ccc(S(=O)(=O)[O-])cc6)c6ccc([nH]6)c(-c6ccc(S(=O)(=O)[O-])cc6)c6nc(c(-c7ccc(S(=O)(=O)[O-])cc7)c7ccc4[nH]7)C=C6)C=C5)cc3)n2)c1
REMARK SMILES IDX 21 1 20 2 19 3 18 4 17 5 15 6 16 7 14 9 9 10 10 11 87 12
REMARK SMILES IDX 11 13 12 14 13 15 8 16 7 18 1 19 2 20 3 21 88 22 4 23 5 24
REMARK SMILES IDX 6 25 22 26 23 27 24 28 25 29 26 31 27 32 28 33 86 34 29 35
REMARK SMILES IDX 85 36 30 37 31 38 32 39 79 40 33 41 84 42 78 43 80 44 34 45
REMARK SMILES IDX 83 46 77 47 76 48 35 50 65 51 46 52 64 53 47 54 50 55 63 56
REMARK SMILES IDX 81 57 48 58 49 59 62 61 82 62 51 63 36 64 37 65 45 66 38 67
REMARK SMILES IDX 44 68 39 69 40 70 41 71 42 72 43 73 66 74 67 75 75 76 68 77
REMARK SMILES IDX 74 78 69 79 70 80 71 81 72 82 73 83 52 84 53 85 61 86 54 87
REMARK SMILES IDX 60 88 55 89 56 90 57 91 58 92 59 93
REMARK H PARENT 17 8 8 17 24 30 80 49 50 60
REMARK Flexibility Score: inf
ROOT
ATOM      1  C   UNL A   1      39.492  22.356  26.280  1.00  0.00     0.002 C 
ENDROOT
BRANCH   1   2
ATOM      2  C   UNL A   1      38.810  21.080  25.770  1.00  0.00     0.002 C 
BRANCH   2   3
ATOM      3  C   UNL A   1      37.539  21.320  24.944  1.00  0.00     0.021 C 
BRANCH   3   4
ATOM      4  C   UNL A   1      36.741  22.533  25.425  1.00  0.00     0.116 C 
BRANCH   4   5
ATOM      5  N   UNL A   1      35.842  22.130  26.486  1.00  0.00    -0.351 N 
ATOM      6  C   UNL A   1      34.568  21.623  26.504  1.00  0.00     0.270 C 
ATOM      7  O   UNL A   1      34.061  21.493  27.622  1.00  0.00    -0.268 OA
ATOM      8  H   UNL A   1      36.228  22.244  27.384  1.00  0.00     0.163 HD
BRANCH   6   9
ATOM      9  C   UNL A   1      33.802  21.190  25.283  1.00  0.00     0.134 A 
ATOM     10  C   UNL A   1      32.697  21.969  23.419  1.00  0.00     0.228 A 
ATOM     11  N   UNL A   1      32.276  20.745  23.083  1.00  0.00    -0.218 NA
ATOM     12  N   UNL A   1      33.381  22.228  24.534  1.00  0.00    -0.208 NA
ATOM     13  C   UNL A   1      32.739  19.713  23.815  1.00  0.00     0.044 A 
ATOM     14  C   UNL A   1      32.370  18.338  23.345  1.00  0.00     0.067 C 
ATOM     15  C   UNL A   1      33.575  19.890  24.897  1.00  0.00     0.058 A 
BRANCH  10  16
ATOM     16  N   UNL A   1      32.523  22.970  22.466  1.00  0.00    -0.324 N 
ATOM     17  H   UNL A   1      32.649  22.712  21.524  1.00  0.00     0.170 HD
BRANCH  16  18
ATOM     18  C   UNL A   1      32.183  24.314  22.717  1.00  0.00     0.041 A 
ATOM     19  C   UNL A   1      29.177  26.279  24.006  1.00  0.00     0.044 C 
ATOM     20  C   UNL A   1      30.535  25.952  23.463  1.00  0.00    -0.049 A 
ATOM     21  C   UNL A   1      31.427  26.989  23.161  1.00  0.00     0.007 A 
ATOM     22  C   UNL A   1      30.923  24.621  23.242  1.00  0.00     0.029 A 
ATOM     23  C   UNL A   1      32.700  26.708  22.663  1.00  0.00    -0.049 A 
ATOM     24  C   UNL A   1      33.657  27.815  22.332  1.00  0.00     0.044 C 
ATOM     25  C   UNL A   1      33.069  25.374  22.467  1.00  0.00     0.029 A 
ENDBRANCH  16  18
ENDBRANCH  10  16
ENDBRANCH   6   9
ENDBRANCH   4   5
ENDBRANCH   3   4
ENDBRANCH   2   3
ENDBRANCH   1   2
BRANCH   1  26
ATOM     26  C   UNL A   1      40.574  22.128  27.340  1.00  0.00     0.021 C 
BRANCH  26  27
ATOM     27  C   UNL A   1      41.493  23.325  27.563  1.00  0.00     0.116 C 
BRANCH  27  28
ATOM     28  N   UNL A   1      41.629  24.121  26.355  1.00  0.00    -0.352 N 
ATOM     29  C   UNL A   1      41.368  25.454  26.160  1.00  0.00     0.251 C 
ATOM     30  H   UNL A   1      41.955  23.635  25.564  1.00  0.00     0.163 HD
ATOM     31  O   UNL A   1      41.297  25.899  25.019  1.00  0.00    -0.269 OA
BRANCH  29  32
ATOM     32  C   UNL A   1      41.168  26.348  27.321  1.00  0.00     0.039 A 
ATOM     33  C   UNL A   1      40.087  26.116  28.173  1.00  0.00     0.014 A 
ATOM     34  C   UNL A   1      42.019  27.436  27.545  1.00  0.00     0.014 A 
ATOM     35  C   UNL A   1      39.876  26.956  29.268  1.00  0.00     0.010 A 
ATOM     36  C   UNL A   1      41.848  28.231  28.676  1.00  0.00     0.010 A 
ATOM     37  C   UNL A   1      40.764  28.010  29.537  1.00  0.00    -0.014 A 
BRANCH  37  38
ATOM     38  C   UNL A   1      40.549  28.903  30.704  1.00  0.00     0.031 A 
ATOM     39  C   UNL A   1      41.423  28.780  31.923  1.00  0.00     0.074 A 
ATOM     40  C   UNL A   1      39.553  29.809  30.675  1.00  0.00     0.049 A 
ATOM     41  N   UNL A   1      41.402  29.483  33.027  1.00  0.00    -0.248 NA
ATOM     42  C   UNL A   1      42.438  27.714  31.910  1.00  0.00     0.031 C 
ATOM     43  C   UNL A   1      38.616  30.001  29.566  1.00  0.00     0.029 A 
ATOM     44  N   UNL A   1      39.171  30.747  31.600  1.00  0.00    -0.354 N 
ATOM     45  C   UNL A   1      42.393  28.943  33.839  1.00  0.00     0.074 A 
ATOM     46  C   UNL A   1      42.954  27.816  33.125  1.00  0.00     0.031 C 
ATOM     47  C   UNL A   1      37.799  31.027  29.855  1.00  0.00     0.029 A 
ATOM     48  C   UNL A   1      38.133  31.542  31.179  1.00  0.00     0.049 A 
ATOM     49  H   UNL A   1      39.601  30.842  32.480  1.00  0.00     0.167 HD
ATOM     50  C   UNL A   1      42.819  29.360  35.056  1.00  0.00     0.031 A 
ATOM     51  C   UNL A   1      37.528  32.581  31.784  1.00  0.00     0.031 A 
ATOM     52  C   UNL A   1      42.260  30.480  35.765  1.00  0.00     0.049 A 
ATOM     53  C   UNL A   1      38.011  33.024  33.138  1.00  0.00     0.074 A 
ATOM     54  C   UNL A   1      42.636  31.003  36.991  1.00  0.00     0.029 A 
ATOM     55  N   UNL A   1      41.201  31.253  35.310  1.00  0.00    -0.354 N 
ATOM     56  N   UNL A   1      38.980  32.529  33.870  1.00  0.00    -0.248 NA
ATOM     57  C   UNL A   1      37.328  34.179  33.735  1.00  0.00     0.031 C 
ATOM     58  C   UNL A   1      41.779  32.069  37.293  1.00  0.00     0.029 A 
ATOM     59  C   UNL A   1      40.903  32.241  36.234  1.00  0.00     0.049 A 
ATOM     60  H   UNL A   1      40.731  31.119  34.456  1.00  0.00     0.167 HD
ATOM     61  C   UNL A   1      39.043  33.331  35.004  1.00  0.00     0.074 A 
ATOM     62  C   UNL A   1      38.023  34.350  34.851  1.00  0.00     0.031 C 
ATOM     63  C   UNL A   1      39.874  33.238  36.073  1.00  0.00     0.031 A 
BRANCH  50  64
ATOM     64  C   UNL A   1      43.943  28.582  35.691  1.00  0.00    -0.014 A 
ATOM     65  C   UNL A   1      45.287  28.909  35.428  1.00  0.00     0.010 A 
ATOM     66  C   UNL A   1      43.657  27.507  36.551  1.00  0.00     0.010 A 
ATOM     67  C   UNL A   1      46.322  28.135  35.961  1.00  0.00     0.020 A 
ATOM     68  C   UNL A   1      44.690  26.748  37.110  1.00  0.00     0.020 A 
ATOM     69  C   UNL A   1      46.016  27.052  36.790  1.00  0.00     0.054 A 
BRANCH  69  70
ATOM     70  S   UNL A   1      47.375  26.050  37.453  1.00  0.00     0.124 S 
ATOM     71  O   UNL A   1      47.456  24.970  36.474  1.00  0.00    -0.237 OA
ATOM     72  O   UNL A   1      48.496  26.986  37.451  1.00  0.00    -0.237 OA
ATOM     73  O   UNL A   1      46.900  25.656  38.777  1.00  0.00    -0.744 OA
ENDBRANCH  69  70
ENDBRANCH  50  64
BRANCH  51  74
ATOM     74  C   UNL A   1      36.435  33.311  31.086  1.00  0.00    -0.014 A 
ATOM     75  C   UNL A   1      35.186  33.479  31.712  1.00  0.00     0.010 A 
ATOM     76  C   UNL A   1      36.643  33.862  29.810  1.00  0.00     0.010 A 
ATOM     77  C   UNL A   1      34.160  34.174  31.067  1.00  0.00     0.020 A 
ATOM     78  C   UNL A   1      35.626  34.580  29.173  1.00  0.00     0.020 A 
ATOM     79  C   UNL A   1      34.387  34.723  29.802  1.00  0.00     0.054 A 
BRANCH  79  80
ATOM     80  S   UNL A   1      33.062  35.677  29.013  1.00  0.00     0.124 S 
ATOM     81  O   UNL A   1      33.813  36.690  28.280  1.00  0.00    -0.237 OA
ATOM     82  O   UNL A   1      32.391  34.670  28.195  1.00  0.00    -0.237 OA
ATOM     83  O   UNL A   1      32.279  36.171  30.144  1.00  0.00    -0.744 OA
ENDBRANCH  79  80
ENDBRANCH  51  74
BRANCH  63  84
ATOM     84  C   UNL A   1      39.729  34.288  37.141  1.00  0.00    -0.014 A 
ATOM     85  C   UNL A   1      40.364  35.538  37.030  1.00  0.00     0.010 A 
ATOM     86  C   UNL A   1      38.936  34.019  38.272  1.00  0.00     0.010 A 
ATOM     87  C   UNL A   1      40.254  36.479  38.057  1.00  0.00     0.020 A 
ATOM     88  C   UNL A   1      38.800  34.969  39.287  1.00  0.00     0.020 A 
ATOM     89  C   UNL A   1      39.480  36.185  39.183  1.00  0.00     0.054 A 
BRANCH  89  90
ATOM     90  S   UNL A   1      39.347  37.422  40.503  1.00  0.00     0.124 S 
ATOM     91  O   UNL A   1      40.691  37.995  40.516  1.00  0.00    -0.237 OA
ATOM     92  O   UNL A   1      38.293  38.306  40.014  1.00  0.00    -0.237 OA
ATOM     93  O   UNL A   1      38.993  36.633  41.681  1.00  0.00    -0.744 OA
ENDBRANCH  89  90
ENDBRANCH  63  84
ENDBRANCH  37  38
ENDBRANCH  29  32
ENDBRANCH  27  28
ENDBRANCH  26  27
ENDBRANCH   1  26
TORSDOF 18
ENDMDL
MODEL 2
REMARK VINA RESULT:     -11.6      2.866      9.424
REMARK SMILES Cc1cc(C)cc(Nc2nc(C)cc(C(=O)NCCCCCCNC(=O)c3ccc(-c4c5nc(c(-c6ccc(S(=O)(=O)[O-])cc6)c6ccc([nH]6)c(-c6ccc(S(=O)(=O)[O-])cc6)c6nc(c(-c7ccc(S(=O)(=O)[O-])cc7)c7ccc4[nH]7)C=C6)C=C5)cc3)n2)c1
REMARK SMILES IDX 21 1 20 2 19 3 18 4 17 5 15 6 16 7 14 9 9 10 10 11 87 12
REMARK SMILES IDX 11 13 12 14 13 15 8 16 7 18 1 19 2 20 3 21 88 22 4 23 5 24
REMARK SMILES IDX 6 25 22 26 23 27 24 28 25 29 26 31 27 32 28 33 86 34 29 35
REMARK SMILES IDX 85 36 30 37 31 38 32 39 79 40 33 41 84 42 78 43 80 44 34 45
REMARK SMILES IDX 83 46 77 47 76 48 35 50 65 51 46 52 64 53 47 54 50 55 63 56
REMARK SMILES IDX 81 57 48 58 49 59 62 61 82 62 51 63 36 64 37 65 45 66 38 67
REMARK SMILES IDX 44 68 39 69 40 70 41 71 42 72 43 73 66 74 67 75 75 76 68 77
REMARK SMILES IDX 74 78 69 79 70 80 71 81 72 82 73 83 52 84 53 85 61 86 54 87
REMARK SMILES IDX 60 88 55 89 56 90 57 91 58 92 59 93
REMARK H PARENT 17 8 8 17 24 30 80 49 50 60
REMARK Flexibility Score: inf
ROOT
ATOM      1  C   UNL A   1      33.205  27.603  24.647  1.00  0.00     0.002 C 
ENDROOT
BRANCH   1   2
ATOM      2  C   UNL A   1      31.869  27.255  23.979  1.00  0.00     0.002 C 
BRANCH   2   3
ATOM      3  C   UNL A   1      30.650  27.325  24.910  1.00  0.00     0.021 C 
BRANCH   3   4
ATOM      4  C   UNL A   1      29.943  25.977  25.060  1.00  0.00     0.116 C 
BRANCH   4   5
ATOM      5  N   UNL A   1      30.494  25.266  26.193  1.00  0.00    -0.351 N 
ATOM      6  C   UNL A   1      31.337  24.190  26.316  1.00  0.00     0.270 C 
ATOM      7  O   UNL A   1      31.511  23.777  27.467  1.00  0.00    -0.268 OA
ATOM      8  H   UNL A   1      30.202  25.631  27.059  1.00  0.00     0.163 HD
BRANCH   6   9
ATOM      9  C   UNL A   1      32.067  23.541  25.171  1.00  0.00     0.134 A 
ATOM     10  C   UNL A   1      34.021  23.595  23.954  1.00  0.00     0.228 A 
ATOM     11  N   UNL A   1      33.576  22.681  23.086  1.00  0.00    -0.218 NA
ATOM     12  N   UNL A   1      33.274  24.093  24.940  1.00  0.00    -0.208 NA
ATOM     13  C   UNL A   1      32.387  22.107  23.353  1.00  0.00     0.044 A 
ATOM     14  C   UNL A   1      31.964  20.988  22.449  1.00  0.00     0.067 C 
ATOM     15  C   UNL A   1      31.622  22.464  24.443  1.00  0.00     0.058 A 
BRANCH  10  16
ATOM     16  N   UNL A   1      35.375  23.912  23.885  1.00  0.00    -0.324 N 
ATOM     17  H   UNL A   1      35.622  24.686  23.328  1.00  0.00     0.170 HD
BRANCH  16  18
ATOM     18  C   UNL A   1      36.428  23.235  24.534  1.00  0.00     0.041 A 
ATOM     19  C   UNL A   1      37.832  19.691  24.704  1.00  0.00     0.044 C 
ATOM     20  C   UNL A   1      37.637  21.157  24.951  1.00  0.00    -0.049 A 
ATOM     21  C   UNL A   1      38.467  21.821  25.863  1.00  0.00     0.007 A 
ATOM     22  C   UNL A   1      36.625  21.871  24.290  1.00  0.00     0.029 A 
ATOM     23  C   UNL A   1      38.308  23.187  26.103  1.00  0.00    -0.049 A 
ATOM     24  C   UNL A   1      39.190  23.902  27.083  1.00  0.00     0.044 C 
ATOM     25  C   UNL A   1      37.305  23.880  25.419  1.00  0.00     0.029 A 
ENDBRANCH  16  18
ENDBRANCH  10  16
ENDBRANCH   6   9
ENDBRANCH   4   5
ENDBRANCH   3   4
ENDBRANCH   2   3
ENDBRANCH   1   2
BRANCH   1  26
ATOM     26  C   UNL A   1      33.083  28.321  25.995  1.00  0.00     0.021 C 
BRANCH  26  27
ATOM     27  C   UNL A   1      34.338  29.079  26.415  1.00  0.00     0.116 C 
BRANCH  27  28
ATOM     28  N   UNL A   1      34.032  30.452  26.780  1.00  0.00    -0.352 N 
ATOM     29  C   UNL A   1      34.587  31.234  27.761  1.00  0.00     0.251 C 
ATOM     30  H   UNL A   1      33.325  30.882  26.247  1.00  0.00     0.163 HD
ATOM     31  O   UNL A   1      34.034  32.278  28.092  1.00  0.00    -0.269 OA
BRANCH  29  32
ATOM     32  C   UNL A   1      35.845  30.817  28.418  1.00  0.00     0.039 A 
ATOM     33  C   UNL A   1      35.820  29.731  29.294  1.00  0.00     0.014 A 
ATOM     34  C   UNL A   1      37.035  31.521  28.205  1.00  0.00     0.014 A 
ATOM     35  C   UNL A   1      36.995  29.330  29.933  1.00  0.00     0.010 A 
ATOM     36  C   UNL A   1      38.219  31.077  28.788  1.00  0.00     0.010 A 
ATOM     37  C   UNL A   1      38.206  29.989  29.673  1.00  0.00    -0.014 A 
BRANCH  37  38
ATOM     38  C   UNL A   1      39.461  29.563  30.343  1.00  0.00     0.031 A 
ATOM     39  C   UNL A   1      39.909  30.236  31.612  1.00  0.00     0.074 A 
ATOM     40  C   UNL A   1      40.208  28.586  29.795  1.00  0.00     0.049 A 
ATOM     41  N   UNL A   1      40.961  29.986  32.351  1.00  0.00    -0.248 NA
ATOM     42  C   UNL A   1      39.079  31.347  32.104  1.00  0.00     0.031 C 
ATOM     43  C   UNL A   1      39.900  27.880  28.549  1.00  0.00     0.029 A 
ATOM     44  N   UNL A   1      41.376  28.007  30.224  1.00  0.00    -0.354 N 
ATOM     45  C   UNL A   1      40.922  30.911  33.388  1.00  0.00     0.074 A 
ATOM     46  C   UNL A   1      39.778  31.764  33.149  1.00  0.00     0.031 C 
ATOM     47  C   UNL A   1      40.828  26.932  28.341  1.00  0.00     0.029 A 
ATOM     48  C   UNL A   1      41.811  26.983  29.418  1.00  0.00     0.049 A 
ATOM     49  H   UNL A   1      41.855  28.297  31.033  1.00  0.00     0.167 HD
ATOM     50  C   UNL A   1      41.746  31.027  34.458  1.00  0.00     0.031 A 
ATOM     51  C   UNL A   1      42.874  26.166  29.541  1.00  0.00     0.031 A 
ATOM     52  C   UNL A   1      42.884  30.178  34.694  1.00  0.00     0.049 A 
ATOM     53  C   UNL A   1      43.780  26.315  30.732  1.00  0.00     0.074 A 
ATOM     54  C   UNL A   1      43.767  30.192  35.760  1.00  0.00     0.029 A 
ATOM     55  N   UNL A   1      43.299  29.160  33.847  1.00  0.00    -0.354 N 
ATOM     56  N   UNL A   1      43.701  27.166  31.727  1.00  0.00    -0.248 NA
ATOM     57  C   UNL A   1      44.907  25.378  30.823  1.00  0.00     0.031 C 
ATOM     58  C   UNL A   1      44.738  29.207  35.537  1.00  0.00     0.029 A 
ATOM     59  C   UNL A   1      44.429  28.547  34.359  1.00  0.00     0.049 A 
ATOM     60  H   UNL A   1      42.853  28.911  33.005  1.00  0.00     0.167 HD
ATOM     61  C   UNL A   1      44.752  26.848  32.579  1.00  0.00     0.074 A 
ATOM     62  C   UNL A   1      45.441  25.718  31.987  1.00  0.00     0.031 C 
ATOM     63  C   UNL A   1      45.112  27.433  33.750  1.00  0.00     0.031 A 
BRANCH  50  64
ATOM     64  C   UNL A   1      41.437  32.123  35.445  1.00  0.00    -0.014 A 
ATOM     65  C   UNL A   1      40.466  31.942  36.447  1.00  0.00     0.010 A 
ATOM     66  C   UNL A   1      42.114  33.353  35.365  1.00  0.00     0.010 A 
ATOM     67  C   UNL A   1      40.132  32.989  37.309  1.00  0.00     0.020 A 
ATOM     68  C   UNL A   1      41.805  34.395  36.245  1.00  0.00     0.020 A 
ATOM     69  C   UNL A   1      40.796  34.214  37.195  1.00  0.00     0.054 A 
BRANCH  69  70
ATOM     70  S   UNL A   1      40.332  35.566  38.312  1.00  0.00     0.124 S 
ATOM     71  O   UNL A   1      41.636  36.044  38.762  1.00  0.00    -0.237 OA
ATOM     72  O   UNL A   1      39.600  36.473  37.433  1.00  0.00    -0.237 OA
ATOM     73  O   UNL A   1      39.523  34.907  39.335  1.00  0.00    -0.744 OA
ENDBRANCH  69  70
ENDBRANCH  50  64
BRANCH  51  74
ATOM     74  C   UNL A   1      43.104  25.095  28.534  1.00  0.00    -0.014 A 
ATOM     75  C   UNL A   1      42.490  23.839  28.686  1.00  0.00     0.010 A 
ATOM     76  C   UNL A   1      43.914  25.331  27.409  1.00  0.00     0.010 A 
ATOM     77  C   UNL A   1      42.691  22.833  27.737  1.00  0.00     0.020 A 
ATOM     78  C   UNL A   1      44.097  24.335  26.445  1.00  0.00     0.020 A 
ATOM     79  C   UNL A   1      43.492  23.089  26.621  1.00  0.00     0.054 A 
BRANCH  79  80
ATOM     80  S   UNL A   1      43.687  21.791  25.369  1.00  0.00     0.124 S 
ATOM     81  O   UNL A   1      42.663  20.830  25.767  1.00  0.00    -0.237 OA
ATOM     82  O   UNL A   1      43.433  22.511  24.124  1.00  0.00    -0.237 OA
ATOM     83  O   UNL A   1      45.068  21.347  25.551  1.00  0.00    -0.744 OA
ENDBRANCH  79  80
ENDBRANCH  51  74
BRANCH  63  84
ATOM     84  C   UNL A   1      46.285  26.835  34.477  1.00  0.00    -0.014 A 
ATOM     85  C   UNL A   1      46.105  25.949  35.555  1.00  0.00     0.010 A 
ATOM     86  C   UNL A   1      47.592  27.160  34.067  1.00  0.00     0.010 A 
ATOM     87  C   UNL A   1      47.211  25.444  36.245  1.00  0.00     0.020 A 
ATOM     88  C   UNL A   1      48.699  26.634  34.737  1.00  0.00     0.020 A 
ATOM     89  C   UNL A   1      48.501  25.797  35.837  1.00  0.00     0.054 A 
BRANCH  89  90
ATOM     90  S   UNL A   1      49.920  25.128  36.745  1.00  0.00     0.124 S 
ATOM     91  O   UNL A   1      49.763  25.753  38.056  1.00  0.00    -0.237 OA
ATOM     92  O   UNL A   1      49.682  23.688  36.703  1.00  0.00    -0.237 OA
ATOM     93  O   UNL A   1      51.072  25.585  35.970  1.00  0.00    -0.744 OA
ENDBRANCH  89  90
ENDBRANCH  63  84
ENDBRANCH  37  38
ENDBRANCH  29  32
ENDBRANCH  27  28
ENDBRANCH  26  27
ENDBRANCH   1  26
TORSDOF 18
ENDMDL
MODEL 3
REMARK VINA RESULT:     -11.6      1.548      3.192
REMARK SMILES Cc1cc(C)cc(Nc2nc(C)cc(C(=O)NCCCCCCNC(=O)c3ccc(-c4c5nc(c(-c6ccc(S(=O)(=O)[O-])cc6)c6ccc([nH]6)c(-c6ccc(S(=O)(=O)[O-])cc6)c6nc(c(-c7ccc(S(=O)(=O)[O-])cc7)c7ccc4[nH]7)C=C6)C=C5)cc3)n2)c1
REMARK SMILES IDX 21 1 20 2 19 3 18 4 17 5 15 6 16 7 14 9 9 10 10 11 87 12
REMARK SMILES IDX 11 13 12 14 13 15 8 16 7 18 1 19 2 20 3 21 88 22 4 23 5 24
REMARK SMILES IDX 6 25 22 26 23 27 24 28 25 29 26 31 27 32 28 33 86 34 29 35
REMARK SMILES IDX 85 36 30 37 31 38 32 39 79 40 33 41 84 42 78 43 80 44 34 45
REMARK SMILES IDX 83 46 77 47 76 48 35 50 65 51 46 52 64 53 47 54 50 55 63 56
REMARK SMILES IDX 81 57 48 58 49 59 62 61 82 62 51 63 36 64 37 65 45 66 38 67
REMARK SMILES IDX 44 68 39 69 40 70 41 71 42 72 43 73 66 74 67 75 75 76 68 77
REMARK SMILES IDX 74 78 69 79 70 80 71 81 72 82 73 83 52 84 53 85 61 86 54 87
REMARK SMILES IDX 60 88 55 89 56 90 57 91 58 92 59 93
REMARK H PARENT 17 8 8 17 24 30 80 49 50 60
REMARK Flexibility Score: inf
ROOT
ATOM      1  C   UNL A   1      41.792  21.724  26.452  1.00  0.00     0.002 C 
ENDROOT
BRANCH   1   2
ATOM      2  C   UNL A   1      40.339  21.716  26.945  1.00  0.00     0.002 C 
BRANCH   2   3
ATOM      3  C   UNL A   1      39.464  22.840  26.374  1.00  0.00     0.021 C 
BRANCH   3   4
ATOM      4  C   UNL A   1      38.056  22.366  26.009  1.00  0.00     0.116 C 
BRANCH   4   5
ATOM      5  N   UNL A   1      37.760  22.739  24.642  1.00  0.00    -0.351 N 
ATOM      6  C   UNL A   1      36.603  23.066  23.980  1.00  0.00     0.270 C 
ATOM      7  O   UNL A   1      36.714  23.229  22.761  1.00  0.00    -0.268 OA
ATOM      8  H   UNL A   1      38.557  22.764  24.066  1.00  0.00     0.163 HD
BRANCH   6   9
ATOM      9  C   UNL A   1      35.268  23.273  24.642  1.00  0.00     0.134 A 
ATOM     10  C   UNL A   1      33.353  22.191  25.323  1.00  0.00     0.228 A 
ATOM     11  N   UNL A   1      32.757  23.337  25.670  1.00  0.00    -0.218 NA
ATOM     12  N   UNL A   1      34.553  22.136  24.745  1.00  0.00    -0.208 NA
ATOM     13  C   UNL A   1      33.498  24.460  25.603  1.00  0.00     0.044 A 
ATOM     14  C   UNL A   1      32.863  25.715  26.123  1.00  0.00     0.067 C 
ATOM     15  C   UNL A   1      34.802  24.460  25.154  1.00  0.00     0.058 A 
BRANCH  10  16
ATOM     16  N   UNL A   1      32.728  21.016  25.733  1.00  0.00    -0.324 N 
ATOM     17  H   UNL A   1      32.286  21.033  26.613  1.00  0.00     0.170 HD
BRANCH  16  18
ATOM     18  C   UNL A   1      32.663  19.807  25.012  1.00  0.00     0.041 A 
ATOM     19  C   UNL A   1      33.054  16.075  25.706  1.00  0.00     0.044 C 
ATOM     20  C   UNL A   1      32.833  17.373  24.989  1.00  0.00    -0.049 A 
ATOM     21  C   UNL A   1      32.621  17.370  23.604  1.00  0.00     0.007 A 
ATOM     22  C   UNL A   1      32.849  18.593  25.683  1.00  0.00     0.029 A 
ATOM     23  C   UNL A   1      32.404  18.565  22.917  1.00  0.00    -0.049 A 
ATOM     24  C   UNL A   1      32.182  18.568  21.433  1.00  0.00     0.044 C 
ATOM     25  C   UNL A   1      32.407  19.766  23.633  1.00  0.00     0.029 A 
ENDBRANCH  16  18
ENDBRANCH  10  16
ENDBRANCH   6   9
ENDBRANCH   4   5
ENDBRANCH   3   4
ENDBRANCH   2   3
ENDBRANCH   1   2
BRANCH   1  26
ATOM     26  C   UNL A   1      42.835  22.043  27.527  1.00  0.00     0.021 C 
BRANCH  26  27
ATOM     27  C   UNL A   1      43.255  23.508  27.575  1.00  0.00     0.116 C 
BRANCH  27  28
ATOM     28  N   UNL A   1      42.890  24.205  26.354  1.00  0.00    -0.352 N 
ATOM     29  C   UNL A   1      42.172  25.363  26.197  1.00  0.00     0.251 C 
ATOM     30  H   UNL A   1      43.203  23.786  25.520  1.00  0.00     0.163 HD
ATOM     31  O   UNL A   1      41.745  25.668  25.087  1.00  0.00    -0.269 OA
BRANCH  29  32
ATOM     32  C   UNL A   1      41.912  26.238  27.360  1.00  0.00     0.039 A 
ATOM     33  C   UNL A   1      40.881  25.900  28.240  1.00  0.00     0.014 A 
ATOM     34  C   UNL A   1      42.651  27.408  27.560  1.00  0.00     0.014 A 
ATOM     35  C   UNL A   1      40.613  26.720  29.338  1.00  0.00     0.010 A 
ATOM     36  C   UNL A   1      42.429  28.187  28.694  1.00  0.00     0.010 A 
ATOM     37  C   UNL A   1      41.395  27.860  29.583  1.00  0.00    -0.014 A 
BRANCH  37  38
ATOM     38  C   UNL A   1      41.120  28.732  30.753  1.00  0.00     0.031 A 
ATOM     39  C   UNL A   1      41.979  28.640  31.985  1.00  0.00     0.074 A 
ATOM     40  C   UNL A   1      40.082  29.589  30.714  1.00  0.00     0.049 A 
ATOM     41  N   UNL A   1      41.907  29.333  33.093  1.00  0.00    -0.248 NA
ATOM     42  C   UNL A   1      43.044  27.625  31.979  1.00  0.00     0.031 C 
ATOM     43  C   UNL A   1      39.154  29.746  29.592  1.00  0.00     0.029 A 
ATOM     44  N   UNL A   1      39.640  30.500  31.640  1.00  0.00    -0.354 N 
ATOM     45  C   UNL A   1      42.910  28.834  33.917  1.00  0.00     0.074 A 
ATOM     46  C   UNL A   1      43.535  27.741  33.204  1.00  0.00     0.031 C 
ATOM     47  C   UNL A   1      38.284  30.729  29.877  1.00  0.00     0.029 A 
ATOM     48  C   UNL A   1      38.572  31.249  31.209  1.00  0.00     0.049 A 
ATOM     49  H   UNL A   1      40.051  30.608  32.528  1.00  0.00     0.167 HD
ATOM     50  C   UNL A   1      43.297  29.261  35.144  1.00  0.00     0.031 A 
ATOM     51  C   UNL A   1      37.908  32.252  31.813  1.00  0.00     0.031 A 
ATOM     52  C   UNL A   1      42.673  30.347  35.853  1.00  0.00     0.049 A 
ATOM     53  C   UNL A   1      38.348  32.706  33.177  1.00  0.00     0.074 A 
ATOM     54  C   UNL A   1      43.005  30.877  37.088  1.00  0.00     0.029 A 
ATOM     55  N   UNL A   1      41.585  31.072  35.387  1.00  0.00    -0.354 N 
ATOM     56  N   UNL A   1      39.329  32.252  33.921  1.00  0.00    -0.248 NA
ATOM     57  C   UNL A   1      37.602  33.822  33.773  1.00  0.00     0.031 C 
ATOM     58  C   UNL A   1      42.093  31.898  37.385  1.00  0.00     0.029 A 
ATOM     59  C   UNL A   1      41.226  32.037  36.313  1.00  0.00     0.049 A 
ATOM     60  H   UNL A   1      41.136  30.922  34.524  1.00  0.00     0.167 HD
ATOM     61  C   UNL A   1      39.336  33.047  35.062  1.00  0.00     0.074 A 
ATOM     62  C   UNL A   1      38.270  34.016  34.900  1.00  0.00     0.031 C 
ATOM     63  C   UNL A   1      40.154  32.985  36.143  1.00  0.00     0.031 A 
BRANCH  50  64
ATOM     64  C   UNL A   1      44.447  28.533  35.791  1.00  0.00    -0.014 A 
ATOM     65  C   UNL A   1      44.239  27.334  36.498  1.00  0.00     0.010 A 
ATOM     66  C   UNL A   1      45.749  29.055  35.701  1.00  0.00     0.010 A 
ATOM     67  C   UNL A   1      45.299  26.706  37.157  1.00  0.00     0.020 A 
ATOM     68  C   UNL A   1      46.819  28.415  36.335  1.00  0.00     0.020 A 
ATOM     69  C   UNL A   1      46.581  27.258  37.081  1.00  0.00     0.054 A 
BRANCH  69  70
ATOM     70  S   UNL A   1      47.937  26.437  37.963  1.00  0.00     0.124 S 
ATOM     71  O   UNL A   1      47.490  26.526  39.350  1.00  0.00    -0.237 OA
ATOM     72  O   UNL A   1      47.931  25.095  37.387  1.00  0.00    -0.237 OA
ATOM     73  O   UNL A   1      49.106  27.248  37.632  1.00  0.00    -0.744 OA
ENDBRANCH  69  70
ENDBRANCH  50  64
BRANCH  51  74
ATOM     74  C   UNL A   1      36.793  32.934  31.103  1.00  0.00    -0.014 A 
ATOM     75  C   UNL A   1      37.060  33.763  29.998  1.00  0.00     0.010 A 
ATOM     76  C   UNL A   1      35.461  32.740  31.508  1.00  0.00     0.010 A 
ATOM     77  C   UNL A   1      36.015  34.396  29.319  1.00  0.00     0.020 A 
ATOM     78  C   UNL A   1      34.412  33.351  30.815  1.00  0.00     0.020 A 
ATOM     79  C   UNL A   1      34.697  34.184  29.731  1.00  0.00     0.054 A 
BRANCH  79  80
ATOM     80  S   UNL A   1      33.353  34.963  28.794  1.00  0.00     0.124 S 
ATOM     81  O   UNL A   1      33.045  33.941  27.800  1.00  0.00    -0.237 OA
ATOM     82  O   UNL A   1      32.336  35.178  29.820  1.00  0.00    -0.237 OA
ATOM     83  O   UNL A   1      33.966  36.183  28.272  1.00  0.00    -0.744 OA
ENDBRANCH  79  80
ENDBRANCH  51  74
BRANCH  63  84
ATOM     84  C   UNL A   1      39.941  34.017  37.217  1.00  0.00    -0.014 A 
ATOM     85  C   UNL A   1      40.639  35.239  37.205  1.00  0.00     0.010 A 
ATOM     86  C   UNL A   1      39.022  33.762  38.251  1.00  0.00     0.010 A 
ATOM     87  C   UNL A   1      40.461  36.163  38.239  1.00  0.00     0.020 A 
ATOM     88  C   UNL A   1      38.820  34.695  39.270  1.00  0.00     0.020 A 
ATOM     89  C   UNL A   1      39.559  35.881  39.270  1.00  0.00     0.054 A 
BRANCH  89  90
ATOM     90  S   UNL A   1      39.341  37.095  40.600  1.00  0.00     0.124 S 
ATOM     91  O   UNL A   1      40.669  37.697  40.679  1.00  0.00    -0.237 OA
ATOM     92  O   UNL A   1      38.288  37.961  40.078  1.00  0.00    -0.237 OA
ATOM     93  O   UNL A   1      38.956  36.280  41.750  1.00  0.00    -0.744 OA
ENDBRANCH  89  90
ENDBRANCH  63  84
ENDBRANCH  37  38
ENDBRANCH  29  32
ENDBRANCH  27  28
ENDBRANCH  26  27
ENDBRANCH   1  26
TORSDOF 18
ENDMDL
