MODEL 1
REMARK VINA RESULT:     -10.1      0.000      0.000
REMARK SMILES Cc1ccc(NC(=O)C[C@@H](C(=O)NCCCCCCNC(=O)c2ccc(-c3c4nc(c(-c5ccc(S(=O)(=O)[O-])cc5)c5ccc([nH]5)c(-c5ccc(S(=O)(=O)[O-])cc5)c5nc(c(-c6ccc(S(=O)(=O)[O-])cc6)c6ccc3[nH]6)C=C5)C=C4)cc2)[NH+](C)C)cc1Cl
REMARK SMILES IDX 16 1 15 2 14 3 13 4 11 5 12 6 10 8 9 9 7 10 6 11 8 13 5 14
REMARK SMILES IDX 1 15 2 16 3 17 87 18 4 19 86 20 88 21 83 22 84 23 85 24
REMARK SMILES IDX 17 26 18 27 19 28 20 29 21 30 22 32 23 33 24 34 82 35 25 36
REMARK SMILES IDX 81 37 26 38 27 39 28 40 75 41 29 42 80 43 74 44 76 45 30 46
REMARK SMILES IDX 79 47 73 48 72 49 31 51 61 52 42 53 60 54 43 55 46 56 59 57
REMARK SMILES IDX 77 58 44 59 45 60 58 62 78 63 47 64 32 65 33 66 41 67 34 68
REMARK SMILES IDX 40 69 35 70 36 71 37 72 38 73 39 74 62 75 63 76 71 77 64 78
REMARK SMILES IDX 70 79 65 80 66 81 67 82 68 83 69 84 48 85 49 86 57 87 50 88
REMARK SMILES IDX 56 89 51 90 52 91 53 92 54 93 55 94
REMARK H PARENT 13 7 6 12 83 25 20 31 76 50 46 61
REMARK Flexibility Score: inf
ROOT
ATOM      1  C   UNL A   1      34.739  25.479  25.614  1.00  0.00     0.002 C 
ENDROOT
BRANCH   1   2
ATOM      2  C   UNL A   1      33.982  26.784  25.332  1.00  0.00     0.021 C 
BRANCH   2   3
ATOM      3  C   UNL A   1      33.153  27.352  26.489  1.00  0.00     0.116 C 
BRANCH   3   4
ATOM      4  N   UNL A   1      32.690  28.707  26.234  1.00  0.00    -0.351 N 
ATOM      5  C   UNL A   1      31.673  29.213  25.476  1.00  0.00     0.278 C 
ATOM      6  O   UNL A   1      31.517  30.436  25.552  1.00  0.00    -0.268 OA
ATOM      7  H   UNL A   1      33.215  29.397  26.699  1.00  0.00     0.163 HD
BRANCH   5   8
ATOM      8  C   UNL A   1      30.747  28.297  24.631  1.00  0.00     0.283 C 
BRANCH   8   9
ATOM      9  C   UNL A   1      30.664  26.809  25.035  1.00  0.00     0.175 C 
BRANCH   9  10
ATOM     10  C   UNL A   1      29.841  25.832  24.239  1.00  0.00     0.230 C 
ATOM     11  N   UNL A   1      30.090  24.491  24.181  1.00  0.00    -0.326 N 
ATOM     12  H   UNL A   1      29.603  24.024  23.465  1.00  0.00     0.169 HD
ATOM     13  O   UNL A   1      28.875  26.248  23.585  1.00  0.00    -0.274 OA
BRANCH  11  14
ATOM     14  C   UNL A   1      30.911  23.657  24.952  1.00  0.00     0.042 A 
ATOM     15  C   UNL A   1      33.911  21.861  27.476  1.00  0.00     0.046 C 
ATOM     16  C   UNL A   1      32.799  22.392  26.617  1.00  0.00    -0.032 A 
ATOM     17  C   UNL A   1      31.923  23.347  27.138  1.00  0.00     0.007 A 
ATOM     18  C   UNL A   1      32.636  21.996  25.280  1.00  0.00     0.046 A 
ATOM     19  C   UNL A   1      30.961  23.943  26.321  1.00  0.00     0.026 A 
ATOM     20  C   UNL A   1      31.702  22.632  24.449  1.00  0.00     0.047 A 
ATOM     21  Cl  UNL A   1      33.599  20.729  24.602  1.00  0.00    -0.084 Cl
ENDBRANCH  11  14
ENDBRANCH   9  10
ENDBRANCH   8   9
BRANCH   8  22
ATOM     22  N   UNL A   1      30.953  28.425  23.134  1.00  0.00    -0.329 N 
ATOM     23  C   UNL A   1      30.068  29.405  22.497  1.00  0.00     0.333 C 
ATOM     24  C   UNL A   1      32.326  28.692  22.706  1.00  0.00     0.333 C 
ATOM     25  H   UNL A   1      30.709  27.487  22.816  1.00  0.00     0.348 HD
ENDBRANCH   8  22
ENDBRANCH   5   8
ENDBRANCH   3   4
ENDBRANCH   2   3
ENDBRANCH   1   2
BRANCH   1  26
ATOM     26  C   UNL A   1      34.960  24.582  24.400  1.00  0.00     0.002 C 
BRANCH  26  27
ATOM     27  C   UNL A   1      36.034  23.508  24.580  1.00  0.00     0.021 C 
BRANCH  27  28
ATOM     28  C   UNL A   1      36.688  23.477  25.959  1.00  0.00     0.116 C 
BRANCH  28  29
ATOM     29  N   UNL A   1      37.862  22.619  25.990  1.00  0.00    -0.352 N 
ATOM     30  C   UNL A   1      39.152  22.955  26.325  1.00  0.00     0.251 C 
ATOM     31  H   UNL A   1      37.714  21.678  25.739  1.00  0.00     0.163 HD
ATOM     32  O   UNL A   1      40.079  22.183  26.098  1.00  0.00    -0.269 OA
BRANCH  30  33
ATOM     33  C   UNL A   1      39.405  24.271  26.943  1.00  0.00     0.039 A 
ATOM     34  C   UNL A   1      39.002  24.498  28.259  1.00  0.00     0.014 A 
ATOM     35  C   UNL A   1      40.095  25.256  26.229  1.00  0.00     0.014 A 
ATOM     36  C   UNL A   1      39.346  25.699  28.883  1.00  0.00     0.010 A 
ATOM     37  C   UNL A   1      40.507  26.414  26.880  1.00  0.00     0.010 A 
ATOM     38  C   UNL A   1      40.131  26.653  28.210  1.00  0.00    -0.014 A 
BRANCH  38  39
ATOM     39  C   UNL A   1      40.559  27.907  28.879  1.00  0.00     0.031 A 
ATOM     40  C   UNL A   1      41.937  28.007  29.478  1.00  0.00     0.074 A 
ATOM     41  C   UNL A   1      39.694  28.934  28.997  1.00  0.00     0.049 A 
ATOM     42  N   UNL A   1      42.483  29.002  30.129  1.00  0.00    -0.248 NA
ATOM     43  C   UNL A   1      42.807  26.825  29.352  1.00  0.00     0.031 C 
ATOM     44  C   UNL A   1      38.317  28.943  28.497  1.00  0.00     0.029 A 
ATOM     45  N   UNL A   1      39.844  30.170  29.576  1.00  0.00    -0.354 N 
ATOM     46  C   UNL A   1      43.748  28.562  30.500  1.00  0.00     0.074 A 
ATOM     47  C   UNL A   1      43.867  27.192  30.055  1.00  0.00     0.031 C 
ATOM     48  C   UNL A   1      37.762  30.137  28.760  1.00  0.00     0.029 A 
ATOM     49  C   UNL A   1      38.724  30.963  29.484  1.00  0.00     0.049 A 
ATOM     50  H   UNL A   1      40.675  30.462  30.015  1.00  0.00     0.167 HD
ATOM     51  C   UNL A   1      44.732  29.244  31.133  1.00  0.00     0.031 A 
ATOM     52  C   UNL A   1      38.493  32.211  29.936  1.00  0.00     0.031 A 
ATOM     53  C   UNL A   1      44.610  30.609  31.572  1.00  0.00     0.049 A 
ATOM     54  C   UNL A   1      39.595  32.942  30.655  1.00  0.00     0.074 A 
ATOM     55  C   UNL A   1      45.566  31.408  32.174  1.00  0.00     0.029 A 
ATOM     56  N   UNL A   1      43.459  31.375  31.462  1.00  0.00    -0.354 N 
ATOM     57  N   UNL A   1      40.811  32.536  30.929  1.00  0.00    -0.248 NA
ATOM     58  C   UNL A   1      39.296  34.306  31.113  1.00  0.00     0.031 C 
ATOM     59  C   UNL A   1      44.973  32.636  32.486  1.00  0.00     0.029 A 
ATOM     60  C   UNL A   1      43.670  32.628  32.013  1.00  0.00     0.049 A 
ATOM     61  H   UNL A   1      42.616  31.074  31.052  1.00  0.00     0.167 HD
ATOM     62  C   UNL A   1      41.432  33.603  31.569  1.00  0.00     0.074 A 
ATOM     63  C   UNL A   1      40.462  34.678  31.623  1.00  0.00     0.031 C 
ATOM     64  C   UNL A   1      42.693  33.687  32.065  1.00  0.00     0.031 A 
BRANCH  51  65
ATOM     65  C   UNL A   1      46.024  28.514  31.399  1.00  0.00    -0.014 A 
ATOM     66  C   UNL A   1      47.079  28.534  30.466  1.00  0.00     0.010 A 
ATOM     67  C   UNL A   1      46.200  27.820  32.610  1.00  0.00     0.010 A 
ATOM     68  C   UNL A   1      48.262  27.834  30.718  1.00  0.00     0.020 A 
ATOM     69  C   UNL A   1      47.395  27.146  32.880  1.00  0.00     0.020 A 
ATOM     70  C   UNL A   1      48.411  27.141  31.922  1.00  0.00     0.054 A 
BRANCH  70  71
ATOM     71  S   UNL A   1      49.963  26.254  32.226  1.00  0.00     0.124 S 
ATOM     72  O   UNL A   1      50.950  27.177  31.674  1.00  0.00    -0.237 OA
ATOM     73  O   UNL A   1      49.974  26.118  33.680  1.00  0.00    -0.237 OA
ATOM     74  O   UNL A   1      49.799  25.003  31.488  1.00  0.00    -0.744 OA
ENDBRANCH  70  71
ENDBRANCH  51  65
BRANCH  52  75
ATOM     75  C   UNL A   1      37.170  32.853  29.703  1.00  0.00    -0.014 A 
ATOM     76  C   UNL A   1      36.198  32.882  30.720  1.00  0.00     0.010 A 
ATOM     77  C   UNL A   1      36.879  33.457  28.467  1.00  0.00     0.010 A 
ATOM     78  C   UNL A   1      34.959  33.490  30.502  1.00  0.00     0.020 A 
ATOM     79  C   UNL A   1      35.651  34.092  28.253  1.00  0.00     0.020 A 
ATOM     80  C   UNL A   1      34.695  34.096  29.270  1.00  0.00     0.054 A 
BRANCH  80  81
ATOM     81  S   UNL A   1      33.101  34.930  29.030  1.00  0.00     0.124 S 
ATOM     82  O   UNL A   1      32.534  34.895  30.375  1.00  0.00    -0.237 OA
ATOM     83  O   UNL A   1      33.506  36.248  28.548  1.00  0.00    -0.237 OA
ATOM     84  O   UNL A   1      32.424  34.095  28.042  1.00  0.00    -0.744 OA
ENDBRANCH  80  81
ENDBRANCH  52  75
BRANCH  64  85
ATOM     85  C   UNL A   1      43.111  34.996  32.683  1.00  0.00    -0.014 A 
ATOM     86  C   UNL A   1      42.928  35.249  34.053  1.00  0.00     0.010 A 
ATOM     87  C   UNL A   1      43.750  35.963  31.886  1.00  0.00     0.010 A 
ATOM     88  C   UNL A   1      43.347  36.462  34.608  1.00  0.00     0.020 A 
ATOM     89  C   UNL A   1      44.199  37.163  32.444  1.00  0.00     0.020 A 
ATOM     90  C   UNL A   1      43.981  37.410  33.801  1.00  0.00     0.054 A 
BRANCH  90  91
ATOM     91  S   UNL A   1      44.556  38.956  34.556  1.00  0.00     0.124 S 
ATOM     92  O   UNL A   1      44.622  38.596  35.970  1.00  0.00    -0.237 OA
ATOM     93  O   UNL A   1      45.844  39.171  33.901  1.00  0.00    -0.237 OA
ATOM     94  O   UNL A   1      43.516  39.920  34.206  1.00  0.00    -0.744 OA
ENDBRANCH  90  91
ENDBRANCH  64  85
ENDBRANCH  38  39
ENDBRANCH  30  33
ENDBRANCH  28  29
ENDBRANCH  27  28
ENDBRANCH  26  27
ENDBRANCH   1  26
TORSDOF 20
ENDMDL
MODEL 2
REMARK VINA RESULT:      -9.8      2.217      2.758
REMARK SMILES Cc1ccc(NC(=O)C[C@@H](C(=O)NCCCCCCNC(=O)c2ccc(-c3c4nc(c(-c5ccc(S(=O)(=O)[O-])cc5)c5ccc([nH]5)c(-c5ccc(S(=O)(=O)[O-])cc5)c5nc(c(-c6ccc(S(=O)(=O)[O-])cc6)c6ccc3[nH]6)C=C5)C=C4)cc2)[NH+](C)C)cc1Cl
REMARK SMILES IDX 16 1 15 2 14 3 13 4 11 5 12 6 10 8 9 9 7 10 6 11 8 13 5 14
REMARK SMILES IDX 1 15 2 16 3 17 87 18 4 19 86 20 88 21 83 22 84 23 85 24
REMARK SMILES IDX 17 26 18 27 19 28 20 29 21 30 22 32 23 33 24 34 82 35 25 36
REMARK SMILES IDX 81 37 26 38 27 39 28 40 75 41 29 42 80 43 74 44 76 45 30 46
REMARK SMILES IDX 79 47 73 48 72 49 31 51 61 52 42 53 60 54 43 55 46 56 59 57
REMARK SMILES IDX 77 58 44 59 45 60 58 62 78 63 47 64 32 65 33 66 41 67 34 68
REMARK SMILES IDX 40 69 35 70 36 71 37 72 38 73 39 74 62 75 63 76 71 77 64 78
REMARK SMILES IDX 70 79 65 80 66 81 67 82 68 83 69 84 48 85 49 86 57 87 50 88
REMARK SMILES IDX 56 89 51 90 52 91 53 92 54 93 55 94
REMARK H PARENT 13 7 6 12 83 25 20 31 76 50 46 61
REMARK Flexibility Score: inf
ROOT
ATOM      1  C   UNL A   1      35.124  24.639  25.245  1.00  0.00     0.002 C 
ENDROOT
BRANCH   1   2
ATOM      2  C   UNL A   1      34.169  25.793  24.914  1.00  0.00     0.021 C 
BRANCH   2   3
ATOM      3  C   UNL A   1      33.572  26.545  26.109  1.00  0.00     0.116 C 
BRANCH   3   4
ATOM      4  N   UNL A   1      33.504  27.981  25.889  1.00  0.00    -0.351 N 
ATOM      5  C   UNL A   1      32.574  28.786  25.294  1.00  0.00     0.278 C 
ATOM      6  O   UNL A   1      32.810  29.997  25.354  1.00  0.00    -0.268 OA
ATOM      7  H   UNL A   1      34.282  28.471  26.237  1.00  0.00     0.163 HD
BRANCH   5   8
ATOM      8  C   UNL A   1      31.287  28.209  24.645  1.00  0.00     0.283 C 
BRANCH   8   9
ATOM      9  C   UNL A   1      30.723  26.899  25.235  1.00  0.00     0.175 C 
BRANCH   9  10
ATOM     10  C   UNL A   1      29.871  25.975  24.406  1.00  0.00     0.230 C 
ATOM     11  N   UNL A   1      30.093  24.635  24.284  1.00  0.00    -0.326 N 
ATOM     12  H   UNL A   1      29.588  24.210  23.553  1.00  0.00     0.169 HD
ATOM     13  O   UNL A   1      28.906  26.440  23.784  1.00  0.00    -0.274 OA
BRANCH  11  14
ATOM     14  C   UNL A   1      30.906  23.749  25.005  1.00  0.00     0.042 A 
ATOM     15  C   UNL A   1      33.895  21.783  27.412  1.00  0.00     0.046 C 
ATOM     16  C   UNL A   1      32.785  22.373  26.590  1.00  0.00    -0.032 A 
ATOM     17  C   UNL A   1      31.926  23.312  27.166  1.00  0.00     0.007 A 
ATOM     18  C   UNL A   1      32.609  22.050  25.235  1.00  0.00     0.046 A 
ATOM     19  C   UNL A   1      30.968  23.964  26.386  1.00  0.00     0.026 A 
ATOM     20  C   UNL A   1      31.679  22.741  24.445  1.00  0.00     0.047 A 
ATOM     21  Cl  UNL A   1      33.549  20.806  24.486  1.00  0.00    -0.084 Cl
ENDBRANCH  11  14
ENDBRANCH   9  10
ENDBRANCH   8   9
BRANCH   8  22
ATOM     22  N   UNL A   1      31.346  28.122  23.131  1.00  0.00    -0.329 N 
ATOM     23  C   UNL A   1      30.603  29.185  22.449  1.00  0.00     0.333 C 
ATOM     24  C   UNL A   1      32.688  28.050  22.554  1.00  0.00     0.333 C 
ATOM     25  H   UNL A   1      30.890  27.225  22.964  1.00  0.00     0.348 HD
ENDBRANCH   8  22
ENDBRANCH   5   8
ENDBRANCH   3   4
ENDBRANCH   2   3
ENDBRANCH   1   2
BRANCH   1  26
ATOM     26  C   UNL A   1      35.537  23.777  24.055  1.00  0.00     0.002 C 
BRANCH  26  27
ATOM     27  C   UNL A   1      36.777  22.912  24.286  1.00  0.00     0.021 C 
BRANCH  27  28
ATOM     28  C   UNL A   1      37.353  22.978  25.698  1.00  0.00     0.116 C 
BRANCH  28  29
ATOM     29  N   UNL A   1      38.360  21.953  25.929  1.00  0.00    -0.352 N 
ATOM     30  C   UNL A   1      39.657  22.116  26.352  1.00  0.00     0.251 C 
ATOM     31  H   UNL A   1      38.076  21.025  25.759  1.00  0.00     0.163 HD
ATOM     32  O   UNL A   1      40.456  21.186  26.293  1.00  0.00    -0.269 OA
BRANCH  30  33
ATOM     33  C   UNL A   1      40.078  23.437  26.857  1.00  0.00     0.039 A 
ATOM     34  C   UNL A   1      40.701  23.527  28.102  1.00  0.00     0.014 A 
ATOM     35  C   UNL A   1      39.903  24.577  26.065  1.00  0.00     0.014 A 
ATOM     36  C   UNL A   1      41.206  24.757  28.529  1.00  0.00     0.010 A 
ATOM     37  C   UNL A   1      40.480  25.780  26.456  1.00  0.00     0.010 A 
ATOM     38  C   UNL A   1      41.130  25.886  27.694  1.00  0.00    -0.014 A 
BRANCH  38  39
ATOM     39  C   UNL A   1      41.718  27.187  28.105  1.00  0.00     0.031 A 
ATOM     40  C   UNL A   1      43.207  27.393  28.038  1.00  0.00     0.074 A 
ATOM     41  C   UNL A   1      40.921  28.161  28.588  1.00  0.00     0.049 A 
ATOM     42  N   UNL A   1      43.911  28.442  28.382  1.00  0.00    -0.248 NA
ATOM     43  C   UNL A   1      44.016  26.265  27.547  1.00  0.00     0.031 C 
ATOM     44  C   UNL A   1      39.466  28.066  28.742  1.00  0.00     0.029 A 
ATOM     45  N   UNL A   1      41.220  29.422  29.039  1.00  0.00    -0.354 N 
ATOM     46  C   UNL A   1      45.238  28.095  28.161  1.00  0.00     0.074 A 
ATOM     47  C   UNL A   1      45.248  26.721  27.712  1.00  0.00     0.031 C 
ATOM     48  C   UNL A   1      38.999  29.231  29.219  1.00  0.00     0.029 A 
ATOM     49  C   UNL A   1      40.119  30.139  29.446  1.00  0.00     0.049 A 
ATOM     50  H   UNL A   1      42.136  29.781  29.069  1.00  0.00     0.167 HD
ATOM     51  C   UNL A   1      46.349  28.858  28.296  1.00  0.00     0.031 A 
ATOM     52  C   UNL A   1      40.021  31.385  29.950  1.00  0.00     0.031 A 
ATOM     53  C   UNL A   1      46.334  30.227  28.741  1.00  0.00     0.049 A 
ATOM     54  C   UNL A   1      41.271  32.208  30.111  1.00  0.00     0.074 A 
ATOM     55  C   UNL A   1      47.398  31.104  28.861  1.00  0.00     0.029 A 
ATOM     56  N   UNL A   1      45.199  30.915  29.145  1.00  0.00    -0.354 N 
ATOM     57  N   UNL A   1      42.510  31.888  29.825  1.00  0.00    -0.248 NA
ATOM     58  C   UNL A   1      41.106  33.565  30.650  1.00  0.00     0.031 C 
ATOM     59  C   UNL A   1      46.915  32.302  29.398  1.00  0.00     0.029 A 
ATOM     60  C   UNL A   1      45.541  32.196  29.545  1.00  0.00     0.049 A 
ATOM     61  H   UNL A   1      44.286  30.548  29.147  1.00  0.00     0.167 HD
ATOM     62  C   UNL A   1      43.271  33.013  30.125  1.00  0.00     0.074 A 
ATOM     63  C   UNL A   1      42.348  34.026  30.596  1.00  0.00     0.031 C 
ATOM     64  C   UNL A   1      44.612  33.192  30.018  1.00  0.00     0.031 A 
BRANCH  51  65
ATOM     65  C   UNL A   1      47.675  28.220  27.970  1.00  0.00    -0.014 A 
ATOM     66  C   UNL A   1      48.402  27.507  28.943  1.00  0.00     0.010 A 
ATOM     67  C   UNL A   1      48.193  28.311  26.665  1.00  0.00     0.010 A 
ATOM     68  C   UNL A   1      49.640  26.942  28.630  1.00  0.00     0.020 A 
ATOM     69  C   UNL A   1      49.417  27.717  26.339  1.00  0.00     0.020 A 
ATOM     70  C   UNL A   1      50.142  27.054  27.331  1.00  0.00     0.054 A 
BRANCH  70  71
ATOM     71  S   UNL A   1      51.746  26.297  26.951  1.00  0.00     0.124 S 
ATOM     72  O   UNL A   1      52.132  27.006  25.735  1.00  0.00    -0.237 OA
ATOM     73  O   UNL A   1      52.536  26.610  28.139  1.00  0.00    -0.237 OA
ATOM     74  O   UNL A   1      51.429  24.881  26.773  1.00  0.00    -0.744 OA
ENDBRANCH  70  71
ENDBRANCH  51  65
BRANCH  52  75
ATOM     75  C   UNL A   1      38.687  31.935  30.320  1.00  0.00    -0.014 A 
ATOM     76  C   UNL A   1      38.101  31.620  31.559  1.00  0.00     0.010 A 
ATOM     77  C   UNL A   1      38.001  32.793  29.441  1.00  0.00     0.010 A 
ATOM     78  C   UNL A   1      36.852  32.141  31.906  1.00  0.00     0.020 A 
ATOM     79  C   UNL A   1      36.765  33.340  29.796  1.00  0.00     0.020 A 
ATOM     80  C   UNL A   1      36.193  33.002  31.024  1.00  0.00     0.054 A 
BRANCH  80  81
ATOM     81  S   UNL A   1      34.599  33.713  31.522  1.00  0.00     0.124 S 
ATOM     82  O   UNL A   1      34.046  32.658  32.365  1.00  0.00    -0.237 OA
ATOM     83  O   UNL A   1      35.003  34.933  32.216  1.00  0.00    -0.237 OA
ATOM     84  O   UNL A   1      33.909  33.928  30.252  1.00  0.00    -0.744 OA
ENDBRANCH  80  81
ENDBRANCH  52  75
BRANCH  64  85
ATOM     85  C   UNL A   1      45.164  34.545  30.386  1.00  0.00    -0.014 A 
ATOM     86  C   UNL A   1      45.616  34.821  31.688  1.00  0.00     0.010 A 
ATOM     87  C   UNL A   1      45.282  35.537  29.395  1.00  0.00     0.010 A 
ATOM     88  C   UNL A   1      46.147  36.075  31.999  1.00  0.00     0.020 A 
ATOM     89  C   UNL A   1      45.843  36.781  29.695  1.00  0.00     0.020 A 
ATOM     90  C   UNL A   1      46.259  37.047  31.000  1.00  0.00     0.054 A 
BRANCH  90  91
ATOM     91  S   UNL A   1      46.994  38.651  31.421  1.00  0.00     0.124 S 
ATOM     92  O   UNL A   1      45.874  39.563  31.205  1.00  0.00    -0.237 OA
ATOM     93  O   UNL A   1      47.393  38.464  32.813  1.00  0.00    -0.237 OA
ATOM     94  O   UNL A   1      48.098  38.786  30.474  1.00  0.00    -0.744 OA
ENDBRANCH  90  91
ENDBRANCH  64  85
ENDBRANCH  38  39
ENDBRANCH  30  33
ENDBRANCH  28  29
ENDBRANCH  27  28
ENDBRANCH  26  27
ENDBRANCH   1  26
TORSDOF 20
ENDMDL
MODEL 3
REMARK VINA RESULT:      -9.7      2.575      8.323
REMARK SMILES Cc1ccc(NC(=O)C[C@@H](C(=O)NCCCCCCNC(=O)c2ccc(-c3c4nc(c(-c5ccc(S(=O)(=O)[O-])cc5)c5ccc([nH]5)c(-c5ccc(S(=O)(=O)[O-])cc5)c5nc(c(-c6ccc(S(=O)(=O)[O-])cc6)c6ccc3[nH]6)C=C5)C=C4)cc2)[NH+](C)C)cc1Cl
REMARK SMILES IDX 16 1 15 2 14 3 13 4 11 5 12 6 10 8 9 9 7 10 6 11 8 13 5 14
REMARK SMILES IDX 1 15 2 16 3 17 87 18 4 19 86 20 88 21 83 22 84 23 85 24
REMARK SMILES IDX 17 26 18 27 19 28 20 29 21 30 22 32 23 33 24 34 82 35 25 36
REMARK SMILES IDX 81 37 26 38 27 39 28 40 75 41 29 42 80 43 74 44 76 45 30 46
REMARK SMILES IDX 79 47 73 48 72 49 31 51 61 52 42 53 60 54 43 55 46 56 59 57
REMARK SMILES IDX 77 58 44 59 45 60 58 62 78 63 47 64 32 65 33 66 41 67 34 68
REMARK SMILES IDX 40 69 35 70 36 71 37 72 38 73 39 74 62 75 63 76 71 77 64 78
REMARK SMILES IDX 70 79 65 80 66 81 67 82 68 83 69 84 48 85 49 86 57 87 50 88
REMARK SMILES IDX 56 89 51 90 52 91 53 92 54 93 55 94
REMARK H PARENT 13 7 6 12 83 25 20 31 76 50 46 61
REMARK Flexibility Score: inf
ROOT
ATOM      1  C   UNL A   1      34.862  24.782  25.251  1.00  0.00     0.002 C 
ENDROOT
BRANCH   1   2
ATOM      2  C   UNL A   1      34.041  26.039  24.935  1.00  0.00     0.021 C 
BRANCH   2   3
ATOM      3  C   UNL A   1      33.337  26.706  26.122  1.00  0.00     0.116 C 
BRANCH   3   4
ATOM      4  N   UNL A   1      33.186  28.142  25.947  1.00  0.00    -0.351 N 
ATOM      5  C   UNL A   1      32.243  28.907  25.323  1.00  0.00     0.278 C 
ATOM      6  O   UNL A   1      32.392  30.128  25.440  1.00  0.00    -0.268 OA
ATOM      7  H   UNL A   1      33.908  28.667  26.361  1.00  0.00     0.163 HD
BRANCH   5   8
ATOM      8  C   UNL A   1      31.038  28.273  24.576  1.00  0.00     0.283 C 
BRANCH   8   9
ATOM      9  C   UNL A   1      30.565  26.882  25.047  1.00  0.00     0.175 C 
BRANCH   9  10
ATOM     10  C   UNL A   1      29.665  26.034  24.188  1.00  0.00     0.230 C 
ATOM     11  N   UNL A   1      29.952  24.753  23.813  1.00  0.00    -0.326 N 
ATOM     12  H   UNL A   1      29.377  24.410  23.091  1.00  0.00     0.169 HD
ATOM     13  O   UNL A   1      28.596  26.508  23.782  1.00  0.00    -0.274 OA
BRANCH  11  14
ATOM     14  C   UNL A   1      30.911  23.837  24.265  1.00  0.00     0.042 A 
ATOM     15  C   UNL A   1      33.255  20.390  25.368  1.00  0.00     0.046 C 
ATOM     16  C   UNL A   1      32.538  21.654  24.990  1.00  0.00    -0.032 A 
ATOM     17  C   UNL A   1      32.249  21.906  23.646  1.00  0.00     0.007 A 
ATOM     18  C   UNL A   1      32.099  22.578  25.951  1.00  0.00     0.046 A 
ATOM     19  C   UNL A   1      31.477  23.011  23.286  1.00  0.00     0.026 A 
ATOM     20  C   UNL A   1      31.282  23.659  25.591  1.00  0.00     0.047 A 
ATOM     21  Cl  UNL A   1      32.527  22.400  27.618  1.00  0.00    -0.084 Cl
ENDBRANCH  11  14
ENDBRANCH   9  10
ENDBRANCH   8   9
BRANCH   8  22
ATOM     22  N   UNL A   1      31.168  28.301  23.064  1.00  0.00    -0.329 N 
ATOM     23  C   UNL A   1      30.388  29.364  22.423  1.00  0.00     0.333 C 
ATOM     24  C   UNL A   1      32.536  28.353  22.548  1.00  0.00     0.333 C 
ATOM     25  H   UNL A   1      30.779  27.393  22.812  1.00  0.00     0.348 HD
ENDBRANCH   8  22
ENDBRANCH   5   8
ENDBRANCH   3   4
ENDBRANCH   2   3
ENDBRANCH   1   2
BRANCH   1  26
ATOM     26  C   UNL A   1      35.191  23.902  24.048  1.00  0.00     0.002 C 
BRANCH  26  27
ATOM     27  C   UNL A   1      36.354  22.931  24.259  1.00  0.00     0.021 C 
BRANCH  27  28
ATOM     28  C   UNL A   1      37.050  23.046  25.612  1.00  0.00     0.116 C 
BRANCH  28  29
ATOM     29  N   UNL A   1      37.931  21.918  25.873  1.00  0.00    -0.352 N 
ATOM     30  C   UNL A   1      39.232  21.940  26.314  1.00  0.00     0.251 C 
ATOM     31  H   UNL A   1      37.546  21.025  25.713  1.00  0.00     0.163 HD
ATOM     32  O   UNL A   1      39.922  20.924  26.282  1.00  0.00    -0.269 OA
BRANCH  30  33
ATOM     33  C   UNL A   1      39.794  23.213  26.806  1.00  0.00     0.039 A 
ATOM     34  C   UNL A   1      40.527  23.225  27.993  1.00  0.00     0.014 A 
ATOM     35  C   UNL A   1      39.638  24.383  26.054  1.00  0.00     0.014 A 
ATOM     36  C   UNL A   1      41.157  24.403  28.397  1.00  0.00     0.010 A 
ATOM     37  C   UNL A   1      40.335  25.530  26.416  1.00  0.00     0.010 A 
ATOM     38  C   UNL A   1      41.095  25.556  27.594  1.00  0.00    -0.014 A 
BRANCH  38  39
ATOM     39  C   UNL A   1      41.812  26.799  27.977  1.00  0.00     0.031 A 
ATOM     40  C   UNL A   1      41.045  27.972  28.528  1.00  0.00     0.074 A 
ATOM     41  C   UNL A   1      43.142  26.895  27.778  1.00  0.00     0.049 A 
ATOM     42  N   UNL A   1      41.485  29.150  28.888  1.00  0.00    -0.248 NA
ATOM     43  C   UNL A   1      39.588  27.808  28.668  1.00  0.00     0.031 C 
ATOM     44  C   UNL A   1      43.991  25.844  27.211  1.00  0.00     0.029 A 
ATOM     45  N   UNL A   1      44.014  27.924  28.031  1.00  0.00    -0.354 N 
ATOM     46  C   UNL A   1      40.363  29.868  29.282  1.00  0.00     0.074 A 
ATOM     47  C   UNL A   1      39.215  29.016  29.061  1.00  0.00     0.031 C 
ATOM     48  C   UNL A   1      45.264  26.271  27.191  1.00  0.00     0.029 A 
ATOM     49  C   UNL A   1      45.318  27.637  27.702  1.00  0.00     0.049 A 
ATOM     50  H   UNL A   1      43.733  28.788  28.411  1.00  0.00     0.167 HD
ATOM     51  C   UNL A   1      40.293  31.116  29.803  1.00  0.00     0.031 A 
ATOM     52  C   UNL A   1      46.433  28.389  27.794  1.00  0.00     0.031 A 
ATOM     53  C   UNL A   1      41.438  31.960  30.024  1.00  0.00     0.049 A 
ATOM     54  C   UNL A   1      46.329  29.781  28.358  1.00  0.00     0.074 A 
ATOM     55  C   UNL A   1      41.482  33.218  30.597  1.00  0.00     0.029 A 
ATOM     56  N   UNL A   1      42.741  31.632  29.675  1.00  0.00    -0.354 N 
ATOM     57  N   UNL A   1      45.268  30.415  28.796  1.00  0.00    -0.248 NA
ATOM     58  C   UNL A   1      47.576  30.553  28.451  1.00  0.00     0.031 C 
ATOM     59  C   UNL A   1      42.802  33.679  30.536  1.00  0.00     0.029 A 
ATOM     60  C   UNL A   1      43.592  32.678  29.992  1.00  0.00     0.049 A 
ATOM     61  H   UNL A   1      43.019  30.782  29.264  1.00  0.00     0.167 HD
ATOM     62  C   UNL A   1      45.722  31.651  29.242  1.00  0.00     0.074 A 
ATOM     63  C   UNL A   1      47.157  31.666  29.037  1.00  0.00     0.031 C 
ATOM     64  C   UNL A   1      45.017  32.681  29.776  1.00  0.00     0.031 A 
BRANCH  51  65
ATOM     65  C   UNL A   1      38.928  31.647  30.160  1.00  0.00    -0.014 A 
ATOM     66  C   UNL A   1      38.138  32.326  29.212  1.00  0.00     0.010 A 
ATOM     67  C   UNL A   1      38.413  31.442  31.453  1.00  0.00     0.010 A 
ATOM     68  C   UNL A   1      36.884  32.831  29.565  1.00  0.00     0.020 A 
ATOM     69  C   UNL A   1      37.144  31.917  31.800  1.00  0.00     0.020 A 
ATOM     70  C   UNL A   1      36.397  32.627  30.858  1.00  0.00     0.054 A 
BRANCH  70  71
ATOM     71  S   UNL A   1      34.760  33.282  31.282  1.00  0.00     0.124 S 
ATOM     72  O   UNL A   1      35.096  34.586  31.847  1.00  0.00    -0.237 OA
ATOM     73  O   UNL A   1      34.083  33.314  29.989  1.00  0.00    -0.237 OA
ATOM     74  O   UNL A   1      34.231  32.308  32.235  1.00  0.00    -0.744 OA
ENDBRANCH  70  71
ENDBRANCH  51  65
BRANCH  52  75
ATOM     75  C   UNL A   1      47.744  27.833  27.360  1.00  0.00    -0.014 A 
ATOM     76  C   UNL A   1      48.162  27.946  26.022  1.00  0.00     0.010 A 
ATOM     77  C   UNL A   1      48.592  27.201  28.287  1.00  0.00     0.010 A 
ATOM     78  C   UNL A   1      49.395  27.427  25.618  1.00  0.00     0.020 A 
ATOM     79  C   UNL A   1      49.839  26.706  27.894  1.00  0.00     0.020 A 
ATOM     80  C   UNL A   1      50.229  26.815  26.557  1.00  0.00     0.054 A 
BRANCH  80  81
ATOM     81  S   UNL A   1      51.851  26.202  26.021  1.00  0.00     0.124 S 
ATOM     82  O   UNL A   1      52.763  27.026  26.809  1.00  0.00    -0.237 OA
ATOM     83  O   UNL A   1      51.791  24.791  26.391  1.00  0.00    -0.237 OA
ATOM     84  O   UNL A   1      51.855  26.461  24.583  1.00  0.00    -0.744 OA
ENDBRANCH  80  81
ENDBRANCH  52  75
BRANCH  64  85
ATOM     85  C   UNL A   1      45.788  33.902  30.207  1.00  0.00    -0.014 A 
ATOM     86  C   UNL A   1      45.986  34.987  29.337  1.00  0.00     0.010 A 
ATOM     87  C   UNL A   1      46.272  33.983  31.527  1.00  0.00     0.010 A 
ATOM     88  C   UNL A   1      46.683  36.119  29.769  1.00  0.00     0.020 A 
ATOM     89  C   UNL A   1      46.940  35.126  31.971  1.00  0.00     0.020 A 
ATOM     90  C   UNL A   1      47.154  36.182  31.083  1.00  0.00     0.054 A 
BRANCH  90  91
ATOM     91  S   UNL A   1      48.015  37.682  31.631  1.00  0.00     0.124 S 
ATOM     92  O   UNL A   1      49.071  37.808  30.630  1.00  0.00    -0.237 OA
ATOM     93  O   UNL A   1      46.965  38.695  31.567  1.00  0.00    -0.237 OA
ATOM     94  O   UNL A   1      48.471  37.348  32.978  1.00  0.00    -0.744 OA
ENDBRANCH  90  91
ENDBRANCH  64  85
ENDBRANCH  38  39
ENDBRANCH  30  33
ENDBRANCH  28  29
ENDBRANCH  27  28
ENDBRANCH  26  27
ENDBRANCH   1  26
TORSDOF 20
ENDMDL
