MODEL 1
REMARK VINA RESULT:     -12.5      0.000      0.000
REMARK SMILES C[C@@H]1C(C(=O)NCCCCCCNC(=O)c2ccc(-c3c4nc(c(-c5ccc(S(=O)(=O)[O-])cc5)c5ccc([nH]5)c(-c5ccc(S(=O)(=O)[O-])cc5)c5nc(c(-c6ccc(S(=O)(=O)[O-])cc6)c6ccc3[nH]6)C=C5)C=C4)cc2)=NC2=C1C(=O)C[C@H](c1ccccc1)C2
REMARK SMILES IDX 10 1 9 2 8 3 7 4 6 5 4 6 5 7 3 9 1 10 2 11 78 12 76 13 77 14
REMARK SMILES IDX 79 15 89 16 80 17 81 18 82 19 83 20 84 21 88 22 85 23 87 24
REMARK SMILES IDX 86 25 11 26 12 27 13 28 14 29 15 31 16 32 17 33 75 34 18 35
REMARK SMILES IDX 74 36 19 37 20 38 21 39 68 40 22 41 73 42 67 43 69 44 23 45
REMARK SMILES IDX 72 46 66 47 65 48 24 50 54 51 35 52 53 53 36 54 39 55 52 56
REMARK SMILES IDX 70 57 37 58 38 59 51 61 71 62 40 63 25 64 26 65 34 66 27 67
REMARK SMILES IDX 33 68 28 69 29 70 30 71 31 72 32 73 55 74 56 75 64 76 57 77
REMARK SMILES IDX 63 78 58 79 59 80 60 81 61 82 62 83 41 84 42 85 50 86 43 87
REMARK SMILES IDX 49 88 44 89 45 90 46 91 47 92 48 93
REMARK H PARENT 6 8 13 30 69 49 39 60
REMARK Flexibility Score: inf
ROOT
ATOM      1  C   UNL A   1      36.556  21.158  25.519  1.00  0.00     0.002 C 
ENDROOT
BRANCH   1   2
ATOM      2  C   UNL A   1      35.218  21.700  25.009  1.00  0.00     0.002 C 
BRANCH   2   3
ATOM      3  C   UNL A   1      34.388  22.598  25.925  1.00  0.00     0.021 C 
BRANCH   3   4
ATOM      4  C   UNL A   1      33.909  23.963  25.432  1.00  0.00     0.116 C 
BRANCH   4   5
ATOM      5  N   UNL A   1      33.138  24.795  26.333  1.00  0.00    -0.351 N 
ATOM      6  C   UNL A   1      31.884  25.365  26.133  1.00  0.00     0.266 C 
ATOM      7  O   UNL A   1      31.219  25.714  27.104  1.00  0.00    -0.268 OA
ATOM      8  H   UNL A   1      33.556  24.982  27.203  1.00  0.00     0.163 HD
BRANCH   6   9
ATOM      9  C   UNL A   1      31.373  25.703  24.729  1.00  0.00     0.113 C 
ATOM     10  C   UNL A   1      30.502  24.014  23.108  1.00  0.00     0.020 C 
ATOM     11  C   UNL A   1      31.688  24.889  23.502  1.00  0.00     0.076 C 
ATOM     12  C   UNL A   1      31.774  26.120  22.664  1.00  0.00     0.026 C 
ATOM     13  N   UNL A   1      30.697  26.803  24.491  1.00  0.00    -0.251 NA
ATOM     14  C   UNL A   1      31.003  27.084  23.173  1.00  0.00     0.049 C 
ATOM     15  C   UNL A   1      33.030  26.561  22.022  1.00  0.00     0.161 C 
ATOM     16  C   UNL A   1      31.130  28.502  22.692  1.00  0.00     0.065 C 
ATOM     17  O   UNL A   1      33.701  25.722  21.423  1.00  0.00    -0.294 OA
ATOM     18  C   UNL A   1      33.530  28.002  22.249  1.00  0.00     0.089 C 
ATOM     19  C   UNL A   1      32.564  28.974  23.009  1.00  0.00     0.033 C 
BRANCH  19  20
ATOM     20  C   UNL A   1      32.814  29.160  24.521  1.00  0.00    -0.044 A 
ATOM     21  C   UNL A   1      31.985  29.994  25.304  1.00  0.00     0.004 A 
ATOM     22  C   UNL A   1      33.872  28.529  25.187  1.00  0.00     0.004 A 
ATOM     23  C   UNL A   1      32.082  30.045  26.695  1.00  0.00     0.000 A 
ATOM     24  C   UNL A   1      33.993  28.603  26.582  1.00  0.00     0.000 A 
ATOM     25  C   UNL A   1      33.076  29.328  27.339  1.00  0.00     0.000 A 
ENDBRANCH  19  20
ENDBRANCH   6   9
ENDBRANCH   4   5
ENDBRANCH   3   4
ENDBRANCH   2   3
ENDBRANCH   1   2
BRANCH   1  26
ATOM     26  C   UNL A   1      37.847  21.852  25.064  1.00  0.00     0.021 C 
BRANCH  26  27
ATOM     27  C   UNL A   1      38.848  22.160  26.168  1.00  0.00     0.116 C 
BRANCH  27  28
ATOM     28  N   UNL A   1      40.106  21.417  26.053  1.00  0.00    -0.352 N 
ATOM     29  C   UNL A   1      41.390  21.932  26.035  1.00  0.00     0.251 C 
ATOM     30  H   UNL A   1      40.028  20.438  25.981  1.00  0.00     0.163 HD
ATOM     31  O   UNL A   1      42.326  21.276  25.572  1.00  0.00    -0.269 OA
BRANCH  29  32
ATOM     32  C   UNL A   1      41.629  23.273  26.595  1.00  0.00     0.039 A 
ATOM     33  C   UNL A   1      41.144  24.443  25.996  1.00  0.00     0.014 A 
ATOM     34  C   UNL A   1      42.357  23.336  27.778  1.00  0.00     0.014 A 
ATOM     35  C   UNL A   1      41.336  25.664  26.644  1.00  0.00     0.010 A 
ATOM     36  C   UNL A   1      42.382  24.496  28.498  1.00  0.00     0.010 A 
ATOM     37  C   UNL A   1      41.948  25.676  27.903  1.00  0.00    -0.014 A 
BRANCH  37  38
ATOM     38  C   UNL A   1      42.067  26.885  28.713  1.00  0.00     0.031 A 
ATOM     39  C   UNL A   1      43.257  27.721  28.394  1.00  0.00     0.074 A 
ATOM     40  C   UNL A   1      41.006  27.334  29.425  1.00  0.00     0.049 A 
ATOM     41  N   UNL A   1      44.231  28.048  29.178  1.00  0.00    -0.248 NA
ATOM     42  C   UNL A   1      43.472  28.125  26.991  1.00  0.00     0.031 C 
ATOM     43  C   UNL A   1      39.674  26.717  29.532  1.00  0.00     0.029 A 
ATOM     44  N   UNL A   1      40.820  28.523  30.060  1.00  0.00    -0.354 N 
ATOM     45  C   UNL A   1      45.048  28.896  28.437  1.00  0.00     0.074 A 
ATOM     46  C   UNL A   1      44.663  28.720  27.061  1.00  0.00     0.031 C 
ATOM     47  C   UNL A   1      38.774  27.641  29.933  1.00  0.00     0.029 A 
ATOM     48  C   UNL A   1      39.481  28.863  30.266  1.00  0.00     0.049 A 
ATOM     49  H   UNL A   1      41.567  29.095  30.349  1.00  0.00     0.167 HD
ATOM     50  C   UNL A   1      45.769  29.890  29.030  1.00  0.00     0.031 A 
ATOM     51  C   UNL A   1      38.984  30.075  30.630  1.00  0.00     0.031 A 
ATOM     52  C   UNL A   1      45.815  29.718  30.461  1.00  0.00     0.049 A 
ATOM     53  C   UNL A   1      40.115  30.845  31.204  1.00  0.00     0.074 A 
ATOM     54  C   UNL A   1      46.254  28.716  31.303  1.00  0.00     0.029 A 
ATOM     55  N   UNL A   1      44.962  30.500  31.207  1.00  0.00    -0.354 N 
ATOM     56  N   UNL A   1      40.719  30.502  32.308  1.00  0.00    -0.248 NA
ATOM     57  C   UNL A   1      40.893  31.687  30.307  1.00  0.00     0.031 C 
ATOM     58  C   UNL A   1      45.276  28.660  32.339  1.00  0.00     0.029 A 
ATOM     59  C   UNL A   1      44.355  29.689  32.132  1.00  0.00     0.049 A 
ATOM     60  H   UNL A   1      44.813  31.467  31.096  1.00  0.00     0.167 HD
ATOM     61  C   UNL A   1      42.068  30.683  32.042  1.00  0.00     0.074 A 
ATOM     62  C   UNL A   1      42.109  31.512  30.836  1.00  0.00     0.031 C 
ATOM     63  C   UNL A   1      43.015  29.898  32.640  1.00  0.00     0.031 A 
BRANCH  50  64
ATOM     64  C   UNL A   1      46.052  31.230  28.386  1.00  0.00    -0.014 A 
ATOM     65  C   UNL A   1      45.018  32.189  28.342  1.00  0.00     0.010 A 
ATOM     66  C   UNL A   1      47.181  31.475  27.578  1.00  0.00     0.010 A 
ATOM     67  C   UNL A   1      45.073  33.280  27.465  1.00  0.00     0.020 A 
ATOM     68  C   UNL A   1      47.267  32.585  26.735  1.00  0.00     0.020 A 
ATOM     69  C   UNL A   1      46.193  33.459  26.654  1.00  0.00     0.054 A 
BRANCH  69  70
ATOM     70  S   UNL A   1      46.207  34.800  25.440  1.00  0.00     0.124 S 
ATOM     71  O   UNL A   1      45.211  34.341  24.477  1.00  0.00    -0.237 OA
ATOM     72  O   UNL A   1      45.824  35.952  26.250  1.00  0.00    -0.237 OA
ATOM     73  O   UNL A   1      47.587  34.812  24.959  1.00  0.00    -0.744 OA
ENDBRANCH  69  70
ENDBRANCH  50  64
BRANCH  51  74
ATOM     74  C   UNL A   1      37.687  30.703  30.253  1.00  0.00    -0.014 A 
ATOM     75  C   UNL A   1      36.861  31.324  31.213  1.00  0.00     0.010 A 
ATOM     76  C   UNL A   1      37.384  30.936  28.895  1.00  0.00     0.010 A 
ATOM     77  C   UNL A   1      35.819  32.193  30.828  1.00  0.00     0.020 A 
ATOM     78  C   UNL A   1      36.345  31.793  28.505  1.00  0.00     0.020 A 
ATOM     79  C   UNL A   1      35.584  32.441  29.473  1.00  0.00     0.054 A 
BRANCH  79  80
ATOM     80  S   UNL A   1      34.376  33.710  28.978  1.00  0.00     0.124 S 
ATOM     81  O   UNL A   1      33.569  33.006  27.986  1.00  0.00    -0.237 OA
ATOM     82  O   UNL A   1      33.702  34.019  30.237  1.00  0.00    -0.237 OA
ATOM     83  O   UNL A   1      35.209  34.788  28.445  1.00  0.00    -0.744 OA
ENDBRANCH  79  80
ENDBRANCH  51  74
BRANCH  63  84
ATOM     84  C   UNL A   1      42.592  29.000  33.782  1.00  0.00    -0.014 A 
ATOM     85  C   UNL A   1      41.759  27.872  33.631  1.00  0.00     0.010 A 
ATOM     86  C   UNL A   1      43.202  29.215  35.029  1.00  0.00     0.010 A 
ATOM     87  C   UNL A   1      41.521  27.005  34.709  1.00  0.00     0.020 A 
ATOM     88  C   UNL A   1      42.986  28.345  36.100  1.00  0.00     0.020 A 
ATOM     89  C   UNL A   1      42.138  27.250  35.940  1.00  0.00     0.054 A 
BRANCH  89  90
ATOM     90  S   UNL A   1      41.859  26.112  37.325  1.00  0.00     0.124 S 
ATOM     91  O   UNL A   1      42.893  26.511  38.276  1.00  0.00    -0.237 OA
ATOM     92  O   UNL A   1      40.487  26.414  37.725  1.00  0.00    -0.237 OA
ATOM     93  O   UNL A   1      42.044  24.789  36.731  1.00  0.00    -0.744 OA
ENDBRANCH  89  90
ENDBRANCH  63  84
ENDBRANCH  37  38
ENDBRANCH  29  32
ENDBRANCH  27  28
ENDBRANCH  26  27
ENDBRANCH   1  26
TORSDOF 17
ENDMDL
MODEL 2
REMARK VINA RESULT:     -12.5      2.703      7.565
REMARK SMILES C[C@@H]1C(C(=O)NCCCCCCNC(=O)c2ccc(-c3c4nc(c(-c5ccc(S(=O)(=O)[O-])cc5)c5ccc([nH]5)c(-c5ccc(S(=O)(=O)[O-])cc5)c5nc(c(-c6ccc(S(=O)(=O)[O-])cc6)c6ccc3[nH]6)C=C5)C=C4)cc2)=NC2=C1C(=O)C[C@H](c1ccccc1)C2
REMARK SMILES IDX 10 1 9 2 8 3 7 4 6 5 4 6 5 7 3 9 1 10 2 11 78 12 76 13 77 14
REMARK SMILES IDX 79 15 89 16 80 17 81 18 82 19 83 20 84 21 88 22 85 23 87 24
REMARK SMILES IDX 86 25 11 26 12 27 13 28 14 29 15 31 16 32 17 33 75 34 18 35
REMARK SMILES IDX 74 36 19 37 20 38 21 39 68 40 22 41 73 42 67 43 69 44 23 45
REMARK SMILES IDX 72 46 66 47 65 48 24 50 54 51 35 52 53 53 36 54 39 55 52 56
REMARK SMILES IDX 70 57 37 58 38 59 51 61 71 62 40 63 25 64 26 65 34 66 27 67
REMARK SMILES IDX 33 68 28 69 29 70 30 71 31 72 32 73 55 74 56 75 64 76 57 77
REMARK SMILES IDX 63 78 58 79 59 80 60 81 61 82 62 83 41 84 42 85 50 86 43 87
REMARK SMILES IDX 49 88 44 89 45 90 46 91 47 92 48 93
REMARK H PARENT 6 8 13 30 69 49 39 60
REMARK Flexibility Score: inf
ROOT
ATOM      1  C   UNL A   1      36.102  20.893  25.136  1.00  0.00     0.002 C 
ENDROOT
BRANCH   1   2
ATOM      2  C   UNL A   1      36.037  22.386  24.802  1.00  0.00     0.002 C 
BRANCH   2   3
ATOM      3  C   UNL A   1      34.670  23.064  24.715  1.00  0.00     0.021 C 
BRANCH   3   4
ATOM      4  C   UNL A   1      34.506  24.517  25.159  1.00  0.00     0.116 C 
BRANCH   4   5
ATOM      5  N   UNL A   1      33.536  24.822  26.191  1.00  0.00    -0.351 N 
ATOM      6  C   UNL A   1      32.155  24.956  26.076  1.00  0.00     0.266 C 
ATOM      7  O   UNL A   1      31.453  24.840  27.077  1.00  0.00    -0.268 OA
ATOM      8  H   UNL A   1      33.902  24.951  27.094  1.00  0.00     0.163 HD
BRANCH   6   9
ATOM      9  C   UNL A   1      31.499  25.389  24.761  1.00  0.00     0.113 C 
ATOM     10  C   UNL A   1      30.573  23.803  23.067  1.00  0.00     0.020 C 
ATOM     11  C   UNL A   1      31.742  24.711  23.439  1.00  0.00     0.076 C 
ATOM     12  C   UNL A   1      31.685  26.015  22.718  1.00  0.00     0.026 C 
ATOM     13  N   UNL A   1      30.747  26.462  24.690  1.00  0.00    -0.251 NA
ATOM     14  C   UNL A   1      30.914  26.880  23.384  1.00  0.00     0.049 C 
ATOM     15  C   UNL A   1      32.851  26.589  22.016  1.00  0.00     0.161 C 
ATOM     16  C   UNL A   1      30.921  28.341  23.032  1.00  0.00     0.065 C 
ATOM     17  O   UNL A   1      33.508  25.851  21.282  1.00  0.00    -0.294 OA
ATOM     18  C   UNL A   1      33.293  28.032  22.336  1.00  0.00     0.089 C 
ATOM     19  C   UNL A   1      32.351  28.869  23.267  1.00  0.00     0.033 C 
BRANCH  19  20
ATOM     20  C   UNL A   1      32.729  28.932  24.762  1.00  0.00    -0.044 A 
ATOM     21  C   UNL A   1      33.875  28.271  25.257  1.00  0.00     0.004 A 
ATOM     22  C   UNL A   1      31.958  29.630  25.700  1.00  0.00     0.004 A 
ATOM     23  C   UNL A   1      34.334  28.453  26.563  1.00  0.00     0.000 A 
ATOM     24  C   UNL A   1      32.397  29.788  27.022  1.00  0.00     0.000 A 
ATOM     25  C   UNL A   1      33.603  29.234  27.443  1.00  0.00     0.000 A 
ENDBRANCH  19  20
ENDBRANCH   6   9
ENDBRANCH   4   5
ENDBRANCH   3   4
ENDBRANCH   2   3
ENDBRANCH   1   2
BRANCH   1  26
ATOM     26  C   UNL A   1      37.372  20.116  24.766  1.00  0.00     0.021 C 
BRANCH  26  27
ATOM     27  C   UNL A   1      38.631  20.523  25.519  1.00  0.00     0.116 C 
BRANCH  27  28
ATOM     28  N   UNL A   1      39.568  19.421  25.748  1.00  0.00    -0.352 N 
ATOM     29  C   UNL A   1      40.925  19.507  26.006  1.00  0.00     0.251 C 
ATOM     30  H   UNL A   1      39.188  18.513  25.714  1.00  0.00     0.163 HD
ATOM     31  O   UNL A   1      41.666  18.541  25.817  1.00  0.00    -0.269 OA
BRANCH  29  32
ATOM     32  C   UNL A   1      41.471  20.771  26.530  1.00  0.00     0.039 A 
ATOM     33  C   UNL A   1      42.223  21.655  25.747  1.00  0.00     0.014 A 
ATOM     34  C   UNL A   1      41.192  21.069  27.859  1.00  0.00     0.014 A 
ATOM     35  C   UNL A   1      42.622  22.875  26.297  1.00  0.00     0.010 A 
ATOM     36  C   UNL A   1      41.420  22.329  28.334  1.00  0.00     0.010 A 
ATOM     37  C   UNL A   1      42.204  23.205  27.592  1.00  0.00    -0.014 A 
BRANCH  37  38
ATOM     38  C   UNL A   1      42.456  24.510  28.195  1.00  0.00     0.031 A 
ATOM     39  C   UNL A   1      41.366  25.503  27.984  1.00  0.00     0.074 A 
ATOM     40  C   UNL A   1      43.427  24.654  29.128  1.00  0.00     0.049 A 
ATOM     41  N   UNL A   1      41.438  26.644  27.382  1.00  0.00    -0.248 NA
ATOM     42  C   UNL A   1      39.990  25.120  28.355  1.00  0.00     0.031 C 
ATOM     43  C   UNL A   1      44.348  23.619  29.627  1.00  0.00     0.029 A 
ATOM     44  N   UNL A   1      43.690  25.695  29.962  1.00  0.00    -0.354 N 
ATOM     45  C   UNL A   1      40.179  27.225  27.516  1.00  0.00     0.074 A 
ATOM     46  C   UNL A   1      39.290  26.163  27.909  1.00  0.00     0.031 C 
ATOM     47  C   UNL A   1      44.846  23.992  30.826  1.00  0.00     0.029 A 
ATOM     48  C   UNL A   1      44.414  25.348  31.105  1.00  0.00     0.049 A 
ATOM     49  H   UNL A   1      43.394  26.615  29.776  1.00  0.00     0.167 HD
ATOM     50  C   UNL A   1      40.023  28.578  27.584  1.00  0.00     0.031 A 
ATOM     51  C   UNL A   1      44.600  26.099  32.224  1.00  0.00     0.031 A 
ATOM     52  C   UNL A   1      41.225  29.264  27.183  1.00  0.00     0.049 A 
ATOM     53  C   UNL A   1      44.292  27.502  31.852  1.00  0.00     0.074 A 
ATOM     54  C   UNL A   1      41.997  29.278  26.038  1.00  0.00     0.029 A 
ATOM     55  N   UNL A   1      42.025  29.753  28.191  1.00  0.00    -0.354 N 
ATOM     56  N   UNL A   1      45.004  28.182  30.997  1.00  0.00    -0.248 NA
ATOM     57  C   UNL A   1      42.928  27.973  32.037  1.00  0.00     0.031 C 
ATOM     58  C   UNL A   1      43.342  29.303  26.508  1.00  0.00     0.029 A 
ATOM     59  C   UNL A   1      43.320  29.405  27.901  1.00  0.00     0.049 A 
ATOM     60  H   UNL A   1      41.723  30.260  28.978  1.00  0.00     0.167 HD
ATOM     61  C   UNL A   1      44.073  28.848  30.214  1.00  0.00     0.074 A 
ATOM     62  C   UNL A   1      42.819  28.766  30.965  1.00  0.00     0.031 C 
ATOM     63  C   UNL A   1      44.331  29.135  28.902  1.00  0.00     0.031 A 
BRANCH  50  64
ATOM     64  C   UNL A   1      38.962  29.265  28.416  1.00  0.00    -0.014 A 
ATOM     65  C   UNL A   1      37.817  29.772  27.766  1.00  0.00     0.010 A 
ATOM     66  C   UNL A   1      39.174  29.684  29.746  1.00  0.00     0.010 A 
ATOM     67  C   UNL A   1      36.988  30.719  28.381  1.00  0.00     0.020 A 
ATOM     68  C   UNL A   1      38.328  30.591  30.385  1.00  0.00     0.020 A 
ATOM     69  C   UNL A   1      37.262  31.134  29.684  1.00  0.00     0.054 A 
BRANCH  69  70
ATOM     70  S   UNL A   1      36.260  32.443  30.429  1.00  0.00     0.124 S 
ATOM     71  O   UNL A   1      34.912  32.046  30.036  1.00  0.00    -0.237 OA
ATOM     72  O   UNL A   1      36.576  32.303  31.847  1.00  0.00    -0.237 OA
ATOM     73  O   UNL A   1      36.765  33.661  29.799  1.00  0.00    -0.744 OA
ENDBRANCH  69  70
ENDBRANCH  50  64
BRANCH  51  74
ATOM     74  C   UNL A   1      44.740  25.649  33.637  1.00  0.00    -0.014 A 
ATOM     75  C   UNL A   1      43.832  24.738  34.215  1.00  0.00     0.010 A 
ATOM     76  C   UNL A   1      45.933  25.905  34.345  1.00  0.00     0.010 A 
ATOM     77  C   UNL A   1      44.137  24.063  35.414  1.00  0.00     0.020 A 
ATOM     78  C   UNL A   1      46.241  25.243  35.541  1.00  0.00     0.020 A 
ATOM     79  C   UNL A   1      45.354  24.303  36.058  1.00  0.00     0.054 A 
BRANCH  79  80
ATOM     80  S   UNL A   1      45.838  23.293  37.493  1.00  0.00     0.124 S 
ATOM     81  O   UNL A   1      47.252  23.622  37.647  1.00  0.00    -0.237 OA
ATOM     82  O   UNL A   1      44.955  23.789  38.546  1.00  0.00    -0.237 OA
ATOM     83  O   UNL A   1      45.566  21.923  37.057  1.00  0.00    -0.744 OA
ENDBRANCH  79  80
ENDBRANCH  51  74
BRANCH  63  84
ATOM     84  C   UNL A   1      45.740  28.940  28.385  1.00  0.00    -0.014 A 
ATOM     85  C   UNL A   1      46.728  29.947  28.390  1.00  0.00     0.010 A 
ATOM     86  C   UNL A   1      46.121  27.635  28.033  1.00  0.00     0.010 A 
ATOM     87  C   UNL A   1      48.052  29.657  28.024  1.00  0.00     0.020 A 
ATOM     88  C   UNL A   1      47.441  27.335  27.688  1.00  0.00     0.020 A 
ATOM     89  C   UNL A   1      48.399  28.348  27.674  1.00  0.00     0.054 A 
BRANCH  89  90
ATOM     90  S   UNL A   1      50.116  27.964  27.232  1.00  0.00     0.124 S 
ATOM     91  O   UNL A   1      50.662  29.280  26.909  1.00  0.00    -0.237 OA
ATOM     92  O   UNL A   1      50.637  27.349  28.450  1.00  0.00    -0.237 OA
ATOM     93  O   UNL A   1      49.987  27.053  26.096  1.00  0.00    -0.744 OA
ENDBRANCH  89  90
ENDBRANCH  63  84
ENDBRANCH  37  38
ENDBRANCH  29  32
ENDBRANCH  27  28
ENDBRANCH  26  27
ENDBRANCH   1  26
TORSDOF 17
ENDMDL
MODEL 3
REMARK VINA RESULT:     -12.4      1.036      2.310
REMARK SMILES C[C@@H]1C(C(=O)NCCCCCCNC(=O)c2ccc(-c3c4nc(c(-c5ccc(S(=O)(=O)[O-])cc5)c5ccc([nH]5)c(-c5ccc(S(=O)(=O)[O-])cc5)c5nc(c(-c6ccc(S(=O)(=O)[O-])cc6)c6ccc3[nH]6)C=C5)C=C4)cc2)=NC2=C1C(=O)C[C@H](c1ccccc1)C2
REMARK SMILES IDX 10 1 9 2 8 3 7 4 6 5 4 6 5 7 3 9 1 10 2 11 78 12 76 13 77 14
REMARK SMILES IDX 79 15 89 16 80 17 81 18 82 19 83 20 84 21 88 22 85 23 87 24
REMARK SMILES IDX 86 25 11 26 12 27 13 28 14 29 15 31 16 32 17 33 75 34 18 35
REMARK SMILES IDX 74 36 19 37 20 38 21 39 68 40 22 41 73 42 67 43 69 44 23 45
REMARK SMILES IDX 72 46 66 47 65 48 24 50 54 51 35 52 53 53 36 54 39 55 52 56
REMARK SMILES IDX 70 57 37 58 38 59 51 61 71 62 40 63 25 64 26 65 34 66 27 67
REMARK SMILES IDX 33 68 28 69 29 70 30 71 31 72 32 73 55 74 56 75 64 76 57 77
REMARK SMILES IDX 63 78 58 79 59 80 60 81 61 82 62 83 41 84 42 85 50 86 43 87
REMARK SMILES IDX 49 88 44 89 45 90 46 91 47 92 48 93
REMARK H PARENT 6 8 13 30 69 49 39 60
REMARK Flexibility Score: inf
ROOT
ATOM      1  C   UNL A   1      37.590  21.356  25.572  1.00  0.00     0.002 C 
ENDROOT
BRANCH   1   2
ATOM      2  C   UNL A   1      36.512  21.904  24.632  1.00  0.00     0.002 C 
BRANCH   2   3
ATOM      3  C   UNL A   1      35.179  22.359  25.223  1.00  0.00     0.021 C 
BRANCH   3   4
ATOM      4  C   UNL A   1      35.104  23.646  26.043  1.00  0.00     0.116 C 
BRANCH   4   5
ATOM      5  N   UNL A   1      33.865  23.965  26.723  1.00  0.00    -0.351 N 
ATOM      6  C   UNL A   1      32.925  24.941  26.407  1.00  0.00     0.266 C 
ATOM      7  O   UNL A   1      31.780  24.837  26.837  1.00  0.00    -0.268 OA
ATOM      8  H   UNL A   1      33.660  23.417  27.513  1.00  0.00     0.163 HD
BRANCH   6   9
ATOM      9  C   UNL A   1      33.318  26.219  25.659  1.00  0.00     0.113 C 
ATOM     10  C   UNL A   1      33.959  28.359  26.778  1.00  0.00     0.020 C 
ATOM     11  C   UNL A   1      32.855  27.598  26.050  1.00  0.00     0.076 C 
ATOM     12  C   UNL A   1      32.746  28.007  24.621  1.00  0.00     0.026 C 
ATOM     13  N   UNL A   1      34.017  26.177  24.549  1.00  0.00    -0.251 NA
ATOM     14  C   UNL A   1      33.603  27.308  23.871  1.00  0.00     0.049 C 
ATOM     15  C   UNL A   1      31.457  28.351  23.986  1.00  0.00     0.161 C 
ATOM     16  C   UNL A   1      33.495  27.317  22.372  1.00  0.00     0.065 C 
ATOM     17  O   UNL A   1      30.697  29.106  24.589  1.00  0.00    -0.294 OA
ATOM     18  C   UNL A   1      31.045  27.645  22.678  1.00  0.00     0.089 C 
ATOM     19  C   UNL A   1      32.120  26.727  22.001  1.00  0.00     0.033 C 
BRANCH  19  20
ATOM     20  C   UNL A   1      32.019  25.213  22.287  1.00  0.00    -0.044 A 
ATOM     21  C   UNL A   1      32.911  24.294  21.691  1.00  0.00     0.004 A 
ATOM     22  C   UNL A   1      31.041  24.675  23.132  1.00  0.00     0.004 A 
ATOM     23  C   UNL A   1      32.953  22.950  22.064  1.00  0.00     0.000 A 
ATOM     24  C   UNL A   1      31.058  23.318  23.485  1.00  0.00     0.000 A 
ATOM     25  C   UNL A   1      32.037  22.465  22.982  1.00  0.00     0.000 A 
ENDBRANCH  19  20
ENDBRANCH   6   9
ENDBRANCH   4   5
ENDBRANCH   3   4
ENDBRANCH   2   3
ENDBRANCH   1   2
BRANCH   1  26
ATOM     26  C   UNL A   1      38.873  22.174  25.769  1.00  0.00     0.021 C 
BRANCH  26  27
ATOM     27  C   UNL A   1      39.866  21.601  26.769  1.00  0.00     0.116 C 
BRANCH  27  28
ATOM     28  N   UNL A   1      41.148  21.212  26.176  1.00  0.00    -0.352 N 
ATOM     29  C   UNL A   1      42.193  22.040  25.807  1.00  0.00     0.251 C 
ATOM     30  H   UNL A   1      41.282  20.248  26.024  1.00  0.00     0.163 HD
ATOM     31  O   UNL A   1      43.044  21.661  25.000  1.00  0.00    -0.269 OA
BRANCH  29  32
ATOM     32  C   UNL A   1      42.285  23.382  26.409  1.00  0.00     0.039 A 
ATOM     33  C   UNL A   1      41.708  24.516  25.825  1.00  0.00     0.014 A 
ATOM     34  C   UNL A   1      42.969  23.479  27.615  1.00  0.00     0.014 A 
ATOM     35  C   UNL A   1      41.764  25.732  26.509  1.00  0.00     0.010 A 
ATOM     36  C   UNL A   1      42.862  24.616  28.365  1.00  0.00     0.010 A 
ATOM     37  C   UNL A   1      42.335  25.766  27.787  1.00  0.00    -0.014 A 
BRANCH  37  38
ATOM     38  C   UNL A   1      42.313  26.957  28.631  1.00  0.00     0.031 A 
ATOM     39  C   UNL A   1      43.460  27.882  28.415  1.00  0.00     0.074 A 
ATOM     40  C   UNL A   1      41.178  27.313  29.278  1.00  0.00     0.049 A 
ATOM     41  N   UNL A   1      44.354  28.252  29.271  1.00  0.00    -0.248 NA
ATOM     42  C   UNL A   1      43.741  28.338  27.039  1.00  0.00     0.031 C 
ATOM     43  C   UNL A   1      39.888  26.604  29.277  1.00  0.00     0.029 A 
ATOM     44  N   UNL A   1      40.867  28.468  29.925  1.00  0.00    -0.354 N 
ATOM     45  C   UNL A   1      45.158  29.175  28.608  1.00  0.00     0.074 A 
ATOM     46  C   UNL A   1      44.880  29.011  27.205  1.00  0.00     0.031 C 
ATOM     47  C   UNL A   1      38.901  27.452  29.637  1.00  0.00     0.029 A 
ATOM     48  C   UNL A   1      39.497  28.710  30.046  1.00  0.00     0.049 A 
ATOM     49  H   UNL A   1      41.551  29.082  30.278  1.00  0.00     0.167 HD
ATOM     50  C   UNL A   1      45.766  30.198  29.273  1.00  0.00     0.031 A 
ATOM     51  C   UNL A   1      38.892  29.875  30.402  1.00  0.00     0.031 A 
ATOM     52  C   UNL A   1      45.727  29.991  30.699  1.00  0.00     0.049 A 
ATOM     53  C   UNL A   1      39.925  30.704  31.071  1.00  0.00     0.074 A 
ATOM     54  C   UNL A   1      46.177  28.998  31.546  1.00  0.00     0.029 A 
ATOM     55  N   UNL A   1      44.772  30.691  31.401  1.00  0.00    -0.354 N 
ATOM     56  N   UNL A   1      40.475  30.373  32.206  1.00  0.00    -0.248 NA
ATOM     57  C   UNL A   1      40.700  31.621  30.250  1.00  0.00     0.031 C 
ATOM     58  C   UNL A   1      45.138  28.847  32.510  1.00  0.00     0.029 A 
ATOM     59  C   UNL A   1      44.163  29.816  32.263  1.00  0.00     0.049 A 
ATOM     60  H   UNL A   1      44.564  31.648  31.303  1.00  0.00     0.167 HD
ATOM     61  C   UNL A   1      41.824  30.652  32.038  1.00  0.00     0.074 A 
ATOM     62  C   UNL A   1      41.887  31.516  30.857  1.00  0.00     0.031 C 
ATOM     63  C   UNL A   1      42.781  29.919  32.682  1.00  0.00     0.031 A 
BRANCH  50  64
ATOM     64  C   UNL A   1      45.997  31.572  28.681  1.00  0.00    -0.014 A 
ATOM     65  C   UNL A   1      44.879  32.397  28.433  1.00  0.00     0.010 A 
ATOM     66  C   UNL A   1      47.219  31.966  28.097  1.00  0.00     0.010 A 
ATOM     67  C   UNL A   1      44.963  33.499  27.572  1.00  0.00     0.020 A 
ATOM     68  C   UNL A   1      47.324  33.089  27.275  1.00  0.00     0.020 A 
ATOM     69  C   UNL A   1      46.185  33.826  26.985  1.00  0.00     0.054 A 
BRANCH  69  70
ATOM     70  S   UNL A   1      46.261  35.175  25.783  1.00  0.00     0.124 S 
ATOM     71  O   UNL A   1      45.420  36.186  26.416  1.00  0.00    -0.237 OA
ATOM     72  O   UNL A   1      47.689  35.472  25.741  1.00  0.00    -0.237 OA
ATOM     73  O   UNL A   1      45.716  34.579  24.565  1.00  0.00    -0.744 OA
ENDBRANCH  69  70
ENDBRANCH  50  64
BRANCH  51  74
ATOM     74  C   UNL A   1      37.583  30.423  29.950  1.00  0.00    -0.014 A 
ATOM     75  C   UNL A   1      36.711  31.081  30.842  1.00  0.00     0.010 A 
ATOM     76  C   UNL A   1      37.304  30.542  28.573  1.00  0.00     0.010 A 
ATOM     77  C   UNL A   1      35.648  31.879  30.371  1.00  0.00     0.020 A 
ATOM     78  C   UNL A   1      36.245  31.327  28.096  1.00  0.00     0.020 A 
ATOM     79  C   UNL A   1      35.437  32.016  28.996  1.00  0.00     0.054 A 
BRANCH  79  80
ATOM     80  S   UNL A   1      34.196  33.197  28.380  1.00  0.00     0.124 S 
ATOM     81  O   UNL A   1      33.286  32.335  27.633  1.00  0.00    -0.237 OA
ATOM     82  O   UNL A   1      33.658  33.767  29.613  1.00  0.00    -0.237 OA
ATOM     83  O   UNL A   1      34.979  34.125  27.565  1.00  0.00    -0.744 OA
ENDBRANCH  79  80
ENDBRANCH  51  74
BRANCH  63  84
ATOM     84  C   UNL A   1      42.346  28.962  33.771  1.00  0.00    -0.014 A 
ATOM     85  C   UNL A   1      41.823  27.675  33.528  1.00  0.00     0.010 A 
ATOM     86  C   UNL A   1      42.636  29.323  35.097  1.00  0.00     0.010 A 
ATOM     87  C   UNL A   1      41.571  26.789  34.587  1.00  0.00     0.020 A 
ATOM     88  C   UNL A   1      42.407  28.439  36.154  1.00  0.00     0.020 A 
ATOM     89  C   UNL A   1      41.865  27.180  35.897  1.00  0.00     0.054 A 
BRANCH  89  90
ATOM     90  S   UNL A   1      41.571  26.025  37.265  1.00  0.00     0.124 S 
ATOM     91  O   UNL A   1      42.686  26.311  38.165  1.00  0.00    -0.237 OA
ATOM     92  O   UNL A   1      40.253  26.423  37.752  1.00  0.00    -0.237 OA
ATOM     93  O   UNL A   1      41.615  24.711  36.626  1.00  0.00    -0.744 OA
ENDBRANCH  89  90
ENDBRANCH  63  84
ENDBRANCH  37  38
ENDBRANCH  29  32
ENDBRANCH  27  28
ENDBRANCH  26  27
ENDBRANCH   1  26
TORSDOF 17
ENDMDL
