MODEL 1
REMARK VINA RESULT:     -12.7      0.000      0.000
REMARK SMILES O=C(NCCCCCCNC(=O)c1nc(NC[C@H]2c3ccccc3CSc3ccccc32)c2ccccc2n1)c1ccc(-c2c3nc(c(-c4ccc(S(=O)(=O)[O-])cc4)c4ccc([nH]4)c(-c4ccc(S(=O)(=O)[O-])cc4)c4nc(c(-c5ccc(S(=O)(=O)[O-])cc5)c5ccc2[nH]5)C=C4)C=C3)cc1
REMARK SMILES IDX 6 1 5 2 4 3 3 4 1 5 2 6 40 8 41 9 99 10 42 11 98 12 43 13
REMARK SMILES IDX 44 14 45 15 92 16 46 17 97 18 91 19 93 20 47 21 96 22 90 23
REMARK SMILES IDX 89 24 48 26 78 27 59 28 77 29 60 30 63 31 76 32 94 33 61 34
REMARK SMILES IDX 62 35 75 37 95 38 64 39 49 40 50 41 58 42 51 43 57 44 52 45
REMARK SMILES IDX 53 46 54 47 55 48 56 49 79 50 80 51 88 52 81 53 87 54 82 55
REMARK SMILES IDX 83 56 84 57 85 58 86 59 65 60 66 61 74 62 67 63 73 64 68 65
REMARK SMILES IDX 69 66 70 67 71 68 72 69 7 70 8 71 9 72 10 73 11 74 12 76
REMARK SMILES IDX 13 77 14 78 39 79 15 80 38 81 33 82 37 83 34 84 36 85 35 86
REMARK SMILES IDX 16 87 17 89 18 90 19 91 32 92 20 93 24 94 27 95 31 96 21 97
REMARK SMILES IDX 23 98 25 99 26 100 28 101 30 102 22 103 29 104
REMARK H PARENT 3 7 93 25 63 36 10 75 16 88
REMARK Flexibility Score: inf
ROOT
ATOM      1  C   UNL A   1      38.908  22.683  26.442  1.00  0.00     0.002 C 
ENDROOT
BRANCH   1   2
ATOM      2  C   UNL A   1      40.110  22.073  27.170  1.00  0.00     0.021 C 
BRANCH   2   3
ATOM      3  C   UNL A   1      41.335  22.976  27.275  1.00  0.00     0.116 C 
BRANCH   3   4
ATOM      4  N   UNL A   1      41.459  23.867  26.136  1.00  0.00    -0.352 N 
ATOM      5  O   UNL A   1      41.319  25.787  24.980  1.00  0.00    -0.269 OA
ATOM      6  C   UNL A   1      41.367  25.235  26.076  1.00  0.00     0.251 C 
ATOM      7  H   UNL A   1      41.636  23.422  25.275  1.00  0.00     0.163 HD
BRANCH   6   8
ATOM      8  C   UNL A   1      41.321  26.048  27.314  1.00  0.00     0.039 A 
ATOM      9  C   UNL A   1      40.216  25.914  28.159  1.00  0.00     0.014 A 
ATOM     10  C   UNL A   1      42.311  26.990  27.609  1.00  0.00     0.014 A 
ATOM     11  C   UNL A   1      40.109  26.709  29.303  1.00  0.00     0.010 A 
ATOM     12  C   UNL A   1      42.239  27.735  28.785  1.00  0.00     0.010 A 
ATOM     13  C   UNL A   1      41.123  27.624  29.628  1.00  0.00    -0.014 A 
BRANCH  13  14
ATOM     14  C   UNL A   1      40.993  28.529  30.799  1.00  0.00     0.031 A 
ATOM     15  C   UNL A   1      39.909  29.576  30.815  1.00  0.00     0.074 A 
ATOM     16  C   UNL A   1      41.846  28.428  31.836  1.00  0.00     0.049 A 
ATOM     17  N   UNL A   1      39.655  30.485  31.721  1.00  0.00    -0.248 NA
ATOM     18  C   UNL A   1      39.004  29.620  29.653  1.00  0.00     0.031 C 
ATOM     19  C   UNL A   1      42.943  27.463  31.934  1.00  0.00     0.029 A 
ATOM     20  N   UNL A   1      41.926  29.142  33.006  1.00  0.00    -0.354 N 
ATOM     21  C   UNL A   1      38.577  31.213  31.233  1.00  0.00     0.074 A 
ATOM     22  C   UNL A   1      38.256  30.679  29.930  1.00  0.00     0.031 C 
ATOM     23  C   UNL A   1      43.563  27.623  33.114  1.00  0.00     0.029 A 
ATOM     24  C   UNL A   1      42.938  28.727  33.841  1.00  0.00     0.049 A 
ATOM     25  H   UNL A   1      41.315  29.881  33.228  1.00  0.00     0.167 HD
ATOM     26  C   UNL A   1      37.895  32.218  31.831  1.00  0.00     0.031 A 
ATOM     27  C   UNL A   1      43.320  29.178  35.052  1.00  0.00     0.031 A 
ATOM     28  C   UNL A   1      38.196  32.724  33.143  1.00  0.00     0.049 A 
ATOM     29  C   UNL A   1      42.557  30.305  35.693  1.00  0.00     0.074 A 
ATOM     30  C   UNL A   1      37.531  33.709  33.852  1.00  0.00     0.029 A 
ATOM     31  N   UNL A   1      39.235  32.283  33.947  1.00  0.00    -0.354 N 
ATOM     32  N   UNL A   1      41.516  30.957  35.233  1.00  0.00    -0.248 NA
ATOM     33  C   UNL A   1      43.008  30.752  37.019  1.00  0.00     0.031 C 
ATOM     34  C   UNL A   1      38.202  33.903  35.061  1.00  0.00     0.029 A 
ATOM     35  C   UNL A   1      39.244  32.992  35.136  1.00  0.00     0.049 A 
ATOM     36  H   UNL A   1      39.872  31.570  33.708  1.00  0.00     0.167 HD
ATOM     37  C   UNL A   1      41.177  31.878  36.217  1.00  0.00     0.074 A 
ATOM     38  C   UNL A   1      42.114  31.690  37.307  1.00  0.00     0.031 C 
ATOM     39  C   UNL A   1      40.180  32.796  36.215  1.00  0.00     0.031 A 
BRANCH  26  40
ATOM     40  C   UNL A   1      36.738  32.834  31.088  1.00  0.00    -0.014 A 
ATOM     41  C   UNL A   1      36.979  33.789  30.084  1.00  0.00     0.010 A 
ATOM     42  C   UNL A   1      35.410  32.544  31.453  1.00  0.00     0.010 A 
ATOM     43  C   UNL A   1      35.916  34.463  29.476  1.00  0.00     0.020 A 
ATOM     44  C   UNL A   1      34.344  33.195  30.827  1.00  0.00     0.020 A 
ATOM     45  C   UNL A   1      34.606  34.168  29.858  1.00  0.00     0.054 A 
BRANCH  45  46
ATOM     46  S   UNL A   1      33.238  35.064  29.072  1.00  0.00     0.124 S 
ATOM     47  O   UNL A   1      32.399  35.408  30.214  1.00  0.00    -0.237 OA
ATOM     48  O   UNL A   1      33.918  36.184  28.426  1.00  0.00    -0.237 OA
ATOM     49  O   UNL A   1      32.671  34.080  28.151  1.00  0.00    -0.744 OA
ENDBRANCH  45  46
ENDBRANCH  26  40
BRANCH  27  50
ATOM     50  C   UNL A   1      44.462  28.518  35.744  1.00  0.00    -0.014 A 
ATOM     51  C   UNL A   1      44.236  27.472  36.658  1.00  0.00     0.010 A 
ATOM     52  C   UNL A   1      45.773  28.992  35.561  1.00  0.00     0.010 A 
ATOM     53  C   UNL A   1      45.288  26.951  37.416  1.00  0.00     0.020 A 
ATOM     54  C   UNL A   1      46.834  28.454  36.298  1.00  0.00     0.020 A 
ATOM     55  C   UNL A   1      46.577  27.459  37.244  1.00  0.00     0.054 A 
BRANCH  55  56
ATOM     56  S   UNL A   1      47.916  26.814  38.286  1.00  0.00     0.124 S 
ATOM     57  O   UNL A   1      47.274  26.762  39.597  1.00  0.00    -0.237 OA
ATOM     58  O   UNL A   1      48.203  25.520  37.673  1.00  0.00    -0.237 OA
ATOM     59  O   UNL A   1      48.970  27.815  38.146  1.00  0.00    -0.744 OA
ENDBRANCH  55  56
ENDBRANCH  27  50
BRANCH  39  60
ATOM     60  C   UNL A   1      40.023  33.687  37.419  1.00  0.00    -0.014 A 
ATOM     61  C   UNL A   1      39.337  33.212  38.553  1.00  0.00     0.010 A 
ATOM     62  C   UNL A   1      40.414  35.037  37.371  1.00  0.00     0.010 A 
ATOM     63  C   UNL A   1      39.007  34.078  39.598  1.00  0.00     0.020 A 
ATOM     64  C   UNL A   1      40.109  35.900  38.427  1.00  0.00     0.020 A 
ATOM     65  C   UNL A   1      39.383  35.421  39.521  1.00  0.00     0.054 A 
BRANCH  65  66
ATOM     66  S   UNL A   1      38.903  36.543  40.863  1.00  0.00     0.124 S 
ATOM     67  O   UNL A   1      40.140  36.654  41.629  1.00  0.00    -0.237 OA
ATOM     68  O   UNL A   1      38.495  37.749  40.146  1.00  0.00    -0.237 OA
ATOM     69  O   UNL A   1      37.816  35.830  41.531  1.00  0.00    -0.744 OA
ENDBRANCH  65  66
ENDBRANCH  39  60
ENDBRANCH  13  14
ENDBRANCH   6   8
ENDBRANCH   3   4
ENDBRANCH   2   3
ENDBRANCH   1   2
BRANCH   1  70
ATOM     70  C   UNL A   1      38.155  21.736  25.504  1.00  0.00     0.002 C 
BRANCH  70  71
ATOM     71  C   UNL A   1      36.629  21.774  25.617  1.00  0.00     0.021 C 
BRANCH  71  72
ATOM     72  C   UNL A   1      36.060  23.038  26.258  1.00  0.00     0.116 C 
BRANCH  72  73
ATOM     73  N   UNL A   1      35.074  22.724  27.279  1.00  0.00    -0.349 N 
ATOM     74  C   UNL A   1      33.744  22.384  27.112  1.00  0.00     0.289 C 
ATOM     75  H   UNL A   1      35.394  22.757  28.210  1.00  0.00     0.163 HD
ATOM     76  O   UNL A   1      33.018  22.333  28.106  1.00  0.00    -0.266 OA
BRANCH  74  77
ATOM     77  C   UNL A   1      33.208  22.077  25.740  1.00  0.00     0.220 A 
ATOM     78  N   UNL A   1      32.784  23.119  25.006  1.00  0.00    -0.206 NA
ATOM     79  N   UNL A   1      33.186  20.780  25.379  1.00  0.00    -0.224 NA
ATOM     80  C   UNL A   1      32.290  22.828  23.798  1.00  0.00     0.138 A 
ATOM     81  C   UNL A   1      32.736  20.510  24.158  1.00  0.00     0.077 A 
ATOM     82  C   UNL A   1      32.243  21.502  23.301  1.00  0.00     0.043 A 
ATOM     83  C   UNL A   1      32.784  19.194  23.718  1.00  0.00     0.029 A 
ATOM     84  C   UNL A   1      31.782  21.116  22.013  1.00  0.00     0.014 A 
ATOM     85  C   UNL A   1      32.362  18.827  22.438  1.00  0.00     0.002 A 
ATOM     86  C   UNL A   1      31.854  19.792  21.584  1.00  0.00     0.001 A 
BRANCH  80  87
ATOM     87  N   UNL A   1      31.853  23.875  22.994  1.00  0.00    -0.368 N 
ATOM     88  H   UNL A   1      32.352  24.070  22.168  1.00  0.00     0.162 HD
BRANCH  87  89
ATOM     89  C   UNL A   1      30.693  24.700  23.313  1.00  0.00     0.127 C 
BRANCH  89  90
ATOM     90  C   UNL A   1      30.876  26.276  23.547  1.00  0.00     0.070 C 
ATOM     91  C   UNL A   1      29.488  26.966  23.552  1.00  0.00    -0.035 A 
ATOM     92  C   UNL A   1      31.926  26.894  24.508  1.00  0.00    -0.025 A 
ATOM     93  C   UNL A   1      28.350  26.374  24.127  1.00  0.00     0.005 A 
ATOM     94  C   UNL A   1      29.325  28.237  22.954  1.00  0.00    -0.034 A 
ATOM     95  C   UNL A   1      32.025  28.266  24.861  1.00  0.00     0.011 A 
ATOM     96  C   UNL A   1      32.971  26.087  25.001  1.00  0.00     0.005 A 
ATOM     97  C   UNL A   1      27.086  26.969  24.026  1.00  0.00     0.000 A 
ATOM     98  C   UNL A   1      28.051  28.830  22.865  1.00  0.00     0.005 A 
ATOM     99  C   UNL A   1      30.525  29.064  22.594  1.00  0.00     0.110 C 
ATOM    100  S   UNL A   1      31.225  29.708  24.134  1.00  0.00    -0.121 SA
ATOM    101  C   UNL A   1      32.956  28.678  25.850  1.00  0.00     0.015 A 
ATOM    102  C   UNL A   1      33.901  26.503  25.960  1.00  0.00     0.000 A 
ATOM    103  C   UNL A   1      26.933  28.190  23.383  1.00  0.00     0.000 A 
ATOM    104  C   UNL A   1      33.866  27.799  26.420  1.00  0.00     0.001 A 
ENDBRANCH  89  90
ENDBRANCH  87  89
ENDBRANCH  80  87
ENDBRANCH  74  77
ENDBRANCH  72  73
ENDBRANCH  71  72
ENDBRANCH  70  71
ENDBRANCH   1  70
TORSDOF 19
ENDMDL
MODEL 2
REMARK VINA RESULT:     -12.5      0.628      7.641
REMARK SMILES O=C(NCCCCCCNC(=O)c1nc(NC[C@H]2c3ccccc3CSc3ccccc32)c2ccccc2n1)c1ccc(-c2c3nc(c(-c4ccc(S(=O)(=O)[O-])cc4)c4ccc([nH]4)c(-c4ccc(S(=O)(=O)[O-])cc4)c4nc(c(-c5ccc(S(=O)(=O)[O-])cc5)c5ccc2[nH]5)C=C4)C=C3)cc1
REMARK SMILES IDX 6 1 5 2 4 3 3 4 1 5 2 6 40 8 41 9 99 10 42 11 98 12 43 13
REMARK SMILES IDX 44 14 45 15 92 16 46 17 97 18 91 19 93 20 47 21 96 22 90 23
REMARK SMILES IDX 89 24 48 26 78 27 59 28 77 29 60 30 63 31 76 32 94 33 61 34
REMARK SMILES IDX 62 35 75 37 95 38 64 39 49 40 50 41 58 42 51 43 57 44 52 45
REMARK SMILES IDX 53 46 54 47 55 48 56 49 79 50 80 51 88 52 81 53 87 54 82 55
REMARK SMILES IDX 83 56 84 57 85 58 86 59 65 60 66 61 74 62 67 63 73 64 68 65
REMARK SMILES IDX 69 66 70 67 71 68 72 69 7 70 8 71 9 72 10 73 11 74 12 76
REMARK SMILES IDX 13 77 14 78 39 79 15 80 38 81 33 82 37 83 34 84 36 85 35 86
REMARK SMILES IDX 16 87 17 89 18 90 19 91 32 92 20 93 24 94 27 95 31 96 21 97
REMARK SMILES IDX 23 98 25 99 26 100 28 101 30 102 22 103 29 104
REMARK H PARENT 3 7 93 25 63 36 10 75 16 88
REMARK Flexibility Score: inf
ROOT
ATOM      1  C   UNL A   1      38.950  22.412  26.364  1.00  0.00     0.002 C 
ENDROOT
BRANCH   1   2
ATOM      2  C   UNL A   1      40.265  21.758  26.796  1.00  0.00     0.021 C 
BRANCH   2   3
ATOM      3  C   UNL A   1      41.361  22.725  27.234  1.00  0.00     0.116 C 
BRANCH   3   4
ATOM      4  N   UNL A   1      41.939  23.443  26.112  1.00  0.00    -0.352 N 
ATOM      5  O   UNL A   1      42.415  25.201  24.799  1.00  0.00    -0.269 OA
ATOM      6  C   UNL A   1      42.060  24.794  25.902  1.00  0.00     0.251 C 
ATOM      7  H   UNL A   1      42.300  22.875  25.393  1.00  0.00     0.163 HD
BRANCH   6   8
ATOM      8  C   UNL A   1      41.762  25.761  26.985  1.00  0.00     0.039 A 
ATOM      9  C   UNL A   1      42.567  26.898  27.103  1.00  0.00     0.014 A 
ATOM     10  C   UNL A   1      40.755  25.521  27.924  1.00  0.00     0.014 A 
ATOM     11  C   UNL A   1      42.354  27.800  28.149  1.00  0.00     0.010 A 
ATOM     12  C   UNL A   1      40.498  26.455  28.927  1.00  0.00     0.010 A 
ATOM     13  C   UNL A   1      41.314  27.587  29.069  1.00  0.00    -0.014 A 
BRANCH  13  14
ATOM     14  C   UNL A   1      41.120  28.495  30.228  1.00  0.00     0.031 A 
ATOM     15  C   UNL A   1      42.048  28.402  31.412  1.00  0.00     0.074 A 
ATOM     16  C   UNL A   1      40.110  29.387  30.233  1.00  0.00     0.049 A 
ATOM     17  N   UNL A   1      42.021  29.073  32.534  1.00  0.00    -0.248 NA
ATOM     18  C   UNL A   1      43.136  27.413  31.333  1.00  0.00     0.031 C 
ATOM     19  C   UNL A   1      39.139  29.566  29.152  1.00  0.00     0.029 A 
ATOM     20  N   UNL A   1      39.734  30.312  31.176  1.00  0.00    -0.354 N 
ATOM     21  C   UNL A   1      43.073  28.579  33.295  1.00  0.00     0.074 A 
ATOM     22  C   UNL A   1      43.688  27.517  32.533  1.00  0.00     0.031 C 
ATOM     23  C   UNL A   1      38.300  30.563  29.478  1.00  0.00     0.029 A 
ATOM     24  C   UNL A   1      38.645  31.067  30.806  1.00  0.00     0.049 A 
ATOM     25  H   UNL A   1      40.201  30.424  32.034  1.00  0.00     0.167 HD
ATOM     26  C   UNL A   1      43.509  28.993  34.508  1.00  0.00     0.031 A 
ATOM     27  C   UNL A   1      37.997  32.054  31.457  1.00  0.00     0.031 A 
ATOM     28  C   UNL A   1      42.916  30.075  35.248  1.00  0.00     0.049 A 
ATOM     29  C   UNL A   1      38.489  32.491  32.810  1.00  0.00     0.074 A 
ATOM     30  C   UNL A   1      43.316  30.598  36.464  1.00  0.00     0.029 A 
ATOM     31  N   UNL A   1      41.808  30.803  34.842  1.00  0.00    -0.354 N 
ATOM     32  N   UNL A   1      39.510  32.037  33.498  1.00  0.00    -0.248 NA
ATOM     33  C   UNL A   1      37.753  33.578  33.473  1.00  0.00     0.031 C 
ATOM     34  C   UNL A   1      42.418  31.606  36.821  1.00  0.00     0.029 A 
ATOM     35  C   UNL A   1      41.499  31.757  35.796  1.00  0.00     0.049 A 
ATOM     36  H   UNL A   1      41.317  30.664  34.000  1.00  0.00     0.167 HD
ATOM     37  C   UNL A   1      39.550  32.793  34.664  1.00  0.00     0.074 A 
ATOM     38  C   UNL A   1      38.461  33.745  34.584  1.00  0.00     0.031 C 
ATOM     39  C   UNL A   1      40.412  32.702  35.705  1.00  0.00     0.031 A 
BRANCH  26  40
ATOM     40  C   UNL A   1      44.699  28.296  35.114  1.00  0.00    -0.014 A 
ATOM     41  C   UNL A   1      46.000  28.696  34.760  1.00  0.00     0.010 A 
ATOM     42  C   UNL A   1      44.530  27.179  35.953  1.00  0.00     0.010 A 
ATOM     43  C   UNL A   1      47.110  27.979  35.212  1.00  0.00     0.020 A 
ATOM     44  C   UNL A   1      45.640  26.476  36.430  1.00  0.00     0.020 A 
ATOM     45  C   UNL A   1      46.922  26.867  36.036  1.00  0.00     0.054 A 
BRANCH  45  46
ATOM     46  S   UNL A   1      48.374  25.936  36.600  1.00  0.00     0.124 S 
ATOM     47  O   UNL A   1      49.295  27.002  36.979  1.00  0.00    -0.237 OA
ATOM     48  O   UNL A   1      47.837  25.143  37.704  1.00  0.00    -0.237 OA
ATOM     49  O   UNL A   1      48.761  25.161  35.422  1.00  0.00    -0.744 OA
ENDBRANCH  45  46
ENDBRANCH  26  40
BRANCH  27  50
ATOM     50  C   UNL A   1      36.837  32.716  30.799  1.00  0.00    -0.014 A 
ATOM     51  C   UNL A   1      37.033  33.815  29.941  1.00  0.00     0.010 A 
ATOM     52  C   UNL A   1      35.524  32.310  31.097  1.00  0.00     0.010 A 
ATOM     53  C   UNL A   1      35.942  34.529  29.440  1.00  0.00     0.020 A 
ATOM     54  C   UNL A   1      34.428  33.006  30.575  1.00  0.00     0.020 A 
ATOM     55  C   UNL A   1      34.646  34.130  29.775  1.00  0.00     0.054 A 
BRANCH  55  56
ATOM     56  S   UNL A   1      33.245  35.111  29.167  1.00  0.00     0.124 S 
ATOM     57  O   UNL A   1      32.498  35.357  30.397  1.00  0.00    -0.237 OA
ATOM     58  O   UNL A   1      33.901  36.278  28.584  1.00  0.00    -0.237 OA
ATOM     59  O   UNL A   1      32.595  34.221  28.208  1.00  0.00    -0.744 OA
ENDBRANCH  55  56
ENDBRANCH  27  50
BRANCH  39  60
ATOM     60  C   UNL A   1      40.239  33.649  36.864  1.00  0.00    -0.014 A 
ATOM     61  C   UNL A   1      39.351  33.319  37.906  1.00  0.00     0.010 A 
ATOM     62  C   UNL A   1      40.830  34.924  36.845  1.00  0.00     0.010 A 
ATOM     63  C   UNL A   1      39.024  34.261  38.884  1.00  0.00     0.020 A 
ATOM     64  C   UNL A   1      40.526  35.860  37.838  1.00  0.00     0.020 A 
ATOM     65  C   UNL A   1      39.604  35.532  38.835  1.00  0.00     0.054 A 
BRANCH  65  66
ATOM     66  S   UNL A   1      39.130  36.759  40.085  1.00  0.00     0.124 S 
ATOM     67  O   UNL A   1      40.395  37.002  40.772  1.00  0.00    -0.237 OA
ATOM     68  O   UNL A   1      38.629  37.867  39.275  1.00  0.00    -0.237 OA
ATOM     69  O   UNL A   1      38.113  36.067  40.874  1.00  0.00    -0.744 OA
ENDBRANCH  65  66
ENDBRANCH  39  60
ENDBRANCH  13  14
ENDBRANCH   6   8
ENDBRANCH   3   4
ENDBRANCH   2   3
ENDBRANCH   1   2
BRANCH   1  70
ATOM     70  C   UNL A   1      38.087  21.586  25.406  1.00  0.00     0.002 C 
BRANCH  70  71
ATOM     71  C   UNL A   1      36.576  21.693  25.624  1.00  0.00     0.021 C 
BRANCH  71  72
ATOM     72  C   UNL A   1      36.112  22.972  26.319  1.00  0.00     0.116 C 
BRANCH  72  73
ATOM     73  N   UNL A   1      35.119  22.694  27.344  1.00  0.00    -0.349 N 
ATOM     74  C   UNL A   1      33.778  22.396  27.181  1.00  0.00     0.289 C 
ATOM     75  H   UNL A   1      35.442  22.723  28.273  1.00  0.00     0.163 HD
ATOM     76  O   UNL A   1      33.052  22.373  28.176  1.00  0.00    -0.266 OA
BRANCH  74  77
ATOM     77  C   UNL A   1      33.230  22.098  25.812  1.00  0.00     0.220 A 
ATOM     78  N   UNL A   1      32.800  23.144  25.087  1.00  0.00    -0.206 NA
ATOM     79  N   UNL A   1      33.205  20.803  25.443  1.00  0.00    -0.224 NA
ATOM     80  C   UNL A   1      32.295  22.861  23.882  1.00  0.00     0.138 A 
ATOM     81  C   UNL A   1      32.744  20.541  24.224  1.00  0.00     0.077 A 
ATOM     82  C   UNL A   1      32.244  21.538  23.378  1.00  0.00     0.043 A 
ATOM     83  C   UNL A   1      32.788  19.227  23.775  1.00  0.00     0.029 A 
ATOM     84  C   UNL A   1      31.772  21.161  22.091  1.00  0.00     0.014 A 
ATOM     85  C   UNL A   1      32.355  18.868  22.497  1.00  0.00     0.002 A 
ATOM     86  C   UNL A   1      31.840  19.839  21.653  1.00  0.00     0.001 A 
BRANCH  80  87
ATOM     87  N   UNL A   1      31.852  23.913  23.089  1.00  0.00    -0.368 N 
ATOM     88  H   UNL A   1      32.350  24.119  22.265  1.00  0.00     0.162 HD
BRANCH  87  89
ATOM     89  C   UNL A   1      30.687  24.728  23.416  1.00  0.00     0.127 C 
BRANCH  89  90
ATOM     90  C   UNL A   1      30.851  26.312  23.603  1.00  0.00     0.070 C 
ATOM     91  C   UNL A   1      29.453  26.984  23.590  1.00  0.00    -0.035 A 
ATOM     92  C   UNL A   1      31.894  26.972  24.543  1.00  0.00    -0.025 A 
ATOM     93  C   UNL A   1      28.324  26.395  24.184  1.00  0.00     0.005 A 
ATOM     94  C   UNL A   1      29.273  28.235  22.955  1.00  0.00    -0.034 A 
ATOM     95  C   UNL A   1      31.975  28.355  24.855  1.00  0.00     0.011 A 
ATOM     96  C   UNL A   1      32.949  26.193  25.059  1.00  0.00     0.005 A 
ATOM     97  C   UNL A   1      27.052  26.970  24.068  1.00  0.00     0.000 A 
ATOM     98  C   UNL A   1      27.992  28.809  22.850  1.00  0.00     0.005 A 
ATOM     99  C   UNL A   1      30.462  29.066  22.569  1.00  0.00     0.110 C 
ATOM    100  S   UNL A   1      31.156  29.764  24.088  1.00  0.00    -0.121 SA
ATOM    101  C   UNL A   1      32.902  28.808  25.830  1.00  0.00     0.015 A 
ATOM    102  C   UNL A   1      33.875  26.650  26.004  1.00  0.00     0.000 A 
ATOM    103  C   UNL A   1      26.883  28.169  23.388  1.00  0.00     0.000 A 
ATOM    104  C   UNL A   1      33.824  27.959  26.425  1.00  0.00     0.001 A 
ENDBRANCH  89  90
ENDBRANCH  87  89
ENDBRANCH  80  87
ENDBRANCH  74  77
ENDBRANCH  72  73
ENDBRANCH  71  72
ENDBRANCH  70  71
ENDBRANCH   1  70
TORSDOF 19
ENDMDL
MODEL 3
REMARK VINA RESULT:     -12.1      5.594     13.575
REMARK SMILES O=C(NCCCCCCNC(=O)c1nc(NC[C@H]2c3ccccc3CSc3ccccc32)c2ccccc2n1)c1ccc(-c2c3nc(c(-c4ccc(S(=O)(=O)[O-])cc4)c4ccc([nH]4)c(-c4ccc(S(=O)(=O)[O-])cc4)c4nc(c(-c5ccc(S(=O)(=O)[O-])cc5)c5ccc2[nH]5)C=C4)C=C3)cc1
REMARK SMILES IDX 6 1 5 2 4 3 3 4 1 5 2 6 40 8 41 9 99 10 42 11 98 12 43 13
REMARK SMILES IDX 44 14 45 15 92 16 46 17 97 18 91 19 93 20 47 21 96 22 90 23
REMARK SMILES IDX 89 24 48 26 78 27 59 28 77 29 60 30 63 31 76 32 94 33 61 34
REMARK SMILES IDX 62 35 75 37 95 38 64 39 49 40 50 41 58 42 51 43 57 44 52 45
REMARK SMILES IDX 53 46 54 47 55 48 56 49 79 50 80 51 88 52 81 53 87 54 82 55
REMARK SMILES IDX 83 56 84 57 85 58 86 59 65 60 66 61 74 62 67 63 73 64 68 65
REMARK SMILES IDX 69 66 70 67 71 68 72 69 7 70 8 71 9 72 10 73 11 74 12 76
REMARK SMILES IDX 13 77 14 78 39 79 15 80 38 81 33 82 37 83 34 84 36 85 35 86
REMARK SMILES IDX 16 87 17 89 18 90 19 91 32 92 20 93 24 94 27 95 31 96 21 97
REMARK SMILES IDX 23 98 25 99 26 100 28 101 30 102 22 103 29 104
REMARK H PARENT 3 7 93 25 63 36 10 75 16 88
REMARK Flexibility Score: inf
ROOT
ATOM      1  C   UNL A   1      34.751  32.899  30.682  1.00  0.00     0.002 C 
ENDROOT
BRANCH   1   2
ATOM      2  C   UNL A   1      35.659  33.289  29.512  1.00  0.00     0.021 C 
BRANCH   2   3
ATOM      3  C   UNL A   1      34.994  33.276  28.139  1.00  0.00     0.116 C 
BRANCH   3   4
ATOM      4  N   UNL A   1      34.073  32.164  27.986  1.00  0.00    -0.352 N 
ATOM      5  O   UNL A   1      33.420  30.053  27.588  1.00  0.00    -0.269 OA
ATOM      6  C   UNL A   1      34.327  30.818  27.904  1.00  0.00     0.251 C 
ATOM      7  H   UNL A   1      33.122  32.414  27.931  1.00  0.00     0.163 HD
BRANCH   6   8
ATOM      8  C   UNL A   1      35.679  30.282  28.186  1.00  0.00     0.039 A 
ATOM      9  C   UNL A   1      35.916  29.691  29.431  1.00  0.00     0.014 A 
ATOM     10  C   UNL A   1      36.728  30.423  27.273  1.00  0.00     0.014 A 
ATOM     11  C   UNL A   1      37.195  29.231  29.754  1.00  0.00     0.010 A 
ATOM     12  C   UNL A   1      37.988  29.902  27.568  1.00  0.00     0.010 A 
ATOM     13  C   UNL A   1      38.242  29.329  28.823  1.00  0.00    -0.014 A 
BRANCH  13  14
ATOM     14  C   UNL A   1      39.623  28.911  29.176  1.00  0.00     0.031 A 
ATOM     15  C   UNL A   1      40.512  29.853  29.947  1.00  0.00     0.074 A 
ATOM     16  C   UNL A   1      40.088  27.706  28.796  1.00  0.00     0.049 A 
ATOM     17  N   UNL A   1      41.757  29.694  30.315  1.00  0.00    -0.248 NA
ATOM     18  C   UNL A   1      39.933  31.149  30.339  1.00  0.00     0.031 C 
ATOM     19  C   UNL A   1      39.328  26.710  28.038  1.00  0.00     0.029 A 
ATOM     20  N   UNL A   1      41.309  27.110  28.998  1.00  0.00    -0.354 N 
ATOM     21  C   UNL A   1      42.112  30.869  30.965  1.00  0.00     0.074 A 
ATOM     22  C   UNL A   1      40.972  31.754  30.898  1.00  0.00     0.031 C 
ATOM     23  C   UNL A   1      40.088  25.616  27.868  1.00  0.00     0.029 A 
ATOM     24  C   UNL A   1      41.402  25.844  28.467  1.00  0.00     0.049 A 
ATOM     25  H   UNL A   1      42.047  27.548  29.478  1.00  0.00     0.167 HD
ATOM     26  C   UNL A   1      43.273  31.174  31.590  1.00  0.00     0.031 A 
ATOM     27  C   UNL A   1      42.423  24.964  28.464  1.00  0.00     0.031 A 
ATOM     28  C   UNL A   1      44.393  30.277  31.686  1.00  0.00     0.049 A 
ATOM     29  C   UNL A   1      43.710  25.327  29.153  1.00  0.00     0.074 A 
ATOM     30  C   UNL A   1      45.596  30.478  32.339  1.00  0.00     0.029 A 
ATOM     31  N   UNL A   1      44.448  29.010  31.124  1.00  0.00    -0.354 N 
ATOM     32  N   UNL A   1      44.014  26.429  29.795  1.00  0.00    -0.248 NA
ATOM     33  C   UNL A   1      44.789  24.328  29.128  1.00  0.00     0.031 C 
ATOM     34  C   UNL A   1      46.399  29.356  32.126  1.00  0.00     0.029 A 
ATOM     35  C   UNL A   1      45.674  28.428  31.398  1.00  0.00     0.049 A 
ATOM     36  H   UNL A   1      43.723  28.587  30.609  1.00  0.00     0.167 HD
ATOM     37  C   UNL A   1      45.310  26.251  30.266  1.00  0.00     0.074 A 
ATOM     38  C   UNL A   1      45.729  24.928  29.849  1.00  0.00     0.031 C 
ATOM     39  C   UNL A   1      46.080  27.109  30.979  1.00  0.00     0.031 A 
BRANCH  26  40
ATOM     40  C   UNL A   1      43.397  32.525  32.244  1.00  0.00    -0.014 A 
ATOM     41  C   UNL A   1      42.782  32.761  33.487  1.00  0.00     0.010 A 
ATOM     42  C   UNL A   1      44.034  33.591  31.582  1.00  0.00     0.010 A 
ATOM     43  C   UNL A   1      42.778  34.042  34.045  1.00  0.00     0.020 A 
ATOM     44  C   UNL A   1      44.058  34.867  32.151  1.00  0.00     0.020 A 
ATOM     45  C   UNL A   1      43.408  35.089  33.369  1.00  0.00     0.054 A 
BRANCH  45  46
ATOM     46  S   UNL A   1      43.379  36.750  34.099  1.00  0.00     0.124 S 
ATOM     47  O   UNL A   1      42.095  36.759  34.790  1.00  0.00    -0.237 OA
ATOM     48  O   UNL A   1      44.560  36.742  34.958  1.00  0.00    -0.237 OA
ATOM     49  O   UNL A   1      43.473  37.634  32.938  1.00  0.00    -0.744 OA
ENDBRANCH  45  46
ENDBRANCH  26  40
BRANCH  27  50
ATOM     50  C   UNL A   1      42.234  23.638  27.815  1.00  0.00    -0.014 A 
ATOM     51  C   UNL A   1      41.671  22.565  28.531  1.00  0.00     0.010 A 
ATOM     52  C   UNL A   1      42.698  23.413  26.506  1.00  0.00     0.010 A 
ATOM     53  C   UNL A   1      41.628  21.283  27.976  1.00  0.00     0.020 A 
ATOM     54  C   UNL A   1      42.631  22.138  25.935  1.00  0.00     0.020 A 
ATOM     55  C   UNL A   1      42.125  21.076  26.687  1.00  0.00     0.054 A 
BRANCH  55  56
ATOM     56  S   UNL A   1      42.119  19.391  26.010  1.00  0.00     0.124 S 
ATOM     57  O   UNL A   1      40.702  19.193  25.717  1.00  0.00    -0.237 OA
ATOM     58  O   UNL A   1      42.992  19.512  24.846  1.00  0.00    -0.237 OA
ATOM     59  O   UNL A   1      42.650  18.582  27.103  1.00  0.00    -0.744 OA
ENDBRANCH  55  56
ENDBRANCH  27  50
BRANCH  39  60
ATOM     60  C   UNL A   1      47.468  26.670  31.370  1.00  0.00    -0.014 A 
ATOM     61  C   UNL A   1      48.530  26.825  30.459  1.00  0.00     0.010 A 
ATOM     62  C   UNL A   1      47.688  25.968  32.568  1.00  0.00     0.010 A 
ATOM     63  C   UNL A   1      49.776  26.250  30.718  1.00  0.00     0.020 A 
ATOM     64  C   UNL A   1      48.942  25.415  32.843  1.00  0.00     0.020 A 
ATOM     65  C   UNL A   1      49.969  25.535  31.903  1.00  0.00     0.054 A 
BRANCH  65  66
ATOM     66  S   UNL A   1      51.579  24.752  32.201  1.00  0.00     0.124 S 
ATOM     67  O   UNL A   1      52.417  25.374  31.180  1.00  0.00    -0.237 OA
ATOM     68  O   UNL A   1      51.874  25.137  33.579  1.00  0.00    -0.237 OA
ATOM     69  O   UNL A   1      51.308  23.330  32.006  1.00  0.00    -0.744 OA
ENDBRANCH  65  66
ENDBRANCH  39  60
ENDBRANCH  13  14
ENDBRANCH   6   8
ENDBRANCH   3   4
ENDBRANCH   2   3
ENDBRANCH   1   2
BRANCH   1  70
ATOM     70  C   UNL A   1      35.463  32.297  31.896  1.00  0.00     0.002 C 
BRANCH  70  71
ATOM     71  C   UNL A   1      35.245  33.036  33.219  1.00  0.00     0.021 C 
BRANCH  71  72
ATOM     72  C   UNL A   1      36.054  34.321  33.383  1.00  0.00     0.116 C 
BRANCH  72  73
ATOM     73  N   UNL A   1      37.233  34.324  32.533  1.00  0.00    -0.349 N 
ATOM     74  C   UNL A   1      38.563  34.281  32.910  1.00  0.00     0.289 C 
ATOM     75  H   UNL A   1      37.063  34.362  31.564  1.00  0.00     0.163 HD
ATOM     76  O   UNL A   1      39.427  34.478  32.054  1.00  0.00    -0.266 OA
BRANCH  74  77
ATOM     77  C   UNL A   1      38.936  33.989  34.338  1.00  0.00     0.220 A 
ATOM     78  N   UNL A   1      39.246  32.716  34.637  1.00  0.00    -0.206 NA
ATOM     79  N   UNL A   1      38.907  35.029  35.193  1.00  0.00    -0.224 NA
ATOM     80  C   UNL A   1      39.553  32.467  35.914  1.00  0.00     0.138 A 
ATOM     81  C   UNL A   1      39.260  34.775  36.449  1.00  0.00     0.077 A 
ATOM     82  C   UNL A   1      39.583  33.489  36.896  1.00  0.00     0.043 A 
ATOM     83  C   UNL A   1      39.330  35.841  37.337  1.00  0.00     0.029 A 
ATOM     84  C   UNL A   1      39.948  33.316  38.258  1.00  0.00     0.014 A 
ATOM     85  C   UNL A   1      39.723  35.670  38.667  1.00  0.00     0.002 A 
ATOM     86  C   UNL A   1      40.028  34.400  39.131  1.00  0.00     0.001 A 
BRANCH  80  87
ATOM     87  N   UNL A   1      39.897  31.168  36.269  1.00  0.00    -0.368 N 
ATOM     88  H   UNL A   1      39.519  30.794  37.097  1.00  0.00     0.162 HD
BRANCH  87  89
ATOM     89  C   UNL A   1      40.789  30.330  35.475  1.00  0.00     0.127 C 
BRANCH  89  90
ATOM     90  C   UNL A   1      42.110  29.716  36.145  1.00  0.00     0.070 C 
ATOM     91  C   UNL A   1      42.571  28.472  35.342  1.00  0.00    -0.035 A 
ATOM     92  C   UNL A   1      43.253  30.571  36.754  1.00  0.00    -0.025 A 
ATOM     93  C   UNL A   1      42.487  28.402  33.941  1.00  0.00     0.005 A 
ATOM     94  C   UNL A   1      43.092  27.344  36.017  1.00  0.00    -0.034 A 
ATOM     95  C   UNL A   1      44.502  30.081  37.218  1.00  0.00     0.011 A 
ATOM     96  C   UNL A   1      43.033  31.941  37.003  1.00  0.00     0.005 A 
ATOM     97  C   UNL A   1      42.811  27.230  33.246  1.00  0.00     0.000 A 
ATOM     98  C   UNL A   1      43.421  26.172  35.309  1.00  0.00     0.005 A 
ATOM     99  C   UNL A   1      43.496  27.444  37.459  1.00  0.00     0.110 C 
ATOM    100  S   UNL A   1      45.038  28.389  37.529  1.00  0.00    -0.121 SA
ATOM    101  C   UNL A   1      45.509  30.990  37.637  1.00  0.00     0.015 A 
ATOM    102  C   UNL A   1      44.022  32.830  37.437  1.00  0.00     0.000 A 
ATOM    103  C   UNL A   1      43.264  26.110  33.931  1.00  0.00     0.000 A 
ATOM    104  C   UNL A   1      45.284  32.358  37.716  1.00  0.00     0.001 A 
ENDBRANCH  89  90
ENDBRANCH  87  89
ENDBRANCH  80  87
ENDBRANCH  74  77
ENDBRANCH  72  73
ENDBRANCH  71  72
ENDBRANCH  70  71
ENDBRANCH   1  70
TORSDOF 19
ENDMDL
