MODEL 1
REMARK VINA RESULT:      -9.0      0.000      0.000
REMARK SMILES O=C(NCc1ccc(C(=O)NCCCCCCNC(=O)c2ccc(-c3c4nc(c(-c5ccc(S(=O)(=O)[O-])cc5)c5ccc([nH]5)c(-c5ccc(S(=O)(=O)[O-])cc5)c5nc(c(-c6ccc(S(=O)(=O)[O-])cc6)c6ccc3[nH]6)C=C5)C=C4)cc2)cc1)Nc1ccccc1Br
REMARK SMILES IDX 14 1 13 2 12 3 11 4 9 5 10 6 8 8 5 9 6 10 82 11 7 12 81 13
REMARK SMILES IDX 4 14 3 15 1 16 2 17 83 18 84 21 85 22 89 23 86 24 88 25
REMARK SMILES IDX 90 26 87 27 15 28 16 29 17 30 18 31 19 32 20 34 21 35 22 36
REMARK SMILES IDX 80 37 23 38 79 39 24 40 25 41 26 42 73 43 27 44 78 45 72 46
REMARK SMILES IDX 74 47 28 48 77 49 71 50 70 51 29 53 59 54 40 55 58 56 41 57
REMARK SMILES IDX 44 58 57 59 75 60 42 61 43 62 56 64 76 65 45 66 30 67 31 68
REMARK SMILES IDX 39 69 32 70 38 71 33 72 34 73 35 74 36 75 37 76 60 77 61 78
REMARK SMILES IDX 69 79 62 80 68 81 63 82 64 83 65 84 66 85 67 86 46 87 47 88
REMARK SMILES IDX 55 89 48 90 54 91 49 92 50 93 51 94 52 95 53 96
REMARK H PARENT 11 7 3 19 83 20 18 33 74 52 44 63
REMARK Flexibility Score: inf
ROOT
ATOM      1  C   UNL A   1      36.239  33.040  32.063  1.00  0.00     0.002 C 
ENDROOT
BRANCH   1   2
ATOM      2  C   UNL A   1      36.926  31.711  32.411  1.00  0.00     0.021 C 
BRANCH   2   3
ATOM      3  C   UNL A   1      38.107  31.865  33.372  1.00  0.00     0.116 C 
BRANCH   3   4
ATOM      4  N   UNL A   1      37.782  31.291  34.665  1.00  0.00    -0.352 N 
ATOM      5  C   UNL A   1      38.561  30.718  35.636  1.00  0.00     0.251 C 
ATOM      6  O   UNL A   1      38.012  30.351  36.675  1.00  0.00    -0.269 OA
ATOM      7  H   UNL A   1      36.824  31.320  34.886  1.00  0.00     0.163 HD
BRANCH   5   8
ATOM      8  C   UNL A   1      40.036  30.586  35.514  1.00  0.00     0.039 A 
ATOM      9  C   UNL A   1      42.804  30.159  35.189  1.00  0.00    -0.029 A 
ATOM     10  C   UNL A   1      41.882  29.437  34.423  1.00  0.00     0.006 A 
ATOM     11  C   UNL A   1      42.331  31.142  36.069  1.00  0.00     0.006 A 
ATOM     12  C   UNL A   1      40.512  29.647  34.588  1.00  0.00     0.014 A 
ATOM     13  C   UNL A   1      40.957  31.366  36.217  1.00  0.00     0.014 A 
BRANCH   9  14
ATOM     14  C   UNL A   1      44.281  29.909  35.039  1.00  0.00     0.153 C 
BRANCH  14  15
ATOM     15  N   UNL A   1      44.732  28.885  35.953  1.00  0.00    -0.334 N 
ATOM     16  O   UNL A   1      45.090  26.874  36.816  1.00  0.00    -0.248 OA
ATOM     17  C   UNL A   1      44.682  27.530  35.862  1.00  0.00     0.319 C 
ATOM     18  N   UNL A   1      44.237  27.020  34.676  1.00  0.00    -0.307 N 
ATOM     19  H   UNL A   1      45.145  29.226  36.780  1.00  0.00     0.165 HD
ATOM     20  H   UNL A   1      44.122  27.653  33.931  1.00  0.00     0.171 HD
BRANCH  18  21
ATOM     21  C   UNL A   1      43.928  25.663  34.424  1.00  0.00     0.057 A 
ATOM     22  C   UNL A   1      44.731  25.031  33.460  1.00  0.00     0.027 A 
ATOM     23  C   UNL A   1      42.891  24.926  35.023  1.00  0.00     0.041 A 
ATOM     24  C   UNL A   1      44.568  23.676  33.161  1.00  0.00     0.002 A 
ATOM     25  C   UNL A   1      42.740  23.563  34.724  1.00  0.00     0.018 A 
ATOM     26  Br  UNL A   1      41.497  25.699  36.062  1.00  0.00    -0.049 Br
ATOM     27  C   UNL A   1      43.584  22.938  33.807  1.00  0.00     0.001 A 
ENDBRANCH  18  21
ENDBRANCH  14  15
ENDBRANCH   9  14
ENDBRANCH   5   8
ENDBRANCH   3   4
ENDBRANCH   2   3
ENDBRANCH   1   2
BRANCH   1  28
ATOM     28  C   UNL A   1      36.080  33.316  30.563  1.00  0.00     0.002 C 
BRANCH  28  29
ATOM     29  C   UNL A   1      34.694  33.011  29.986  1.00  0.00     0.021 C 
BRANCH  29  30
ATOM     30  C   UNL A   1      34.668  32.771  28.478  1.00  0.00     0.116 C 
BRANCH  30  31
ATOM     31  N   UNL A   1      33.900  31.586  28.135  1.00  0.00    -0.352 N 
ATOM     32  C   UNL A   1      34.335  30.313  27.866  1.00  0.00     0.251 C 
ATOM     33  H   UNL A   1      32.925  31.716  28.088  1.00  0.00     0.163 HD
ATOM     34  O   UNL A   1      33.557  29.498  27.380  1.00  0.00    -0.269 OA
BRANCH  32  35
ATOM     35  C   UNL A   1      35.733  29.920  28.153  1.00  0.00     0.039 A 
ATOM     36  C   UNL A   1      36.050  29.452  29.431  1.00  0.00     0.014 A 
ATOM     37  C   UNL A   1      36.740  30.064  27.193  1.00  0.00     0.014 A 
ATOM     38  C   UNL A   1      37.367  29.104  29.740  1.00  0.00     0.010 A 
ATOM     39  C   UNL A   1      38.043  29.659  27.482  1.00  0.00     0.010 A 
ATOM     40  C   UNL A   1      38.373  29.194  28.764  1.00  0.00    -0.014 A 
BRANCH  40  41
ATOM     41  C   UNL A   1      39.778  28.839  29.087  1.00  0.00     0.031 A 
ATOM     42  C   UNL A   1      40.672  29.836  29.775  1.00  0.00     0.074 A 
ATOM     43  C   UNL A   1      40.260  27.632  28.735  1.00  0.00     0.049 A 
ATOM     44  N   UNL A   1      41.924  29.711  30.135  1.00  0.00    -0.248 NA
ATOM     45  C   UNL A   1      40.090  31.154  30.078  1.00  0.00     0.031 C 
ATOM     46  C   UNL A   1      39.510  26.593  28.024  1.00  0.00     0.029 A 
ATOM     47  N   UNL A   1      41.499  27.073  28.929  1.00  0.00    -0.354 N 
ATOM     48  C   UNL A   1      42.284  30.934  30.689  1.00  0.00     0.074 A 
ATOM     49  C   UNL A   1      41.132  31.804  30.576  1.00  0.00     0.031 C 
ATOM     50  C   UNL A   1      40.294  25.514  27.867  1.00  0.00     0.029 A 
ATOM     51  C   UNL A   1      41.607  25.792  28.443  1.00  0.00     0.049 A 
ATOM     52  H   UNL A   1      42.238  27.545  29.374  1.00  0.00     0.167 HD
ATOM     53  C   UNL A   1      43.458  31.298  31.260  1.00  0.00     0.031 A 
ATOM     54  C   UNL A   1      42.644  24.933  28.465  1.00  0.00     0.031 A 
ATOM     55  C   UNL A   1      44.597  30.429  31.389  1.00  0.00     0.049 A 
ATOM     56  C   UNL A   1      43.926  25.346  29.132  1.00  0.00     0.074 A 
ATOM     57  C   UNL A   1      45.814  30.686  31.994  1.00  0.00     0.029 A 
ATOM     58  N   UNL A   1      44.657  29.130  30.907  1.00  0.00    -0.354 N 
ATOM     59  N   UNL A   1      44.228  26.490  29.701  1.00  0.00    -0.248 NA
ATOM     60  C   UNL A   1      45.000  24.345  29.179  1.00  0.00     0.031 C 
ATOM     61  C   UNL A   1      46.624  29.554  31.850  1.00  0.00     0.029 A 
ATOM     62  C   UNL A   1      45.893  28.576  31.193  1.00  0.00     0.049 A 
ATOM     63  H   UNL A   1      43.928  28.670  30.432  1.00  0.00     0.167 HD
ATOM     64  C   UNL A   1      45.518  26.337  30.195  1.00  0.00     0.074 A 
ATOM     65  C   UNL A   1      45.933  24.986  29.871  1.00  0.00     0.031 C 
ATOM     66  C   UNL A   1      46.292  27.233  30.857  1.00  0.00     0.031 A 
BRANCH  53  67
ATOM     67  C   UNL A   1      43.562  32.707  31.783  1.00  0.00    -0.014 A 
ATOM     68  C   UNL A   1      43.068  33.045  33.057  1.00  0.00     0.010 A 
ATOM     69  C   UNL A   1      44.178  33.701  31.002  1.00  0.00     0.010 A 
ATOM     70  C   UNL A   1      43.141  34.361  33.518  1.00  0.00     0.020 A 
ATOM     71  C   UNL A   1      44.277  35.014  31.472  1.00  0.00     0.020 A 
ATOM     72  C   UNL A   1      43.739  35.340  32.719  1.00  0.00     0.054 A 
BRANCH  72  73
ATOM     73  S   UNL A   1      43.827  37.042  33.341  1.00  0.00     0.124 S 
ATOM     74  O   UNL A   1      43.918  37.810  32.103  1.00  0.00    -0.237 OA
ATOM     75  O   UNL A   1      42.572  37.182  34.076  1.00  0.00    -0.237 OA
ATOM     76  O   UNL A   1      45.032  37.045  34.168  1.00  0.00    -0.744 OA
ENDBRANCH  72  73
ENDBRANCH  53  67
BRANCH  54  77
ATOM     77  C   UNL A   1      42.497  23.579  27.866  1.00  0.00    -0.014 A 
ATOM     78  C   UNL A   1      43.064  23.291  26.612  1.00  0.00     0.010 A 
ATOM     79  C   UNL A   1      41.808  22.568  28.557  1.00  0.00     0.010 A 
ATOM     80  C   UNL A   1      42.929  22.018  26.051  1.00  0.00     0.020 A 
ATOM     81  C   UNL A   1      41.691  21.286  28.010  1.00  0.00     0.020 A 
ATOM     82  C   UNL A   1      42.244  21.023  26.755  1.00  0.00     0.054 A 
BRANCH  82  83
ATOM     83  S   UNL A   1      42.131  19.360  26.038  1.00  0.00     0.124 S 
ATOM     84  O   UNL A   1      40.697  19.228  25.804  1.00  0.00    -0.237 OA
ATOM     85  O   UNL A   1      42.961  19.473  24.841  1.00  0.00    -0.237 OA
ATOM     86  O   UNL A   1      42.679  18.501  27.085  1.00  0.00    -0.744 OA
ENDBRANCH  82  83
ENDBRANCH  54  77
BRANCH  66  87
ATOM     87  C   UNL A   1      47.652  26.766  31.299  1.00  0.00    -0.014 A 
ATOM     88  C   UNL A   1      48.777  26.917  30.471  1.00  0.00     0.010 A 
ATOM     89  C   UNL A   1      47.806  26.184  32.570  1.00  0.00     0.010 A 
ATOM     90  C   UNL A   1      50.027  26.450  30.887  1.00  0.00     0.020 A 
ATOM     91  C   UNL A   1      49.058  25.739  33.000  1.00  0.00     0.020 A 
ATOM     92  C   UNL A   1      50.158  25.856  32.146  1.00  0.00     0.054 A 
BRANCH  92  93
ATOM     93  S   UNL A   1      51.790  25.266  32.673  1.00  0.00     0.124 S 
ATOM     94  O   UNL A   1      51.729  25.465  34.118  1.00  0.00    -0.237 OA
ATOM     95  O   UNL A   1      51.789  23.873  32.230  1.00  0.00    -0.237 OA
ATOM     96  O   UNL A   1      52.719  26.138  31.961  1.00  0.00    -0.744 OA
ENDBRANCH  92  93
ENDBRANCH  66  87
ENDBRANCH  40  41
ENDBRANCH  32  35
ENDBRANCH  30  31
ENDBRANCH  29  30
ENDBRANCH  28  29
ENDBRANCH   1  28
TORSDOF 19
ENDMDL
MODEL 2
REMARK VINA RESULT:      -8.3      5.396     11.840
REMARK SMILES O=C(NCc1ccc(C(=O)NCCCCCCNC(=O)c2ccc(-c3c4nc(c(-c5ccc(S(=O)(=O)[O-])cc5)c5ccc([nH]5)c(-c5ccc(S(=O)(=O)[O-])cc5)c5nc(c(-c6ccc(S(=O)(=O)[O-])cc6)c6ccc3[nH]6)C=C5)C=C4)cc2)cc1)Nc1ccccc1Br
REMARK SMILES IDX 14 1 13 2 12 3 11 4 9 5 10 6 8 8 5 9 6 10 82 11 7 12 81 13
REMARK SMILES IDX 4 14 3 15 1 16 2 17 83 18 84 21 85 22 89 23 86 24 88 25
REMARK SMILES IDX 90 26 87 27 15 28 16 29 17 30 18 31 19 32 20 34 21 35 22 36
REMARK SMILES IDX 80 37 23 38 79 39 24 40 25 41 26 42 73 43 27 44 78 45 72 46
REMARK SMILES IDX 74 47 28 48 77 49 71 50 70 51 29 53 59 54 40 55 58 56 41 57
REMARK SMILES IDX 44 58 57 59 75 60 42 61 43 62 56 64 76 65 45 66 30 67 31 68
REMARK SMILES IDX 39 69 32 70 38 71 33 72 34 73 35 74 36 75 37 76 60 77 61 78
REMARK SMILES IDX 69 79 62 80 68 81 63 82 64 83 65 84 66 85 67 86 46 87 47 88
REMARK SMILES IDX 55 89 48 90 54 91 49 92 50 93 51 94 52 95 53 96
REMARK H PARENT 11 7 3 19 83 20 18 33 74 52 44 63
REMARK Flexibility Score: inf
ROOT
ATOM      1  C   UNL A   1      33.713  28.822  26.677  1.00  0.00     0.002 C 
ENDROOT
BRANCH   1   2
ATOM      2  C   UNL A   1      33.048  29.226  25.353  1.00  0.00     0.021 C 
BRANCH   2   3
ATOM      3  C   UNL A   1      31.588  29.658  25.507  1.00  0.00     0.116 C 
BRANCH   3   4
ATOM      4  N   UNL A   1      31.027  30.009  24.215  1.00  0.00    -0.352 N 
ATOM      5  C   UNL A   1      30.643  29.246  23.144  1.00  0.00     0.251 C 
ATOM      6  O   UNL A   1      30.145  29.818  22.175  1.00  0.00    -0.269 OA
ATOM      7  H   UNL A   1      30.897  30.976  24.085  1.00  0.00     0.163 HD
BRANCH   5   8
ATOM      8  C   UNL A   1      30.738  27.762  23.134  1.00  0.00     0.039 A 
ATOM      9  C   UNL A   1      30.806  24.947  23.285  1.00  0.00    -0.029 A 
ATOM     10  C   UNL A   1      29.851  25.672  24.006  1.00  0.00     0.006 A 
ATOM     11  C   UNL A   1      31.683  25.639  22.438  1.00  0.00     0.006 A 
ATOM     12  C   UNL A   1      29.820  27.066  23.933  1.00  0.00     0.014 A 
ATOM     13  C   UNL A   1      31.637  27.036  22.350  1.00  0.00     0.014 A 
BRANCH   9  14
ATOM     14  C   UNL A   1      30.865  23.447  23.390  1.00  0.00     0.153 C 
BRANCH  14  15
ATOM     15  N   UNL A   1      31.332  23.033  24.693  1.00  0.00    -0.334 N 
ATOM     16  O   UNL A   1      32.291  21.799  26.266  1.00  0.00    -0.248 OA
ATOM     17  C   UNL A   1      32.072  21.956  25.069  1.00  0.00     0.319 C 
ATOM     18  N   UNL A   1      32.561  21.177  24.060  1.00  0.00    -0.307 N 
ATOM     19  H   UNL A   1      31.072  23.630  25.431  1.00  0.00     0.165 HD
ATOM     20  H   UNL A   1      32.469  21.521  23.142  1.00  0.00     0.171 HD
BRANCH  18  21
ATOM     21  C   UNL A   1      33.189  19.919  24.218  1.00  0.00     0.057 A 
ATOM     22  C   UNL A   1      32.369  18.803  23.984  1.00  0.00     0.027 A 
ATOM     23  C   UNL A   1      34.523  19.704  24.608  1.00  0.00     0.041 A 
ATOM     24  C   UNL A   1      32.882  17.505  24.049  1.00  0.00     0.002 A 
ATOM     25  C   UNL A   1      35.033  18.397  24.662  1.00  0.00     0.018 A 
ATOM     26  Br  UNL A   1      35.661  21.060  25.307  1.00  0.00    -0.049 Br
ATOM     27  C   UNL A   1      34.219  17.303  24.370  1.00  0.00     0.001 A 
ENDBRANCH  18  21
ENDBRANCH  14  15
ENDBRANCH   9  14
ENDBRANCH   5   8
ENDBRANCH   3   4
ENDBRANCH   2   3
ENDBRANCH   1   2
BRANCH   1  28
ATOM     28  C   UNL A   1      35.113  29.403  26.905  1.00  0.00     0.002 C 
BRANCH  28  29
ATOM     29  C   UNL A   1      35.245  30.336  28.112  1.00  0.00     0.021 C 
BRANCH  29  30
ATOM     30  C   UNL A   1      35.678  29.651  29.406  1.00  0.00     0.116 C 
BRANCH  30  31
ATOM     31  N   UNL A   1      35.887  30.608  30.479  1.00  0.00    -0.352 N 
ATOM     32  C   UNL A   1      37.050  30.969  31.112  1.00  0.00     0.251 C 
ATOM     33  H   UNL A   1      35.076  31.066  30.798  1.00  0.00     0.163 HD
ATOM     34  O   UNL A   1      36.997  31.632  32.144  1.00  0.00    -0.269 OA
BRANCH  32  35
ATOM     35  C   UNL A   1      38.362  30.559  30.563  1.00  0.00     0.039 A 
ATOM     36  C   UNL A   1      39.303  29.990  31.427  1.00  0.00     0.014 A 
ATOM     37  C   UNL A   1      38.692  30.782  29.222  1.00  0.00     0.014 A 
ATOM     38  C   UNL A   1      40.560  29.623  30.943  1.00  0.00     0.010 A 
ATOM     39  C   UNL A   1      39.924  30.360  28.726  1.00  0.00     0.010 A 
ATOM     40  C   UNL A   1      40.878  29.794  29.586  1.00  0.00    -0.014 A 
BRANCH  40  41
ATOM     41  C   UNL A   1      42.217  29.418  29.066  1.00  0.00     0.031 A 
ATOM     42  C   UNL A   1      42.465  28.026  28.550  1.00  0.00     0.074 A 
ATOM     43  C   UNL A   1      43.219  30.318  29.086  1.00  0.00     0.049 A 
ATOM     44  N   UNL A   1      43.565  27.511  28.061  1.00  0.00    -0.248 NA
ATOM     45  C   UNL A   1      41.338  27.081  28.612  1.00  0.00     0.031 C 
ATOM     46  C   UNL A   1      43.119  31.686  29.602  1.00  0.00     0.029 A 
ATOM     47  N   UNL A   1      44.519  30.217  28.659  1.00  0.00    -0.354 N 
ATOM     48  C   UNL A   1      43.268  26.184  27.774  1.00  0.00     0.074 A 
ATOM     49  C   UNL A   1      41.899  25.959  28.187  1.00  0.00     0.031 C 
ATOM     50  C   UNL A   1      44.299  32.305  29.435  1.00  0.00     0.029 A 
ATOM     51  C   UNL A   1      45.244  31.374  28.825  1.00  0.00     0.049 A 
ATOM     52  H   UNL A   1      44.896  29.396  28.272  1.00  0.00     0.167 HD
ATOM     53  C   UNL A   1      44.054  25.239  27.201  1.00  0.00     0.031 A 
ATOM     54  C   UNL A   1      46.524  31.655  28.513  1.00  0.00     0.031 A 
ATOM     55  C   UNL A   1      45.409  25.467  26.774  1.00  0.00     0.049 A 
ATOM     56  C   UNL A   1      47.367  30.604  27.848  1.00  0.00     0.074 A 
ATOM     57  C   UNL A   1      46.272  24.592  26.139  1.00  0.00     0.029 A 
ATOM     58  N   UNL A   1      46.097  26.660  26.936  1.00  0.00    -0.354 N 
ATOM     59  N   UNL A   1      47.049  29.370  27.534  1.00  0.00    -0.248 NA
ATOM     60  C   UNL A   1      48.734  30.990  27.477  1.00  0.00     0.031 C 
ATOM     61  C   UNL A   1      47.494  25.244  25.945  1.00  0.00     0.029 A 
ATOM     62  C   UNL A   1      47.377  26.540  26.421  1.00  0.00     0.049 A 
ATOM     63  H   UNL A   1      45.730  27.471  27.355  1.00  0.00     0.167 HD
ATOM     64  C   UNL A   1      48.170  28.840  26.906  1.00  0.00     0.074 A 
ATOM     65  C   UNL A   1      49.167  29.892  26.871  1.00  0.00     0.031 C 
ATOM     66  C   UNL A   1      48.359  27.595  26.402  1.00  0.00     0.031 A 
BRANCH  53  67
ATOM     67  C   UNL A   1      43.457  23.870  27.009  1.00  0.00    -0.014 A 
ATOM     68  C   UNL A   1      43.300  22.989  28.095  1.00  0.00     0.010 A 
ATOM     69  C   UNL A   1      43.031  23.463  25.732  1.00  0.00     0.010 A 
ATOM     70  C   UNL A   1      42.776  21.709  27.899  1.00  0.00     0.020 A 
ATOM     71  C   UNL A   1      42.482  22.193  25.536  1.00  0.00     0.020 A 
ATOM     72  C   UNL A   1      42.377  21.316  26.618  1.00  0.00     0.054 A 
BRANCH  72  73
ATOM     73  S   UNL A   1      41.695  19.651  26.388  1.00  0.00     0.124 S 
ATOM     74  O   UNL A   1      42.101  18.987  27.624  1.00  0.00    -0.237 OA
ATOM     75  O   UNL A   1      40.263  19.905  26.253  1.00  0.00    -0.237 OA
ATOM     76  O   UNL A   1      42.355  19.171  25.176  1.00  0.00    -0.744 OA
ENDBRANCH  72  73
ENDBRANCH  53  67
BRANCH  54  77
ATOM     77  C   UNL A   1      47.073  33.009  28.794  1.00  0.00    -0.014 A 
ATOM     78  C   UNL A   1      46.953  34.037  27.843  1.00  0.00     0.010 A 
ATOM     79  C   UNL A   1      47.700  33.280  30.023  1.00  0.00     0.010 A 
ATOM     80  C   UNL A   1      47.466  35.310  28.108  1.00  0.00     0.020 A 
ATOM     81  C   UNL A   1      48.193  34.559  30.302  1.00  0.00     0.020 A 
ATOM     82  C   UNL A   1      48.081  35.563  29.337  1.00  0.00     0.054 A 
BRANCH  82  83
ATOM     83  S   UNL A   1      48.687  37.237  29.688  1.00  0.00     0.124 S 
ATOM     84  O   UNL A   1      47.739  37.698  30.697  1.00  0.00    -0.237 OA
ATOM     85  O   UNL A   1      50.047  36.990  30.162  1.00  0.00    -0.237 OA
ATOM     86  O   UNL A   1      48.602  37.906  28.393  1.00  0.00    -0.744 OA
ENDBRANCH  82  83
ENDBRANCH  54  77
BRANCH  66  87
ATOM     87  C   UNL A   1      49.684  27.317  25.745  1.00  0.00    -0.014 A 
ATOM     88  C   UNL A   1      50.737  26.718  26.457  1.00  0.00     0.010 A 
ATOM     89  C   UNL A   1      49.868  27.647  24.390  1.00  0.00     0.010 A 
ATOM     90  C   UNL A   1      51.970  26.495  25.837  1.00  0.00     0.020 A 
ATOM     91  C   UNL A   1      51.091  27.403  23.761  1.00  0.00     0.020 A 
ATOM     92  C   UNL A   1      52.142  26.848  24.496  1.00  0.00     0.054 A 
BRANCH  92  93
ATOM     93  S   UNL A   1      53.745  26.541  23.706  1.00  0.00     0.124 S 
ATOM     94  O   UNL A   1      53.348  25.898  22.457  1.00  0.00    -0.237 OA
ATOM     95  O   UNL A   1      54.302  27.885  23.571  1.00  0.00    -0.237 OA
ATOM     96  O   UNL A   1      54.441  25.680  24.659  1.00  0.00    -0.744 OA
ENDBRANCH  92  93
ENDBRANCH  66  87
ENDBRANCH  40  41
ENDBRANCH  32  35
ENDBRANCH  30  31
ENDBRANCH  29  30
ENDBRANCH  28  29
ENDBRANCH   1  28
TORSDOF 19
ENDMDL
MODEL 3
REMARK VINA RESULT:      -8.3      4.460      7.909
REMARK SMILES O=C(NCc1ccc(C(=O)NCCCCCCNC(=O)c2ccc(-c3c4nc(c(-c5ccc(S(=O)(=O)[O-])cc5)c5ccc([nH]5)c(-c5ccc(S(=O)(=O)[O-])cc5)c5nc(c(-c6ccc(S(=O)(=O)[O-])cc6)c6ccc3[nH]6)C=C5)C=C4)cc2)cc1)Nc1ccccc1Br
REMARK SMILES IDX 14 1 13 2 12 3 11 4 9 5 10 6 8 8 5 9 6 10 82 11 7 12 81 13
REMARK SMILES IDX 4 14 3 15 1 16 2 17 83 18 84 21 85 22 89 23 86 24 88 25
REMARK SMILES IDX 90 26 87 27 15 28 16 29 17 30 18 31 19 32 20 34 21 35 22 36
REMARK SMILES IDX 80 37 23 38 79 39 24 40 25 41 26 42 73 43 27 44 78 45 72 46
REMARK SMILES IDX 74 47 28 48 77 49 71 50 70 51 29 53 59 54 40 55 58 56 41 57
REMARK SMILES IDX 44 58 57 59 75 60 42 61 43 62 56 64 76 65 45 66 30 67 31 68
REMARK SMILES IDX 39 69 32 70 38 71 33 72 34 73 35 74 36 75 37 76 60 77 61 78
REMARK SMILES IDX 69 79 62 80 68 81 63 82 64 83 65 84 66 85 67 86 46 87 47 88
REMARK SMILES IDX 55 89 48 90 54 91 49 92 50 93 51 94 52 95 53 96
REMARK H PARENT 11 7 3 19 83 20 18 33 74 52 44 63
REMARK Flexibility Score: inf
ROOT
ATOM      1  C   UNL A   1      36.460  32.094  29.311  1.00  0.00     0.002 C 
ENDROOT
BRANCH   1   2
ATOM      2  C   UNL A   1      36.089  31.184  28.130  1.00  0.00     0.021 C 
BRANCH   2   3
ATOM      3  C   UNL A   1      36.196  29.691  28.450  1.00  0.00     0.116 C 
BRANCH   3   4
ATOM      4  N   UNL A   1      36.846  29.497  29.733  1.00  0.00    -0.352 N 
ATOM      5  C   UNL A   1      37.970  28.803  30.096  1.00  0.00     0.251 C 
ATOM      6  O   UNL A   1      38.323  28.850  31.275  1.00  0.00    -0.269 OA
ATOM      7  H   UNL A   1      36.394  29.948  30.483  1.00  0.00     0.163 HD
BRANCH   5   8
ATOM      8  C   UNL A   1      38.811  28.062  29.121  1.00  0.00     0.039 A 
ATOM      9  C   UNL A   1      40.379  26.809  27.140  1.00  0.00    -0.029 A 
ATOM     10  C   UNL A   1      40.096  28.176  27.058  1.00  0.00     0.006 A 
ATOM     11  C   UNL A   1      39.927  26.089  28.255  1.00  0.00     0.006 A 
ATOM     12  C   UNL A   1      39.316  28.795  28.038  1.00  0.00     0.014 A 
ATOM     13  C   UNL A   1      39.164  26.716  29.247  1.00  0.00     0.014 A 
BRANCH   9  14
ATOM     14  C   UNL A   1      41.189  26.132  26.067  1.00  0.00     0.153 C 
BRANCH  14  15
ATOM     15  N   UNL A   1      42.454  25.665  26.585  1.00  0.00    -0.334 N 
ATOM     16  O   UNL A   1      44.089  24.278  27.150  1.00  0.00    -0.248 OA
ATOM     17  C   UNL A   1      43.008  24.424  26.588  1.00  0.00     0.319 C 
ATOM     18  N   UNL A   1      42.331  23.458  25.900  1.00  0.00    -0.307 N 
ATOM     19  H   UNL A   1      43.008  26.362  27.006  1.00  0.00     0.165 HD
ATOM     20  H   UNL A   1      41.578  23.753  25.338  1.00  0.00     0.171 HD
BRANCH  18  21
ATOM     21  C   UNL A   1      42.617  22.073  25.922  1.00  0.00     0.057 A 
ATOM     22  C   UNL A   1      41.830  21.310  26.802  1.00  0.00     0.027 A 
ATOM     23  C   UNL A   1      43.617  21.422  25.179  1.00  0.00     0.041 A 
ATOM     24  C   UNL A   1      41.971  19.922  26.876  1.00  0.00     0.002 A 
ATOM     25  C   UNL A   1      43.746  20.027  25.252  1.00  0.00     0.018 A 
ATOM     26  Br  UNL A   1      44.995  22.327  24.227  1.00  0.00    -0.049 Br
ATOM     27  C   UNL A   1      42.918  19.279  26.087  1.00  0.00     0.001 A 
ENDBRANCH  18  21
ENDBRANCH  14  15
ENDBRANCH   9  14
ENDBRANCH   5   8
ENDBRANCH   3   4
ENDBRANCH   2   3
ENDBRANCH   1   2
BRANCH   1  28
ATOM     28  C   UNL A   1      36.679  33.568  28.950  1.00  0.00     0.002 C 
BRANCH  28  29
ATOM     29  C   UNL A   1      35.406  34.418  28.872  1.00  0.00     0.021 C 
BRANCH  29  30
ATOM     30  C   UNL A   1      34.131  33.704  29.314  1.00  0.00     0.116 C 
BRANCH  30  31
ATOM     31  N   UNL A   1      33.401  34.471  30.309  1.00  0.00    -0.352 N 
ATOM     32  C   UNL A   1      33.644  34.613  31.652  1.00  0.00     0.251 C 
ATOM     33  H   UNL A   1      32.617  34.961  29.969  1.00  0.00     0.163 HD
ATOM     34  O   UNL A   1      32.790  35.125  32.370  1.00  0.00    -0.269 OA
BRANCH  32  35
ATOM     35  C   UNL A   1      34.923  34.151  32.237  1.00  0.00     0.039 A 
ATOM     36  C   UNL A   1      35.979  35.060  32.344  1.00  0.00     0.014 A 
ATOM     37  C   UNL A   1      35.106  32.820  32.625  1.00  0.00     0.014 A 
ATOM     38  C   UNL A   1      37.207  34.643  32.863  1.00  0.00     0.010 A 
ATOM     39  C   UNL A   1      36.312  32.420  33.199  1.00  0.00     0.010 A 
ATOM     40  C   UNL A   1      37.380  33.322  33.306  1.00  0.00    -0.014 A 
BRANCH  40  41
ATOM     41  C   UNL A   1      38.686  32.867  33.847  1.00  0.00     0.031 A 
ATOM     42  C   UNL A   1      39.007  33.053  35.306  1.00  0.00     0.074 A 
ATOM     43  C   UNL A   1      39.596  32.316  33.021  1.00  0.00     0.049 A 
ATOM     44  N   UNL A   1      40.092  32.725  35.960  1.00  0.00    -0.248 NA
ATOM     45  C   UNL A   1      37.986  33.714  36.133  1.00  0.00     0.031 C 
ATOM     46  C   UNL A   1      39.425  32.121  31.578  1.00  0.00     0.029 A 
ATOM     47  N   UNL A   1      40.848  31.815  33.277  1.00  0.00    -0.354 N 
ATOM     48  C   UNL A   1      39.892  33.153  37.267  1.00  0.00     0.074 A 
ATOM     49  C   UNL A   1      38.601  33.806  37.304  1.00  0.00     0.031 C 
ATOM     50  C   UNL A   1      40.518  31.518  31.084  1.00  0.00     0.029 A 
ATOM     51  C   UNL A   1      41.475  31.306  32.166  1.00  0.00     0.049 A 
ATOM     52  H   UNL A   1      41.257  31.821  34.172  1.00  0.00     0.167 HD
ATOM     53  C   UNL A   1      40.697  33.001  38.347  1.00  0.00     0.031 A 
ATOM     54  C   UNL A   1      42.683  30.725  32.033  1.00  0.00     0.031 A 
ATOM     55  C   UNL A   1      41.973  32.335  38.315  1.00  0.00     0.049 A 
ATOM     56  C   UNL A   1      43.546  30.536  33.249  1.00  0.00     0.074 A 
ATOM     57  C   UNL A   1      42.841  32.085  39.362  1.00  0.00     0.029 A 
ATOM     58  N   UNL A   1      42.560  31.809  37.174  1.00  0.00    -0.354 N 
ATOM     59  N   UNL A   1      43.313  30.899  34.489  1.00  0.00    -0.248 NA
ATOM     60  C   UNL A   1      44.825  29.841  33.052  1.00  0.00     0.031 C 
ATOM     61  C   UNL A   1      43.971  31.437  38.850  1.00  0.00     0.029 A 
ATOM     62  C   UNL A   1      43.784  31.244  37.490  1.00  0.00     0.049 A 
ATOM     63  H   UNL A   1      42.166  31.834  36.273  1.00  0.00     0.167 HD
ATOM     64  C   UNL A   1      44.406  30.453  35.223  1.00  0.00     0.074 A 
ATOM     65  C   UNL A   1      45.291  29.782  34.292  1.00  0.00     0.031 C 
ATOM     66  C   UNL A   1      44.656  30.587  36.550  1.00  0.00     0.031 A 
BRANCH  53  67
ATOM     67  C   UNL A   1      40.214  33.572  39.654  1.00  0.00    -0.014 A 
ATOM     68  C   UNL A   1      39.477  32.787  40.559  1.00  0.00     0.010 A 
ATOM     69  C   UNL A   1      40.516  34.904  39.991  1.00  0.00     0.010 A 
ATOM     70  C   UNL A   1      39.006  33.339  41.754  1.00  0.00     0.020 A 
ATOM     71  C   UNL A   1      40.069  35.451  41.197  1.00  0.00     0.020 A 
ATOM     72  C   UNL A   1      39.299  34.670  42.061  1.00  0.00     0.054 A 
BRANCH  72  73
ATOM     73  S   UNL A   1      38.682  35.362  43.621  1.00  0.00     0.124 S 
ATOM     74  O   UNL A   1      39.241  34.437  44.602  1.00  0.00    -0.237 OA
ATOM     75  O   UNL A   1      39.254  36.706  43.626  1.00  0.00    -0.237 OA
ATOM     76  O   UNL A   1      37.229  35.309  43.471  1.00  0.00    -0.744 OA
ENDBRANCH  72  73
ENDBRANCH  53  67
BRANCH  54  77
ATOM     77  C   UNL A   1      43.130  30.244  30.698  1.00  0.00    -0.014 A 
ATOM     78  C   UNL A   1      42.737  28.979  30.228  1.00  0.00     0.010 A 
ATOM     79  C   UNL A   1      43.935  31.059  29.882  1.00  0.00     0.010 A 
ATOM     80  C   UNL A   1      43.154  28.529  28.972  1.00  0.00     0.020 A 
ATOM     81  C   UNL A   1      44.335  30.622  28.616  1.00  0.00     0.020 A 
ATOM     82  C   UNL A   1      43.950  29.355  28.173  1.00  0.00     0.054 A 
BRANCH  82  83
ATOM     83  S   UNL A   1      44.432  28.779  26.522  1.00  0.00     0.124 S 
ATOM     84  O   UNL A   1      43.158  28.801  25.809  1.00  0.00    -0.237 OA
ATOM     85  O   UNL A   1      45.408  29.783  26.107  1.00  0.00    -0.237 OA
ATOM     86  O   UNL A   1      44.987  27.451  26.775  1.00  0.00    -0.744 OA
ENDBRANCH  82  83
ENDBRANCH  54  77
BRANCH  66  87
ATOM     87  C   UNL A   1      45.924  29.969  37.072  1.00  0.00    -0.014 A 
ATOM     88  C   UNL A   1      47.106  30.720  37.188  1.00  0.00     0.010 A 
ATOM     89  C   UNL A   1      45.925  28.619  37.468  1.00  0.00     0.010 A 
ATOM     90  C   UNL A   1      48.282  30.120  37.647  1.00  0.00     0.020 A 
ATOM     91  C   UNL A   1      47.092  28.022  37.951  1.00  0.00     0.020 A 
ATOM     92  C   UNL A   1      48.269  28.772  38.017  1.00  0.00     0.054 A 
BRANCH  92  93
ATOM     93  S   UNL A   1      49.802  28.013  38.621  1.00  0.00     0.124 S 
ATOM     94  O   UNL A   1      50.810  28.963  38.161  1.00  0.00    -0.237 OA
ATOM     95  O   UNL A   1      49.593  27.969  40.067  1.00  0.00    -0.237 OA
ATOM     96  O   UNL A   1      49.824  26.709  37.963  1.00  0.00    -0.744 OA
ENDBRANCH  92  93
ENDBRANCH  66  87
ENDBRANCH  40  41
ENDBRANCH  32  35
ENDBRANCH  30  31
ENDBRANCH  29  30
ENDBRANCH  28  29
ENDBRANCH   1  28
TORSDOF 19
ENDMDL
