MODEL 1
REMARK VINA RESULT:      -9.5      0.000      0.000
REMARK SMILES CCN1CC(=O)N(C[C@@H]([NH3+])C(=O)NCCCCCCNC(=O)c2ccc(-c3c4nc(c(-c5ccc(S(=O)(=O)[O-])cc5)c5ccc([nH]5)c(-c5ccc(S(=O)(=O)[O-])cc5)c5nc(c(-c6ccc(S(=O)(=O)[O-])cc6)c6ccc3[nH]6)C=C5)C=C4)cc2)CC1=O
REMARK SMILES IDX 16 1 15 2 14 3 13 4 11 5 12 6 9 8 8 9 7 10 3 11 4 12 84 13
REMARK SMILES IDX 5 14 83 15 85 16 6 17 2 18 1 19 10 20 17 24 18 25 19 26
REMARK SMILES IDX 20 27 21 28 22 30 23 31 24 32 82 33 25 34 81 35 26 36 27 37
REMARK SMILES IDX 28 38 75 39 29 40 80 41 74 42 76 43 30 44 79 45 73 46 72 47
REMARK SMILES IDX 31 49 61 50 42 51 60 52 43 53 46 54 59 55 77 56 44 57 45 58
REMARK SMILES IDX 58 60 78 61 47 62 32 63 33 64 41 65 34 66 40 67 35 68 36 69
REMARK SMILES IDX 37 70 38 71 39 72 62 73 63 74 71 75 64 76 70 77 65 78 66 79
REMARK SMILES IDX 67 80 68 81 69 82 48 83 49 84 57 85 50 86 56 87 51 88 52 89
REMARK SMILES IDX 53 90 54 91 55 92
REMARK H PARENT 13 7 10 21 10 22 10 23 20 29 76 48 46 59
REMARK Flexibility Score: inf
ROOT
ATOM      1  C   UNL A   1      35.671  33.452  28.725  1.00  0.00     0.002 C 
ENDROOT
BRANCH   1   2
ATOM      2  C   UNL A   1      34.999  32.090  28.943  1.00  0.00     0.021 C 
BRANCH   2   3
ATOM      3  C   UNL A   1      34.339  31.528  27.683  1.00  0.00     0.116 C 
BRANCH   3   4
ATOM      4  N   UNL A   1      33.774  30.217  27.954  1.00  0.00    -0.351 N 
ATOM      5  C   UNL A   1      33.064  29.382  27.144  1.00  0.00     0.280 C 
ATOM      6  O   UNL A   1      32.646  28.325  27.625  1.00  0.00    -0.268 OA
ATOM      7  H   UNL A   1      33.927  29.879  28.866  1.00  0.00     0.163 HD
BRANCH   5   8
ATOM      8  C   UNL A   1      32.854  29.707  25.651  1.00  0.00     0.290 C 
BRANCH   8   9
ATOM      9  C   UNL A   1      32.846  28.414  24.803  1.00  0.00     0.195 C 
BRANCH   9  10
ATOM     10  N   UNL A   1      31.638  28.159  24.016  1.00  0.00    -0.325 N 
ATOM     11  N   UNL A   1      29.122  28.569  22.912  1.00  0.00    -0.332 N 
ATOM     12  C   UNL A   1      29.355  27.335  23.664  1.00  0.00     0.219 C 
ATOM     13  C   UNL A   1      30.182  29.178  22.251  1.00  0.00     0.242 C 
ATOM     14  C   UNL A   1      30.607  27.393  24.537  1.00  0.00     0.242 C 
ATOM     15  C   UNL A   1      31.559  28.637  22.631  1.00  0.00     0.220 C 
ATOM     16  O   UNL A   1      30.041  29.995  21.345  1.00  0.00    -0.273 OA
ATOM     17  O   UNL A   1      30.719  26.718  25.558  1.00  0.00    -0.273 OA
BRANCH  11  18
ATOM     18  C   UNL A   1      27.755  29.018  22.673  1.00  0.00     0.116 C 
ATOM     19  C   UNL A   1      27.421  30.329  23.366  1.00  0.00     0.027 C 
ENDBRANCH  11  18
ENDBRANCH   9  10
ENDBRANCH   8   9
BRANCH   8  20
ATOM     20  N   UNL A   1      31.664  30.588  25.520  1.00  0.00    -0.346 N 
ATOM     21  H   UNL A   1      31.500  30.792  24.534  1.00  0.00     0.345 HD
ATOM     22  H   UNL A   1      31.828  31.459  26.024  1.00  0.00     0.345 HD
ATOM     23  H   UNL A   1      30.848  30.118  25.909  1.00  0.00     0.345 HD
ENDBRANCH   8  20
ENDBRANCH   5   8
ENDBRANCH   3   4
ENDBRANCH   2   3
ENDBRANCH   1   2
BRANCH   1  24
ATOM     24  C   UNL A   1      34.849  34.440  27.890  1.00  0.00     0.002 C 
BRANCH  24  25
ATOM     25  C   UNL A   1      34.031  35.440  28.708  1.00  0.00     0.021 C 
BRANCH  25  26
ATOM     26  C   UNL A   1      32.929  34.804  29.549  1.00  0.00     0.116 C 
BRANCH  26  27
ATOM     27  N   UNL A   1      32.570  35.638  30.686  1.00  0.00    -0.352 N 
ATOM     28  C   UNL A   1      33.060  35.610  31.967  1.00  0.00     0.251 C 
ATOM     29  H   UNL A   1      31.878  36.316  30.512  1.00  0.00     0.163 HD
ATOM     30  O   UNL A   1      32.484  36.229  32.860  1.00  0.00    -0.269 OA
BRANCH  28  31
ATOM     31  C   UNL A   1      34.271  34.822  32.267  1.00  0.00     0.039 A 
ATOM     32  C   UNL A   1      35.527  35.378  32.014  1.00  0.00     0.014 A 
ATOM     33  C   UNL A   1      34.166  33.533  32.802  1.00  0.00     0.014 A 
ATOM     34  C   UNL A   1      36.677  34.663  32.349  1.00  0.00     0.010 A 
ATOM     35  C   UNL A   1      35.310  32.858  33.209  1.00  0.00     0.010 A 
ATOM     36  C   UNL A   1      36.579  33.411  32.979  1.00  0.00    -0.014 A 
BRANCH  36  37
ATOM     37  C   UNL A   1      37.790  32.662  33.400  1.00  0.00     0.031 A 
ATOM     38  C   UNL A   1      38.485  33.010  34.687  1.00  0.00     0.074 A 
ATOM     39  C   UNL A   1      38.297  31.709  32.595  1.00  0.00     0.049 A 
ATOM     40  N   UNL A   1      39.573  32.497  35.203  1.00  0.00    -0.248 NA
ATOM     41  C   UNL A   1      37.896  34.096  35.489  1.00  0.00     0.031 C 
ATOM     42  C   UNL A   1      37.733  31.301  31.306  1.00  0.00     0.029 A 
ATOM     43  N   UNL A   1      39.402  30.908  32.741  1.00  0.00    -0.354 N 
ATOM     44  C   UNL A   1      39.805  33.204  36.377  1.00  0.00     0.074 A 
ATOM     45  C   UNL A   1      38.781  34.221  36.466  1.00  0.00     0.031 C 
ATOM     46  C   UNL A   1      38.474  30.302  30.799  1.00  0.00     0.029 A 
ATOM     47  C   UNL A   1      39.587  30.029  31.700  1.00  0.00     0.049 A 
ATOM     48  H   UNL A   1      40.005  30.959  33.518  1.00  0.00     0.167 HD
ATOM     49  C   UNL A   1      40.770  33.011  37.310  1.00  0.00     0.031 A 
ATOM     50  C   UNL A   1      40.548  29.108  31.493  1.00  0.00     0.031 A 
ATOM     51  C   UNL A   1      41.791  32.002  37.211  1.00  0.00     0.049 A 
ATOM     52  C   UNL A   1      41.631  28.933  32.522  1.00  0.00     0.074 A 
ATOM     53  C   UNL A   1      42.787  31.693  38.121  1.00  0.00     0.029 A 
ATOM     54  N   UNL A   1      41.955  31.144  36.134  1.00  0.00    -0.354 N 
ATOM     55  N   UNL A   1      41.798  29.567  33.659  1.00  0.00    -0.248 NA
ATOM     56  C   UNL A   1      42.649  27.912  32.244  1.00  0.00     0.031 C 
ATOM     57  C   UNL A   1      43.591  30.693  37.565  1.00  0.00     0.029 A 
ATOM     58  C   UNL A   1      43.054  30.325  36.341  1.00  0.00     0.049 A 
ATOM     59  H   UNL A   1      41.375  31.118  35.338  1.00  0.00     0.167 HD
ATOM     60  C   UNL A   1      42.923  29.000  34.247  1.00  0.00     0.074 A 
ATOM     61  C   UNL A   1      43.387  27.965  33.345  1.00  0.00     0.031 C 
ATOM     62  C   UNL A   1      43.513  29.305  35.430  1.00  0.00     0.031 A 
BRANCH  49  63
ATOM     63  C   UNL A   1      40.769  33.933  38.503  1.00  0.00    -0.014 A 
ATOM     64  C   UNL A   1      39.970  33.669  39.632  1.00  0.00     0.010 A 
ATOM     65  C   UNL A   1      41.579  35.084  38.499  1.00  0.00     0.010 A 
ATOM     66  C   UNL A   1      39.928  34.569  40.700  1.00  0.00     0.020 A 
ATOM     67  C   UNL A   1      41.568  35.969  39.580  1.00  0.00     0.020 A 
ATOM     68  C   UNL A   1      40.723  35.719  40.663  1.00  0.00     0.054 A 
BRANCH  68  69
ATOM     69  S   UNL A   1      40.636  36.879  42.053  1.00  0.00     0.124 S 
ATOM     70  O   UNL A   1      41.719  36.402  42.911  1.00  0.00    -0.237 OA
ATOM     71  O   UNL A   1      40.868  38.169  41.410  1.00  0.00    -0.237 OA
ATOM     72  O   UNL A   1      39.289  36.684  42.586  1.00  0.00    -0.744 OA
ENDBRANCH  68  69
ENDBRANCH  49  63
BRANCH  50  73
ATOM     73  C   UNL A   1      40.501  28.257  30.272  1.00  0.00    -0.014 A 
ATOM     74  C   UNL A   1      41.404  28.479  29.217  1.00  0.00     0.010 A 
ATOM     75  C   UNL A   1      39.584  27.194  30.175  1.00  0.00     0.010 A 
ATOM     76  C   UNL A   1      41.389  27.656  28.087  1.00  0.00     0.020 A 
ATOM     77  C   UNL A   1      39.586  26.352  29.060  1.00  0.00     0.020 A 
ATOM     78  C   UNL A   1      40.486  26.591  28.020  1.00  0.00     0.054 A 
BRANCH  78  79
ATOM     79  S   UNL A   1      40.543  25.490  26.579  1.00  0.00     0.124 S 
ATOM     80  O   UNL A   1      41.527  24.495  26.995  1.00  0.00    -0.237 OA
ATOM     81  O   UNL A   1      39.163  25.018  26.490  1.00  0.00    -0.237 OA
ATOM     82  O   UNL A   1      40.962  26.371  25.491  1.00  0.00    -0.744 OA
ENDBRANCH  78  79
ENDBRANCH  50  73
BRANCH  62  83
ATOM     83  C   UNL A   1      44.711  28.487  35.839  1.00  0.00    -0.014 A 
ATOM     84  C   UNL A   1      46.018  28.875  35.493  1.00  0.00     0.010 A 
ATOM     85  C   UNL A   1      44.525  27.340  36.633  1.00  0.00     0.010 A 
ATOM     86  C   UNL A   1      47.114  28.112  35.905  1.00  0.00     0.020 A 
ATOM     87  C   UNL A   1      45.621  26.593  37.074  1.00  0.00     0.020 A 
ATOM     88  C   UNL A   1      46.908  26.977  36.696  1.00  0.00     0.054 A 
BRANCH  88  89
ATOM     89  S   UNL A   1      48.350  26.032  37.257  1.00  0.00     0.124 S 
ATOM     90  O   UNL A   1      49.420  26.590  36.436  1.00  0.00    -0.237 OA
ATOM     91  O   UNL A   1      48.414  26.360  38.679  1.00  0.00    -0.237 OA
ATOM     92  O   UNL A   1      47.995  24.646  36.959  1.00  0.00    -0.744 OA
ENDBRANCH  88  89
ENDBRANCH  62  83
ENDBRANCH  36  37
ENDBRANCH  28  31
ENDBRANCH  26  27
ENDBRANCH  25  26
ENDBRANCH  24  25
ENDBRANCH   1  24
TORSDOF 20
ENDMDL
MODEL 2
REMARK VINA RESULT:      -9.4      6.551     12.366
REMARK SMILES CCN1CC(=O)N(C[C@@H]([NH3+])C(=O)NCCCCCCNC(=O)c2ccc(-c3c4nc(c(-c5ccc(S(=O)(=O)[O-])cc5)c5ccc([nH]5)c(-c5ccc(S(=O)(=O)[O-])cc5)c5nc(c(-c6ccc(S(=O)(=O)[O-])cc6)c6ccc3[nH]6)C=C5)C=C4)cc2)CC1=O
REMARK SMILES IDX 16 1 15 2 14 3 13 4 11 5 12 6 9 8 8 9 7 10 3 11 4 12 84 13
REMARK SMILES IDX 5 14 83 15 85 16 6 17 2 18 1 19 10 20 17 24 18 25 19 26
REMARK SMILES IDX 20 27 21 28 22 30 23 31 24 32 82 33 25 34 81 35 26 36 27 37
REMARK SMILES IDX 28 38 75 39 29 40 80 41 74 42 76 43 30 44 79 45 73 46 72 47
REMARK SMILES IDX 31 49 61 50 42 51 60 52 43 53 46 54 59 55 77 56 44 57 45 58
REMARK SMILES IDX 58 60 78 61 47 62 32 63 33 64 41 65 34 66 40 67 35 68 36 69
REMARK SMILES IDX 37 70 38 71 39 72 62 73 63 74 71 75 64 76 70 77 65 78 66 79
REMARK SMILES IDX 67 80 68 81 69 82 48 83 49 84 57 85 50 86 56 87 51 88 52 89
REMARK SMILES IDX 53 90 54 91 55 92
REMARK H PARENT 13 7 10 21 10 22 10 23 20 29 76 48 46 59
REMARK Flexibility Score: inf
ROOT
ATOM      1  C   UNL A   1      35.284  33.150  28.003  1.00  0.00     0.002 C 
ENDROOT
BRANCH   1   2
ATOM      2  C   UNL A   1      34.651  34.547  27.994  1.00  0.00     0.021 C 
BRANCH   2   3
ATOM      3  C   UNL A   1      33.352  34.633  28.797  1.00  0.00     0.116 C 
BRANCH   3   4
ATOM      4  N   UNL A   1      33.194  35.964  29.356  1.00  0.00    -0.351 N 
ATOM      5  C   UNL A   1      33.029  36.360  30.650  1.00  0.00     0.280 C 
ATOM      6  O   UNL A   1      32.869  37.563  30.872  1.00  0.00    -0.268 OA
ATOM      7  H   UNL A   1      33.207  36.696  28.697  1.00  0.00     0.163 HD
BRANCH   5   8
ATOM      8  C   UNL A   1      33.120  35.349  31.811  1.00  0.00     0.290 C 
BRANCH   8   9
ATOM      9  C   UNL A   1      34.407  35.576  32.638  1.00  0.00     0.195 C 
BRANCH   9  10
ATOM     10  N   UNL A   1      35.008  34.386  33.245  1.00  0.00    -0.325 N 
ATOM     11  N   UNL A   1      36.969  32.598  34.066  1.00  0.00    -0.332 N 
ATOM     12  C   UNL A   1      35.874  32.091  33.237  1.00  0.00     0.219 C 
ATOM     13  C   UNL A   1      36.747  33.684  34.905  1.00  0.00     0.242 C 
ATOM     14  C   UNL A   1      35.093  33.200  32.533  1.00  0.00     0.242 C 
ATOM     15  C   UNL A   1      35.435  34.423  34.647  1.00  0.00     0.220 C 
ATOM     16  O   UNL A   1      37.467  33.966  35.858  1.00  0.00    -0.273 OA
ATOM     17  O   UNL A   1      34.499  33.004  31.475  1.00  0.00    -0.273 OA
BRANCH  11  18
ATOM     18  C   UNL A   1      38.202  31.827  34.176  1.00  0.00     0.116 C 
ATOM     19  C   UNL A   1      38.984  31.751  32.874  1.00  0.00     0.027 C 
ENDBRANCH  11  18
ENDBRANCH   9  10
ENDBRANCH   8   9
BRANCH   8  20
ATOM     20  N   UNL A   1      31.839  35.375  32.564  1.00  0.00    -0.346 N 
ATOM     21  H   UNL A   1      31.204  34.676  32.179  1.00  0.00     0.345 HD
ATOM     22  H   UNL A   1      31.416  36.299  32.484  1.00  0.00     0.345 HD
ATOM     23  H   UNL A   1      32.017  35.167  33.547  1.00  0.00     0.345 HD
ENDBRANCH   8  20
ENDBRANCH   5   8
ENDBRANCH   3   4
ENDBRANCH   2   3
ENDBRANCH   1   2
BRANCH   1  24
ATOM     24  C   UNL A   1      34.284  31.999  28.154  1.00  0.00     0.002 C 
BRANCH  24  25
ATOM     25  C   UNL A   1      34.600  30.764  27.307  1.00  0.00     0.021 C 
BRANCH  25  26
ATOM     26  C   UNL A   1      35.475  29.734  28.011  1.00  0.00     0.116 C 
BRANCH  26  27
ATOM     27  N   UNL A   1      35.520  29.956  29.448  1.00  0.00    -0.352 N 
ATOM     28  C   UNL A   1      36.529  29.676  30.335  1.00  0.00     0.251 C 
ATOM     29  H   UNL A   1      34.714  30.364  29.839  1.00  0.00     0.163 HD
ATOM     30  O   UNL A   1      36.314  29.717  31.545  1.00  0.00    -0.269 OA
BRANCH  28  31
ATOM     31  C   UNL A   1      37.866  29.312  29.826  1.00  0.00     0.039 A 
ATOM     32  C   UNL A   1      38.195  29.606  28.502  1.00  0.00     0.014 A 
ATOM     33  C   UNL A   1      38.796  28.683  30.661  1.00  0.00     0.014 A 
ATOM     34  C   UNL A   1      39.477  29.318  28.030  1.00  0.00     0.010 A 
ATOM     35  C   UNL A   1      40.095  28.473  30.214  1.00  0.00     0.010 A 
ATOM     36  C   UNL A   1      40.448  28.779  28.891  1.00  0.00    -0.014 A 
BRANCH  36  37
ATOM     37  C   UNL A   1      41.834  28.525  28.426  1.00  0.00     0.031 A 
ATOM     38  C   UNL A   1      42.241  27.148  27.979  1.00  0.00     0.074 A 
ATOM     39  C   UNL A   1      42.743  29.519  28.463  1.00  0.00     0.049 A 
ATOM     40  N   UNL A   1      43.412  26.723  27.577  1.00  0.00    -0.248 NA
ATOM     41  C   UNL A   1      41.203  26.104  28.012  1.00  0.00     0.031 C 
ATOM     42  C   UNL A   1      42.480  30.890  28.908  1.00  0.00     0.029 A 
ATOM     43  N   UNL A   1      44.071  29.531  28.121  1.00  0.00    -0.354 N 
ATOM     44  C   UNL A   1      43.255  25.365  27.324  1.00  0.00     0.074 A 
ATOM     45  C   UNL A   1      41.894  25.025  27.676  1.00  0.00     0.031 C 
ATOM     46  C   UNL A   1      43.601  31.617  28.774  1.00  0.00     0.029 A 
ATOM     47  C   UNL A   1      44.671  30.757  28.281  1.00  0.00     0.049 A 
ATOM     48  H   UNL A   1      44.550  28.735  27.793  1.00  0.00     0.167 HD
ATOM     49  C   UNL A   1      44.155  24.483  26.823  1.00  0.00     0.031 A 
ATOM     50  C   UNL A   1      45.941  31.147  28.058  1.00  0.00     0.031 A 
ATOM     51  C   UNL A   1      45.511  24.826  26.482  1.00  0.00     0.049 A 
ATOM     52  C   UNL A   1      46.935  30.145  27.536  1.00  0.00     0.074 A 
ATOM     53  C   UNL A   1      46.489  24.021  25.926  1.00  0.00     0.029 A 
ATOM     54  N   UNL A   1      46.084  26.075  26.675  1.00  0.00    -0.354 N 
ATOM     55  N   UNL A   1      46.752  28.880  27.241  1.00  0.00    -0.248 NA
ATOM     56  C   UNL A   1      48.302  30.628  27.308  1.00  0.00     0.031 C 
ATOM     57  C   UNL A   1      47.671  24.764  25.843  1.00  0.00     0.029 A 
ATOM     58  C   UNL A   1      47.411  26.054  26.278  1.00  0.00     0.049 A 
ATOM     59  H   UNL A   1      45.616  26.861  27.040  1.00  0.00     0.167 HD
ATOM     60  C   UNL A   1      47.974  28.422  26.763  1.00  0.00     0.074 A 
ATOM     61  C   UNL A   1      48.884  29.550  26.798  1.00  0.00     0.031 C 
ATOM     62  C   UNL A   1      48.310  27.182  26.328  1.00  0.00     0.031 A 
BRANCH  49  63
ATOM     63  C   UNL A   1      43.696  23.058  26.640  1.00  0.00    -0.014 A 
ATOM     64  C   UNL A   1      43.004  22.376  27.659  1.00  0.00     0.010 A 
ATOM     65  C   UNL A   1      43.959  22.388  25.431  1.00  0.00     0.010 A 
ATOM     66  C   UNL A   1      42.646  21.035  27.499  1.00  0.00     0.020 A 
ATOM     67  C   UNL A   1      43.571  21.057  25.253  1.00  0.00     0.020 A 
ATOM     68  C   UNL A   1      42.940  20.381  26.299  1.00  0.00     0.054 A 
BRANCH  68  69
ATOM     69  S   UNL A   1      42.481  18.636  26.126  1.00  0.00     0.124 S 
ATOM     70  O   UNL A   1      42.701  18.132  27.480  1.00  0.00    -0.237 OA
ATOM     71  O   UNL A   1      41.085  18.711  25.705  1.00  0.00    -0.237 OA
ATOM     72  O   UNL A   1      43.408  18.131  25.116  1.00  0.00    -0.744 OA
ENDBRANCH  68  69
ENDBRANCH  49  63
BRANCH  50  73
ATOM     73  C   UNL A   1      46.328  32.564  28.295  1.00  0.00    -0.014 A 
ATOM     74  C   UNL A   1      46.870  32.955  29.532  1.00  0.00     0.010 A 
ATOM     75  C   UNL A   1      46.200  33.523  27.273  1.00  0.00     0.010 A 
ATOM     76  C   UNL A   1      47.273  34.276  29.745  1.00  0.00     0.020 A 
ATOM     77  C   UNL A   1      46.628  34.839  27.472  1.00  0.00     0.020 A 
ATOM     78  C   UNL A   1      47.158  35.208  28.709  1.00  0.00     0.054 A 
BRANCH  78  79
ATOM     79  S   UNL A   1      47.763  36.896  28.985  1.00  0.00     0.124 S 
ATOM     80  O   UNL A   1      47.050  37.648  27.956  1.00  0.00    -0.237 OA
ATOM     81  O   UNL A   1      47.349  37.157  30.362  1.00  0.00    -0.237 OA
ATOM     82  O   UNL A   1      49.206  36.779  28.790  1.00  0.00    -0.744 OA
ENDBRANCH  78  79
ENDBRANCH  50  73
BRANCH  62  83
ATOM     83  C   UNL A   1      49.715  26.981  25.821  1.00  0.00    -0.014 A 
ATOM     84  C   UNL A   1      50.756  26.582  26.679  1.00  0.00     0.010 A 
ATOM     85  C   UNL A   1      49.984  27.142  24.449  1.00  0.00     0.010 A 
ATOM     86  C   UNL A   1      52.045  26.379  26.180  1.00  0.00     0.020 A 
ATOM     87  C   UNL A   1      51.265  26.909  23.940  1.00  0.00     0.020 A 
ATOM     88  C   UNL A   1      52.290  26.541  24.812  1.00  0.00     0.054 A 
BRANCH  88  89
ATOM     89  S   UNL A   1      53.962  26.226  24.183  1.00  0.00     0.124 S 
ATOM     90  O   UNL A   1      54.272  24.929  24.776  1.00  0.00    -0.237 OA
ATOM     91  O   UNL A   1      53.762  26.223  22.735  1.00  0.00    -0.237 OA
ATOM     92  O   UNL A   1      54.743  27.349  24.695  1.00  0.00    -0.744 OA
ENDBRANCH  88  89
ENDBRANCH  62  83
ENDBRANCH  36  37
ENDBRANCH  28  31
ENDBRANCH  26  27
ENDBRANCH  25  26
ENDBRANCH  24  25
ENDBRANCH   1  24
TORSDOF 20
ENDMDL
MODEL 3
REMARK VINA RESULT:      -9.2      3.508      9.614
REMARK SMILES CCN1CC(=O)N(C[C@@H]([NH3+])C(=O)NCCCCCCNC(=O)c2ccc(-c3c4nc(c(-c5ccc(S(=O)(=O)[O-])cc5)c5ccc([nH]5)c(-c5ccc(S(=O)(=O)[O-])cc5)c5nc(c(-c6ccc(S(=O)(=O)[O-])cc6)c6ccc3[nH]6)C=C5)C=C4)cc2)CC1=O
REMARK SMILES IDX 16 1 15 2 14 3 13 4 11 5 12 6 9 8 8 9 7 10 3 11 4 12 84 13
REMARK SMILES IDX 5 14 83 15 85 16 6 17 2 18 1 19 10 20 17 24 18 25 19 26
REMARK SMILES IDX 20 27 21 28 22 30 23 31 24 32 82 33 25 34 81 35 26 36 27 37
REMARK SMILES IDX 28 38 75 39 29 40 80 41 74 42 76 43 30 44 79 45 73 46 72 47
REMARK SMILES IDX 31 49 61 50 42 51 60 52 43 53 46 54 59 55 77 56 44 57 45 58
REMARK SMILES IDX 58 60 78 61 47 62 32 63 33 64 41 65 34 66 40 67 35 68 36 69
REMARK SMILES IDX 37 70 38 71 39 72 62 73 63 74 71 75 64 76 70 77 65 78 66 79
REMARK SMILES IDX 67 80 68 81 69 82 48 83 49 84 57 85 50 86 56 87 51 88 52 89
REMARK SMILES IDX 53 90 54 91 55 92
REMARK H PARENT 13 7 10 21 10 22 10 23 20 29 76 48 46 59
REMARK Flexibility Score: inf
ROOT
ATOM      1  C   UNL A   1      41.618  22.055  27.610  1.00  0.00     0.002 C 
ENDROOT
BRANCH   1   2
ATOM      2  C   UNL A   1      40.831  20.803  27.202  1.00  0.00     0.021 C 
BRANCH   2   3
ATOM      3  C   UNL A   1      39.698  21.090  26.217  1.00  0.00     0.116 C 
BRANCH   3   4
ATOM      4  N   UNL A   1      39.020  22.324  26.577  1.00  0.00    -0.351 N 
ATOM      5  C   UNL A   1      37.980  22.963  25.970  1.00  0.00     0.280 C 
ATOM      6  O   UNL A   1      37.603  24.037  26.447  1.00  0.00    -0.268 OA
ATOM      7  H   UNL A   1      39.366  22.767  27.385  1.00  0.00     0.163 HD
BRANCH   5   8
ATOM      8  C   UNL A   1      37.242  22.329  24.773  1.00  0.00     0.290 C 
BRANCH   8   9
ATOM      9  C   UNL A   1      35.898  21.708  25.222  1.00  0.00     0.195 C 
BRANCH   9  10
ATOM     10  N   UNL A   1      34.695  22.498  24.952  1.00  0.00    -0.325 N 
ATOM     11  N   UNL A   1      33.120  24.670  24.233  1.00  0.00    -0.332 N 
ATOM     12  C   UNL A   1      32.882  24.044  25.534  1.00  0.00     0.219 C 
ATOM     13  C   UNL A   1      33.613  23.903  23.184  1.00  0.00     0.242 C 
ATOM     14  C   UNL A   1      34.030  23.142  25.984  1.00  0.00     0.242 C 
ATOM     15  C   UNL A   1      34.134  22.528  23.598  1.00  0.00     0.220 C 
ATOM     16  O   UNL A   1      33.530  24.230  22.003  1.00  0.00    -0.273 OA
ATOM     17  O   UNL A   1      34.259  22.927  27.172  1.00  0.00    -0.273 OA
BRANCH  11  18
ATOM     18  C   UNL A   1      32.628  26.020  23.984  1.00  0.00     0.116 C 
ATOM     19  C   UNL A   1      33.736  27.056  23.880  1.00  0.00     0.027 C 
ENDBRANCH  11  18
ENDBRANCH   9  10
ENDBRANCH   8   9
BRANCH   8  20
ATOM     20  N   UNL A   1      37.172  23.328  23.676  1.00  0.00    -0.346 N 
ATOM     21  H   UNL A   1      36.421  23.991  23.867  1.00  0.00     0.345 HD
ATOM     22  H   UNL A   1      36.989  22.853  22.793  1.00  0.00     0.345 HD
ATOM     23  H   UNL A   1      38.058  23.829  23.615  1.00  0.00     0.345 HD
ENDBRANCH   8  20
ENDBRANCH   5   8
ENDBRANCH   3   4
ENDBRANCH   2   3
ENDBRANCH   1   2
BRANCH   1  24
ATOM     24  C   UNL A   1      42.870  22.322  26.767  1.00  0.00     0.002 C 
BRANCH  24  25
ATOM     25  C   UNL A   1      43.941  23.162  27.465  1.00  0.00     0.021 C 
BRANCH  25  26
ATOM     26  C   UNL A   1      44.282  24.462  26.744  1.00  0.00     0.116 C 
BRANCH  26  27
ATOM     27  N   UNL A   1      43.276  24.806  25.752  1.00  0.00    -0.352 N 
ATOM     28  C   UNL A   1      42.150  25.578  25.895  1.00  0.00     0.251 C 
ATOM     29  H   UNL A   1      43.423  24.435  24.853  1.00  0.00     0.163 HD
ATOM     30  O   UNL A   1      41.290  25.579  25.017  1.00  0.00    -0.269 OA
BRANCH  28  31
ATOM     31  C   UNL A   1      41.974  26.391  27.114  1.00  0.00     0.039 A 
ATOM     32  C   UNL A   1      42.655  27.605  27.227  1.00  0.00     0.014 A 
ATOM     33  C   UNL A   1      41.133  25.956  28.143  1.00  0.00     0.014 A 
ATOM     34  C   UNL A   1      42.448  28.408  28.350  1.00  0.00     0.010 A 
ATOM     35  C   UNL A   1      40.867  26.793  29.220  1.00  0.00     0.010 A 
ATOM     36  C   UNL A   1      41.528  28.025  29.340  1.00  0.00    -0.014 A 
BRANCH  36  37
ATOM     37  C   UNL A   1      41.248  28.893  30.511  1.00  0.00     0.031 A 
ATOM     38  C   UNL A   1      42.082  28.777  31.757  1.00  0.00     0.074 A 
ATOM     39  C   UNL A   1      40.205  29.745  30.474  1.00  0.00     0.049 A 
ATOM     40  N   UNL A   1      41.967  29.421  32.891  1.00  0.00    -0.248 NA
ATOM     41  C   UNL A   1      43.175  27.791  31.735  1.00  0.00     0.031 C 
ATOM     42  C   UNL A   1      39.300  29.926  29.336  1.00  0.00     0.029 A 
ATOM     43  N   UNL A   1      39.728  30.618  31.418  1.00  0.00    -0.354 N 
ATOM     44  C   UNL A   1      42.959  28.909  33.719  1.00  0.00     0.074 A 
ATOM     45  C   UNL A   1      43.625  27.860  32.979  1.00  0.00     0.031 C 
ATOM     46  C   UNL A   1      38.403  30.880  29.636  1.00  0.00     0.029 A 
ATOM     47  C   UNL A   1      38.638  31.343  30.999  1.00  0.00     0.049 A 
ATOM     48  H   UNL A   1      40.128  30.716  32.313  1.00  0.00     0.167 HD
ATOM     49  C   UNL A   1      43.300  29.290  34.974  1.00  0.00     0.031 A 
ATOM     50  C   UNL A   1      37.907  32.276  31.640  1.00  0.00     0.031 A 
ATOM     51  C   UNL A   1      42.627  30.329  35.708  1.00  0.00     0.049 A 
ATOM     52  C   UNL A   1      38.278  32.660  33.046  1.00  0.00     0.074 A 
ATOM     53  C   UNL A   1      42.921  30.823  36.966  1.00  0.00     0.029 A 
ATOM     54  N   UNL A   1      41.517  31.027  35.255  1.00  0.00    -0.354 N 
ATOM     55  N   UNL A   1      39.261  32.211  33.791  1.00  0.00    -0.248 NA
ATOM     56  C   UNL A   1      37.449  33.685  33.692  1.00  0.00     0.031 C 
ATOM     57  C   UNL A   1      41.950  31.774  37.300  1.00  0.00     0.029 A 
ATOM     58  C   UNL A   1      41.095  31.927  36.220  1.00  0.00     0.049 A 
ATOM     59  H   UNL A   1      41.092  30.903  34.375  1.00  0.00     0.167 HD
ATOM     60  C   UNL A   1      39.186  32.920  34.984  1.00  0.00     0.074 A 
ATOM     61  C   UNL A   1      38.069  33.836  34.855  1.00  0.00     0.031 C 
ATOM     62  C   UNL A   1      39.975  32.826  36.084  1.00  0.00     0.031 A 
BRANCH  49  63
ATOM     63  C   UNL A   1      44.441  28.555  35.632  1.00  0.00    -0.014 A 
ATOM     64  C   UNL A   1      45.772  28.990  35.488  1.00  0.00     0.010 A 
ATOM     65  C   UNL A   1      44.181  27.410  36.407  1.00  0.00     0.010 A 
ATOM     66  C   UNL A   1      46.823  28.258  36.046  1.00  0.00     0.020 A 
ATOM     67  C   UNL A   1      45.226  26.694  36.998  1.00  0.00     0.020 A 
ATOM     68  C   UNL A   1      46.543  27.109  36.791  1.00  0.00     0.054 A 
BRANCH  68  69
ATOM     69  S   UNL A   1      47.927  26.168  37.489  1.00  0.00     0.124 S 
ATOM     70  O   UNL A   1      47.420  24.799  37.429  1.00  0.00    -0.237 OA
ATOM     71  O   UNL A   1      49.019  26.473  36.568  1.00  0.00    -0.237 OA
ATOM     72  O   UNL A   1      48.078  26.717  38.834  1.00  0.00    -0.744 OA
ENDBRANCH  68  69
ENDBRANCH  49  63
BRANCH  50  73
ATOM     73  C   UNL A   1      36.772  32.934  30.935  1.00  0.00    -0.014 A 
ATOM     74  C   UNL A   1      35.455  32.757  31.393  1.00  0.00     0.010 A 
ATOM     75  C   UNL A   1      37.005  33.776  29.832  1.00  0.00     0.010 A 
ATOM     76  C   UNL A   1      34.391  33.406  30.759  1.00  0.00     0.020 A 
ATOM     77  C   UNL A   1      35.948  34.449  29.214  1.00  0.00     0.020 A 
ATOM     78  C   UNL A   1      34.646  34.256  29.678  1.00  0.00     0.054 A 
BRANCH  78  79
ATOM     79  S   UNL A   1      33.257  35.149  28.926  1.00  0.00     0.124 S 
ATOM     80  O   UNL A   1      33.929  36.283  28.299  1.00  0.00    -0.237 OA
ATOM     81  O   UNL A   1      32.704  34.154  28.010  1.00  0.00    -0.237 OA
ATOM     82  O   UNL A   1      32.403  35.476  30.065  1.00  0.00    -0.744 OA
ENDBRANCH  78  79
ENDBRANCH  50  73
BRANCH  62  83
ATOM     83  C   UNL A   1      39.682  33.761  37.230  1.00  0.00    -0.014 A 
ATOM     84  C   UNL A   1      38.979  33.329  38.369  1.00  0.00     0.010 A 
ATOM     85  C   UNL A   1      40.171  35.080  37.186  1.00  0.00     0.010 A 
ATOM     86  C   UNL A   1      38.743  34.209  39.428  1.00  0.00     0.020 A 
ATOM     87  C   UNL A   1      39.964  35.953  38.258  1.00  0.00     0.020 A 
ATOM     88  C   UNL A   1      39.239  35.515  39.367  1.00  0.00     0.054 A 
BRANCH  88  89
ATOM     89  S   UNL A   1      38.958  36.622  40.776  1.00  0.00     0.124 S 
ATOM     90  O   UNL A   1      38.392  37.802  40.129  1.00  0.00    -0.237 OA
ATOM     91  O   UNL A   1      38.031  35.854  41.604  1.00  0.00    -0.237 OA
ATOM     92  O   UNL A   1      40.290  36.803  41.347  1.00  0.00    -0.744 OA
ENDBRANCH  88  89
ENDBRANCH  62  83
ENDBRANCH  36  37
ENDBRANCH  28  31
ENDBRANCH  26  27
ENDBRANCH  25  26
ENDBRANCH  24  25
ENDBRANCH   1  24
TORSDOF 20
ENDMDL
