MODEL 1
REMARK VINA RESULT:     -10.2      0.000      0.000
REMARK SMILES O=C(CSc1ccc2ccccc2c1)NCCCCCCNC(=O)c1ccc(-c2c3nc(c(-c4ccc(S(=O)(=O)[O-])cc4)c4ccc([nH]4)c(-c4ccc(S(=O)(=O)[O-])cc4)c4nc(c(-c5ccc(S(=O)(=O)[O-])cc5)c5ccc2[nH]5)C=C4)C=C3)cc1
REMARK SMILES IDX 19 1 18 2 17 3 16 4 15 5 1 6 2 7 3 9 4 10 5 11 6 12 14 13
REMARK SMILES IDX 7 14 13 15 8 16 12 17 9 18 11 19 10 20 20 21 21 22 22 23
REMARK SMILES IDX 23 24 24 26 25 27 26 28 84 29 27 30 83 31 28 32 29 33 30 34
REMARK SMILES IDX 77 35 31 36 82 37 76 38 78 39 32 40 81 41 75 42 74 43 33 45
REMARK SMILES IDX 63 46 44 47 62 48 45 49 48 50 61 51 79 52 46 53 47 54 60 56
REMARK SMILES IDX 80 57 49 58 34 59 35 60 43 61 36 62 42 63 37 64 38 65 39 66
REMARK SMILES IDX 40 67 41 68 64 69 65 70 73 71 66 72 72 73 67 74 68 75 69 76
REMARK SMILES IDX 70 77 71 78 50 79 51 80 59 81 52 82 58 83 53 84 54 85 55 86
REMARK SMILES IDX 56 87 57 88
REMARK H PARENT 15 8 22 25 78 44 48 55
REMARK Flexibility Score: inf
ROOT
ATOM      1  C   UNL A   1      33.614  28.456  24.303  1.00  0.00     0.002 C 
ENDROOT
BRANCH   1   2
ATOM      2  C   UNL A   1      32.657  28.686  23.128  1.00  0.00     0.002 C 
BRANCH   2   3
ATOM      3  C   UNL A   1      31.164  28.626  23.471  1.00  0.00     0.021 C 
BRANCH   3   4
ATOM      4  C   UNL A   1      30.386  27.539  22.738  1.00  0.00     0.116 C 
BRANCH   4   5
ATOM      5  N   UNL A   1      30.483  26.259  23.409  1.00  0.00    -0.355 N 
ATOM      6  O   UNL A   1      32.030  25.331  21.994  1.00  0.00    -0.274 OA
ATOM      7  C   UNL A   1      31.341  25.260  23.010  1.00  0.00     0.230 C 
ATOM      8  H   UNL A   1      29.906  26.095  24.189  1.00  0.00     0.163 HD
BRANCH   7   9
ATOM      9  C   UNL A   1      31.342  24.015  23.882  1.00  0.00     0.174 C 
BRANCH   9  10
ATOM     10  S   UNL A   1      32.423  22.681  23.247  1.00  0.00    -0.116 SA
BRANCH  10  11
ATOM     11  C   UNL A   1      33.931  22.964  24.165  1.00  0.00     0.008 A 
ATOM     12  C   UNL A   1      34.132  24.216  24.750  1.00  0.00     0.016 A 
ATOM     13  C   UNL A   1      34.955  22.015  24.234  1.00  0.00     0.023 A 
ATOM     14  C   UNL A   1      35.335  24.511  25.402  1.00  0.00     0.010 A 
ATOM     15  C   UNL A   1      36.166  22.291  24.889  1.00  0.00    -0.017 A 
ATOM     16  C   UNL A   1      36.364  23.560  25.475  1.00  0.00    -0.018 A 
ATOM     17  C   UNL A   1      37.189  21.332  24.955  1.00  0.00     0.009 A 
ATOM     18  C   UNL A   1      37.590  23.838  26.100  1.00  0.00     0.009 A 
ATOM     19  C   UNL A   1      38.400  21.624  25.580  1.00  0.00     0.001 A 
ATOM     20  C   UNL A   1      38.603  22.878  26.149  1.00  0.00     0.001 A 
ENDBRANCH  10  11
ENDBRANCH   9  10
ENDBRANCH   7   9
ENDBRANCH   4   5
ENDBRANCH   3   4
ENDBRANCH   2   3
ENDBRANCH   1   2
BRANCH   1  21
ATOM     21  C   UNL A   1      32.967  27.909  25.578  1.00  0.00     0.021 C 
BRANCH  21  22
ATOM     22  C   UNL A   1      33.685  28.271  26.873  1.00  0.00     0.116 C 
BRANCH  22  23
ATOM     23  N   UNL A   1      33.524  29.674  27.225  1.00  0.00    -0.352 N 
ATOM     24  C   UNL A   1      34.380  30.503  27.906  1.00  0.00     0.251 C 
ATOM     25  H   UNL A   1      32.679  30.087  26.934  1.00  0.00     0.163 HD
ATOM     26  O   UNL A   1      33.995  31.617  28.262  1.00  0.00    -0.269 OA
BRANCH  24  27
ATOM     27  C   UNL A   1      35.752  30.056  28.231  1.00  0.00     0.039 A 
ATOM     28  C   UNL A   1      36.739  30.125  27.243  1.00  0.00     0.014 A 
ATOM     29  C   UNL A   1      36.068  29.550  29.496  1.00  0.00     0.014 A 
ATOM     30  C   UNL A   1      38.047  29.732  27.537  1.00  0.00     0.010 A 
ATOM     31  C   UNL A   1      37.388  29.234  29.811  1.00  0.00     0.010 A 
ATOM     32  C   UNL A   1      38.389  29.306  28.832  1.00  0.00    -0.014 A 
BRANCH  32  33
ATOM     33  C   UNL A   1      39.781  28.898  29.166  1.00  0.00     0.031 A 
ATOM     34  C   UNL A   1      40.708  29.874  29.845  1.00  0.00     0.074 A 
ATOM     35  C   UNL A   1      40.224  27.670  28.829  1.00  0.00     0.049 A 
ATOM     36  N   UNL A   1      41.967  29.728  30.168  1.00  0.00    -0.248 NA
ATOM     37  C   UNL A   1      40.153  31.196  30.187  1.00  0.00     0.031 C 
ATOM     38  C   UNL A   1      39.439  26.645  28.136  1.00  0.00     0.029 A 
ATOM     39  N   UNL A   1      41.447  27.077  29.020  1.00  0.00    -0.354 N 
ATOM     40  C   UNL A   1      42.354  30.932  30.746  1.00  0.00     0.074 A 
ATOM     41  C   UNL A   1      41.216  31.822  30.669  1.00  0.00     0.031 C 
ATOM     42  C   UNL A   1      40.193  25.544  27.981  1.00  0.00     0.029 A 
ATOM     43  C   UNL A   1      41.524  25.795  28.525  1.00  0.00     0.049 A 
ATOM     44  H   UNL A   1      42.199  27.526  29.468  1.00  0.00     0.167 HD
ATOM     45  C   UNL A   1      43.535  31.261  31.320  1.00  0.00     0.031 A 
ATOM     46  C   UNL A   1      42.552  24.923  28.503  1.00  0.00     0.031 A 
ATOM     47  C   UNL A   1      44.666  30.374  31.403  1.00  0.00     0.049 A 
ATOM     48  C   UNL A   1      43.863  25.322  29.129  1.00  0.00     0.074 A 
ATOM     49  C   UNL A   1      45.903  30.609  31.978  1.00  0.00     0.029 A 
ATOM     50  N   UNL A   1      44.695  29.080  30.908  1.00  0.00    -0.354 N 
ATOM     51  N   UNL A   1      44.194  26.454  29.704  1.00  0.00    -0.248 NA
ATOM     52  C   UNL A   1      44.935  24.316  29.121  1.00  0.00     0.031 C 
ATOM     53  C   UNL A   1      46.694  29.471  31.793  1.00  0.00     0.029 A 
ATOM     54  C   UNL A   1      45.928  28.505  31.162  1.00  0.00     0.049 A 
ATOM     55  H   UNL A   1      43.949  28.636  30.444  1.00  0.00     0.167 HD
ATOM     56  C   UNL A   1      45.495  26.278  30.164  1.00  0.00     0.074 A 
ATOM     57  C   UNL A   1      45.884  24.929  29.813  1.00  0.00     0.031 C 
ATOM     58  C   UNL A   1      46.295  27.154  30.821  1.00  0.00     0.031 A 
BRANCH  45  59
ATOM     59  C   UNL A   1      43.659  32.636  31.925  1.00  0.00    -0.014 A 
ATOM     60  C   UNL A   1      43.324  32.861  33.273  1.00  0.00     0.010 A 
ATOM     61  C   UNL A   1      44.168  33.701  31.161  1.00  0.00     0.010 A 
ATOM     62  C   UNL A   1      43.466  34.130  33.837  1.00  0.00     0.020 A 
ATOM     63  C   UNL A   1      44.341  34.967  31.731  1.00  0.00     0.020 A 
ATOM     64  C   UNL A   1      43.977  35.175  33.063  1.00  0.00     0.054 A 
BRANCH  64  65
ATOM     65  S   UNL A   1      44.191  36.801  33.837  1.00  0.00     0.124 S 
ATOM     66  O   UNL A   1      42.822  37.137  34.218  1.00  0.00    -0.237 OA
ATOM     67  O   UNL A   1      45.098  36.509  34.945  1.00  0.00    -0.237 OA
ATOM     68  O   UNL A   1      44.761  37.622  32.771  1.00  0.00    -0.744 OA
ENDBRANCH  64  65
ENDBRANCH  45  59
BRANCH  46  69
ATOM     69  C   UNL A   1      42.391  23.585  27.867  1.00  0.00    -0.014 A 
ATOM     70  C   UNL A   1      41.818  22.513  28.577  1.00  0.00     0.010 A 
ATOM     71  C   UNL A   1      42.845  23.366  26.554  1.00  0.00     0.010 A 
ATOM     72  C   UNL A   1      41.746  21.240  28.002  1.00  0.00     0.020 A 
ATOM     73  C   UNL A   1      42.742  22.104  25.964  1.00  0.00     0.020 A 
ATOM     74  C   UNL A   1      42.214  21.042  26.701  1.00  0.00     0.054 A 
BRANCH  74  75
ATOM     75  S   UNL A   1      42.110  19.384  25.973  1.00  0.00     0.124 S 
ATOM     76  O   UNL A   1      42.657  18.550  27.039  1.00  0.00    -0.237 OA
ATOM     77  O   UNL A   1      40.678  19.237  25.725  1.00  0.00    -0.237 OA
ATOM     78  O   UNL A   1      42.935  19.487  24.771  1.00  0.00    -0.744 OA
ENDBRANCH  74  75
ENDBRANCH  46  69
BRANCH  58  79
ATOM     79  C   UNL A   1      47.647  26.659  31.268  1.00  0.00    -0.014 A 
ATOM     80  C   UNL A   1      48.753  26.644  30.400  1.00  0.00     0.010 A 
ATOM     81  C   UNL A   1      47.815  26.235  32.599  1.00  0.00     0.010 A 
ATOM     82  C   UNL A   1      49.990  26.166  30.842  1.00  0.00     0.020 A 
ATOM     83  C   UNL A   1      49.059  25.790  33.054  1.00  0.00     0.020 A 
ATOM     84  C   UNL A   1      50.134  25.739  32.166  1.00  0.00     0.054 A 
BRANCH  84  85
ATOM     85  S   UNL A   1      51.755  25.145  32.721  1.00  0.00     0.124 S 
ATOM     86  O   UNL A   1      51.620  25.208  34.174  1.00  0.00    -0.237 OA
ATOM     87  O   UNL A   1      51.815  23.800  32.152  1.00  0.00    -0.237 OA
ATOM     88  O   UNL A   1      52.694  26.103  32.141  1.00  0.00    -0.744 OA
ENDBRANCH  84  85
ENDBRANCH  58  79
ENDBRANCH  32  33
ENDBRANCH  24  27
ENDBRANCH  22  23
ENDBRANCH  21  22
ENDBRANCH   1  21
TORSDOF 18
ENDMDL
MODEL 2
REMARK VINA RESULT:     -10.1      5.038     11.361
REMARK SMILES O=C(CSc1ccc2ccccc2c1)NCCCCCCNC(=O)c1ccc(-c2c3nc(c(-c4ccc(S(=O)(=O)[O-])cc4)c4ccc([nH]4)c(-c4ccc(S(=O)(=O)[O-])cc4)c4nc(c(-c5ccc(S(=O)(=O)[O-])cc5)c5ccc2[nH]5)C=C4)C=C3)cc1
REMARK SMILES IDX 19 1 18 2 17 3 16 4 15 5 1 6 2 7 3 9 4 10 5 11 6 12 14 13
REMARK SMILES IDX 7 14 13 15 8 16 12 17 9 18 11 19 10 20 20 21 21 22 22 23
REMARK SMILES IDX 23 24 24 26 25 27 26 28 84 29 27 30 83 31 28 32 29 33 30 34
REMARK SMILES IDX 77 35 31 36 82 37 76 38 78 39 32 40 81 41 75 42 74 43 33 45
REMARK SMILES IDX 63 46 44 47 62 48 45 49 48 50 61 51 79 52 46 53 47 54 60 56
REMARK SMILES IDX 80 57 49 58 34 59 35 60 43 61 36 62 42 63 37 64 38 65 39 66
REMARK SMILES IDX 40 67 41 68 64 69 65 70 73 71 66 72 72 73 67 74 68 75 69 76
REMARK SMILES IDX 70 77 71 78 50 79 51 80 59 81 52 82 58 83 53 84 54 85 55 86
REMARK SMILES IDX 56 87 57 88
REMARK H PARENT 15 8 22 25 78 44 48 55
REMARK Flexibility Score: inf
ROOT
ATOM      1  C   UNL A   1      40.329  21.052  26.174  1.00  0.00     0.002 C 
ENDROOT
BRANCH   1   2
ATOM      2  C   UNL A   1      41.474  20.724  27.138  1.00  0.00     0.002 C 
BRANCH   2   3
ATOM      3  C   UNL A   1      41.841  19.239  27.248  1.00  0.00     0.021 C 
BRANCH   3   4
ATOM      4  C   UNL A   1      42.762  18.728  26.145  1.00  0.00     0.116 C 
BRANCH   4   5
ATOM      5  N   UNL A   1      43.751  19.717  25.766  1.00  0.00    -0.355 N 
ATOM      6  O   UNL A   1      45.375  18.235  25.117  1.00  0.00    -0.274 OA
ATOM      7  C   UNL A   1      44.976  19.392  25.230  1.00  0.00     0.230 C 
ATOM      8  H   UNL A   1      43.536  20.668  25.898  1.00  0.00     0.163 HD
BRANCH   7   9
ATOM      9  C   UNL A   1      45.849  20.572  24.838  1.00  0.00     0.174 C 
BRANCH   9  10
ATOM     10  S   UNL A   1      44.925  21.917  24.009  1.00  0.00    -0.116 SA
BRANCH  10  11
ATOM     11  C   UNL A   1      44.877  23.169  25.284  1.00  0.00     0.008 A 
ATOM     12  C   UNL A   1      45.563  24.367  25.071  1.00  0.00     0.016 A 
ATOM     13  C   UNL A   1      44.264  22.955  26.522  1.00  0.00     0.023 A 
ATOM     14  C   UNL A   1      45.627  25.339  26.076  1.00  0.00     0.010 A 
ATOM     15  C   UNL A   1      44.312  23.921  27.540  1.00  0.00    -0.017 A 
ATOM     16  C   UNL A   1      45.010  25.127  27.319  1.00  0.00    -0.018 A 
ATOM     17  C   UNL A   1      43.692  23.697  28.780  1.00  0.00     0.009 A 
ATOM     18  C   UNL A   1      45.080  26.074  28.354  1.00  0.00     0.009 A 
ATOM     19  C   UNL A   1      43.770  24.648  29.797  1.00  0.00     0.001 A 
ATOM     20  C   UNL A   1      44.467  25.834  29.586  1.00  0.00     0.001 A 
ENDBRANCH  10  11
ENDBRANCH   9  10
ENDBRANCH   7   9
ENDBRANCH   4   5
ENDBRANCH   3   4
ENDBRANCH   2   3
ENDBRANCH   1   2
BRANCH   1  21
ATOM     21  C   UNL A   1      39.477  22.264  26.557  1.00  0.00     0.021 C 
BRANCH  21  22
ATOM     22  C   UNL A   1      40.259  23.459  27.091  1.00  0.00     0.116 C 
BRANCH  22  23
ATOM     23  N   UNL A   1      41.088  24.083  26.071  1.00  0.00    -0.352 N 
ATOM     24  C   UNL A   1      41.517  25.383  25.975  1.00  0.00     0.251 C 
ATOM     25  H   UNL A   1      41.383  23.487  25.345  1.00  0.00     0.163 HD
ATOM     26  O   UNL A   1      42.071  25.768  24.945  1.00  0.00    -0.269 OA
BRANCH  24  27
ATOM     27  C   UNL A   1      41.298  26.327  27.093  1.00  0.00     0.039 A 
ATOM     28  C   UNL A   1      40.355  26.007  28.075  1.00  0.00     0.014 A 
ATOM     29  C   UNL A   1      42.000  27.534  27.170  1.00  0.00     0.014 A 
ATOM     30  C   UNL A   1      40.152  26.873  29.152  1.00  0.00     0.010 A 
ATOM     31  C   UNL A   1      41.854  28.356  28.285  1.00  0.00     0.010 A 
ATOM     32  C   UNL A   1      40.917  28.044  29.280  1.00  0.00    -0.014 A 
BRANCH  32  33
ATOM     33  C   UNL A   1      40.724  28.968  30.430  1.00  0.00     0.031 A 
ATOM     34  C   UNL A   1      41.583  28.828  31.661  1.00  0.00     0.074 A 
ATOM     35  C   UNL A   1      39.757  29.907  30.386  1.00  0.00     0.049 A 
ATOM     36  N   UNL A   1      41.532  29.499  32.784  1.00  0.00    -0.248 NA
ATOM     37  C   UNL A   1      42.621  27.783  31.636  1.00  0.00     0.031 C 
ATOM     38  C   UNL A   1      38.833  30.123  29.269  1.00  0.00     0.029 A 
ATOM     39  N   UNL A   1      39.386  30.854  31.309  1.00  0.00    -0.354 N 
ATOM     40  C   UNL A   1      42.525  28.959  33.594  1.00  0.00     0.074 A 
ATOM     41  C   UNL A   1      43.117  27.861  32.861  1.00  0.00     0.031 C 
ATOM     42  C   UNL A   1      38.020  31.151  29.564  1.00  0.00     0.029 A 
ATOM     43  C   UNL A   1      38.333  31.641  30.901  1.00  0.00     0.049 A 
ATOM     44  H   UNL A   1      39.832  30.960  32.179  1.00  0.00     0.167 HD
ATOM     45  C   UNL A   1      42.932  29.358  34.822  1.00  0.00     0.031 A 
ATOM     46  C   UNL A   1      37.687  32.639  31.537  1.00  0.00     0.031 A 
ATOM     47  C   UNL A   1      42.347  30.454  35.549  1.00  0.00     0.049 A 
ATOM     48  C   UNL A   1      38.146  33.049  32.913  1.00  0.00     0.074 A 
ATOM     49  C   UNL A   1      42.699  30.944  36.795  1.00  0.00     0.029 A 
ATOM     50  N   UNL A   1      41.298  31.236  35.093  1.00  0.00    -0.354 N 
ATOM     51  N   UNL A   1      39.113  32.548  33.645  1.00  0.00    -0.248 NA
ATOM     52  C   UNL A   1      37.439  34.174  33.540  1.00  0.00     0.031 C 
ATOM     53  C   UNL A   1      41.834  31.997  37.110  1.00  0.00     0.029 A 
ATOM     54  C   UNL A   1      40.988  32.204  36.033  1.00  0.00     0.049 A 
ATOM     55  H   UNL A   1      40.841  31.120  34.230  1.00  0.00     0.167 HD
ATOM     56  C   UNL A   1      39.156  33.326  34.797  1.00  0.00     0.074 A 
ATOM     57  C   UNL A   1      38.130  34.337  34.657  1.00  0.00     0.031 C 
ATOM     58  C   UNL A   1      39.974  33.215  35.873  1.00  0.00     0.031 A 
BRANCH  45  59
ATOM     59  C   UNL A   1      44.082  28.614  35.452  1.00  0.00    -0.014 A 
ATOM     60  C   UNL A   1      45.407  29.056  35.272  1.00  0.00     0.010 A 
ATOM     61  C   UNL A   1      43.839  27.502  36.277  1.00  0.00     0.010 A 
ATOM     62  C   UNL A   1      46.468  28.381  35.879  1.00  0.00     0.020 A 
ATOM     63  C   UNL A   1      44.896  26.842  36.911  1.00  0.00     0.020 A 
ATOM     64  C   UNL A   1      46.206  27.279  36.698  1.00  0.00     0.054 A 
BRANCH  64  65
ATOM     65  S   UNL A   1      47.601  26.452  37.508  1.00  0.00     0.124 S 
ATOM     66  O   UNL A   1      46.998  25.194  37.939  1.00  0.00    -0.237 OA
ATOM     67  O   UNL A   1      48.578  26.343  36.427  1.00  0.00    -0.237 OA
ATOM     68  O   UNL A   1      47.970  27.367  38.586  1.00  0.00    -0.744 OA
ENDBRANCH  64  65
ENDBRANCH  45  59
BRANCH  46  69
ATOM     69  C   UNL A   1      36.535  33.325  30.886  1.00  0.00    -0.014 A 
ATOM     70  C   UNL A   1      36.663  33.889  29.603  1.00  0.00     0.010 A 
ATOM     71  C   UNL A   1      35.310  33.450  31.566  1.00  0.00     0.010 A 
ATOM     72  C   UNL A   1      35.603  34.603  29.034  1.00  0.00     0.020 A 
ATOM     73  C   UNL A   1      34.238  34.132  30.985  1.00  0.00     0.020 A 
ATOM     74  C   UNL A   1      34.398  34.724  29.731  1.00  0.00     0.054 A 
BRANCH  74  75
ATOM     75  S   UNL A   1      33.035  35.652  28.975  1.00  0.00     0.124 S 
ATOM     76  O   UNL A   1      32.415  34.640  28.126  1.00  0.00    -0.237 OA
ATOM     77  O   UNL A   1      32.255  36.070  30.137  1.00  0.00    -0.237 OA
ATOM     78  O   UNL A   1      33.713  36.737  28.267  1.00  0.00    -0.744 OA
ENDBRANCH  74  75
ENDBRANCH  46  69
BRANCH  58  79
ATOM     79  C   UNL A   1      39.844  34.256  36.955  1.00  0.00    -0.014 A 
ATOM     80  C   UNL A   1      40.534  35.479  36.891  1.00  0.00     0.010 A 
ATOM     81  C   UNL A   1      38.982  34.011  38.041  1.00  0.00     0.010 A 
ATOM     82  C   UNL A   1      40.401  36.418  37.919  1.00  0.00     0.020 A 
ATOM     83  C   UNL A   1      38.820  34.962  39.052  1.00  0.00     0.020 A 
ATOM     84  C   UNL A   1      39.547  36.152  38.994  1.00  0.00     0.054 A 
BRANCH  84  85
ATOM     85  S   UNL A   1      39.375  37.396  40.302  1.00  0.00     0.124 S 
ATOM     86  O   UNL A   1      38.561  38.416  39.647  1.00  0.00    -0.237 OA
ATOM     87  O   UNL A   1      38.712  36.649  41.369  1.00  0.00    -0.237 OA
ATOM     88  O   UNL A   1      40.753  37.790  40.590  1.00  0.00    -0.744 OA
ENDBRANCH  84  85
ENDBRANCH  58  79
ENDBRANCH  32  33
ENDBRANCH  24  27
ENDBRANCH  22  23
ENDBRANCH  21  22
ENDBRANCH   1  21
TORSDOF 18
ENDMDL
MODEL 3
REMARK VINA RESULT:      -9.7      1.647      2.576
REMARK SMILES O=C(CSc1ccc2ccccc2c1)NCCCCCCNC(=O)c1ccc(-c2c3nc(c(-c4ccc(S(=O)(=O)[O-])cc4)c4ccc([nH]4)c(-c4ccc(S(=O)(=O)[O-])cc4)c4nc(c(-c5ccc(S(=O)(=O)[O-])cc5)c5ccc2[nH]5)C=C4)C=C3)cc1
REMARK SMILES IDX 19 1 18 2 17 3 16 4 15 5 1 6 2 7 3 9 4 10 5 11 6 12 14 13
REMARK SMILES IDX 7 14 13 15 8 16 12 17 9 18 11 19 10 20 20 21 21 22 22 23
REMARK SMILES IDX 23 24 24 26 25 27 26 28 84 29 27 30 83 31 28 32 29 33 30 34
REMARK SMILES IDX 77 35 31 36 82 37 76 38 78 39 32 40 81 41 75 42 74 43 33 45
REMARK SMILES IDX 63 46 44 47 62 48 45 49 48 50 61 51 79 52 46 53 47 54 60 56
REMARK SMILES IDX 80 57 49 58 34 59 35 60 43 61 36 62 42 63 37 64 38 65 39 66
REMARK SMILES IDX 40 67 41 68 64 69 65 70 73 71 66 72 72 73 67 74 68 75 69 76
REMARK SMILES IDX 70 77 71 78 50 79 51 80 59 81 52 82 58 83 53 84 54 85 55 86
REMARK SMILES IDX 56 87 57 88
REMARK H PARENT 15 8 22 25 78 44 48 55
REMARK Flexibility Score: inf
ROOT
ATOM      1  C   UNL A   1      32.457  26.189  25.874  1.00  0.00     0.002 C 
ENDROOT
BRANCH   1   2
ATOM      2  C   UNL A   1      32.557  26.594  24.400  1.00  0.00     0.002 C 
BRANCH   2   3
ATOM      3  C   UNL A   1      32.549  25.437  23.395  1.00  0.00     0.021 C 
BRANCH   3   4
ATOM      4  C   UNL A   1      33.931  24.972  22.948  1.00  0.00     0.116 C 
BRANCH   4   5
ATOM      5  N   UNL A   1      34.680  24.381  24.038  1.00  0.00    -0.355 N 
ATOM      6  O   UNL A   1      36.254  23.332  22.743  1.00  0.00    -0.274 OA
ATOM      7  C   UNL A   1      35.824  23.638  23.852  1.00  0.00     0.230 C 
ATOM      8  H   UNL A   1      34.355  24.517  24.957  1.00  0.00     0.163 HD
BRANCH   7   9
ATOM      9  C   UNL A   1      36.501  23.157  25.124  1.00  0.00     0.174 C 
BRANCH   9  10
ATOM     10  S   UNL A   1      35.328  22.554  26.393  1.00  0.00    -0.116 SA
BRANCH  10  11
ATOM     11  C   UNL A   1      34.476  21.251  25.515  1.00  0.00     0.008 A 
ATOM     12  C   UNL A   1      33.117  21.411  25.234  1.00  0.00     0.016 A 
ATOM     13  C   UNL A   1      35.094  20.041  25.186  1.00  0.00     0.023 A 
ATOM     14  C   UNL A   1      32.389  20.382  24.628  1.00  0.00     0.010 A 
ATOM     15  C   UNL A   1      34.381  18.998  24.571  1.00  0.00    -0.017 A 
ATOM     16  C   UNL A   1      33.007  19.166  24.296  1.00  0.00    -0.018 A 
ATOM     17  C   UNL A   1      35.009  17.786  24.245  1.00  0.00     0.009 A 
ATOM     18  C   UNL A   1      32.295  18.107  23.710  1.00  0.00     0.009 A 
ATOM     19  C   UNL A   1      34.288  16.744  23.663  1.00  0.00     0.001 A 
ATOM     20  C   UNL A   1      32.931  16.903  23.399  1.00  0.00     0.001 A 
ENDBRANCH  10  11
ENDBRANCH   9  10
ENDBRANCH   7   9
ENDBRANCH   4   5
ENDBRANCH   3   4
ENDBRANCH   2   3
ENDBRANCH   1   2
BRANCH   1  21
ATOM     21  C   UNL A   1      32.480  27.347  26.875  1.00  0.00     0.021 C 
BRANCH  21  22
ATOM     22  C   UNL A   1      33.750  28.190  26.858  1.00  0.00     0.116 C 
BRANCH  22  23
ATOM     23  N   UNL A   1      33.502  29.577  27.219  1.00  0.00    -0.352 N 
ATOM     24  C   UNL A   1      34.312  30.457  27.892  1.00  0.00     0.251 C 
ATOM     25  H   UNL A   1      32.628  29.935  26.942  1.00  0.00     0.163 HD
ATOM     26  O   UNL A   1      33.859  31.543  28.259  1.00  0.00    -0.269 OA
BRANCH  24  27
ATOM     27  C   UNL A   1      35.715  30.101  28.196  1.00  0.00     0.039 A 
ATOM     28  C   UNL A   1      36.038  29.661  29.483  1.00  0.00     0.014 A 
ATOM     29  C   UNL A   1      36.717  30.216  27.227  1.00  0.00     0.014 A 
ATOM     30  C   UNL A   1      37.352  29.295  29.784  1.00  0.00     0.010 A 
ATOM     31  C   UNL A   1      38.009  29.775  27.506  1.00  0.00     0.010 A 
ATOM     32  C   UNL A   1      38.346  29.326  28.791  1.00  0.00    -0.014 A 
BRANCH  32  33
ATOM     33  C   UNL A   1      39.747  28.924  29.090  1.00  0.00     0.031 A 
ATOM     34  C   UNL A   1      40.692  29.911  29.727  1.00  0.00     0.074 A 
ATOM     35  C   UNL A   1      40.181  27.691  28.760  1.00  0.00     0.049 A 
ATOM     36  N   UNL A   1      41.961  29.771  30.015  1.00  0.00    -0.248 NA
ATOM     37  C   UNL A   1      40.147  31.238  30.064  1.00  0.00     0.031 C 
ATOM     38  C   UNL A   1      39.378  26.655  28.107  1.00  0.00     0.029 A 
ATOM     39  N   UNL A   1      41.410  27.102  28.924  1.00  0.00    -0.354 N 
ATOM     40  C   UNL A   1      42.363  30.984  30.563  1.00  0.00     0.074 A 
ATOM     41  C   UNL A   1      41.222  31.872  30.505  1.00  0.00     0.031 C 
ATOM     42  C   UNL A   1      40.127  25.552  27.947  1.00  0.00     0.029 A 
ATOM     43  C   UNL A   1      41.473  25.813  28.448  1.00  0.00     0.049 A 
ATOM     44  H   UNL A   1      42.174  27.558  29.344  1.00  0.00     0.167 HD
ATOM     45  C   UNL A   1      43.560  31.322  31.097  1.00  0.00     0.031 A 
ATOM     46  C   UNL A   1      42.501  24.941  28.410  1.00  0.00     0.031 A 
ATOM     47  C   UNL A   1      44.694  30.437  31.161  1.00  0.00     0.049 A 
ATOM     48  C   UNL A   1      43.830  25.350  28.991  1.00  0.00     0.074 A 
ATOM     49  C   UNL A   1      45.947  30.682  31.696  1.00  0.00     0.029 A 
ATOM     50  N   UNL A   1      44.709  29.136  30.686  1.00  0.00    -0.354 N 
ATOM     51  N   UNL A   1      44.176  26.491  29.539  1.00  0.00    -0.248 NA
ATOM     52  C   UNL A   1      44.901  24.344  28.967  1.00  0.00     0.031 C 
ATOM     53  C   UNL A   1      46.733  29.541  31.506  1.00  0.00     0.029 A 
ATOM     54  C   UNL A   1      45.950  28.565  30.913  1.00  0.00     0.049 A 
ATOM     55  H   UNL A   1      43.951  28.684  30.251  1.00  0.00     0.167 HD
ATOM     56  C   UNL A   1      45.490  26.323  29.963  1.00  0.00     0.074 A 
ATOM     57  C   UNL A   1      45.869  24.968  29.622  1.00  0.00     0.031 C 
ATOM     58  C   UNL A   1      46.308  27.210  30.582  1.00  0.00     0.031 A 
BRANCH  45  59
ATOM     59  C   UNL A   1      43.700  32.707  31.676  1.00  0.00    -0.014 A 
ATOM     60  C   UNL A   1      43.981  33.808  30.845  1.00  0.00     0.010 A 
ATOM     61  C   UNL A   1      43.493  32.923  33.050  1.00  0.00     0.010 A 
ATOM     62  C   UNL A   1      44.082  35.093  31.381  1.00  0.00     0.020 A 
ATOM     63  C   UNL A   1      43.564  34.213  33.586  1.00  0.00     0.020 A 
ATOM     64  C   UNL A   1      43.870  35.288  32.749  1.00  0.00     0.054 A 
BRANCH  64  65
ATOM     65  S   UNL A   1      43.965  36.976  33.406  1.00  0.00     0.124 S 
ATOM     66  O   UNL A   1      44.213  37.757  32.198  1.00  0.00    -0.237 OA
ATOM     67  O   UNL A   1      42.648  37.156  34.013  1.00  0.00    -0.237 OA
ATOM     68  O   UNL A   1      45.079  36.919  34.350  1.00  0.00    -0.744 OA
ENDBRANCH  64  65
ENDBRANCH  45  59
BRANCH  46  69
ATOM     69  C   UNL A   1      42.323  23.592  27.800  1.00  0.00    -0.014 A 
ATOM     70  C   UNL A   1      41.855  22.509  28.568  1.00  0.00     0.010 A 
ATOM     71  C   UNL A   1      42.656  23.377  26.451  1.00  0.00     0.010 A 
ATOM     72  C   UNL A   1      41.769  21.230  28.010  1.00  0.00     0.020 A 
ATOM     73  C   UNL A   1      42.538  22.106  25.881  1.00  0.00     0.020 A 
ATOM     74  C   UNL A   1      42.117  21.035  26.671  1.00  0.00     0.054 A 
BRANCH  74  75
ATOM     75  S   UNL A   1      41.997  19.368  25.966  1.00  0.00     0.124 S 
ATOM     76  O   UNL A   1      40.564  19.246  25.718  1.00  0.00    -0.237 OA
ATOM     77  O   UNL A   1      42.839  19.467  24.776  1.00  0.00    -0.237 OA
ATOM     78  O   UNL A   1      42.525  18.511  27.025  1.00  0.00    -0.744 OA
ENDBRANCH  74  75
ENDBRANCH  46  69
BRANCH  58  79
ATOM     79  C   UNL A   1      47.673  26.723  30.998  1.00  0.00    -0.014 A 
ATOM     80  C   UNL A   1      48.797  26.877  30.168  1.00  0.00     0.010 A 
ATOM     81  C   UNL A   1      47.833  26.129  32.264  1.00  0.00     0.010 A 
ATOM     82  C   UNL A   1      50.047  26.402  30.577  1.00  0.00     0.020 A 
ATOM     83  C   UNL A   1      49.087  25.685  32.691  1.00  0.00     0.020 A 
ATOM     84  C   UNL A   1      50.183  25.806  31.835  1.00  0.00     0.054 A 
BRANCH  84  85
ATOM     85  S   UNL A   1      51.819  25.219  32.352  1.00  0.00     0.124 S 
ATOM     86  O   UNL A   1      51.641  23.770  32.332  1.00  0.00    -0.237 OA
ATOM     87  O   UNL A   1      52.695  25.760  31.315  1.00  0.00    -0.237 OA
ATOM     88  O   UNL A   1      51.996  25.807  33.678  1.00  0.00    -0.744 OA
ENDBRANCH  84  85
ENDBRANCH  58  79
ENDBRANCH  32  33
ENDBRANCH  24  27
ENDBRANCH  22  23
ENDBRANCH  21  22
ENDBRANCH   1  21
TORSDOF 18
ENDMDL
