MODEL 1
REMARK VINA RESULT:     -10.1      0.000      0.000
REMARK SMILES [NH3+]CCOCC(=O)N[C@H](C(=O)NCCCCCCNC(=O)c1ccc(-c2c3nc(c(-c4ccc(S(=O)(=O)[O-])cc4)c4ccc([nH]4)c(-c4ccc(S(=O)(=O)[O-])cc4)c4nc(c(-c5ccc(S(=O)(=O)[O-])cc5)c5ccc2[nH]5)C=C4)C=C3)cc1)C1CCCCC1
REMARK SMILES IDX 14 1 13 2 12 3 10 4 11 5 9 7 8 8 6 9 7 10 5 12 4 13 3 14
REMARK SMILES IDX 2 15 1 16 82 20 83 21 87 22 84 23 86 24 85 25 15 26 16 27
REMARK SMILES IDX 17 28 18 29 19 30 20 31 21 33 22 34 23 35 81 36 24 37 80 38
REMARK SMILES IDX 25 39 26 40 27 41 74 42 28 43 79 44 73 45 75 46 29 47 78 48
REMARK SMILES IDX 72 49 71 50 30 52 60 53 41 54 59 55 42 56 45 57 58 58 76 59
REMARK SMILES IDX 43 60 44 61 57 63 77 64 46 65 31 66 32 67 40 68 33 69 39 70
REMARK SMILES IDX 34 71 35 72 36 73 37 74 38 75 61 76 62 77 70 78 63 79 69 80
REMARK SMILES IDX 64 81 65 82 66 83 67 84 68 85 47 86 48 87 56 88 49 89 55 90
REMARK SMILES IDX 50 91 51 92 52 93 53 94 54 95
REMARK H PARENT 12 6 8 11 1 17 1 18 1 19 19 32 75 51 45 62
REMARK Flexibility Score: inf
ROOT
ATOM      1  C   UNL A   1      35.716  23.603  24.376  1.00  0.00     0.021 C 
ENDROOT
BRANCH   1   2
ATOM      2  C   UNL A   1      35.210  22.578  23.361  1.00  0.00     0.116 C 
BRANCH   2   3
ATOM      3  N   UNL A   1      33.814  22.809  23.031  1.00  0.00    -0.354 N 
ATOM      4  C   UNL A   1      32.682  22.220  23.530  1.00  0.00     0.242 C 
ATOM      5  O   UNL A   1      31.599  22.569  23.061  1.00  0.00    -0.273 OA
ATOM      6  H   UNL A   1      33.658  23.494  22.342  1.00  0.00     0.163 HD
BRANCH   4   7
ATOM      7  C   UNL A   1      32.808  21.282  24.748  1.00  0.00     0.174 C 
BRANCH   7   8
ATOM      8  N   UNL A   1      31.770  21.736  25.698  1.00  0.00    -0.342 N 
ATOM      9  C   UNL A   1      31.733  22.713  26.645  1.00  0.00     0.246 C 
ATOM     10  O   UNL A   1      30.852  22.629  27.508  1.00  0.00    -0.272 OA
ATOM     11  H   UNL A   1      30.930  21.227  25.631  1.00  0.00     0.164 HD
BRANCH   9  12
ATOM     12  C   UNL A   1      32.672  23.930  26.638  1.00  0.00     0.260 C 
BRANCH  12  13
ATOM     13  O   UNL A   1      32.194  25.220  26.320  1.00  0.00    -0.366 OA
BRANCH  13  14
ATOM     14  C   UNL A   1      31.175  25.264  25.322  1.00  0.00     0.222 C 
BRANCH  14  15
ATOM     15  C   UNL A   1      29.870  25.880  25.846  1.00  0.00     0.287 C 
BRANCH  15  16
ATOM     16  N   UNL A   1      29.043  24.970  26.642  1.00  0.00    -0.356 N 
ATOM     17  H   UNL A   1      28.059  25.203  26.510  1.00  0.00     0.344 HD
ATOM     18  H   UNL A   1      29.287  25.064  27.628  1.00  0.00     0.344 HD
ATOM     19  H   UNL A   1      29.208  24.010  26.341  1.00  0.00     0.344 HD
ENDBRANCH  15  16
ENDBRANCH  14  15
ENDBRANCH  13  14
ENDBRANCH  12  13
ENDBRANCH   9  12
ENDBRANCH   7   8
BRANCH   7  20
ATOM     20  C   UNL A   1      32.822  19.782  24.428  1.00  0.00     0.021 C 
ATOM     21  C   UNL A   1      32.411  19.424  22.990  1.00  0.00     0.006 C 
ATOM     22  C   UNL A   1      34.221  19.196  24.703  1.00  0.00     0.006 C 
ATOM     23  C   UNL A   1      32.356  17.901  22.842  1.00  0.00     0.000 C 
ATOM     24  C   UNL A   1      34.215  17.680  24.557  1.00  0.00     0.000 C 
ATOM     25  C   UNL A   1      33.689  17.243  23.193  1.00  0.00     0.000 C 
ENDBRANCH   7  20
ENDBRANCH   4   7
ENDBRANCH   2   3
ENDBRANCH   1   2
BRANCH   1  26
ATOM     26  C   UNL A   1      36.072  23.005  25.744  1.00  0.00     0.002 C 
BRANCH  26  27
ATOM     27  C   UNL A   1      37.275  23.647  26.444  1.00  0.00     0.002 C 
BRANCH  27  28
ATOM     28  C   UNL A   1      38.629  23.010  26.123  1.00  0.00     0.021 C 
BRANCH  28  29
ATOM     29  C   UNL A   1      39.807  23.606  26.884  1.00  0.00     0.116 C 
BRANCH  29  30
ATOM     30  N   UNL A   1      40.812  24.157  25.989  1.00  0.00    -0.352 N 
ATOM     31  C   UNL A   1      41.470  25.362  26.058  1.00  0.00     0.251 C 
ATOM     32  H   UNL A   1      41.055  23.587  25.225  1.00  0.00     0.163 HD
ATOM     33  O   UNL A   1      42.138  25.749  25.108  1.00  0.00    -0.269 OA
BRANCH  31  34
ATOM     34  C   UNL A   1      41.352  26.193  27.277  1.00  0.00     0.039 A 
ATOM     35  C   UNL A   1      42.317  27.172  27.523  1.00  0.00     0.014 A 
ATOM     36  C   UNL A   1      40.295  26.006  28.171  1.00  0.00     0.014 A 
ATOM     37  C   UNL A   1      42.186  28.005  28.638  1.00  0.00     0.010 A 
ATOM     38  C   UNL A   1      40.125  26.887  29.236  1.00  0.00     0.010 A 
ATOM     39  C   UNL A   1      41.070  27.894  29.483  1.00  0.00    -0.014 A 
BRANCH  39  40
ATOM     40  C   UNL A   1      40.874  28.821  30.627  1.00  0.00     0.031 A 
ATOM     41  C   UNL A   1      41.729  28.697  31.860  1.00  0.00     0.074 A 
ATOM     42  C   UNL A   1      39.887  29.740  30.579  1.00  0.00     0.049 A 
ATOM     43  N   UNL A   1      41.671  29.378  32.975  1.00  0.00    -0.248 NA
ATOM     44  C   UNL A   1      42.769  27.655  31.849  1.00  0.00     0.031 C 
ATOM     45  C   UNL A   1      38.967  29.937  29.457  1.00  0.00     0.029 A 
ATOM     46  N   UNL A   1      39.490  30.677  31.501  1.00  0.00    -0.354 N 
ATOM     47  C   UNL A   1      42.653  28.843  33.800  1.00  0.00     0.074 A 
ATOM     48  C   UNL A   1      43.256  27.743  33.078  1.00  0.00     0.031 C 
ATOM     49  C   UNL A   1      38.135  30.953  29.742  1.00  0.00     0.029 A 
ATOM     50  C   UNL A   1      38.429  31.446  31.084  1.00  0.00     0.049 A 
ATOM     51  H   UNL A   1      39.925  30.788  32.377  1.00  0.00     0.167 HD
ATOM     52  C   UNL A   1      43.036  29.242  35.037  1.00  0.00     0.031 A 
ATOM     53  C   UNL A   1      37.759  32.433  31.712  1.00  0.00     0.031 A 
ATOM     54  C   UNL A   1      42.436  30.339  35.749  1.00  0.00     0.049 A 
ATOM     55  C   UNL A   1      38.184  32.839  33.097  1.00  0.00     0.074 A 
ATOM     56  C   UNL A   1      42.784  30.852  36.987  1.00  0.00     0.029 A 
ATOM     57  N   UNL A   1      41.364  31.090  35.293  1.00  0.00    -0.354 N 
ATOM     58  N   UNL A   1      39.159  32.361  33.833  1.00  0.00    -0.248 NA
ATOM     59  C   UNL A   1      37.426  33.926  33.731  1.00  0.00     0.031 C 
ATOM     60  C   UNL A   1      41.883  31.872  37.307  1.00  0.00     0.029 A 
ATOM     61  C   UNL A   1      41.018  32.044  36.237  1.00  0.00     0.049 A 
ATOM     62  H   UNL A   1      40.914  30.966  34.427  1.00  0.00     0.167 HD
ATOM     63  C   UNL A   1      39.150  33.111  35.005  1.00  0.00     0.074 A 
ATOM     64  C   UNL A   1      38.085  34.084  34.871  1.00  0.00     0.031 C 
ATOM     65  C   UNL A   1      39.955  33.006  36.092  1.00  0.00     0.031 A 
BRANCH  52  66
ATOM     66  C   UNL A   1      44.151  28.480  35.704  1.00  0.00    -0.014 A 
ATOM     67  C   UNL A   1      45.491  28.900  35.589  1.00  0.00     0.010 A 
ATOM     68  C   UNL A   1      43.856  27.357  36.498  1.00  0.00     0.010 A 
ATOM     69  C   UNL A   1      46.514  28.188  36.220  1.00  0.00     0.020 A 
ATOM     70  C   UNL A   1      44.872  26.660  37.157  1.00  0.00     0.020 A 
ATOM     71  C   UNL A   1      46.197  27.070  37.000  1.00  0.00     0.054 A 
BRANCH  71  72
ATOM     72  S   UNL A   1      47.545  26.183  37.828  1.00  0.00     0.124 S 
ATOM     73  O   UNL A   1      46.813  25.313  38.745  1.00  0.00    -0.237 OA
ATOM     74  O   UNL A   1      48.211  25.507  36.719  1.00  0.00    -0.237 OA
ATOM     75  O   UNL A   1      48.321  27.245  38.465  1.00  0.00    -0.744 OA
ENDBRANCH  71  72
ENDBRANCH  52  66
BRANCH  53  76
ATOM     76  C   UNL A   1      36.619  33.110  31.033  1.00  0.00    -0.014 A 
ATOM     77  C   UNL A   1      35.295  32.854  31.428  1.00  0.00     0.010 A 
ATOM     78  C   UNL A   1      36.854  34.021  29.987  1.00  0.00     0.010 A 
ATOM     79  C   UNL A   1      34.226  33.475  30.775  1.00  0.00     0.020 A 
ATOM     80  C   UNL A   1      35.790  34.669  29.352  1.00  0.00     0.020 A 
ATOM     81  C   UNL A   1      34.481  34.381  29.743  1.00  0.00     0.054 A 
BRANCH  81  82
ATOM     82  S   UNL A   1      33.080  35.208  28.939  1.00  0.00     0.124 S 
ATOM     83  O   UNL A   1      33.717  36.383  28.353  1.00  0.00    -0.237 OA
ATOM     84  O   UNL A   1      32.620  34.197  27.991  1.00  0.00    -0.237 OA
ATOM     85  O   UNL A   1      32.164  35.478  30.044  1.00  0.00    -0.744 OA
ENDBRANCH  81  82
ENDBRANCH  53  76
BRANCH  65  86
ATOM     86  C   UNL A   1      39.744  33.992  37.212  1.00  0.00    -0.014 A 
ATOM     87  C   UNL A   1      39.035  33.641  38.375  1.00  0.00     0.010 A 
ATOM     88  C   UNL A   1      40.315  35.275  37.119  1.00  0.00     0.010 A 
ATOM     89  C   UNL A   1      38.874  34.565  39.409  1.00  0.00     0.020 A 
ATOM     90  C   UNL A   1      40.183  36.192  38.166  1.00  0.00     0.020 A 
ATOM     91  C   UNL A   1      39.451  35.834  39.299  1.00  0.00     0.054 A 
BRANCH  91  92
ATOM     92  S   UNL A   1      39.265  37.000  40.677  1.00  0.00     0.124 S 
ATOM     93  O   UNL A   1      38.349  37.989  40.116  1.00  0.00    -0.237 OA
ATOM     94  O   UNL A   1      38.710  36.158  41.734  1.00  0.00    -0.237 OA
ATOM     95  O   UNL A   1      40.626  37.475  40.916  1.00  0.00    -0.744 OA
ENDBRANCH  91  92
ENDBRANCH  65  86
ENDBRANCH  39  40
ENDBRANCH  31  34
ENDBRANCH  29  30
ENDBRANCH  28  29
ENDBRANCH  27  28
ENDBRANCH  26  27
ENDBRANCH   1  26
TORSDOF 23
ENDMDL
MODEL 2
REMARK VINA RESULT:      -9.6      1.582      2.851
REMARK SMILES [NH3+]CCOCC(=O)N[C@H](C(=O)NCCCCCCNC(=O)c1ccc(-c2c3nc(c(-c4ccc(S(=O)(=O)[O-])cc4)c4ccc([nH]4)c(-c4ccc(S(=O)(=O)[O-])cc4)c4nc(c(-c5ccc(S(=O)(=O)[O-])cc5)c5ccc2[nH]5)C=C4)C=C3)cc1)C1CCCCC1
REMARK SMILES IDX 14 1 13 2 12 3 10 4 11 5 9 7 8 8 6 9 7 10 5 12 4 13 3 14
REMARK SMILES IDX 2 15 1 16 82 20 83 21 87 22 84 23 86 24 85 25 15 26 16 27
REMARK SMILES IDX 17 28 18 29 19 30 20 31 21 33 22 34 23 35 81 36 24 37 80 38
REMARK SMILES IDX 25 39 26 40 27 41 74 42 28 43 79 44 73 45 75 46 29 47 78 48
REMARK SMILES IDX 72 49 71 50 30 52 60 53 41 54 59 55 42 56 45 57 58 58 76 59
REMARK SMILES IDX 43 60 44 61 57 63 77 64 46 65 31 66 32 67 40 68 33 69 39 70
REMARK SMILES IDX 34 71 35 72 36 73 37 74 38 75 61 76 62 77 70 78 63 79 69 80
REMARK SMILES IDX 64 81 65 82 66 83 67 84 68 85 47 86 48 87 56 88 49 89 55 90
REMARK SMILES IDX 50 91 51 92 52 93 53 94 54 95
REMARK H PARENT 12 6 8 11 1 17 1 18 1 19 19 32 75 51 45 62
REMARK Flexibility Score: inf
ROOT
ATOM      1  C   UNL A   1      36.010  22.116  24.449  1.00  0.00     0.021 C 
ENDROOT
BRANCH   1   2
ATOM      2  C   UNL A   1      34.638  21.895  25.084  1.00  0.00     0.116 C 
BRANCH   2   3
ATOM      3  N   UNL A   1      33.636  21.583  24.079  1.00  0.00    -0.354 N 
ATOM      4  C   UNL A   1      32.908  22.418  23.272  1.00  0.00     0.242 C 
ATOM      5  O   UNL A   1      32.086  21.908  22.511  1.00  0.00    -0.273 OA
ATOM      6  H   UNL A   1      33.452  20.624  23.959  1.00  0.00     0.163 HD
BRANCH   4   7
ATOM      7  C   UNL A   1      33.263  23.919  23.243  1.00  0.00     0.174 C 
BRANCH   7   8
ATOM      8  N   UNL A   1      33.299  24.282  21.810  1.00  0.00    -0.342 N 
ATOM      9  C   UNL A   1      32.999  25.421  21.128  1.00  0.00     0.246 C 
ATOM     10  O   UNL A   1      32.804  25.314  19.911  1.00  0.00    -0.272 OA
ATOM     11  H   UNL A   1      33.605  23.549  21.230  1.00  0.00     0.164 HD
BRANCH   9  12
ATOM     12  C   UNL A   1      32.972  26.813  21.779  1.00  0.00     0.260 C 
BRANCH  12  13
ATOM     13  O   UNL A   1      34.150  27.581  21.913  1.00  0.00    -0.366 OA
BRANCH  13  14
ATOM     14  C   UNL A   1      33.992  28.828  22.588  1.00  0.00     0.222 C 
BRANCH  14  15
ATOM     15  C   UNL A   1      33.017  28.732  23.770  1.00  0.00     0.287 C 
BRANCH  15  16
ATOM     16  N   UNL A   1      33.166  29.792  24.771  1.00  0.00    -0.356 N 
ATOM     17  H   UNL A   1      33.923  30.417  24.493  1.00  0.00     0.344 HD
ATOM     18  H   UNL A   1      33.382  29.376  25.676  1.00  0.00     0.344 HD
ATOM     19  H   UNL A   1      32.297  30.321  24.838  1.00  0.00     0.344 HD
ENDBRANCH  15  16
ENDBRANCH  14  15
ENDBRANCH  13  14
ENDBRANCH  12  13
ENDBRANCH   9  12
ENDBRANCH   7   8
BRANCH   7  20
ATOM     20  C   UNL A   1      32.410  24.817  24.147  1.00  0.00     0.021 C 
ATOM     21  C   UNL A   1      31.050  24.224  24.549  1.00  0.00     0.006 C 
ATOM     22  C   UNL A   1      33.191  25.173  25.428  1.00  0.00     0.006 C 
ATOM     23  C   UNL A   1      30.258  25.263  25.349  1.00  0.00     0.000 C 
ATOM     24  C   UNL A   1      32.435  26.200  26.261  1.00  0.00     0.000 C 
ATOM     25  C   UNL A   1      31.019  25.734  26.587  1.00  0.00     0.000 C 
ENDBRANCH   7  20
ENDBRANCH   4   7
ENDBRANCH   2   3
ENDBRANCH   1   2
BRANCH   1  26
ATOM     26  C   UNL A   1      36.569  23.532  24.646  1.00  0.00     0.002 C 
BRANCH  26  27
ATOM     27  C   UNL A   1      37.277  23.774  25.984  1.00  0.00     0.002 C 
BRANCH  27  28
ATOM     28  C   UNL A   1      38.571  22.983  26.186  1.00  0.00     0.021 C 
BRANCH  28  29
ATOM     29  C   UNL A   1      39.676  23.747  26.905  1.00  0.00     0.116 C 
BRANCH  29  30
ATOM     30  N   UNL A   1      40.628  24.335  25.975  1.00  0.00    -0.352 N 
ATOM     31  C   UNL A   1      41.245  25.561  26.024  1.00  0.00     0.251 C 
ATOM     32  H   UNL A   1      40.862  23.775  25.201  1.00  0.00     0.163 HD
ATOM     33  O   UNL A   1      41.863  25.974  25.051  1.00  0.00    -0.269 OA
BRANCH  31  34
ATOM     34  C   UNL A   1      41.143  26.386  27.249  1.00  0.00     0.039 A 
ATOM     35  C   UNL A   1      42.119  27.354  27.495  1.00  0.00     0.014 A 
ATOM     36  C   UNL A   1      40.090  26.203  28.149  1.00  0.00     0.014 A 
ATOM     37  C   UNL A   1      42.003  28.181  28.615  1.00  0.00     0.010 A 
ATOM     38  C   UNL A   1      39.936  27.078  29.220  1.00  0.00     0.010 A 
ATOM     39  C   UNL A   1      40.891  28.075  29.467  1.00  0.00    -0.014 A 
BRANCH  39  40
ATOM     40  C   UNL A   1      40.713  28.997  30.619  1.00  0.00     0.031 A 
ATOM     41  C   UNL A   1      41.560  28.843  31.853  1.00  0.00     0.074 A 
ATOM     42  C   UNL A   1      39.746  29.936  30.576  1.00  0.00     0.049 A 
ATOM     43  N   UNL A   1      41.513  29.517  32.974  1.00  0.00    -0.248 NA
ATOM     44  C   UNL A   1      42.577  27.779  31.836  1.00  0.00     0.031 C 
ATOM     45  C   UNL A   1      38.834  30.163  29.452  1.00  0.00     0.029 A 
ATOM     46  N   UNL A   1      39.366  30.874  31.504  1.00  0.00    -0.354 N 
ATOM     47  C   UNL A   1      42.482  28.953  33.797  1.00  0.00     0.074 A 
ATOM     48  C   UNL A   1      43.063  27.847  33.068  1.00  0.00     0.031 C 
ATOM     49  C   UNL A   1      38.023  31.194  29.744  1.00  0.00     0.029 A 
ATOM     50  C   UNL A   1      38.323  31.670  31.091  1.00  0.00     0.049 A 
ATOM     51  H   UNL A   1      39.800  30.969  32.382  1.00  0.00     0.167 HD
ATOM     52  C   UNL A   1      42.869  29.334  35.038  1.00  0.00     0.031 A 
ATOM     53  C   UNL A   1      37.672  32.665  31.726  1.00  0.00     0.031 A 
ATOM     54  C   UNL A   1      42.291  30.437  35.759  1.00  0.00     0.049 A 
ATOM     55  C   UNL A   1      38.102  33.050  33.115  1.00  0.00     0.074 A 
ATOM     56  C   UNL A   1      42.646  30.932  37.002  1.00  0.00     0.029 A 
ATOM     57  N   UNL A   1      41.236  31.215  35.305  1.00  0.00    -0.354 N 
ATOM     58  N   UNL A   1      39.064  32.546  33.850  1.00  0.00    -0.248 NA
ATOM     59  C   UNL A   1      37.365  34.148  33.756  1.00  0.00     0.031 C 
ATOM     60  C   UNL A   1      41.766  31.969  37.327  1.00  0.00     0.029 A 
ATOM     61  C   UNL A   1      40.908  32.168  36.256  1.00  0.00     0.049 A 
ATOM     62  H   UNL A   1      40.786  31.107  34.437  1.00  0.00     0.167 HD
ATOM     63  C   UNL A   1      39.068  33.286  35.029  1.00  0.00     0.074 A 
ATOM     64  C   UNL A   1      38.024  34.282  34.899  1.00  0.00     0.031 C 
ATOM     65  C   UNL A   1      39.866  33.154  36.116  1.00  0.00     0.031 A 
BRANCH  52  66
ATOM     66  C   UNL A   1      43.966  28.542  35.702  1.00  0.00    -0.014 A 
ATOM     67  C   UNL A   1      45.318  28.904  35.552  1.00  0.00     0.010 A 
ATOM     68  C   UNL A   1      43.641  27.450  36.528  1.00  0.00     0.010 A 
ATOM     69  C   UNL A   1      46.324  28.165  36.180  1.00  0.00     0.020 A 
ATOM     70  C   UNL A   1      44.641  26.727  37.185  1.00  0.00     0.020 A 
ATOM     71  C   UNL A   1      45.978  27.080  36.992  1.00  0.00     0.054 A 
BRANCH  71  72
ATOM     72  S   UNL A   1      47.305  26.157  37.816  1.00  0.00     0.124 S 
ATOM     73  O   UNL A   1      47.510  25.040  36.897  1.00  0.00    -0.237 OA
ATOM     74  O   UNL A   1      48.388  27.134  37.869  1.00  0.00    -0.237 OA
ATOM     75  O   UNL A   1      46.727  25.799  39.110  1.00  0.00    -0.744 OA
ENDBRANCH  71  72
ENDBRANCH  52  66
BRANCH  53  76
ATOM     76  C   UNL A   1      36.549  33.373  31.049  1.00  0.00    -0.014 A 
ATOM     77  C   UNL A   1      36.759  34.057  29.840  1.00  0.00     0.010 A 
ATOM     78  C   UNL A   1      35.260  33.362  31.612  1.00  0.00     0.010 A 
ATOM     79  C   UNL A   1      35.708  34.738  29.218  1.00  0.00     0.020 A 
ATOM     80  C   UNL A   1      34.199  34.014  30.977  1.00  0.00     0.020 A 
ATOM     81  C   UNL A   1      34.433  34.710  29.790  1.00  0.00     0.054 A 
BRANCH  81  82
ATOM     82  S   UNL A   1      33.075  35.564  28.942  1.00  0.00     0.124 S 
ATOM     83  O   UNL A   1      32.316  36.111  30.061  1.00  0.00    -0.237 OA
ATOM     84  O   UNL A   1      33.784  36.541  28.119  1.00  0.00    -0.237 OA
ATOM     85  O   UNL A   1      32.413  34.496  28.197  1.00  0.00    -0.744 OA
ENDBRANCH  81  82
ENDBRANCH  53  76
BRANCH  65  86
ATOM     86  C   UNL A   1      39.673  34.134  37.244  1.00  0.00    -0.014 A 
ATOM     87  C   UNL A   1      39.039  33.759  38.442  1.00  0.00     0.010 A 
ATOM     88  C   UNL A   1      40.187  35.439  37.121  1.00  0.00     0.010 A 
ATOM     89  C   UNL A   1      38.893  34.680  39.482  1.00  0.00     0.020 A 
ATOM     90  C   UNL A   1      40.071  36.353  38.171  1.00  0.00     0.020 A 
ATOM     91  C   UNL A   1      39.413  35.971  39.341  1.00  0.00     0.054 A 
BRANCH  91  92
ATOM     92  S   UNL A   1      39.251  37.133  40.724  1.00  0.00     0.124 S 
ATOM     93  O   UNL A   1      40.640  37.515  40.965  1.00  0.00    -0.237 OA
ATOM     94  O   UNL A   1      38.400  38.180  40.163  1.00  0.00    -0.237 OA
ATOM     95  O   UNL A   1      38.632  36.334  41.780  1.00  0.00    -0.744 OA
ENDBRANCH  91  92
ENDBRANCH  65  86
ENDBRANCH  39  40
ENDBRANCH  31  34
ENDBRANCH  29  30
ENDBRANCH  28  29
ENDBRANCH  27  28
ENDBRANCH  26  27
ENDBRANCH   1  26
TORSDOF 23
ENDMDL
MODEL 3
REMARK VINA RESULT:      -9.5      5.867      7.955
REMARK SMILES [NH3+]CCOCC(=O)N[C@H](C(=O)NCCCCCCNC(=O)c1ccc(-c2c3nc(c(-c4ccc(S(=O)(=O)[O-])cc4)c4ccc([nH]4)c(-c4ccc(S(=O)(=O)[O-])cc4)c4nc(c(-c5ccc(S(=O)(=O)[O-])cc5)c5ccc2[nH]5)C=C4)C=C3)cc1)C1CCCCC1
REMARK SMILES IDX 14 1 13 2 12 3 10 4 11 5 9 7 8 8 6 9 7 10 5 12 4 13 3 14
REMARK SMILES IDX 2 15 1 16 82 20 83 21 87 22 84 23 86 24 85 25 15 26 16 27
REMARK SMILES IDX 17 28 18 29 19 30 20 31 21 33 22 34 23 35 81 36 24 37 80 38
REMARK SMILES IDX 25 39 26 40 27 41 74 42 28 43 79 44 73 45 75 46 29 47 78 48
REMARK SMILES IDX 72 49 71 50 30 52 60 53 41 54 59 55 42 56 45 57 58 58 76 59
REMARK SMILES IDX 43 60 44 61 57 63 77 64 46 65 31 66 32 67 40 68 33 69 39 70
REMARK SMILES IDX 34 71 35 72 36 73 37 74 38 75 61 76 62 77 70 78 63 79 69 80
REMARK SMILES IDX 64 81 65 82 66 83 67 84 68 85 47 86 48 87 56 88 49 89 55 90
REMARK SMILES IDX 50 91 51 92 52 93 53 94 54 95
REMARK H PARENT 12 6 8 11 1 17 1 18 1 19 19 32 75 51 45 62
REMARK Flexibility Score: inf
ROOT
ATOM      1  C   UNL A   1      35.323  23.980  25.027  1.00  0.00     0.021 C 
ENDROOT
BRANCH   1   2
ATOM      2  C   UNL A   1      34.981  23.042  23.870  1.00  0.00     0.116 C 
BRANCH   2   3
ATOM      3  N   UNL A   1      33.621  23.255  23.404  1.00  0.00    -0.354 N 
ATOM      4  C   UNL A   1      32.458  22.623  23.760  1.00  0.00     0.242 C 
ATOM      5  O   UNL A   1      31.421  22.966  23.193  1.00  0.00    -0.273 OA
ATOM      6  H   UNL A   1      33.519  23.962  22.727  1.00  0.00     0.163 HD
BRANCH   4   7
ATOM      7  C   UNL A   1      32.481  21.642  24.950  1.00  0.00     0.174 C 
BRANCH   7   8
ATOM      8  N   UNL A   1      31.330  22.029  25.795  1.00  0.00    -0.342 N 
ATOM      9  C   UNL A   1      31.145  22.995  26.736  1.00  0.00     0.246 C 
ATOM     10  O   UNL A   1      30.190  22.854  27.509  1.00  0.00    -0.272 OA
ATOM     11  H   UNL A   1      30.533  21.473  25.646  1.00  0.00     0.164 HD
BRANCH   9  12
ATOM     12  C   UNL A   1      32.008  24.265  26.822  1.00  0.00     0.260 C 
BRANCH  12  13
ATOM     13  O   UNL A   1      31.444  25.546  26.634  1.00  0.00    -0.366 OA
BRANCH  13  14
ATOM     14  C   UNL A   1      31.489  26.042  25.297  1.00  0.00     0.222 C 
BRANCH  14  15
ATOM     15  C   UNL A   1      31.060  27.513  25.205  1.00  0.00     0.287 C 
BRANCH  15  16
ATOM     16  N   UNL A   1      31.106  28.079  23.854  1.00  0.00    -0.356 N 
ATOM     17  H   UNL A   1      30.387  28.797  23.762  1.00  0.00     0.344 HD
ATOM     18  H   UNL A   1      30.939  27.340  23.171  1.00  0.00     0.344 HD
ATOM     19  H   UNL A   1      32.023  28.493  23.690  1.00  0.00     0.344 HD
ENDBRANCH  15  16
ENDBRANCH  14  15
ENDBRANCH  13  14
ENDBRANCH  12  13
ENDBRANCH   9  12
ENDBRANCH   7   8
BRANCH   7  20
ATOM     20  C   UNL A   1      32.579  20.158  24.581  1.00  0.00     0.021 C 
ATOM     21  C   UNL A   1      32.223  19.829  23.122  1.00  0.00     0.006 C 
ATOM     22  C   UNL A   1      33.999  19.633  24.873  1.00  0.00     0.006 C 
ATOM     23  C   UNL A   1      32.250  18.311  22.921  1.00  0.00     0.000 C 
ATOM     24  C   UNL A   1      34.075  18.124  24.676  1.00  0.00     0.000 C 
ATOM     25  C   UNL A   1      33.606  17.710  23.284  1.00  0.00     0.000 C 
ENDBRANCH   7  20
ENDBRANCH   4   7
ENDBRANCH   2   3
ENDBRANCH   1   2
BRANCH   1  26
ATOM     26  C   UNL A   1      36.194  23.338  26.115  1.00  0.00     0.002 C 
BRANCH  26  27
ATOM     27  C   UNL A   1      37.624  22.989  25.685  1.00  0.00     0.002 C 
BRANCH  27  28
ATOM     28  C   UNL A   1      38.110  21.603  26.114  1.00  0.00     0.021 C 
BRANCH  28  29
ATOM     29  C   UNL A   1      39.335  21.099  25.359  1.00  0.00     0.116 C 
BRANCH  29  30
ATOM     30  N   UNL A   1      40.040  20.061  26.094  1.00  0.00    -0.352 N 
ATOM     31  C   UNL A   1      41.253  20.124  26.738  1.00  0.00     0.251 C 
ATOM     32  H   UNL A   1      39.584  19.190  26.137  1.00  0.00     0.163 HD
ATOM     33  O   UNL A   1      41.789  19.097  27.135  1.00  0.00    -0.269 OA
BRANCH  31  34
ATOM     34  C   UNL A   1      41.914  21.434  26.930  1.00  0.00     0.039 A 
ATOM     35  C   UNL A   1      42.118  22.257  25.821  1.00  0.00     0.014 A 
ATOM     36  C   UNL A   1      42.330  21.847  28.199  1.00  0.00     0.014 A 
ATOM     37  C   UNL A   1      42.685  23.522  25.995  1.00  0.00     0.010 A 
ATOM     38  C   UNL A   1      42.823  23.136  28.380  1.00  0.00     0.010 A 
ATOM     39  C   UNL A   1      43.009  23.987  27.281  1.00  0.00    -0.014 A 
BRANCH  39  40
ATOM     40  C   UNL A   1      43.540  25.358  27.494  1.00  0.00     0.031 A 
ATOM     41  C   UNL A   1      44.985  25.665  27.205  1.00  0.00     0.074 A 
ATOM     42  C   UNL A   1      42.735  26.313  28.003  1.00  0.00     0.049 A 
ATOM     43  N   UNL A   1      45.640  26.785  27.378  1.00  0.00    -0.248 NA
ATOM     44  C   UNL A   1      45.808  24.566  26.676  1.00  0.00     0.031 C 
ATOM     45  C   UNL A   1      41.326  26.133  28.358  1.00  0.00     0.029 A 
ATOM     46  N   UNL A   1      42.988  27.626  28.313  1.00  0.00    -0.354 N 
ATOM     47  C   UNL A   1      46.949  26.523  26.992  1.00  0.00     0.074 A 
ATOM     48  C   UNL A   1      47.010  25.124  26.627  1.00  0.00     0.031 C 
ATOM     49  C   UNL A   1      40.832  27.298  28.808  1.00  0.00     0.029 A 
ATOM     50  C   UNL A   1      41.897  28.295  28.819  1.00  0.00     0.049 A 
ATOM     51  H   UNL A   1      43.868  28.050  28.186  1.00  0.00     0.167 HD
ATOM     52  C   UNL A   1      48.002  27.373  26.925  1.00  0.00     0.031 A 
ATOM     53  C   UNL A   1      41.769  29.565  29.251  1.00  0.00     0.031 A 
ATOM     54  C   UNL A   1      47.937  28.764  27.284  1.00  0.00     0.049 A 
ATOM     55  C   UNL A   1      42.960  30.482  29.193  1.00  0.00     0.074 A 
ATOM     56  C   UNL A   1      48.936  29.720  27.206  1.00  0.00     0.029 A 
ATOM     57  N   UNL A   1      46.815  29.401  27.792  1.00  0.00    -0.354 N 
ATOM     58  N   UNL A   1      44.174  30.230  28.763  1.00  0.00    -0.248 NA
ATOM     59  C   UNL A   1      42.761  31.858  29.668  1.00  0.00     0.031 C 
ATOM     60  C   UNL A   1      48.437  30.918  27.725  1.00  0.00     0.029 A 
ATOM     61  C   UNL A   1      47.104  30.729  28.060  1.00  0.00     0.049 A 
ATOM     62  H   UNL A   1      45.941  28.973  27.942  1.00  0.00     0.167 HD
ATOM     63  C   UNL A   1      44.874  31.426  28.888  1.00  0.00     0.074 A 
ATOM     64  C   UNL A   1      43.944  32.402  29.416  1.00  0.00     0.031 C 
ATOM     65  C   UNL A   1      46.170  31.691  28.587  1.00  0.00     0.031 A 
BRANCH  52  66
ATOM     66  C   UNL A   1      49.321  26.817  26.453  1.00  0.00    -0.014 A 
ATOM     67  C   UNL A   1      49.699  26.890  25.098  1.00  0.00     0.010 A 
ATOM     68  C   UNL A   1      50.218  26.257  27.381  1.00  0.00     0.010 A 
ATOM     69  C   UNL A   1      50.929  26.377  24.677  1.00  0.00     0.020 A 
ATOM     70  C   UNL A   1      51.463  25.772  26.970  1.00  0.00     0.020 A 
ATOM     71  C   UNL A   1      51.803  25.820  25.616  1.00  0.00     0.054 A 
BRANCH  71  72
ATOM     72  S   UNL A   1      53.403  25.188  25.042  1.00  0.00     0.124 S 
ATOM     73  O   UNL A   1      53.426  25.641  23.654  1.00  0.00    -0.237 OA
ATOM     74  O   UNL A   1      54.348  25.852  25.936  1.00  0.00    -0.237 OA
ATOM     75  O   UNL A   1      53.289  23.741  25.222  1.00  0.00    -0.744 OA
ENDBRANCH  71  72
ENDBRANCH  52  66
BRANCH  53  76
ATOM     76  C   UNL A   1      40.458  30.047  29.771  1.00  0.00    -0.014 A 
ATOM     77  C   UNL A   1      40.202  30.073  31.153  1.00  0.00     0.010 A 
ATOM     78  C   UNL A   1      39.459  30.486  28.884  1.00  0.00     0.010 A 
ATOM     79  C   UNL A   1      38.963  30.506  31.637  1.00  0.00     0.020 A 
ATOM     80  C   UNL A   1      38.231  30.950  29.364  1.00  0.00     0.020 A 
ATOM     81  C   UNL A   1      37.986  30.944  30.739  1.00  0.00     0.054 A 
BRANCH  81  82
ATOM     82  S   UNL A   1      36.403  31.542  31.392  1.00  0.00     0.124 S 
ATOM     83  O   UNL A   1      35.610  31.690  30.177  1.00  0.00    -0.237 OA
ATOM     84  O   UNL A   1      36.001  30.457  32.284  1.00  0.00    -0.237 OA
ATOM     85  O   UNL A   1      36.761  32.790  32.063  1.00  0.00    -0.744 OA
ENDBRANCH  81  82
ENDBRANCH  53  76
BRANCH  65  86
ATOM     86  C   UNL A   1      46.654  33.104  28.784  1.00  0.00    -0.014 A 
ATOM     87  C   UNL A   1      47.087  33.563  30.041  1.00  0.00     0.010 A 
ATOM     88  C   UNL A   1      46.729  33.970  27.676  1.00  0.00     0.010 A 
ATOM     89  C   UNL A   1      47.555  34.870  30.193  1.00  0.00     0.020 A 
ATOM     90  C   UNL A   1      47.226  35.268  27.818  1.00  0.00     0.020 A 
ATOM     91  C   UNL A   1      47.624  35.714  29.079  1.00  0.00     0.054 A 
BRANCH  91  92
ATOM     92  S   UNL A   1      48.278  37.393  29.295  1.00  0.00     0.124 S 
ATOM     93  O   UNL A   1      47.063  38.201  29.239  1.00  0.00    -0.237 OA
ATOM     94  O   UNL A   1      48.922  37.317  30.604  1.00  0.00    -0.237 OA
ATOM     95  O   UNL A   1      49.190  37.558  28.165  1.00  0.00    -0.744 OA
ENDBRANCH  91  92
ENDBRANCH  65  86
ENDBRANCH  39  40
ENDBRANCH  31  34
ENDBRANCH  29  30
ENDBRANCH  28  29
ENDBRANCH  27  28
ENDBRANCH  26  27
ENDBRANCH   1  26
TORSDOF 23
ENDMDL
