MODEL 1
REMARK VINA RESULT:     -10.8      0.000      0.000
REMARK SMILES C[C@@H](C(=O)NCCCCCCNC(=O)c1ccc(-c2c3nc(c(-c4ccc(S(=O)(=O)[O-])cc4)c4ccc([nH]4)c(-c4ccc(S(=O)(=O)[O-])cc4)c4nc(c(-c5ccc(S(=O)(=O)[O-])cc5)c5ccc2[nH]5)C=C4)C=C3)cc1)S(=O)(=O)N[C@@]12C[C@@H]3C[C@@](C)(C[C@@](C)(C3)C1)C2
REMARK SMILES IDX 8 1 7 2 6 3 5 4 3 5 4 6 2 8 1 9 75 10 76 11 77 12 78 13
REMARK SMILES IDX 79 15 80 16 89 17 90 18 81 19 86 20 83 21 88 22 82 23 85 24
REMARK SMILES IDX 87 25 84 26 9 27 10 28 11 29 12 30 13 31 14 33 15 34 16 35
REMARK SMILES IDX 74 36 17 37 73 38 18 39 19 40 20 41 67 42 21 43 72 44 66 45
REMARK SMILES IDX 68 46 22 47 71 48 65 49 64 50 23 52 53 53 34 54 52 55 35 56
REMARK SMILES IDX 38 57 51 58 69 59 36 60 37 61 50 63 70 64 39 65 24 66 25 67
REMARK SMILES IDX 33 68 26 69 32 70 27 71 28 72 29 73 30 74 31 75 54 76 55 77
REMARK SMILES IDX 63 78 56 79 62 80 57 81 58 82 59 83 60 84 61 85 40 86 41 87
REMARK SMILES IDX 49 88 42 89 48 90 43 91 44 92 45 93 46 94 47 95
REMARK H PARENT 5 7 78 14 12 32 68 51 38 62
REMARK Flexibility Score: inf
ROOT
ATOM      1  C   UNL A   1      33.758  30.637  27.738  1.00  0.00     0.002 C 
ENDROOT
BRANCH   1   2
ATOM      2  C   UNL A   1      34.903  29.832  27.115  1.00  0.00     0.021 C 
BRANCH   2   3
ATOM      3  C   UNL A   1      34.403  28.692  26.214  1.00  0.00     0.116 C 
BRANCH   3   4
ATOM      4  N   UNL A   1      33.799  29.252  25.015  1.00  0.00    -0.355 N 
ATOM      5  C   UNL A   1      33.314  28.611  23.899  1.00  0.00     0.239 C 
ATOM      6  O   UNL A   1      33.160  29.288  22.884  1.00  0.00    -0.274 OA
ATOM      7  H   UNL A   1      33.728  30.235  25.000  1.00  0.00     0.163 HD
BRANCH   5   8
ATOM      8  C   UNL A   1      32.989  27.138  23.993  1.00  0.00     0.209 C 
ATOM      9  C   UNL A   1      33.097  26.387  22.678  1.00  0.00     0.037 C 
BRANCH   8  10
ATOM     10  S   UNL A   1      31.420  26.845  24.879  1.00  0.00     0.223 S 
ATOM     11  O   UNL A   1      31.090  28.065  25.597  1.00  0.00    -0.212 OA
ATOM     12  O   UNL A   1      30.461  26.338  23.923  1.00  0.00    -0.212 OA
BRANCH  10  13
ATOM     13  N   UNL A   1      31.560  25.635  26.023  1.00  0.00    -0.208 NA
ATOM     14  H   UNL A   1      30.602  25.330  26.193  1.00  0.00     0.141 HD
BRANCH  13  15
ATOM     15  C   UNL A   1      32.341  24.380  25.941  1.00  0.00     0.034 C 
ATOM     16  C   UNL A   1      32.017  23.370  27.051  1.00  0.00     0.027 C 
ATOM     17  C   UNL A   1      32.033  23.585  24.637  1.00  0.00     0.030 C 
ATOM     18  C   UNL A   1      33.825  24.796  25.844  1.00  0.00     0.030 C 
ATOM     19  C   UNL A   1      33.026  22.225  27.076  1.00  0.00    -0.008 C 
ATOM     20  C   UNL A   1      32.921  22.290  24.568  1.00  0.00    -0.030 C 
ATOM     21  C   UNL A   1      34.749  23.571  25.787  1.00  0.00    -0.030 C 
ATOM     22  C   UNL A   1      32.744  21.402  25.826  1.00  0.00     0.010 C 
ATOM     23  C   UNL A   1      34.479  22.737  27.057  1.00  0.00     0.010 C 
ATOM     24  C   UNL A   1      34.403  22.729  24.534  1.00  0.00     0.013 C 
ATOM     25  C   UNL A   1      32.565  21.445  23.344  1.00  0.00     0.011 C 
ATOM     26  C   UNL A   1      36.212  24.025  25.720  1.00  0.00     0.011 C 
ENDBRANCH  13  15
ENDBRANCH  10  13
ENDBRANCH   8  10
ENDBRANCH   5   8
ENDBRANCH   3   4
ENDBRANCH   2   3
ENDBRANCH   1   2
BRANCH   1  27
ATOM     27  C   UNL A   1      34.151  32.059  28.149  1.00  0.00     0.002 C 
BRANCH  27  28
ATOM     28  C   UNL A   1      35.616  32.412  27.878  1.00  0.00     0.021 C 
BRANCH  28  29
ATOM     29  C   UNL A   1      36.397  32.781  29.134  1.00  0.00     0.116 C 
BRANCH  29  30
ATOM     30  N   UNL A   1      35.992  31.955  30.262  1.00  0.00    -0.352 N 
ATOM     31  C   UNL A   1      36.564  30.802  30.734  1.00  0.00     0.251 C 
ATOM     32  H   UNL A   1      35.199  32.268  30.753  1.00  0.00     0.163 HD
ATOM     33  O   UNL A   1      35.943  30.074  31.502  1.00  0.00    -0.269 OA
BRANCH  31  34
ATOM     34  C   UNL A   1      37.931  30.448  30.306  1.00  0.00     0.039 A 
ATOM     35  C   UNL A   1      38.953  30.393  31.256  1.00  0.00     0.014 A 
ATOM     36  C   UNL A   1      38.200  30.180  28.960  1.00  0.00     0.014 A 
ATOM     37  C   UNL A   1      40.239  30.022  30.860  1.00  0.00     0.010 A 
ATOM     38  C   UNL A   1      39.460  29.734  28.583  1.00  0.00     0.010 A 
ATOM     39  C   UNL A   1      40.496  29.664  29.526  1.00  0.00    -0.014 A 
BRANCH  39  40
ATOM     40  C   UNL A   1      41.845  29.227  29.091  1.00  0.00     0.031 A 
ATOM     41  C   UNL A   1      42.975  30.218  29.036  1.00  0.00     0.074 A 
ATOM     42  C   UNL A   1      42.037  27.955  28.688  1.00  0.00     0.049 A 
ATOM     43  N   UNL A   1      44.205  30.044  28.626  1.00  0.00    -0.248 NA
ATOM     44  C   UNL A   1      42.678  31.593  29.475  1.00  0.00     0.031 C 
ATOM     45  C   UNL A   1      41.009  26.910  28.662  1.00  0.00     0.029 A 
ATOM     46  N   UNL A   1      43.161  27.326  28.217  1.00  0.00    -0.354 N 
ATOM     47  C   UNL A   1      44.820  31.286  28.740  1.00  0.00     0.074 A 
ATOM     48  C   UNL A   1      43.815  32.216  29.206  1.00  0.00     0.031 C 
ATOM     49  C   UNL A   1      41.559  25.765  28.226  1.00  0.00     0.029 A 
ATOM     50  C   UNL A   1      42.961  26.004  27.899  1.00  0.00     0.049 A 
ATOM     51  H   UNL A   1      44.029  27.779  28.116  1.00  0.00     0.167 HD
ATOM     52  C   UNL A   1      46.112  31.617  28.499  1.00  0.00     0.031 A 
ATOM     53  C   UNL A   1      43.808  25.087  27.391  1.00  0.00     0.031 A 
ATOM     54  C   UNL A   1      47.108  30.685  28.044  1.00  0.00     0.049 A 
ATOM     55  C   UNL A   1      45.233  25.483  27.114  1.00  0.00     0.074 A 
ATOM     56  C   UNL A   1      48.455  30.908  27.820  1.00  0.00     0.029 A 
ATOM     57  N   UNL A   1      46.867  29.354  27.737  1.00  0.00    -0.354 N 
ATOM     58  N   UNL A   1      45.813  26.647  27.289  1.00  0.00    -0.248 NA
ATOM     59  C   UNL A   1      46.119  24.440  26.582  1.00  0.00     0.031 C 
ATOM     60  C   UNL A   1      49.015  29.728  27.320  1.00  0.00     0.029 A 
ATOM     61  C   UNL A   1      48.033  28.750  27.300  1.00  0.00     0.049 A 
ATOM     62  H   UNL A   1      45.994  28.905  27.819  1.00  0.00     0.167 HD
ATOM     63  C   UNL A   1      47.141  26.467  26.918  1.00  0.00     0.074 A 
ATOM     64  C   UNL A   1      47.280  25.080  26.522  1.00  0.00     0.031 C 
ATOM     65  C   UNL A   1      48.154  27.368  26.908  1.00  0.00     0.031 A 
BRANCH  52  66
ATOM     66  C   UNL A   1      46.514  33.053  28.716  1.00  0.00    -0.014 A 
ATOM     67  C   UNL A   1      46.977  33.502  29.966  1.00  0.00     0.010 A 
ATOM     68  C   UNL A   1      46.465  33.962  27.643  1.00  0.00     0.010 A 
ATOM     69  C   UNL A   1      47.338  34.839  30.153  1.00  0.00     0.020 A 
ATOM     70  C   UNL A   1      46.856  35.293  27.814  1.00  0.00     0.020 A 
ATOM     71  C   UNL A   1      47.272  35.727  29.075  1.00  0.00     0.054 A 
BRANCH  71  72
ATOM     72  S   UNL A   1      47.765  37.452  29.341  1.00  0.00     0.124 S 
ATOM     73  O   UNL A   1      48.162  37.862  27.996  1.00  0.00    -0.237 OA
ATOM     74  O   UNL A   1      46.536  38.061  29.846  1.00  0.00    -0.237 OA
ATOM     75  O   UNL A   1      48.854  37.357  30.310  1.00  0.00    -0.744 OA
ENDBRANCH  71  72
ENDBRANCH  52  66
BRANCH  53  76
ATOM     76  C   UNL A   1      43.332  23.701  27.127  1.00  0.00    -0.014 A 
ATOM     77  C   UNL A   1      43.295  22.748  28.160  1.00  0.00     0.010 A 
ATOM     78  C   UNL A   1      42.896  23.332  25.841  1.00  0.00     0.010 A 
ATOM     79  C   UNL A   1      42.849  21.447  27.908  1.00  0.00     0.020 A 
ATOM     80  C   UNL A   1      42.421  22.041  25.593  1.00  0.00     0.020 A 
ATOM     81  C   UNL A   1      42.411  21.103  26.626  1.00  0.00     0.054 A 
BRANCH  81  82
ATOM     82  S   UNL A   1      41.787  19.424  26.336  1.00  0.00     0.124 S 
ATOM     83  O   UNL A   1      42.203  18.732  27.552  1.00  0.00    -0.237 OA
ATOM     84  O   UNL A   1      40.351  19.644  26.191  1.00  0.00    -0.237 OA
ATOM     85  O   UNL A   1      42.474  19.012  25.114  1.00  0.00    -0.744 OA
ENDBRANCH  81  82
ENDBRANCH  53  76
BRANCH  65  86
ATOM     86  C   UNL A   1      49.517  26.876  26.492  1.00  0.00    -0.014 A 
ATOM     87  C   UNL A   1      50.447  26.409  27.438  1.00  0.00     0.010 A 
ATOM     88  C   UNL A   1      49.845  26.827  25.125  1.00  0.00     0.010 A 
ATOM     89  C   UNL A   1      51.693  25.931  27.025  1.00  0.00     0.020 A 
ATOM     90  C   UNL A   1      51.077  26.320  24.706  1.00  0.00     0.020 A 
ATOM     91  C   UNL A   1      52.000  25.887  25.660  1.00  0.00     0.054 A 
BRANCH  91  92
ATOM     92  S   UNL A   1      53.605  25.217  25.148  1.00  0.00     0.124 S 
ATOM     93  O   UNL A   1      54.485  25.692  26.213  1.00  0.00    -0.237 OA
ATOM     94  O   UNL A   1      53.360  23.778  25.129  1.00  0.00    -0.237 OA
ATOM     95  O   UNL A   1      53.831  25.822  23.837  1.00  0.00    -0.744 OA
ENDBRANCH  91  92
ENDBRANCH  65  86
ENDBRANCH  39  40
ENDBRANCH  31  34
ENDBRANCH  29  30
ENDBRANCH  28  29
ENDBRANCH  27  28
ENDBRANCH   1  27
TORSDOF 19
ENDMDL
MODEL 2
REMARK VINA RESULT:     -10.7      5.948     11.540
REMARK SMILES C[C@@H](C(=O)NCCCCCCNC(=O)c1ccc(-c2c3nc(c(-c4ccc(S(=O)(=O)[O-])cc4)c4ccc([nH]4)c(-c4ccc(S(=O)(=O)[O-])cc4)c4nc(c(-c5ccc(S(=O)(=O)[O-])cc5)c5ccc2[nH]5)C=C4)C=C3)cc1)S(=O)(=O)N[C@@]12C[C@@H]3C[C@@](C)(C[C@@](C)(C3)C1)C2
REMARK SMILES IDX 8 1 7 2 6 3 5 4 3 5 4 6 2 8 1 9 75 10 76 11 77 12 78 13
REMARK SMILES IDX 79 15 80 16 89 17 90 18 81 19 86 20 83 21 88 22 82 23 85 24
REMARK SMILES IDX 87 25 84 26 9 27 10 28 11 29 12 30 13 31 14 33 15 34 16 35
REMARK SMILES IDX 74 36 17 37 73 38 18 39 19 40 20 41 67 42 21 43 72 44 66 45
REMARK SMILES IDX 68 46 22 47 71 48 65 49 64 50 23 52 53 53 34 54 52 55 35 56
REMARK SMILES IDX 38 57 51 58 69 59 36 60 37 61 50 63 70 64 39 65 24 66 25 67
REMARK SMILES IDX 33 68 26 69 32 70 27 71 28 72 29 73 30 74 31 75 54 76 55 77
REMARK SMILES IDX 63 78 56 79 62 80 57 81 58 82 59 83 60 84 61 85 40 86 41 87
REMARK SMILES IDX 49 88 42 89 48 90 43 91 44 92 45 93 46 94 47 95
REMARK H PARENT 5 7 78 14 12 32 68 51 38 62
REMARK Flexibility Score: inf
ROOT
ATOM      1  C   UNL A   1      40.402  20.902  26.435  1.00  0.00     0.002 C 
ENDROOT
BRANCH   1   2
ATOM      2  C   UNL A   1      39.415  22.056  26.225  1.00  0.00     0.021 C 
BRANCH   2   3
ATOM      3  C   UNL A   1      38.055  21.581  25.689  1.00  0.00     0.116 C 
BRANCH   3   4
ATOM      4  N   UNL A   1      37.730  22.318  24.478  1.00  0.00    -0.355 N 
ATOM      5  C   UNL A   1      36.510  22.500  23.867  1.00  0.00     0.239 C 
ATOM      6  O   UNL A   1      36.519  22.867  22.693  1.00  0.00    -0.274 OA
ATOM      7  H   UNL A   1      38.493  22.749  24.029  1.00  0.00     0.163 HD
BRANCH   5   8
ATOM      8  C   UNL A   1      35.254  22.256  24.669  1.00  0.00     0.209 C 
ATOM      9  C   UNL A   1      34.132  21.591  23.891  1.00  0.00     0.037 C 
BRANCH   8  10
ATOM     10  S   UNL A   1      34.731  23.749  25.580  1.00  0.00     0.223 S 
ATOM     11  O   UNL A   1      33.812  23.325  26.623  1.00  0.00    -0.212 OA
ATOM     12  O   UNL A   1      35.924  24.466  25.976  1.00  0.00    -0.212 OA
BRANCH  10  13
ATOM     13  N   UNL A   1      33.895  24.820  24.607  1.00  0.00    -0.208 NA
ATOM     14  H   UNL A   1      33.207  24.243  24.122  1.00  0.00     0.141 HD
BRANCH  13  15
ATOM     15  C   UNL A   1      33.146  26.033  25.008  1.00  0.00     0.034 C 
ATOM     16  C   UNL A   1      31.847  25.741  25.771  1.00  0.00     0.027 C 
ATOM     17  C   UNL A   1      33.955  26.914  26.008  1.00  0.00     0.030 C 
ATOM     18  C   UNL A   1      32.982  26.885  23.730  1.00  0.00     0.030 C 
ATOM     19  C   UNL A   1      30.993  26.997  25.921  1.00  0.00    -0.008 C 
ATOM     20  C   UNL A   1      33.145  28.214  26.363  1.00  0.00    -0.030 C 
ATOM     21  C   UNL A   1      32.183  28.167  24.008  1.00  0.00    -0.030 C 
ATOM     22  C   UNL A   1      31.736  27.882  26.914  1.00  0.00     0.010 C 
ATOM     23  C   UNL A   1      30.817  27.738  24.581  1.00  0.00     0.010 C 
ATOM     24  C   UNL A   1      32.939  29.018  25.059  1.00  0.00     0.013 C 
ATOM     25  C   UNL A   1      33.878  29.045  27.417  1.00  0.00     0.011 C 
ATOM     26  C   UNL A   1      32.017  28.968  22.712  1.00  0.00     0.011 C 
ENDBRANCH  13  15
ENDBRANCH  10  13
ENDBRANCH   8  10
ENDBRANCH   5   8
ENDBRANCH   3   4
ENDBRANCH   2   3
ENDBRANCH   1   2
BRANCH   1  27
ATOM     27  C   UNL A   1      41.330  21.091  27.638  1.00  0.00     0.002 C 
BRANCH  27  28
ATOM     28  C   UNL A   1      42.654  21.788  27.311  1.00  0.00     0.021 C 
BRANCH  28  29
ATOM     29  C   UNL A   1      42.638  23.287  27.588  1.00  0.00     0.116 C 
BRANCH  29  30
ATOM     30  N   UNL A   1      42.602  24.047  26.348  1.00  0.00    -0.352 N 
ATOM     31  C   UNL A   1      42.086  25.296  26.118  1.00  0.00     0.251 C 
ATOM     32  H   UNL A   1      43.006  23.604  25.567  1.00  0.00     0.163 HD
ATOM     33  O   UNL A   1      41.872  25.674  24.971  1.00  0.00    -0.269 OA
BRANCH  31  34
ATOM     34  C   UNL A   1      41.788  26.175  27.266  1.00  0.00     0.039 A 
ATOM     35  C   UNL A   1      40.713  25.868  28.102  1.00  0.00     0.014 A 
ATOM     36  C   UNL A   1      42.572  27.309  27.504  1.00  0.00     0.014 A 
ATOM     37  C   UNL A   1      40.454  26.677  29.210  1.00  0.00     0.010 A 
ATOM     38  C   UNL A   1      42.360  28.065  28.651  1.00  0.00     0.010 A 
ATOM     39  C   UNL A   1      41.291  27.765  29.507  1.00  0.00    -0.014 A 
BRANCH  39  40
ATOM     40  C   UNL A   1      41.058  28.615  30.701  1.00  0.00     0.031 A 
ATOM     41  C   UNL A   1      39.960  29.643  30.690  1.00  0.00     0.074 A 
ATOM     42  C   UNL A   1      41.872  28.501  31.769  1.00  0.00     0.049 A 
ATOM     43  N   UNL A   1      39.641  30.518  31.608  1.00  0.00    -0.248 NA
ATOM     44  C   UNL A   1      39.127  29.716  29.477  1.00  0.00     0.031 C 
ATOM     45  C   UNL A   1      42.994  27.565  31.884  1.00  0.00     0.029 A 
ATOM     46  N   UNL A   1      41.886  29.183  32.960  1.00  0.00    -0.354 N 
ATOM     47  C   UNL A   1      38.587  31.254  31.079  1.00  0.00     0.074 A 
ATOM     48  C   UNL A   1      38.357  30.761  29.739  1.00  0.00     0.031 C 
ATOM     49  C   UNL A   1      43.567  27.713  33.090  1.00  0.00     0.029 A 
ATOM     50  C   UNL A   1      42.886  28.782  33.813  1.00  0.00     0.049 A 
ATOM     51  H   UNL A   1      41.239  29.892  33.181  1.00  0.00     0.167 HD
ATOM     52  C   UNL A   1      37.863  32.239  31.663  1.00  0.00     0.031 A 
ATOM     53  C   UNL A   1      43.224  29.231  35.038  1.00  0.00     0.031 A 
ATOM     54  C   UNL A   1      38.093  32.719  32.999  1.00  0.00     0.049 A 
ATOM     55  C   UNL A   1      42.417  30.339  35.659  1.00  0.00     0.074 A 
ATOM     56  C   UNL A   1      37.383  33.676  33.703  1.00  0.00     0.029 A 
ATOM     57  N   UNL A   1      39.113  32.285  33.833  1.00  0.00    -0.354 N 
ATOM     58  N   UNL A   1      41.383  30.979  35.167  1.00  0.00    -0.248 NA
ATOM     59  C   UNL A   1      42.815  30.775  37.003  1.00  0.00     0.031 C 
ATOM     60  C   UNL A   1      38.009  33.863  34.938  1.00  0.00     0.029 A 
ATOM     61  C   UNL A   1      39.068  32.973  35.033  1.00  0.00     0.049 A 
ATOM     62  H   UNL A   1      39.772  31.590  33.604  1.00  0.00     0.167 HD
ATOM     63  C   UNL A   1      40.987  31.873  36.156  1.00  0.00     0.074 A 
ATOM     64  C   UNL A   1      41.885  31.680  37.277  1.00  0.00     0.031 C 
ATOM     65  C   UNL A   1      39.970  32.771  36.139  1.00  0.00     0.031 A 
BRANCH  52  66
ATOM     66  C   UNL A   1      36.759  32.867  30.852  1.00  0.00    -0.014 A 
ATOM     67  C   UNL A   1      37.011  33.951  29.991  1.00  0.00     0.010 A 
ATOM     68  C   UNL A   1      35.455  32.342  30.922  1.00  0.00     0.010 A 
ATOM     69  C   UNL A   1      35.974  34.527  29.253  1.00  0.00     0.020 A 
ATOM     70  C   UNL A   1      34.421  32.894  30.161  1.00  0.00     0.020 A 
ATOM     71  C   UNL A   1      34.684  33.996  29.345  1.00  0.00     0.054 A 
BRANCH  71  72
ATOM     72  S   UNL A   1      33.362  34.753  28.361  1.00  0.00     0.124 S 
ATOM     73  O   UNL A   1      34.121  35.557  27.406  1.00  0.00    -0.237 OA
ATOM     74  O   UNL A   1      32.677  33.592  27.798  1.00  0.00    -0.237 OA
ATOM     75  O   UNL A   1      32.591  35.513  29.341  1.00  0.00    -0.744 OA
ENDBRANCH  71  72
ENDBRANCH  52  66
BRANCH  53  76
ATOM     76  C   UNL A   1      44.374  28.622  35.761  1.00  0.00    -0.014 A 
ATOM     77  C   UNL A   1      45.680  29.107  35.567  1.00  0.00     0.010 A 
ATOM     78  C   UNL A   1      44.167  27.560  36.661  1.00  0.00     0.010 A 
ATOM     79  C   UNL A   1      46.758  28.530  36.246  1.00  0.00     0.020 A 
ATOM     80  C   UNL A   1      45.237  27.003  37.365  1.00  0.00     0.020 A 
ATOM     81  C   UNL A   1      46.529  27.484  37.144  1.00  0.00     0.054 A 
BRANCH  81  82
ATOM     82  S   UNL A   1      47.936  26.788  38.053  1.00  0.00     0.124 S 
ATOM     83  O   UNL A   1      49.072  27.325  37.311  1.00  0.00    -0.237 OA
ATOM     84  O   UNL A   1      47.742  27.330  39.395  1.00  0.00    -0.237 OA
ATOM     85  O   UNL A   1      47.737  25.345  37.936  1.00  0.00    -0.744 OA
ENDBRANCH  81  82
ENDBRANCH  53  76
BRANCH  65  86
ATOM     86  C   UNL A   1      39.745  33.589  37.384  1.00  0.00    -0.014 A 
ATOM     87  C   UNL A   1      40.338  34.854  37.546  1.00  0.00     0.010 A 
ATOM     88  C   UNL A   1      38.876  33.106  38.379  1.00  0.00     0.010 A 
ATOM     89  C   UNL A   1      40.091  35.606  38.697  1.00  0.00     0.020 A 
ATOM     90  C   UNL A   1      38.601  33.869  39.516  1.00  0.00     0.020 A 
ATOM     91  C   UNL A   1      39.221  35.110  39.675  1.00  0.00     0.054 A 
BRANCH  91  92
ATOM     92  S   UNL A   1      38.880  36.127  41.136  1.00  0.00     0.124 S 
ATOM     93  O   UNL A   1      38.551  37.418  40.537  1.00  0.00    -0.237 OA
ATOM     94  O   UNL A   1      37.765  35.423  41.764  1.00  0.00    -0.237 OA
ATOM     95  O   UNL A   1      40.134  36.090  41.886  1.00  0.00    -0.744 OA
ENDBRANCH  91  92
ENDBRANCH  65  86
ENDBRANCH  39  40
ENDBRANCH  31  34
ENDBRANCH  29  30
ENDBRANCH  28  29
ENDBRANCH  27  28
ENDBRANCH   1  27
TORSDOF 19
ENDMDL
MODEL 3
REMARK VINA RESULT:     -10.7      6.098     11.887
REMARK SMILES C[C@@H](C(=O)NCCCCCCNC(=O)c1ccc(-c2c3nc(c(-c4ccc(S(=O)(=O)[O-])cc4)c4ccc([nH]4)c(-c4ccc(S(=O)(=O)[O-])cc4)c4nc(c(-c5ccc(S(=O)(=O)[O-])cc5)c5ccc2[nH]5)C=C4)C=C3)cc1)S(=O)(=O)N[C@@]12C[C@@H]3C[C@@](C)(C[C@@](C)(C3)C1)C2
REMARK SMILES IDX 8 1 7 2 6 3 5 4 3 5 4 6 2 8 1 9 75 10 76 11 77 12 78 13
REMARK SMILES IDX 79 15 80 16 89 17 90 18 81 19 86 20 83 21 88 22 82 23 85 24
REMARK SMILES IDX 87 25 84 26 9 27 10 28 11 29 12 30 13 31 14 33 15 34 16 35
REMARK SMILES IDX 74 36 17 37 73 38 18 39 19 40 20 41 67 42 21 43 72 44 66 45
REMARK SMILES IDX 68 46 22 47 71 48 65 49 64 50 23 52 53 53 34 54 52 55 35 56
REMARK SMILES IDX 38 57 51 58 69 59 36 60 37 61 50 63 70 64 39 65 24 66 25 67
REMARK SMILES IDX 33 68 26 69 32 70 27 71 28 72 29 73 30 74 31 75 54 76 55 77
REMARK SMILES IDX 63 78 56 79 62 80 57 81 58 82 59 83 60 84 61 85 40 86 41 87
REMARK SMILES IDX 49 88 42 89 48 90 43 91 44 92 45 93 46 94 47 95
REMARK H PARENT 5 7 78 14 12 32 68 51 38 62
REMARK Flexibility Score: inf
ROOT
ATOM      1  C   UNL A   1      40.532  20.418  26.562  1.00  0.00     0.002 C 
ENDROOT
BRANCH   1   2
ATOM      2  C   UNL A   1      39.402  20.838  25.616  1.00  0.00     0.021 C 
BRANCH   2   3
ATOM      3  C   UNL A   1      38.625  22.061  26.129  1.00  0.00     0.116 C 
BRANCH   3   4
ATOM      4  N   UNL A   1      38.032  22.764  25.002  1.00  0.00    -0.355 N 
ATOM      5  C   UNL A   1      36.779  22.629  24.449  1.00  0.00     0.239 C 
ATOM      6  O   UNL A   1      36.614  23.074  23.315  1.00  0.00    -0.274 OA
ATOM      7  H   UNL A   1      38.612  23.433  24.571  1.00  0.00     0.163 HD
BRANCH   5   8
ATOM      8  C   UNL A   1      35.694  21.965  25.264  1.00  0.00     0.209 C 
ATOM      9  C   UNL A   1      35.468  20.500  24.933  1.00  0.00     0.037 C 
BRANCH   8  10
ATOM     10  S   UNL A   1      34.162  22.957  25.289  1.00  0.00     0.223 S 
ATOM     11  O   UNL A   1      33.440  22.677  24.060  1.00  0.00    -0.212 OA
ATOM     12  O   UNL A   1      33.490  22.701  26.545  1.00  0.00    -0.212 OA
BRANCH  10  13
ATOM     13  N   UNL A   1      34.475  24.598  25.302  1.00  0.00    -0.208 NA
ATOM     14  H   UNL A   1      35.318  24.703  24.737  1.00  0.00     0.141 HD
BRANCH  13  15
ATOM     15  C   UNL A   1      33.593  25.705  24.864  1.00  0.00     0.034 C 
ATOM     16  C   UNL A   1      33.689  26.023  23.366  1.00  0.00     0.027 C 
ATOM     17  C   UNL A   1      32.085  25.361  25.059  1.00  0.00     0.030 C 
ATOM     18  C   UNL A   1      33.883  26.892  25.808  1.00  0.00     0.030 C 
ATOM     19  C   UNL A   1      32.972  27.327  23.025  1.00  0.00    -0.008 C 
ATOM     20  C   UNL A   1      31.192  26.582  24.632  1.00  0.00    -0.030 C 
ATOM     21  C   UNL A   1      33.049  28.125  25.433  1.00  0.00    -0.030 C 
ATOM     22  C   UNL A   1      31.486  27.031  23.178  1.00  0.00     0.010 C 
ATOM     23  C   UNL A   1      33.384  28.474  23.968  1.00  0.00     0.010 C 
ATOM     24  C   UNL A   1      31.544  27.776  25.549  1.00  0.00     0.013 C 
ATOM     25  C   UNL A   1      29.706  26.232  24.723  1.00  0.00     0.011 C 
ATOM     26  C   UNL A   1      33.386  29.288  26.374  1.00  0.00     0.011 C 
ENDBRANCH  13  15
ENDBRANCH  10  13
ENDBRANCH   8  10
ENDBRANCH   5   8
ENDBRANCH   3   4
ENDBRANCH   2   3
ENDBRANCH   1   2
BRANCH   1  27
ATOM     27  C   UNL A   1      41.848  21.165  26.325  1.00  0.00     0.002 C 
BRANCH  27  28
ATOM     28  C   UNL A   1      42.325  21.997  27.518  1.00  0.00     0.021 C 
BRANCH  28  29
ATOM     29  C   UNL A   1      41.563  23.306  27.691  1.00  0.00     0.116 C 
BRANCH  29  30
ATOM     30  N   UNL A   1      41.576  24.084  26.462  1.00  0.00    -0.352 N 
ATOM     31  C   UNL A   1      41.241  25.400  26.271  1.00  0.00     0.251 C 
ATOM     32  H   UNL A   1      41.866  23.599  25.655  1.00  0.00     0.163 HD
ATOM     33  O   UNL A   1      41.026  25.825  25.141  1.00  0.00    -0.269 OA
BRANCH  31  34
ATOM     34  C   UNL A   1      41.140  26.294  27.441  1.00  0.00     0.039 A 
ATOM     35  C   UNL A   1      42.117  27.271  27.641  1.00  0.00     0.014 A 
ATOM     36  C   UNL A   1      40.080  26.156  28.343  1.00  0.00     0.014 A 
ATOM     37  C   UNL A   1      42.004  28.143  28.725  1.00  0.00     0.010 A 
ATOM     38  C   UNL A   1      39.927  27.075  29.374  1.00  0.00     0.010 A 
ATOM     39  C   UNL A   1      40.894  28.068  29.584  1.00  0.00    -0.014 A 
BRANCH  39  40
ATOM     40  C   UNL A   1      40.732  29.010  30.719  1.00  0.00     0.031 A 
ATOM     41  C   UNL A   1      41.589  28.863  31.946  1.00  0.00     0.074 A 
ATOM     42  C   UNL A   1      39.773  29.956  30.669  1.00  0.00     0.049 A 
ATOM     43  N   UNL A   1      41.556  29.546  33.061  1.00  0.00    -0.248 NA
ATOM     44  C   UNL A   1      42.601  27.792  31.929  1.00  0.00     0.031 C 
ATOM     45  C   UNL A   1      38.855  30.174  29.547  1.00  0.00     0.029 A 
ATOM     46  N   UNL A   1      39.407  30.908  31.587  1.00  0.00    -0.354 N 
ATOM     47  C   UNL A   1      42.524  28.978  33.881  1.00  0.00     0.074 A 
ATOM     48  C   UNL A   1      43.090  27.861  33.158  1.00  0.00     0.031 C 
ATOM     49  C   UNL A   1      38.052  31.211  29.833  1.00  0.00     0.029 A 
ATOM     50  C   UNL A   1      38.365  31.702  31.171  1.00  0.00     0.049 A 
ATOM     51  H   UNL A   1      39.849  31.012  32.460  1.00  0.00     0.167 HD
ATOM     52  C   UNL A   1      42.921  29.364  35.118  1.00  0.00     0.031 A 
ATOM     53  C   UNL A   1      37.725  32.707  31.801  1.00  0.00     0.031 A 
ATOM     54  C   UNL A   1      42.359  30.482  35.828  1.00  0.00     0.049 A 
ATOM     55  C   UNL A   1      38.171  33.106  33.181  1.00  0.00     0.074 A 
ATOM     56  C   UNL A   1      42.726  30.987  37.063  1.00  0.00     0.029 A 
ATOM     57  N   UNL A   1      41.308  31.263  35.373  1.00  0.00    -0.354 N 
ATOM     58  N   UNL A   1      39.132  32.598  33.915  1.00  0.00    -0.248 NA
ATOM     59  C   UNL A   1      37.454  34.222  33.813  1.00  0.00     0.031 C 
ATOM     60  C   UNL A   1      41.858  32.036  37.380  1.00  0.00     0.029 A 
ATOM     61  C   UNL A   1      40.995  32.230  36.312  1.00  0.00     0.049 A 
ATOM     62  H   UNL A   1      40.852  31.147  34.507  1.00  0.00     0.167 HD
ATOM     63  C   UNL A   1      39.155  33.352  35.083  1.00  0.00     0.074 A 
ATOM     64  C   UNL A   1      38.122  34.359  34.950  1.00  0.00     0.031 C 
ATOM     65  C   UNL A   1      39.962  33.224  36.166  1.00  0.00     0.031 A 
BRANCH  52  66
ATOM     66  C   UNL A   1      44.011  28.562  35.782  1.00  0.00    -0.014 A 
ATOM     67  C   UNL A   1      43.710  27.457  36.598  1.00  0.00     0.010 A 
ATOM     68  C   UNL A   1      45.359  28.896  35.557  1.00  0.00     0.010 A 
ATOM     69  C   UNL A   1      44.732  26.730  37.214  1.00  0.00     0.020 A 
ATOM     70  C   UNL A   1      46.387  28.152  36.144  1.00  0.00     0.020 A 
ATOM     71  C   UNL A   1      46.065  27.084  36.985  1.00  0.00     0.054 A 
BRANCH  71  72
ATOM     72  S   UNL A   1      47.371  26.111  37.782  1.00  0.00     0.124 S 
ATOM     73  O   UNL A   1      47.416  24.920  36.938  1.00  0.00    -0.237 OA
ATOM     74  O   UNL A   1      48.531  26.993  37.685  1.00  0.00    -0.237 OA
ATOM     75  O   UNL A   1      46.866  25.895  39.136  1.00  0.00    -0.744 OA
ENDBRANCH  71  72
ENDBRANCH  52  66
BRANCH  53  76
ATOM     76  C   UNL A   1      36.604  33.414  31.122  1.00  0.00    -0.014 A 
ATOM     77  C   UNL A   1      36.788  33.998  29.856  1.00  0.00     0.010 A 
ATOM     78  C   UNL A   1      35.339  33.493  31.733  1.00  0.00     0.010 A 
ATOM     79  C   UNL A   1      35.733  34.663  29.223  1.00  0.00     0.020 A 
ATOM     80  C   UNL A   1      34.275  34.129  31.090  1.00  0.00     0.020 A 
ATOM     81  C   UNL A   1      34.482  34.721  29.843  1.00  0.00     0.054 A 
BRANCH  81  82
ATOM     82  S   UNL A   1      33.115  35.543  28.978  1.00  0.00     0.124 S 
ATOM     83  O   UNL A   1      32.315  36.051  30.087  1.00  0.00    -0.237 OA
ATOM     84  O   UNL A   1      33.809  36.552  28.182  1.00  0.00    -0.237 OA
ATOM     85  O   UNL A   1      32.502  34.464  28.206  1.00  0.00    -0.744 OA
ENDBRANCH  81  82
ENDBRANCH  53  76
BRANCH  65  86
ATOM     86  C   UNL A   1      39.789  34.222  37.282  1.00  0.00    -0.014 A 
ATOM     87  C   UNL A   1      38.879  33.998  38.331  1.00  0.00     0.010 A 
ATOM     88  C   UNL A   1      40.596  35.374  37.309  1.00  0.00     0.010 A 
ATOM     89  C   UNL A   1      38.758  34.924  39.369  1.00  0.00     0.020 A 
ATOM     90  C   UNL A   1      40.501  36.286  38.362  1.00  0.00     0.020 A 
ATOM     91  C   UNL A   1      39.572  36.063  39.380  1.00  0.00     0.054 A 
BRANCH  91  92
ATOM     92  S   UNL A   1      39.428  37.224  40.764  1.00  0.00     0.124 S 
ATOM     93  O   UNL A   1      40.781  37.769  40.846  1.00  0.00    -0.237 OA
ATOM     94  O   UNL A   1      38.403  38.154  40.297  1.00  0.00    -0.237 OA
ATOM     95  O   UNL A   1      39.028  36.379  41.887  1.00  0.00    -0.744 OA
ENDBRANCH  91  92
ENDBRANCH  65  86
ENDBRANCH  39  40
ENDBRANCH  31  34
ENDBRANCH  29  30
ENDBRANCH  28  29
ENDBRANCH  27  28
ENDBRANCH   1  27
TORSDOF 19
ENDMDL
