MODEL 1
REMARK VINA RESULT:     -11.1      0.000      0.000
REMARK SMILES CS(=O)(=O)c1ccc(/C=C(/C(=O)NCCCCCCNC(=O)c2ccc(-c3c4nc(c(-c5ccc(S(=O)(=O)[O-])cc5)c5ccc([nH]5)c(-c5ccc(S(=O)(=O)[O-])cc5)c5nc(c(-c6ccc(S(=O)(=O)[O-])cc6)c6ccc3[nH]6)C=C5)C=C4)cc2)c2ccc(F)cc2)cc1
REMARK SMILES IDX 17 1 16 2 15 3 14 4 13 5 11 6 12 7 10 9 9 10 8 11 5 12 6 13
REMARK SMILES IDX 91 14 7 15 90 16 2 17 1 18 3 19 4 20 83 21 84 22 89 23 85 24
REMARK SMILES IDX 88 25 86 26 87 27 18 28 19 29 20 30 21 31 22 33 23 34 24 35
REMARK SMILES IDX 82 36 25 37 81 38 26 39 27 40 28 41 75 42 29 43 80 44 74 45
REMARK SMILES IDX 76 46 30 47 79 48 73 49 72 50 31 52 61 53 42 54 60 55 43 56
REMARK SMILES IDX 46 57 59 58 77 59 44 60 45 61 58 63 78 64 47 65 32 66 33 67
REMARK SMILES IDX 41 68 34 69 40 70 35 71 36 72 37 73 38 74 39 75 62 76 63 77
REMARK SMILES IDX 71 78 64 79 70 80 65 81 66 82 67 83 68 84 69 85 48 86 49 87
REMARK SMILES IDX 57 88 50 89 56 90 51 91 52 92 53 93 54 94 55 95
REMARK H PARENT 13 8 20 32 76 51 46 62
REMARK Flexibility Score: inf
ROOT
ATOM      1  C   UNL A   1      34.148  23.776  25.919  1.00  0.00     0.002 C 
ENDROOT
BRANCH   1   2
ATOM      2  C   UNL A   1      32.944  23.630  26.857  1.00  0.00     0.002 C 
BRANCH   2   3
ATOM      3  C   UNL A   1      31.869  22.633  26.393  1.00  0.00     0.021 C 
BRANCH   3   4
ATOM      4  C   UNL A   1      30.983  23.166  25.262  1.00  0.00     0.116 C 
BRANCH   4   5
ATOM      5  N   UNL A   1      31.762  23.289  24.045  1.00  0.00    -0.352 N 
ATOM      6  C   UNL A   1      31.984  24.289  23.155  1.00  0.00     0.251 C 
ATOM      7  O   UNL A   1      32.662  23.990  22.167  1.00  0.00    -0.269 OA
ATOM      8  H   UNL A   1      32.237  22.460  23.812  1.00  0.00     0.163 HD
BRANCH   6   9
ATOM      9  C   UNL A   1      31.539  25.719  23.361  1.00  0.00     0.047 C 
ATOM     10  C   UNL A   1      30.847  26.412  22.428  1.00  0.00     0.022 C 
BRANCH  10  11
ATOM     11  C   UNL A   1      30.242  27.760  22.527  1.00  0.00    -0.025 A 
ATOM     12  C   UNL A   1      29.008  30.258  22.878  1.00  0.00     0.067 A 
ATOM     13  C   UNL A   1      30.279  30.185  22.309  1.00  0.00     0.021 A 
ATOM     14  C   UNL A   1      28.319  29.095  23.223  1.00  0.00     0.021 A 
ATOM     15  C   UNL A   1      30.884  28.937  22.120  1.00  0.00     0.009 A 
ATOM     16  C   UNL A   1      28.941  27.854  23.050  1.00  0.00     0.009 A 
BRANCH  12  17
ATOM     17  S   UNL A   1      28.249  31.848  23.117  1.00  0.00     0.175 S 
ATOM     18  C   UNL A   1      28.005  32.443  21.464  1.00  0.00     0.163 C 
ATOM     19  O   UNL A   1      29.214  32.711  23.762  1.00  0.00    -0.224 OA
ATOM     20  O   UNL A   1      26.941  31.614  23.707  1.00  0.00    -0.224 OA
ENDBRANCH  12  17
ENDBRANCH  10  11
BRANCH   9  21
ATOM     21  C   UNL A   1      32.044  26.393  24.584  1.00  0.00    -0.013 A 
ATOM     22  C   UNL A   1      33.365  26.883  24.582  1.00  0.00     0.012 A 
ATOM     23  C   UNL A   1      31.238  26.607  25.711  1.00  0.00     0.012 A 
ATOM     24  C   UNL A   1      33.865  27.591  25.674  1.00  0.00     0.040 A 
ATOM     25  C   UNL A   1      31.740  27.327  26.801  1.00  0.00     0.040 A 
ATOM     26  C   UNL A   1      33.043  27.814  26.769  1.00  0.00     0.123 A 
ATOM     27  F   UNL A   1      33.512  28.515  27.810  1.00  0.00    -0.207 F 
ENDBRANCH   9  21
ENDBRANCH   6   9
ENDBRANCH   4   5
ENDBRANCH   3   4
ENDBRANCH   2   3
ENDBRANCH   1   2
BRANCH   1  28
ATOM     28  C   UNL A   1      35.438  23.111  26.409  1.00  0.00     0.021 C 
BRANCH  28  29
ATOM     29  C   UNL A   1      36.719  23.693  25.819  1.00  0.00     0.116 C 
BRANCH  29  30
ATOM     30  N   UNL A   1      37.828  22.760  25.905  1.00  0.00    -0.352 N 
ATOM     31  C   UNL A   1      39.116  22.974  26.327  1.00  0.00     0.251 C 
ATOM     32  H   UNL A   1      37.627  21.840  25.618  1.00  0.00     0.163 HD
ATOM     33  O   UNL A   1      39.970  22.114  26.131  1.00  0.00    -0.269 OA
BRANCH  31  34
ATOM     34  C   UNL A   1      39.482  24.239  27.005  1.00  0.00     0.039 A 
ATOM     35  C   UNL A   1      40.197  25.203  26.288  1.00  0.00     0.014 A 
ATOM     36  C   UNL A   1      39.169  24.459  28.350  1.00  0.00     0.014 A 
ATOM     37  C   UNL A   1      40.569  26.397  26.909  1.00  0.00     0.010 A 
ATOM     38  C   UNL A   1      39.489  25.676  28.951  1.00  0.00     0.010 A 
ATOM     39  C   UNL A   1      40.206  26.650  28.242  1.00  0.00    -0.014 A 
BRANCH  39  40
ATOM     40  C   UNL A   1      40.601  27.916  28.910  1.00  0.00     0.031 A 
ATOM     41  C   UNL A   1      41.975  28.062  29.507  1.00  0.00     0.074 A 
ATOM     42  C   UNL A   1      39.713  28.924  29.009  1.00  0.00     0.049 A 
ATOM     43  N   UNL A   1      42.498  29.086  30.133  1.00  0.00    -0.248 NA
ATOM     44  C   UNL A   1      42.870  26.897  29.409  1.00  0.00     0.031 C 
ATOM     45  C   UNL A   1      38.335  28.892  28.511  1.00  0.00     0.029 A 
ATOM     46  N   UNL A   1      39.837  30.174  29.562  1.00  0.00    -0.354 N 
ATOM     47  C   UNL A   1      43.774  28.685  30.515  1.00  0.00     0.074 A 
ATOM     48  C   UNL A   1      43.928  27.310  30.092  1.00  0.00     0.031 C 
ATOM     49  C   UNL A   1      37.752  30.077  28.758  1.00  0.00     0.029 A 
ATOM     50  C   UNL A   1      38.703  30.942  29.451  1.00  0.00     0.049 A 
ATOM     51  H   UNL A   1      40.661  30.490  29.998  1.00  0.00     0.167 HD
ATOM     52  C   UNL A   1      44.738  29.400  31.143  1.00  0.00     0.031 A 
ATOM     53  C   UNL A   1      38.458  32.203  29.854  1.00  0.00     0.031 A 
ATOM     54  C   UNL A   1      44.591  30.773  31.549  1.00  0.00     0.049 A 
ATOM     55  C   UNL A   1      39.551  32.987  30.523  1.00  0.00     0.074 A 
ATOM     56  C   UNL A   1      45.527  31.600  32.146  1.00  0.00     0.029 A 
ATOM     57  N   UNL A   1      43.435  31.522  31.397  1.00  0.00    -0.354 N 
ATOM     58  N   UNL A   1      40.771  32.609  30.823  1.00  0.00    -0.248 NA
ATOM     59  C   UNL A   1      39.240  34.375  30.890  1.00  0.00     0.031 C 
ATOM     60  C   UNL A   1      44.923  32.841  32.385  1.00  0.00     0.029 A 
ATOM     61  C   UNL A   1      43.628  32.798  31.898  1.00  0.00     0.049 A 
ATOM     62  H   UNL A   1      42.599  31.195  30.992  1.00  0.00     0.167 HD
ATOM     63  C   UNL A   1      41.381  33.720  31.395  1.00  0.00     0.074 A 
ATOM     64  C   UNL A   1      40.401  34.787  31.381  1.00  0.00     0.031 C 
ATOM     65  C   UNL A   1      42.639  33.846  31.885  1.00  0.00     0.031 A 
BRANCH  52  66
ATOM     66  C   UNL A   1      46.040  28.699  31.431  1.00  0.00    -0.014 A 
ATOM     67  C   UNL A   1      47.108  28.755  30.517  1.00  0.00     0.010 A 
ATOM     68  C   UNL A   1      46.205  27.993  32.636  1.00  0.00     0.010 A 
ATOM     69  C   UNL A   1      48.300  28.075  30.781  1.00  0.00     0.020 A 
ATOM     70  C   UNL A   1      47.406  27.333  32.915  1.00  0.00     0.020 A 
ATOM     71  C   UNL A   1      48.439  27.361  31.975  1.00  0.00     0.054 A 
BRANCH  71  72
ATOM     72  S   UNL A   1      49.998  26.492  32.297  1.00  0.00     0.124 S 
ATOM     73  O   UNL A   1      50.456  27.144  33.522  1.00  0.00    -0.237 OA
ATOM     74  O   UNL A   1      49.570  25.105  32.447  1.00  0.00    -0.237 OA
ATOM     75  O   UNL A   1      50.800  26.768  31.107  1.00  0.00    -0.744 OA
ENDBRANCH  71  72
ENDBRANCH  52  66
BRANCH  53  76
ATOM     76  C   UNL A   1      37.126  32.815  29.601  1.00  0.00    -0.014 A 
ATOM     77  C   UNL A   1      36.149  32.837  30.611  1.00  0.00     0.010 A 
ATOM     78  C   UNL A   1      36.835  33.396  28.353  1.00  0.00     0.010 A 
ATOM     79  C   UNL A   1      34.898  33.415  30.375  1.00  0.00     0.020 A 
ATOM     80  C   UNL A   1      35.594  33.995  28.121  1.00  0.00     0.020 A 
ATOM     81  C   UNL A   1      34.629  33.991  29.131  1.00  0.00     0.054 A 
BRANCH  81  82
ATOM     82  S   UNL A   1      33.023  34.791  28.863  1.00  0.00     0.124 S 
ATOM     83  O   UNL A   1      32.450  34.777  30.205  1.00  0.00    -0.237 OA
ATOM     84  O   UNL A   1      33.403  36.105  28.350  1.00  0.00    -0.237 OA
ATOM     85  O   UNL A   1      32.367  33.920  27.890  1.00  0.00    -0.744 OA
ENDBRANCH  81  82
ENDBRANCH  53  76
BRANCH  65  86
ATOM     86  C   UNL A   1      43.031  35.196  32.423  1.00  0.00    -0.014 A 
ATOM     87  C   UNL A   1      42.760  35.554  33.755  1.00  0.00     0.010 A 
ATOM     88  C   UNL A   1      43.697  36.109  31.586  1.00  0.00     0.010 A 
ATOM     89  C   UNL A   1      43.108  36.822  34.228  1.00  0.00     0.020 A 
ATOM     90  C   UNL A   1      44.070  37.368  32.064  1.00  0.00     0.020 A 
ATOM     91  C   UNL A   1      43.753  37.724  33.377  1.00  0.00     0.054 A 
BRANCH  91  92
ATOM     92  S   UNL A   1      44.210  39.360  34.014  1.00  0.00     0.124 S 
ATOM     93  O   UNL A   1      44.501  39.068  35.415  1.00  0.00    -0.237 OA
ATOM     94  O   UNL A   1      45.365  39.716  33.193  1.00  0.00    -0.237 OA
ATOM     95  O   UNL A   1      43.014  40.167  33.780  1.00  0.00    -0.744 OA
ENDBRANCH  91  92
ENDBRANCH  65  86
ENDBRANCH  39  40
ENDBRANCH  31  34
ENDBRANCH  29  30
ENDBRANCH  28  29
ENDBRANCH   1  28
TORSDOF 19
ENDMDL
MODEL 2
REMARK VINA RESULT:     -10.4      2.195      2.744
REMARK SMILES CS(=O)(=O)c1ccc(/C=C(/C(=O)NCCCCCCNC(=O)c2ccc(-c3c4nc(c(-c5ccc(S(=O)(=O)[O-])cc5)c5ccc([nH]5)c(-c5ccc(S(=O)(=O)[O-])cc5)c5nc(c(-c6ccc(S(=O)(=O)[O-])cc6)c6ccc3[nH]6)C=C5)C=C4)cc2)c2ccc(F)cc2)cc1
REMARK SMILES IDX 17 1 16 2 15 3 14 4 13 5 11 6 12 7 10 9 9 10 8 11 5 12 6 13
REMARK SMILES IDX 91 14 7 15 90 16 2 17 1 18 3 19 4 20 83 21 84 22 89 23 85 24
REMARK SMILES IDX 88 25 86 26 87 27 18 28 19 29 20 30 21 31 22 33 23 34 24 35
REMARK SMILES IDX 82 36 25 37 81 38 26 39 27 40 28 41 75 42 29 43 80 44 74 45
REMARK SMILES IDX 76 46 30 47 79 48 73 49 72 50 31 52 61 53 42 54 60 55 43 56
REMARK SMILES IDX 46 57 59 58 77 59 44 60 45 61 58 63 78 64 47 65 32 66 33 67
REMARK SMILES IDX 41 68 34 69 40 70 35 71 36 72 37 73 38 74 39 75 62 76 63 77
REMARK SMILES IDX 71 78 64 79 70 80 65 81 66 82 67 83 68 84 69 85 48 86 49 87
REMARK SMILES IDX 57 88 50 89 56 90 51 91 52 92 53 93 54 94 55 95
REMARK H PARENT 13 8 20 32 76 51 46 62
REMARK Flexibility Score: inf
ROOT
ATOM      1  C   UNL A   1      34.693  23.609  25.686  1.00  0.00     0.002 C 
ENDROOT
BRANCH   1   2
ATOM      2  C   UNL A   1      33.522  23.940  26.619  1.00  0.00     0.002 C 
BRANCH   2   3
ATOM      3  C   UNL A   1      32.347  22.949  26.573  1.00  0.00     0.021 C 
BRANCH   3   4
ATOM      4  C   UNL A   1      31.300  23.286  25.507  1.00  0.00     0.116 C 
BRANCH   4   5
ATOM      5  N   UNL A   1      31.930  23.352  24.203  1.00  0.00    -0.352 N 
ATOM      6  C   UNL A   1      32.026  24.304  23.240  1.00  0.00     0.251 C 
ATOM      7  O   UNL A   1      32.592  23.961  22.197  1.00  0.00    -0.269 OA
ATOM      8  H   UNL A   1      32.392  22.519  23.961  1.00  0.00     0.163 HD
BRANCH   6   9
ATOM      9  C   UNL A   1      31.578  25.737  23.419  1.00  0.00     0.047 C 
ATOM     10  C   UNL A   1      30.883  26.410  22.474  1.00  0.00     0.022 C 
BRANCH  10  11
ATOM     11  C   UNL A   1      30.275  27.758  22.548  1.00  0.00    -0.025 A 
ATOM     12  C   UNL A   1      29.030  30.257  22.850  1.00  0.00     0.067 A 
ATOM     13  C   UNL A   1      30.312  30.180  22.304  1.00  0.00     0.021 A 
ATOM     14  C   UNL A   1      28.338  29.098  23.196  1.00  0.00     0.021 A 
ATOM     15  C   UNL A   1      30.921  28.932  22.140  1.00  0.00     0.009 A 
ATOM     16  C   UNL A   1      28.964  27.856  23.048  1.00  0.00     0.009 A 
BRANCH  12  17
ATOM     17  S   UNL A   1      28.266  31.849  23.059  1.00  0.00     0.175 S 
ATOM     18  C   UNL A   1      28.010  32.406  21.395  1.00  0.00     0.163 C 
ATOM     19  O   UNL A   1      29.230  32.730  23.680  1.00  0.00    -0.224 OA
ATOM     20  O   UNL A   1      26.962  31.621  23.661  1.00  0.00    -0.224 OA
ENDBRANCH  12  17
ENDBRANCH  10  11
BRANCH   9  21
ATOM     21  C   UNL A   1      32.082  26.435  24.629  1.00  0.00    -0.013 A 
ATOM     22  C   UNL A   1      33.414  26.896  24.630  1.00  0.00     0.012 A 
ATOM     23  C   UNL A   1      31.268  26.700  25.738  1.00  0.00     0.012 A 
ATOM     24  C   UNL A   1      33.915  27.625  25.707  1.00  0.00     0.040 A 
ATOM     25  C   UNL A   1      31.772  27.440  26.813  1.00  0.00     0.040 A 
ATOM     26  C   UNL A   1      33.086  27.898  26.784  1.00  0.00     0.123 A 
ATOM     27  F   UNL A   1      33.557  28.619  27.810  1.00  0.00    -0.207 F 
ENDBRANCH   9  21
ENDBRANCH   6   9
ENDBRANCH   4   5
ENDBRANCH   3   4
ENDBRANCH   2   3
ENDBRANCH   1   2
BRANCH   1  28
ATOM     28  C   UNL A   1      35.828  22.806  26.327  1.00  0.00     0.021 C 
BRANCH  28  29
ATOM     29  C   UNL A   1      37.228  23.192  25.857  1.00  0.00     0.116 C 
BRANCH  29  30
ATOM     30  N   UNL A   1      38.193  22.135  26.103  1.00  0.00    -0.352 N 
ATOM     31  C   UNL A   1      39.511  22.229  26.473  1.00  0.00     0.251 C 
ATOM     32  H   UNL A   1      37.853  21.219  25.988  1.00  0.00     0.163 HD
ATOM     33  O   UNL A   1      40.226  21.232  26.430  1.00  0.00    -0.269 OA
BRANCH  31  34
ATOM     34  C   UNL A   1      40.077  23.526  26.909  1.00  0.00     0.039 A 
ATOM     35  C   UNL A   1      39.800  24.669  26.153  1.00  0.00     0.014 A 
ATOM     36  C   UNL A   1      40.916  23.613  28.025  1.00  0.00     0.014 A 
ATOM     37  C   UNL A   1      40.336  25.901  26.534  1.00  0.00     0.010 A 
ATOM     38  C   UNL A   1      41.400  24.854  28.438  1.00  0.00     0.010 A 
ATOM     39  C   UNL A   1      41.129  26.007  27.687  1.00  0.00    -0.014 A 
BRANCH  39  40
ATOM     40  C   UNL A   1      41.705  27.313  28.097  1.00  0.00     0.031 A 
ATOM     41  C   UNL A   1      43.185  27.561  27.975  1.00  0.00     0.074 A 
ATOM     42  C   UNL A   1      40.902  28.265  28.610  1.00  0.00     0.049 A 
ATOM     43  N   UNL A   1      43.870  28.633  28.285  1.00  0.00    -0.248 NA
ATOM     44  C   UNL A   1      44.004  26.453  27.458  1.00  0.00     0.031 C 
ATOM     45  C   UNL A   1      39.459  28.133  28.823  1.00  0.00     0.029 A 
ATOM     46  N   UNL A   1      41.187  29.535  29.047  1.00  0.00    -0.354 N 
ATOM     47  C   UNL A   1      45.199  28.324  28.016  1.00  0.00     0.074 A 
ATOM     48  C   UNL A   1      45.228  26.950  27.563  1.00  0.00     0.031 C 
ATOM     49  C   UNL A   1      38.982  29.285  29.323  1.00  0.00     0.029 A 
ATOM     50  C   UNL A   1      40.086  30.226  29.490  1.00  0.00     0.049 A 
ATOM     51  H   UNL A   1      42.095  29.914  29.043  1.00  0.00     0.167 HD
ATOM     52  C   UNL A   1      46.294  29.115  28.118  1.00  0.00     0.031 A 
ATOM     53  C   UNL A   1      39.974  31.480  29.968  1.00  0.00     0.031 A 
ATOM     54  C   UNL A   1      46.262  30.486  28.553  1.00  0.00     0.049 A 
ATOM     55  C   UNL A   1      41.197  32.349  30.046  1.00  0.00     0.074 A 
ATOM     56  C   UNL A   1      47.310  31.387  28.642  1.00  0.00     0.029 A 
ATOM     57  N   UNL A   1      45.123  31.156  28.970  1.00  0.00    -0.354 N 
ATOM     58  N   UNL A   1      42.436  32.057  29.731  1.00  0.00    -0.248 NA
ATOM     59  C   UNL A   1      41.002  33.725  30.524  1.00  0.00     0.031 C 
ATOM     60  C   UNL A   1      46.808  32.593  29.146  1.00  0.00     0.029 A 
ATOM     61  C   UNL A   1      45.442  32.456  29.328  1.00  0.00     0.049 A 
ATOM     62  H   UNL A   1      44.220  30.766  29.007  1.00  0.00     0.167 HD
ATOM     63  C   UNL A   1      43.166  33.219  29.953  1.00  0.00     0.074 A 
ATOM     64  C   UNL A   1      42.226  34.222  30.411  1.00  0.00     0.031 C 
ATOM     65  C   UNL A   1      44.495  33.438  29.791  1.00  0.00     0.031 A 
BRANCH  52  66
ATOM     66  C   UNL A   1      47.622  28.506  27.752  1.00  0.00    -0.014 A 
ATOM     67  C   UNL A   1      48.421  27.875  28.722  1.00  0.00     0.010 A 
ATOM     68  C   UNL A   1      48.068  28.548  26.418  1.00  0.00     0.010 A 
ATOM     69  C   UNL A   1      49.665  27.341  28.375  1.00  0.00     0.020 A 
ATOM     70  C   UNL A   1      49.301  27.991  26.063  1.00  0.00     0.020 A 
ATOM     71  C   UNL A   1      50.101  27.409  27.049  1.00  0.00     0.054 A 
BRANCH  71  72
ATOM     72  S   UNL A   1      51.716  26.703  26.623  1.00  0.00     0.124 S 
ATOM     73  O   UNL A   1      52.593  27.865  26.750  1.00  0.00    -0.237 OA
ATOM     74  O   UNL A   1      51.895  25.669  27.638  1.00  0.00    -0.237 OA
ATOM     75  O   UNL A   1      51.530  26.208  25.261  1.00  0.00    -0.744 OA
ENDBRANCH  71  72
ENDBRANCH  52  66
BRANCH  53  76
ATOM     76  C   UNL A   1      38.642  32.000  30.378  1.00  0.00    -0.014 A 
ATOM     77  C   UNL A   1      38.231  31.923  31.721  1.00  0.00     0.010 A 
ATOM     78  C   UNL A   1      37.786  32.590  29.432  1.00  0.00     0.010 A 
ATOM     79  C   UNL A   1      36.980  32.415  32.108  1.00  0.00     0.020 A 
ATOM     80  C   UNL A   1      36.545  33.103  29.818  1.00  0.00     0.020 A 
ATOM     81  C   UNL A   1      36.145  33.002  31.153  1.00  0.00     0.054 A 
BRANCH  81  82
ATOM     82  S   UNL A   1      34.553  33.690  31.685  1.00  0.00     0.124 S 
ATOM     83  O   UNL A   1      34.967  34.885  32.414  1.00  0.00    -0.237 OA
ATOM     84  O   UNL A   1      33.868  33.928  30.417  1.00  0.00    -0.237 OA
ATOM     85  O   UNL A   1      33.978  32.624  32.502  1.00  0.00    -0.744 OA
ENDBRANCH  81  82
ENDBRANCH  53  76
BRANCH  65  86
ATOM     86  C   UNL A   1      45.001  34.824  30.087  1.00  0.00    -0.014 A 
ATOM     87  C   UNL A   1      45.454  35.173  31.372  1.00  0.00     0.010 A 
ATOM     88  C   UNL A   1      45.041  35.782  29.059  1.00  0.00     0.010 A 
ATOM     89  C   UNL A   1      45.895  36.472  31.635  1.00  0.00     0.020 A 
ATOM     90  C   UNL A   1      45.506  37.076  29.313  1.00  0.00     0.020 A 
ATOM     91  C   UNL A   1      45.911  37.418  30.605  1.00  0.00     0.054 A 
BRANCH  91  92
ATOM     92  S   UNL A   1      46.501  39.096  30.962  1.00  0.00     0.124 S 
ATOM     93  O   UNL A   1      47.458  38.857  32.039  1.00  0.00    -0.237 OA
ATOM     94  O   UNL A   1      47.080  39.513  29.687  1.00  0.00    -0.237 OA
ATOM     95  O   UNL A   1      45.288  39.811  31.353  1.00  0.00    -0.744 OA
ENDBRANCH  91  92
ENDBRANCH  65  86
ENDBRANCH  39  40
ENDBRANCH  31  34
ENDBRANCH  29  30
ENDBRANCH  28  29
ENDBRANCH   1  28
TORSDOF 19
ENDMDL
MODEL 3
REMARK VINA RESULT:     -10.0      2.163      8.067
REMARK SMILES CS(=O)(=O)c1ccc(/C=C(/C(=O)NCCCCCCNC(=O)c2ccc(-c3c4nc(c(-c5ccc(S(=O)(=O)[O-])cc5)c5ccc([nH]5)c(-c5ccc(S(=O)(=O)[O-])cc5)c5nc(c(-c6ccc(S(=O)(=O)[O-])cc6)c6ccc3[nH]6)C=C5)C=C4)cc2)c2ccc(F)cc2)cc1
REMARK SMILES IDX 17 1 16 2 15 3 14 4 13 5 11 6 12 7 10 9 9 10 8 11 5 12 6 13
REMARK SMILES IDX 91 14 7 15 90 16 2 17 1 18 3 19 4 20 83 21 84 22 89 23 85 24
REMARK SMILES IDX 88 25 86 26 87 27 18 28 19 29 20 30 21 31 22 33 23 34 24 35
REMARK SMILES IDX 82 36 25 37 81 38 26 39 27 40 28 41 75 42 29 43 80 44 74 45
REMARK SMILES IDX 76 46 30 47 79 48 73 49 72 50 31 52 61 53 42 54 60 55 43 56
REMARK SMILES IDX 46 57 59 58 77 59 44 60 45 61 58 63 78 64 47 65 32 66 33 67
REMARK SMILES IDX 41 68 34 69 40 70 35 71 36 72 37 73 38 74 39 75 62 76 63 77
REMARK SMILES IDX 71 78 64 79 70 80 65 81 66 82 67 83 68 84 69 85 48 86 49 87
REMARK SMILES IDX 57 88 50 89 56 90 51 91 52 92 53 93 54 94 55 95
REMARK H PARENT 13 8 20 32 76 51 46 62
REMARK Flexibility Score: inf
ROOT
ATOM      1  C   UNL A   1      34.756  23.676  25.727  1.00  0.00     0.002 C 
ENDROOT
BRANCH   1   2
ATOM      2  C   UNL A   1      33.511  23.977  26.570  1.00  0.00     0.002 C 
BRANCH   2   3
ATOM      3  C   UNL A   1      32.376  22.946  26.454  1.00  0.00     0.021 C 
BRANCH   3   4
ATOM      4  C   UNL A   1      31.342  23.288  25.377  1.00  0.00     0.116 C 
BRANCH   4   5
ATOM      5  N   UNL A   1      31.995  23.393  24.086  1.00  0.00    -0.352 N 
ATOM      6  C   UNL A   1      32.098  24.369  23.148  1.00  0.00     0.251 C 
ATOM      7  O   UNL A   1      32.686  24.057  22.108  1.00  0.00    -0.269 OA
ATOM      8  H   UNL A   1      32.470  22.570  23.832  1.00  0.00     0.163 HD
BRANCH   6   9
ATOM      9  C   UNL A   1      31.631  25.792  23.354  1.00  0.00     0.047 C 
ATOM     10  C   UNL A   1      30.928  26.475  22.421  1.00  0.00     0.022 C 
BRANCH  10  11
ATOM     11  C   UNL A   1      30.303  27.813  22.520  1.00  0.00    -0.025 A 
ATOM     12  C   UNL A   1      29.022  30.288  22.865  1.00  0.00     0.067 A 
ATOM     13  C   UNL A   1      30.318  30.242  22.352  1.00  0.00     0.021 A 
ATOM     14  C   UNL A   1      28.334  29.111  23.156  1.00  0.00     0.021 A 
ATOM     15  C   UNL A   1      30.946  29.006  22.166  1.00  0.00     0.009 A 
ATOM     16  C   UNL A   1      28.978  27.881  22.986  1.00  0.00     0.009 A 
BRANCH  12  17
ATOM     17  S   UNL A   1      28.234  31.864  23.102  1.00  0.00     0.175 S 
ATOM     18  C   UNL A   1      27.906  32.415  21.448  1.00  0.00     0.163 C 
ATOM     19  O   UNL A   1      29.202  32.765  23.687  1.00  0.00    -0.224 OA
ATOM     20  O   UNL A   1      26.957  31.611  23.751  1.00  0.00    -0.224 OA
ENDBRANCH  12  17
ENDBRANCH  10  11
BRANCH   9  21
ATOM     21  C   UNL A   1      32.125  26.474  24.578  1.00  0.00    -0.013 A 
ATOM     22  C   UNL A   1      33.459  26.925  24.601  1.00  0.00     0.012 A 
ATOM     23  C   UNL A   1      31.298  26.733  25.680  1.00  0.00     0.012 A 
ATOM     24  C   UNL A   1      33.952  27.638  25.692  1.00  0.00     0.040 A 
ATOM     25  C   UNL A   1      31.793  27.457  26.769  1.00  0.00     0.040 A 
ATOM     26  C   UNL A   1      33.111  27.905  26.762  1.00  0.00     0.123 A 
ATOM     27  F   UNL A   1      33.574  28.612  27.802  1.00  0.00    -0.207 F 
ENDBRANCH   9  21
ENDBRANCH   6   9
ENDBRANCH   4   5
ENDBRANCH   3   4
ENDBRANCH   2   3
ENDBRANCH   1   2
BRANCH   1  28
ATOM     28  C   UNL A   1      35.881  22.945  26.466  1.00  0.00     0.021 C 
BRANCH  28  29
ATOM     29  C   UNL A   1      37.287  23.439  26.137  1.00  0.00     0.116 C 
BRANCH  29  30
ATOM     30  N   UNL A   1      38.264  22.366  26.189  1.00  0.00    -0.352 N 
ATOM     31  C   UNL A   1      39.621  22.434  26.379  1.00  0.00     0.251 C 
ATOM     32  H   UNL A   1      37.900  21.459  26.072  1.00  0.00     0.163 HD
ATOM     33  O   UNL A   1      40.311  21.438  26.184  1.00  0.00    -0.269 OA
BRANCH  31  34
ATOM     34  C   UNL A   1      40.257  23.702  26.804  1.00  0.00     0.039 A 
ATOM     35  C   UNL A   1      40.865  23.760  28.061  1.00  0.00     0.014 A 
ATOM     36  C   UNL A   1      40.214  24.842  25.995  1.00  0.00     0.014 A 
ATOM     37  C   UNL A   1      41.457  24.950  28.493  1.00  0.00     0.010 A 
ATOM     38  C   UNL A   1      40.858  26.011  26.402  1.00  0.00     0.010 A 
ATOM     39  C   UNL A   1      41.470  26.081  27.661  1.00  0.00    -0.014 A 
BRANCH  39  40
ATOM     40  C   UNL A   1      42.096  27.350  28.114  1.00  0.00     0.031 A 
ATOM     41  C   UNL A   1      41.242  28.463  28.659  1.00  0.00     0.074 A 
ATOM     42  C   UNL A   1      43.428  27.514  28.004  1.00  0.00     0.049 A 
ATOM     43  N   UNL A   1      41.604  29.642  29.098  1.00  0.00    -0.248 NA
ATOM     44  C   UNL A   1      39.789  28.231  28.695  1.00  0.00     0.031 C 
ATOM     45  C   UNL A   1      44.362  26.530  27.452  1.00  0.00     0.029 A 
ATOM     46  N   UNL A   1      44.230  28.572  28.354  1.00  0.00    -0.354 N 
ATOM     47  C   UNL A   1      40.428  30.296  29.447  1.00  0.00     0.074 A 
ATOM     48  C   UNL A   1      39.337  29.400  29.125  1.00  0.00     0.031 C 
ATOM     49  C   UNL A   1      45.610  27.019  27.526  1.00  0.00     0.029 A 
ATOM     50  C   UNL A   1      45.564  28.359  28.106  1.00  0.00     0.049 A 
ATOM     51  H   UNL A   1      43.881  29.405  28.746  1.00  0.00     0.167 HD
ATOM     52  C   UNL A   1      40.267  31.521  30.002  1.00  0.00     0.031 A 
ATOM     53  C   UNL A   1      46.633  29.148  28.327  1.00  0.00     0.031 A 
ATOM     54  C   UNL A   1      41.352  32.405  30.337  1.00  0.00     0.049 A 
ATOM     55  C   UNL A   1      46.433  30.491  28.970  1.00  0.00     0.074 A 
ATOM     56  C   UNL A   1      41.296  33.645  30.949  1.00  0.00     0.029 A 
ATOM     57  N   UNL A   1      42.690  32.141  30.091  1.00  0.00    -0.354 N 
ATOM     58  N   UNL A   1      45.317  31.067  29.347  1.00  0.00    -0.248 NA
ATOM     59  C   UNL A   1      47.643  31.283  29.237  1.00  0.00     0.031 C 
ATOM     60  C   UNL A   1      42.600  34.146  31.042  1.00  0.00     0.029 A 
ATOM     61  C   UNL A   1      43.470  33.199  30.528  1.00  0.00     0.049 A 
ATOM     62  H   UNL A   1      43.036  31.322  29.667  1.00  0.00     0.167 HD
ATOM     63  C   UNL A   1      45.690  32.279  29.915  1.00  0.00     0.074 A 
ATOM     64  C   UNL A   1      47.136  32.345  29.848  1.00  0.00     0.031 C 
ATOM     65  C   UNL A   1      44.907  33.251  30.446  1.00  0.00     0.031 A 
BRANCH  52  66
ATOM     66  C   UNL A   1      38.857  31.974  30.278  1.00  0.00    -0.014 A 
ATOM     67  C   UNL A   1      38.082  32.580  29.272  1.00  0.00     0.010 A 
ATOM     68  C   UNL A   1      38.293  31.774  31.551  1.00  0.00     0.010 A 
ATOM     69  C   UNL A   1      36.786  33.024  29.549  1.00  0.00     0.020 A 
ATOM     70  C   UNL A   1      36.987  32.194  31.824  1.00  0.00     0.020 A 
ATOM     71  C   UNL A   1      36.250  32.835  30.826  1.00  0.00     0.054 A 
BRANCH  71  72
ATOM     72  S   UNL A   1      34.563  33.414  31.158  1.00  0.00     0.124 S 
ATOM     73  O   UNL A   1      34.803  34.776  31.632  1.00  0.00    -0.237 OA
ATOM     74  O   UNL A   1      33.921  33.309  29.851  1.00  0.00    -0.237 OA
ATOM     75  O   UNL A   1      34.069  32.481  32.168  1.00  0.00    -0.744 OA
ENDBRANCH  71  72
ENDBRANCH  52  66
BRANCH  53  76
ATOM     76  C   UNL A   1      47.994  28.668  27.969  1.00  0.00    -0.014 A 
ATOM     77  C   UNL A   1      48.531  28.937  26.698  1.00  0.00     0.010 A 
ATOM     78  C   UNL A   1      48.767  27.956  28.903  1.00  0.00     0.010 A 
ATOM     79  C   UNL A   1      49.813  28.490  26.361  1.00  0.00     0.020 A 
ATOM     80  C   UNL A   1      50.057  27.527  28.579  1.00  0.00     0.020 A 
ATOM     81  C   UNL A   1      50.567  27.788  27.304  1.00  0.00     0.054 A 
BRANCH  81  82
ATOM     82  S   UNL A   1      52.251  27.269  26.871  1.00  0.00     0.124 S 
ATOM     83  O   UNL A   1      52.948  28.548  26.778  1.00  0.00    -0.237 OA
ATOM     84  O   UNL A   1      52.626  26.425  28.002  1.00  0.00    -0.237 OA
ATOM     85  O   UNL A   1      52.073  26.557  25.607  1.00  0.00    -0.744 OA
ENDBRANCH  81  82
ENDBRANCH  53  76
BRANCH  65  86
ATOM     86  C   UNL A   1      45.605  34.455  31.019  1.00  0.00    -0.014 A 
ATOM     87  C   UNL A   1      45.870  35.587  30.227  1.00  0.00     0.010 A 
ATOM     88  C   UNL A   1      45.982  34.459  32.373  1.00  0.00     0.010 A 
ATOM     89  C   UNL A   1      46.543  36.685  30.770  1.00  0.00     0.020 A 
ATOM     90  C   UNL A   1      46.633  35.566  32.926  1.00  0.00     0.020 A 
ATOM     91  C   UNL A   1      46.927  36.664  32.114  1.00  0.00     0.054 A 
BRANCH  91  92
ATOM     92  S   UNL A   1      47.787  38.104  32.804  1.00  0.00     0.124 S 
ATOM     93  O   UNL A   1      46.888  38.504  33.883  1.00  0.00    -0.237 OA
ATOM     94  O   UNL A   1      49.068  37.543  33.229  1.00  0.00    -0.237 OA
ATOM     95  O   UNL A   1      47.863  39.032  31.678  1.00  0.00    -0.744 OA
ENDBRANCH  91  92
ENDBRANCH  65  86
ENDBRANCH  39  40
ENDBRANCH  31  34
ENDBRANCH  29  30
ENDBRANCH  28  29
ENDBRANCH   1  28
TORSDOF 19
ENDMDL
