MODEL 1
REMARK VINA RESULT:      -8.6      0.000      0.000
REMARK SMILES C[C@@H](C(=O)NCCCCCCNC(=O)c1ccc(-c2c3nc(c(-c4ccc(S(=O)(=O)[O-])cc4)c4ccc([nH]4)c(-c4ccc(S(=O)(=O)[O-])cc4)c4nc(c(-c5ccc(S(=O)(=O)[O-])cc5)c5ccc2[nH]5)C=C4)C=C3)cc1)c1ccc2c(c1)[nH]c1ccc(Cl)cc12
REMARK SMILES IDX 9 1 8 2 7 3 6 4 5 5 3 6 4 7 2 9 1 10 75 11 76 12 80 13 77 14
REMARK SMILES IDX 79 15 78 16 81 17 88 18 82 19 87 21 83 22 85 23 84 24 86 25
REMARK SMILES IDX 10 26 11 27 12 28 13 29 14 31 15 32 16 33 74 34 17 35 73 36
REMARK SMILES IDX 18 37 19 38 20 39 67 40 21 41 72 42 66 43 68 44 22 45 71 46
REMARK SMILES IDX 65 47 64 48 23 50 53 51 34 52 52 53 35 54 38 55 51 56 69 57
REMARK SMILES IDX 36 58 37 59 50 61 70 62 39 63 24 64 25 65 33 66 26 67 32 68
REMARK SMILES IDX 27 69 28 70 29 71 30 72 31 73 54 74 55 75 63 76 56 77 62 78
REMARK SMILES IDX 57 79 58 80 59 81 60 82 61 83 40 84 41 85 49 86 42 87 48 88
REMARK SMILES IDX 43 89 44 90 45 91 46 92 47 93
REMARK H PARENT 5 8 81 20 12 30 68 49 38 60
REMARK Flexibility Score: inf
ROOT
ATOM      1  C   UNL A   1      35.847  33.035  31.994  1.00  0.00     0.002 C 
ENDROOT
BRANCH   1   2
ATOM      2  C   UNL A   1      35.455  33.379  33.434  1.00  0.00     0.002 C 
BRANCH   2   3
ATOM      3  C   UNL A   1      36.463  34.250  34.192  1.00  0.00     0.021 C 
BRANCH   3   4
ATOM      4  C   UNL A   1      37.879  33.672  34.242  1.00  0.00     0.116 C 
BRANCH   4   5
ATOM      5  N   UNL A   1      37.966  32.600  35.217  1.00  0.00    -0.356 N 
ATOM      6  C   UNL A   1      38.146  31.256  35.030  1.00  0.00     0.227 C 
ATOM      7  O   UNL A   1      38.042  30.530  36.020  1.00  0.00    -0.274 OA
ATOM      8  H   UNL A   1      37.885  32.883  36.157  1.00  0.00     0.163 HD
BRANCH   6   9
ATOM      9  C   UNL A   1      38.465  30.735  33.622  1.00  0.00     0.105 C 
ATOM     10  C   UNL A   1      37.226  30.149  32.944  1.00  0.00     0.023 C 
BRANCH   9  11
ATOM     11  C   UNL A   1      39.626  29.745  33.583  1.00  0.00    -0.034 A 
ATOM     12  C   UNL A   1      39.568  28.557  32.841  1.00  0.00     0.005 A 
ATOM     13  C   UNL A   1      40.790  30.049  34.308  1.00  0.00     0.031 A 
ATOM     14  C   UNL A   1      40.659  27.677  32.782  1.00  0.00     0.011 A 
ATOM     15  C   UNL A   1      41.849  29.138  34.275  1.00  0.00     0.047 A 
ATOM     16  C   UNL A   1      41.827  27.971  33.516  1.00  0.00     0.007 A 
ATOM     17  N   UNL A   1      43.049  29.169  34.941  1.00  0.00    -0.355 N 
ATOM     18  C   UNL A   1      43.084  27.312  33.715  1.00  0.00     0.009 A 
ATOM     19  C   UNL A   1      43.785  28.041  34.676  1.00  0.00     0.047 A 
ATOM     20  H   UNL A   1      43.342  29.903  35.529  1.00  0.00     0.167 HD
ATOM     21  C   UNL A   1      43.678  26.142  33.196  1.00  0.00     0.031 A 
ATOM     22  C   UNL A   1      45.006  27.622  35.215  1.00  0.00     0.028 A 
ATOM     23  C   UNL A   1      44.915  25.729  33.703  1.00  0.00     0.041 A 
ATOM     24  C   UNL A   1      45.557  26.441  34.715  1.00  0.00     0.022 A 
ATOM     25  Cl  UNL A   1      45.658  24.309  33.070  1.00  0.00    -0.084 Cl
ENDBRANCH   9  11
ENDBRANCH   6   9
ENDBRANCH   4   5
ENDBRANCH   3   4
ENDBRANCH   2   3
ENDBRANCH   1   2
BRANCH   1  26
ATOM     26  C   UNL A   1      34.681  32.664  31.073  1.00  0.00     0.021 C 
BRANCH  26  27
ATOM     27  C   UNL A   1      34.999  32.724  29.581  1.00  0.00     0.116 C 
BRANCH  27  28
ATOM     28  N   UNL A   1      34.181  31.804  28.805  1.00  0.00    -0.352 N 
ATOM     29  C   UNL A   1      34.539  30.649  28.151  1.00  0.00     0.251 C 
ATOM     30  H   UNL A   1      33.229  32.045  28.739  1.00  0.00     0.163 HD
ATOM     31  O   UNL A   1      33.749  30.108  27.387  1.00  0.00    -0.269 OA
BRANCH  29  32
ATOM     32  C   UNL A   1      35.890  30.077  28.350  1.00  0.00     0.039 A 
ATOM     33  C   UNL A   1      36.823  30.178  27.316  1.00  0.00     0.014 A 
ATOM     34  C   UNL A   1      36.240  29.456  29.552  1.00  0.00     0.014 A 
ATOM     35  C   UNL A   1      38.133  29.738  27.521  1.00  0.00     0.010 A 
ATOM     36  C   UNL A   1      37.561  29.076  29.777  1.00  0.00     0.010 A 
ATOM     37  C   UNL A   1      38.527  29.232  28.772  1.00  0.00    -0.014 A 
BRANCH  37  38
ATOM     38  C   UNL A   1      39.955  28.938  29.065  1.00  0.00     0.031 A 
ATOM     39  C   UNL A   1      40.568  27.622  28.671  1.00  0.00     0.074 A 
ATOM     40  C   UNL A   1      40.677  29.838  29.767  1.00  0.00     0.049 A 
ATOM     41  N   UNL A   1      41.774  27.175  28.912  1.00  0.00    -0.248 NA
ATOM     42  C   UNL A   1      39.717  26.680  27.927  1.00  0.00     0.031 C 
ATOM     43  C   UNL A   1      40.181  31.131  30.249  1.00  0.00     0.029 A 
ATOM     44  N   UNL A   1      41.975  29.797  30.215  1.00  0.00    -0.354 N 
ATOM     45  C   UNL A   1      41.822  25.896  28.370  1.00  0.00     0.074 A 
ATOM     46  C   UNL A   1      40.516  25.627  27.810  1.00  0.00     0.031 C 
ATOM     47  C   UNL A   1      41.165  31.764  30.908  1.00  0.00     0.029 A 
ATOM     48  C   UNL A   1      42.343  30.905  30.944  1.00  0.00     0.049 A 
ATOM     49  H   UNL A   1      42.585  29.047  30.031  1.00  0.00     0.167 HD
ATOM     50  C   UNL A   1      42.864  25.032  28.336  1.00  0.00     0.031 A 
ATOM     51  C   UNL A   1      43.490  31.192  31.592  1.00  0.00     0.031 A 
ATOM     52  C   UNL A   1      44.167  25.313  28.880  1.00  0.00     0.049 A 
ATOM     53  C   UNL A   1      44.621  30.198  31.554  1.00  0.00     0.074 A 
ATOM     54  C   UNL A   1      45.308  24.532  28.812  1.00  0.00     0.029 A 
ATOM     55  N   UNL A   1      44.502  26.447  29.601  1.00  0.00    -0.354 N 
ATOM     56  N   UNL A   1      44.678  29.042  30.939  1.00  0.00    -0.248 NA
ATOM     57  C   UNL A   1      45.841  30.549  32.294  1.00  0.00     0.031 C 
ATOM     58  C   UNL A   1      46.312  25.158  29.556  1.00  0.00     0.029 A 
ATOM     59  C   UNL A   1      45.817  26.362  30.028  1.00  0.00     0.049 A 
ATOM     60  H   UNL A   1      43.896  27.201  29.782  1.00  0.00     0.167 HD
ATOM     61  C   UNL A   1      45.946  28.536  31.206  1.00  0.00     0.074 A 
ATOM     62  C   UNL A   1      46.633  29.525  32.009  1.00  0.00     0.031 C 
ATOM     63  C   UNL A   1      46.489  27.354  30.828  1.00  0.00     0.031 A 
BRANCH  50  64
ATOM     64  C   UNL A   1      42.655  23.683  27.698  1.00  0.00    -0.014 A 
ATOM     65  C   UNL A   1      43.187  23.387  26.431  1.00  0.00     0.010 A 
ATOM     66  C   UNL A   1      42.024  22.662  28.432  1.00  0.00     0.010 A 
ATOM     67  C   UNL A   1      43.084  22.094  25.908  1.00  0.00     0.020 A 
ATOM     68  C   UNL A   1      41.942  21.363  27.924  1.00  0.00     0.020 A 
ATOM     69  C   UNL A   1      42.470  21.089  26.661  1.00  0.00     0.054 A 
BRANCH  69  70
ATOM     70  S   UNL A   1      42.426  19.403  25.990  1.00  0.00     0.124 S 
ATOM     71  O   UNL A   1      40.995  19.197  25.785  1.00  0.00    -0.237 OA
ATOM     72  O   UNL A   1      43.224  19.526  24.771  1.00  0.00    -0.237 OA
ATOM     73  O   UNL A   1      43.026  18.592  27.046  1.00  0.00    -0.744 OA
ENDBRANCH  69  70
ENDBRANCH  50  64
BRANCH  51  74
ATOM     74  C   UNL A   1      43.619  32.454  32.375  1.00  0.00    -0.014 A 
ATOM     75  C   UNL A   1      44.072  33.638  31.766  1.00  0.00     0.010 A 
ATOM     76  C   UNL A   1      43.325  32.465  33.751  1.00  0.00     0.010 A 
ATOM     77  C   UNL A   1      44.269  34.796  32.526  1.00  0.00     0.020 A 
ATOM     78  C   UNL A   1      43.487  33.629  34.507  1.00  0.00     0.020 A 
ATOM     79  C   UNL A   1      43.978  34.781  33.894  1.00  0.00     0.054 A 
BRANCH  79  80
ATOM     80  S   UNL A   1      44.236  36.293  34.862  1.00  0.00     0.124 S 
ATOM     81  O   UNL A   1      44.706  37.227  33.845  1.00  0.00    -0.237 OA
ATOM     82  O   UNL A   1      42.903  36.557  35.397  1.00  0.00    -0.237 OA
ATOM     83  O   UNL A   1      45.230  35.896  35.856  1.00  0.00    -0.744 OA
ENDBRANCH  79  80
ENDBRANCH  51  74
BRANCH  63  84
ATOM     84  C   UNL A   1      47.901  27.064  31.266  1.00  0.00    -0.014 A 
ATOM     85  C   UNL A   1      48.161  26.397  32.476  1.00  0.00     0.010 A 
ATOM     86  C   UNL A   1      48.977  27.408  30.429  1.00  0.00     0.010 A 
ATOM     87  C   UNL A   1      49.473  26.101  32.853  1.00  0.00     0.020 A 
ATOM     88  C   UNL A   1      50.289  27.084  30.786  1.00  0.00     0.020 A 
ATOM     89  C   UNL A   1      50.529  26.442  32.003  1.00  0.00     0.054 A 
BRANCH  89  90
ATOM     90  S   UNL A   1      52.217  25.993  32.489  1.00  0.00     0.124 S 
ATOM     91  O   UNL A   1      51.979  24.959  33.493  1.00  0.00    -0.237 OA
ATOM     92  O   UNL A   1      52.798  25.527  31.233  1.00  0.00    -0.237 OA
ATOM     93  O   UNL A   1      52.775  27.242  33.002  1.00  0.00    -0.744 OA
ENDBRANCH  89  90
ENDBRANCH  63  84
ENDBRANCH  37  38
ENDBRANCH  29  32
ENDBRANCH  27  28
ENDBRANCH  26  27
ENDBRANCH   1  26
TORSDOF 17
ENDMDL
MODEL 2
REMARK VINA RESULT:      -8.4      5.670     12.461
REMARK SMILES C[C@@H](C(=O)NCCCCCCNC(=O)c1ccc(-c2c3nc(c(-c4ccc(S(=O)(=O)[O-])cc4)c4ccc([nH]4)c(-c4ccc(S(=O)(=O)[O-])cc4)c4nc(c(-c5ccc(S(=O)(=O)[O-])cc5)c5ccc2[nH]5)C=C4)C=C3)cc1)c1ccc2c(c1)[nH]c1ccc(Cl)cc12
REMARK SMILES IDX 9 1 8 2 7 3 6 4 5 5 3 6 4 7 2 9 1 10 75 11 76 12 80 13 77 14
REMARK SMILES IDX 79 15 78 16 81 17 88 18 82 19 87 21 83 22 85 23 84 24 86 25
REMARK SMILES IDX 10 26 11 27 12 28 13 29 14 31 15 32 16 33 74 34 17 35 73 36
REMARK SMILES IDX 18 37 19 38 20 39 67 40 21 41 72 42 66 43 68 44 22 45 71 46
REMARK SMILES IDX 65 47 64 48 23 50 53 51 34 52 52 53 35 54 38 55 51 56 69 57
REMARK SMILES IDX 36 58 37 59 50 61 70 62 39 63 24 64 25 65 33 66 26 67 32 68
REMARK SMILES IDX 27 69 28 70 29 71 30 72 31 73 54 74 55 75 63 76 56 77 62 78
REMARK SMILES IDX 57 79 58 80 59 81 60 82 61 83 40 84 41 85 49 86 42 87 48 88
REMARK SMILES IDX 43 89 44 90 45 91 46 92 47 93
REMARK H PARENT 5 8 81 20 12 30 68 49 38 60
REMARK Flexibility Score: inf
ROOT
ATOM      1  C   UNL A   1      38.329  22.026  25.759  1.00  0.00     0.002 C 
ENDROOT
BRANCH   1   2
ATOM      2  C   UNL A   1      37.680  23.397  25.977  1.00  0.00     0.002 C 
BRANCH   2   3
ATOM      3  C   UNL A   1      36.352  23.612  25.242  1.00  0.00     0.021 C 
BRANCH   3   4
ATOM      4  C   UNL A   1      35.427  22.393  25.250  1.00  0.00     0.116 C 
BRANCH   4   5
ATOM      5  N   UNL A   1      34.661  22.317  24.019  1.00  0.00    -0.356 N 
ATOM      6  C   UNL A   1      33.366  22.679  23.768  1.00  0.00     0.227 C 
ATOM      7  O   UNL A   1      32.899  22.381  22.667  1.00  0.00    -0.274 OA
ATOM      8  H   UNL A   1      35.149  21.951  23.246  1.00  0.00     0.163 HD
BRANCH   6   9
ATOM      9  C   UNL A   1      32.576  23.426  24.851  1.00  0.00     0.105 C 
ATOM     10  C   UNL A   1      31.554  22.516  25.532  1.00  0.00     0.023 C 
BRANCH   9  11
ATOM     11  C   UNL A   1      31.916  24.709  24.354  1.00  0.00    -0.034 A 
ATOM     12  C   UNL A   1      32.662  25.789  23.861  1.00  0.00     0.005 A 
ATOM     13  C   UNL A   1      30.514  24.796  24.384  1.00  0.00     0.031 A 
ATOM     14  C   UNL A   1      32.037  26.945  23.368  1.00  0.00     0.011 A 
ATOM     15  C   UNL A   1      29.912  25.974  23.933  1.00  0.00     0.047 A 
ATOM     16  C   UNL A   1      30.631  27.043  23.406  1.00  0.00     0.007 A 
ATOM     17  N   UNL A   1      28.586  26.328  23.923  1.00  0.00    -0.355 N 
ATOM     18  C   UNL A   1      29.682  28.050  23.035  1.00  0.00     0.009 A 
ATOM     19  C   UNL A   1      28.425  27.608  23.451  1.00  0.00     0.047 A 
ATOM     20  H   UNL A   1      27.850  25.743  24.215  1.00  0.00     0.167 HD
ATOM     21  C   UNL A   1      29.775  29.315  22.416  1.00  0.00     0.031 A 
ATOM     22  C   UNL A   1      27.270  28.392  23.367  1.00  0.00     0.028 A 
ATOM     23  C   UNL A   1      28.621  30.096  22.296  1.00  0.00     0.041 A 
ATOM     24  C   UNL A   1      27.393  29.655  22.788  1.00  0.00     0.022 A 
ATOM     25  Cl  UNL A   1      28.717  31.638  21.530  1.00  0.00    -0.084 Cl
ENDBRANCH   9  11
ENDBRANCH   6   9
ENDBRANCH   4   5
ENDBRANCH   3   4
ENDBRANCH   2   3
ENDBRANCH   1   2
BRANCH   1  26
ATOM     26  C   UNL A   1      39.696  21.840  26.423  1.00  0.00     0.021 C 
BRANCH  26  27
ATOM     27  C   UNL A   1      40.305  23.114  27.003  1.00  0.00     0.116 C 
BRANCH  27  28
ATOM     28  N   UNL A   1      40.998  23.903  25.996  1.00  0.00    -0.352 N 
ATOM     29  C   UNL A   1      41.407  25.215  26.037  1.00  0.00     0.251 C 
ATOM     30  H   UNL A   1      41.204  23.426  25.160  1.00  0.00     0.163 HD
ATOM     31  O   UNL A   1      41.804  25.765  25.017  1.00  0.00    -0.269 OA
BRANCH  29  32
ATOM     32  C   UNL A   1      41.339  25.969  27.310  1.00  0.00     0.039 A 
ATOM     33  C   UNL A   1      42.457  26.702  27.717  1.00  0.00     0.014 A 
ATOM     34  C   UNL A   1      40.181  25.963  28.090  1.00  0.00     0.014 A 
ATOM     35  C   UNL A   1      42.379  27.501  28.860  1.00  0.00     0.010 A 
ATOM     36  C   UNL A   1      40.084  26.809  29.194  1.00  0.00     0.010 A 
ATOM     37  C   UNL A   1      41.174  27.604  29.578  1.00  0.00    -0.014 A 
BRANCH  37  38
ATOM     38  C   UNL A   1      41.019  28.591  30.679  1.00  0.00     0.031 A 
ATOM     39  C   UNL A   1      41.841  28.482  31.934  1.00  0.00     0.074 A 
ATOM     40  C   UNL A   1      40.068  29.543  30.573  1.00  0.00     0.049 A 
ATOM     41  N   UNL A   1      41.782  29.213  33.018  1.00  0.00    -0.248 NA
ATOM     42  C   UNL A   1      42.843  27.407  31.990  1.00  0.00     0.031 C 
ATOM     43  C   UNL A   1      39.173  29.724  29.426  1.00  0.00     0.029 A 
ATOM     44  N   UNL A   1      39.680  30.529  31.449  1.00  0.00    -0.354 N 
ATOM     45  C   UNL A   1      42.722  28.677  33.891  1.00  0.00     0.074 A 
ATOM     46  C   UNL A   1      43.320  27.542  33.222  1.00  0.00     0.031 C 
ATOM     47  C   UNL A   1      38.355  30.762  29.662  1.00  0.00     0.029 A 
ATOM     48  C   UNL A   1      38.628  31.290  30.994  1.00  0.00     0.049 A 
ATOM     49  H   UNL A   1      40.114  30.676  32.320  1.00  0.00     0.167 HD
ATOM     50  C   UNL A   1      43.059  29.100  35.132  1.00  0.00     0.031 A 
ATOM     51  C   UNL A   1      37.939  32.286  31.587  1.00  0.00     0.031 A 
ATOM     52  C   UNL A   1      42.473  30.241  35.786  1.00  0.00     0.049 A 
ATOM     53  C   UNL A   1      38.325  32.716  32.977  1.00  0.00     0.074 A 
ATOM     54  C   UNL A   1      42.817  30.796  37.007  1.00  0.00     0.029 A 
ATOM     55  N   UNL A   1      41.420  30.990  35.289  1.00  0.00    -0.354 N 
ATOM     56  N   UNL A   1      39.292  32.264  33.738  1.00  0.00    -0.248 NA
ATOM     57  C   UNL A   1      37.530  33.791  33.587  1.00  0.00     0.031 C 
ATOM     58  C   UNL A   1      41.922  31.834  37.283  1.00  0.00     0.029 A 
ATOM     59  C   UNL A   1      41.066  31.969  36.203  1.00  0.00     0.049 A 
ATOM     60  H   UNL A   1      40.987  30.848  34.417  1.00  0.00     0.167 HD
ATOM     61  C   UNL A   1      39.231  33.013  34.909  1.00  0.00     0.074 A 
ATOM     62  C   UNL A   1      38.154  33.965  34.743  1.00  0.00     0.031 C 
ATOM     63  C   UNL A   1      39.991  32.912  36.026  1.00  0.00     0.031 A 
BRANCH  50  64
ATOM     64  C   UNL A   1      44.109  28.330  35.891  1.00  0.00    -0.014 A 
ATOM     65  C   UNL A   1      45.477  28.600  35.718  1.00  0.00     0.010 A 
ATOM     66  C   UNL A   1      43.711  27.410  36.879  1.00  0.00     0.010 A 
ATOM     67  C   UNL A   1      46.430  27.958  36.516  1.00  0.00     0.020 A 
ATOM     68  C   UNL A   1      44.658  26.786  37.696  1.00  0.00     0.020 A 
ATOM     69  C   UNL A   1      46.013  27.062  37.505  1.00  0.00     0.054 A 
BRANCH  69  70
ATOM     70  S   UNL A   1      47.266  26.309  38.580  1.00  0.00     0.124 S 
ATOM     71  O   UNL A   1      48.471  27.042  38.197  1.00  0.00    -0.237 OA
ATOM     72  O   UNL A   1      46.754  26.597  39.917  1.00  0.00    -0.237 OA
ATOM     73  O   UNL A   1      47.251  24.899  38.199  1.00  0.00    -0.744 OA
ENDBRANCH  69  70
ENDBRANCH  50  64
BRANCH  51  74
ATOM     74  C   UNL A   1      36.781  32.919  30.894  1.00  0.00    -0.014 A 
ATOM     75  C   UNL A   1      36.979  33.886  29.893  1.00  0.00     0.010 A 
ATOM     76  C   UNL A   1      35.465  32.583  31.265  1.00  0.00     0.010 A 
ATOM     77  C   UNL A   1      35.888  34.535  29.306  1.00  0.00     0.020 A 
ATOM     78  C   UNL A   1      34.371  33.204  30.657  1.00  0.00     0.020 A 
ATOM     79  C   UNL A   1      34.590  34.192  29.697  1.00  0.00     0.054 A 
BRANCH  79  80
ATOM     80  S   UNL A   1      33.186  35.041  28.923  1.00  0.00     0.124 S 
ATOM     81  O   UNL A   1      32.343  35.341  30.075  1.00  0.00    -0.237 OA
ATOM     82  O   UNL A   1      33.824  36.192  28.288  1.00  0.00    -0.237 OA
ATOM     83  O   UNL A   1      32.654  34.045  27.997  1.00  0.00    -0.744 OA
ENDBRANCH  79  80
ENDBRANCH  51  74
BRANCH  63  84
ATOM     84  C   UNL A   1      39.697  33.863  37.156  1.00  0.00    -0.014 A 
ATOM     85  C   UNL A   1      38.769  33.531  38.159  1.00  0.00     0.010 A 
ATOM     86  C   UNL A   1      40.403  35.076  37.250  1.00  0.00     0.010 A 
ATOM     87  C   UNL A   1      38.534  34.406  39.223  1.00  0.00     0.020 A 
ATOM     88  C   UNL A   1      40.195  35.939  38.329  1.00  0.00     0.020 A 
ATOM     89  C   UNL A   1      39.252  35.603  39.304  1.00  0.00     0.054 A 
BRANCH  89  90
ATOM     90  S   UNL A   1      38.969  36.692  40.726  1.00  0.00     0.124 S 
ATOM     91  O   UNL A   1      38.321  37.843  40.103  1.00  0.00    -0.237 OA
ATOM     92  O   UNL A   1      38.112  35.879  41.584  1.00  0.00    -0.237 OA
ATOM     93  O   UNL A   1      40.311  36.939  41.247  1.00  0.00    -0.744 OA
ENDBRANCH  89  90
ENDBRANCH  63  84
ENDBRANCH  37  38
ENDBRANCH  29  32
ENDBRANCH  27  28
ENDBRANCH  26  27
ENDBRANCH   1  26
TORSDOF 17
ENDMDL
MODEL 3
REMARK VINA RESULT:      -8.2      4.111     10.320
REMARK SMILES C[C@@H](C(=O)NCCCCCCNC(=O)c1ccc(-c2c3nc(c(-c4ccc(S(=O)(=O)[O-])cc4)c4ccc([nH]4)c(-c4ccc(S(=O)(=O)[O-])cc4)c4nc(c(-c5ccc(S(=O)(=O)[O-])cc5)c5ccc2[nH]5)C=C4)C=C3)cc1)c1ccc2c(c1)[nH]c1ccc(Cl)cc12
REMARK SMILES IDX 9 1 8 2 7 3 6 4 5 5 3 6 4 7 2 9 1 10 75 11 76 12 80 13 77 14
REMARK SMILES IDX 79 15 78 16 81 17 88 18 82 19 87 21 83 22 85 23 84 24 86 25
REMARK SMILES IDX 10 26 11 27 12 28 13 29 14 31 15 32 16 33 74 34 17 35 73 36
REMARK SMILES IDX 18 37 19 38 20 39 67 40 21 41 72 42 66 43 68 44 22 45 71 46
REMARK SMILES IDX 65 47 64 48 23 50 53 51 34 52 52 53 35 54 38 55 51 56 69 57
REMARK SMILES IDX 36 58 37 59 50 61 70 62 39 63 24 64 25 65 33 66 26 67 32 68
REMARK SMILES IDX 27 69 28 70 29 71 30 72 31 73 54 74 55 75 63 76 56 77 62 78
REMARK SMILES IDX 57 79 58 80 59 81 60 82 61 83 40 84 41 85 49 86 42 87 48 88
REMARK SMILES IDX 43 89 44 90 45 91 46 92 47 93
REMARK H PARENT 5 8 81 20 12 30 68 49 38 60
REMARK Flexibility Score: inf
ROOT
ATOM      1  C   UNL A   1      32.656  26.560  26.041  1.00  0.00     0.002 C 
ENDROOT
BRANCH   1   2
ATOM      2  C   UNL A   1      31.203  26.190  26.351  1.00  0.00     0.002 C 
BRANCH   2   3
ATOM      3  C   UNL A   1      30.286  26.076  25.127  1.00  0.00     0.021 C 
BRANCH   3   4
ATOM      4  C   UNL A   1      30.581  24.870  24.233  1.00  0.00     0.116 C 
BRANCH   4   5
ATOM      5  N   UNL A   1      30.630  23.647  25.015  1.00  0.00    -0.356 N 
ATOM      6  C   UNL A   1      31.375  22.515  24.826  1.00  0.00     0.227 C 
ATOM      7  O   UNL A   1      31.130  21.550  25.553  1.00  0.00    -0.274 OA
ATOM      8  H   UNL A   1      30.038  23.630  25.801  1.00  0.00     0.163 HD
BRANCH   6   9
ATOM      9  C   UNL A   1      32.459  22.507  23.740  1.00  0.00     0.105 C 
ATOM     10  C   UNL A   1      32.142  21.500  22.634  1.00  0.00     0.023 C 
BRANCH   9  11
ATOM     11  C   UNL A   1      33.869  22.292  24.282  1.00  0.00    -0.034 A 
ATOM     12  C   UNL A   1      34.419  21.012  24.443  1.00  0.00     0.005 A 
ATOM     13  C   UNL A   1      34.638  23.419  24.616  1.00  0.00     0.031 A 
ATOM     14  C   UNL A   1      35.732  20.833  24.904  1.00  0.00     0.011 A 
ATOM     15  C   UNL A   1      35.927  23.220  25.117  1.00  0.00     0.047 A 
ATOM     16  C   UNL A   1      36.505  21.960  25.251  1.00  0.00     0.007 A 
ATOM     17  N   UNL A   1      36.839  24.138  25.573  1.00  0.00    -0.355 N 
ATOM     18  C   UNL A   1      37.827  22.154  25.770  1.00  0.00     0.009 A 
ATOM     19  C   UNL A   1      37.969  23.515  26.041  1.00  0.00     0.047 A 
ATOM     20  H   UNL A   1      36.700  25.113  25.566  1.00  0.00     0.167 HD
ATOM     21  C   UNL A   1      38.905  21.295  26.070  1.00  0.00     0.031 A 
ATOM     22  C   UNL A   1      39.091  24.056  26.677  1.00  0.00     0.028 A 
ATOM     23  C   UNL A   1      40.047  21.829  26.677  1.00  0.00     0.041 A 
ATOM     24  C   UNL A   1      40.130  23.182  27.001  1.00  0.00     0.022 A 
ATOM     25  Cl  UNL A   1      41.377  20.793  27.038  1.00  0.00    -0.084 Cl
ENDBRANCH   9  11
ENDBRANCH   6   9
ENDBRANCH   4   5
ENDBRANCH   3   4
ENDBRANCH   2   3
ENDBRANCH   1   2
BRANCH   1  26
ATOM     26  C   UNL A   1      33.214  27.738  26.846  1.00  0.00     0.021 C 
BRANCH  26  27
ATOM     27  C   UNL A   1      34.135  28.670  26.062  1.00  0.00     0.116 C 
BRANCH  27  28
ATOM     28  N   UNL A   1      33.970  30.063  26.450  1.00  0.00    -0.352 N 
ATOM     29  C   UNL A   1      34.643  30.796  27.399  1.00  0.00     0.251 C 
ATOM     30  H   UNL A   1      33.271  30.553  25.960  1.00  0.00     0.163 HD
ATOM     31  O   UNL A   1      34.234  31.904  27.720  1.00  0.00    -0.269 OA
BRANCH  29  32
ATOM     32  C   UNL A   1      35.847  30.231  28.049  1.00  0.00     0.039 A 
ATOM     33  C   UNL A   1      37.072  30.307  27.381  1.00  0.00     0.014 A 
ATOM     34  C   UNL A   1      35.773  29.640  29.313  1.00  0.00     0.014 A 
ATOM     35  C   UNL A   1      38.236  29.873  28.020  1.00  0.00     0.010 A 
ATOM     36  C   UNL A   1      36.943  29.267  29.974  1.00  0.00     0.010 A 
ATOM     37  C   UNL A   1      38.188  29.400  29.342  1.00  0.00    -0.014 A 
BRANCH  37  38
ATOM     38  C   UNL A   1      39.435  29.115  30.100  1.00  0.00     0.031 A 
ATOM     39  C   UNL A   1      39.778  29.892  31.343  1.00  0.00     0.074 A 
ATOM     40  C   UNL A   1      40.302  28.202  29.614  1.00  0.00     0.049 A 
ATOM     41  N   UNL A   1      40.855  29.822  32.082  1.00  0.00    -0.248 NA
ATOM     42  C   UNL A   1      38.797  30.887  31.805  1.00  0.00     0.031 C 
ATOM     43  C   UNL A   1      40.107  27.415  28.391  1.00  0.00     0.029 A 
ATOM     44  N   UNL A   1      41.530  27.791  30.074  1.00  0.00    -0.354 N 
ATOM     45  C   UNL A   1      40.693  30.772  33.083  1.00  0.00     0.074 A 
ATOM     46  C   UNL A   1      39.425  31.426  32.842  1.00  0.00     0.031 C 
ATOM     47  C   UNL A   1      41.166  26.610  28.209  1.00  0.00     0.029 A 
ATOM     48  C   UNL A   1      42.139  26.857  29.267  1.00  0.00     0.049 A 
ATOM     49  H   UNL A   1      41.936  28.133  30.903  1.00  0.00     0.167 HD
ATOM     50  C   UNL A   1      41.523  31.065  34.112  1.00  0.00     0.031 A 
ATOM     51  C   UNL A   1      43.355  26.279  29.350  1.00  0.00     0.031 A 
ATOM     52  C   UNL A   1      42.775  30.398  34.358  1.00  0.00     0.049 A 
ATOM     53  C   UNL A   1      44.262  26.644  30.495  1.00  0.00     0.074 A 
ATOM     54  C   UNL A   1      43.639  30.567  35.426  1.00  0.00     0.029 A 
ATOM     55  N   UNL A   1      43.351  29.453  33.525  1.00  0.00    -0.354 N 
ATOM     56  N   UNL A   1      44.038  27.467  31.491  1.00  0.00    -0.248 NA
ATOM     57  C   UNL A   1      45.583  26.001  30.529  1.00  0.00     0.031 C 
ATOM     58  C   UNL A   1      44.772  29.780  35.202  1.00  0.00     0.029 A 
ATOM     59  C   UNL A   1      44.583  29.069  34.029  1.00  0.00     0.049 A 
ATOM     60  H   UNL A   1      42.945  29.106  32.698  1.00  0.00     0.167 HD
ATOM     61  C   UNL A   1      45.185  27.426  32.277  1.00  0.00     0.074 A 
ATOM     62  C   UNL A   1      46.085  26.476  31.660  1.00  0.00     0.031 C 
ATOM     63  C   UNL A   1      45.470  28.122  33.404  1.00  0.00     0.031 A 
BRANCH  50  64
ATOM     64  C   UNL A   1      41.124  32.163  35.064  1.00  0.00    -0.014 A 
ATOM     65  C   UNL A   1      40.377  31.887  36.222  1.00  0.00     0.010 A 
ATOM     66  C   UNL A   1      41.611  33.467  34.857  1.00  0.00     0.010 A 
ATOM     67  C   UNL A   1      40.118  32.898  37.153  1.00  0.00     0.020 A 
ATOM     68  C   UNL A   1      41.377  34.474  35.797  1.00  0.00     0.020 A 
ATOM     69  C   UNL A   1      40.627  34.183  36.938  1.00  0.00     0.054 A 
BRANCH  69  70
ATOM     70  S   UNL A   1      40.345  35.452  38.204  1.00  0.00     0.124 S 
ATOM     71  O   UNL A   1      39.346  34.811  39.056  1.00  0.00    -0.237 OA
ATOM     72  O   UNL A   1      41.670  35.607  38.800  1.00  0.00    -0.237 OA
ATOM     73  O   UNL A   1      39.867  36.603  37.444  1.00  0.00    -0.744 OA
ENDBRANCH  69  70
ENDBRANCH  50  64
BRANCH  51  74
ATOM     74  C   UNL A   1      43.811  25.327  28.298  1.00  0.00    -0.014 A 
ATOM     75  C   UNL A   1      44.393  25.792  27.106  1.00  0.00     0.010 A 
ATOM     76  C   UNL A   1      43.626  23.942  28.470  1.00  0.00     0.010 A 
ATOM     77  C   UNL A   1      44.742  24.897  26.089  1.00  0.00     0.020 A 
ATOM     78  C   UNL A   1      44.006  23.041  27.472  1.00  0.00     0.020 A 
ATOM     79  C   UNL A   1      44.541  23.526  26.279  1.00  0.00     0.054 A 
BRANCH  79  80
ATOM     80  S   UNL A   1      45.003  22.380  24.952  1.00  0.00     0.124 S 
ATOM     81  O   UNL A   1      45.375  23.294  23.878  1.00  0.00    -0.237 OA
ATOM     82  O   UNL A   1      46.102  21.628  25.552  1.00  0.00    -0.237 OA
ATOM     83  O   UNL A   1      43.783  21.609  24.726  1.00  0.00    -0.744 OA
ENDBRANCH  79  80
ENDBRANCH  51  74
BRANCH  63  84
ATOM     84  C   UNL A   1      46.806  27.877  34.054  1.00  0.00    -0.014 A 
ATOM     85  C   UNL A   1      46.973  26.851  35.002  1.00  0.00     0.010 A 
ATOM     86  C   UNL A   1      47.923  28.641  33.669  1.00  0.00     0.010 A 
ATOM     87  C   UNL A   1      48.227  26.610  35.569  1.00  0.00     0.020 A 
ATOM     88  C   UNL A   1      49.185  28.382  34.209  1.00  0.00     0.020 A 
ATOM     89  C   UNL A   1      49.326  27.374  35.165  1.00  0.00     0.054 A 
BRANCH  89  90
ATOM     90  S   UNL A   1      50.952  27.000  35.875  1.00  0.00     0.124 S 
ATOM     91  O   UNL A   1      51.789  26.899  34.682  1.00  0.00    -0.237 OA
ATOM     92  O   UNL A   1      51.206  28.162  36.723  1.00  0.00    -0.237 OA
ATOM     93  O   UNL A   1      50.739  25.746  36.592  1.00  0.00    -0.744 OA
ENDBRANCH  89  90
ENDBRANCH  63  84
ENDBRANCH  37  38
ENDBRANCH  29  32
ENDBRANCH  27  28
ENDBRANCH  26  27
ENDBRANCH   1  26
TORSDOF 17
ENDMDL
