MODEL 1
REMARK VINA RESULT:      -9.8      0.000      0.000
REMARK SMILES CC1C[NH+]([C@@H](C(=O)NCCCCCCNC(=O)c2ccc(-c3c4nc(c(-c5ccc(S(=O)(=O)[O-])cc5)c5ccc([nH]5)c(-c5ccc(S(=O)(=O)[O-])cc5)c5nc(c(-c6ccc(S(=O)(=O)[O-])cc6)c6ccc3[nH]6)C=C5)C=C4)cc2)C2CCCCC2)C1
REMARK SMILES IDX 12 1 11 2 10 3 9 4 8 5 6 6 7 7 5 9 4 10 1 11 2 12 3 13 84 14
REMARK SMILES IDX 78 16 79 17 83 18 80 19 82 20 81 21 13 22 14 23 15 24 16 25
REMARK SMILES IDX 17 27 18 28 19 29 77 30 20 31 76 32 21 33 22 34 23 35 70 36
REMARK SMILES IDX 24 37 75 38 69 39 71 40 25 41 74 42 68 43 67 44 26 46 56 47
REMARK SMILES IDX 37 48 55 49 38 50 41 51 54 52 72 53 39 54 40 55 53 57 73 58
REMARK SMILES IDX 42 59 27 60 28 61 36 62 29 63 35 64 30 65 31 66 32 67 33 68
REMARK SMILES IDX 34 69 57 70 58 71 66 72 59 73 65 74 60 75 61 76 62 77 63 78
REMARK SMILES IDX 64 79 43 80 44 81 52 82 45 83 51 84 46 85 47 86 48 87 49 88
REMARK SMILES IDX 50 89
REMARK H PARENT 8 8 4 15 15 26 71 45 41 56
REMARK Flexibility Score: inf
ROOT
ATOM      1  C   UNL A   1      32.306  26.940  26.237  1.00  0.00     0.002 C 
ENDROOT
BRANCH   1   2
ATOM      2  C   UNL A   1      33.294  25.793  26.028  1.00  0.00     0.002 C 
BRANCH   2   3
ATOM      3  C   UNL A   1      33.875  25.704  24.613  1.00  0.00     0.021 C 
BRANCH   3   4
ATOM      4  C   UNL A   1      33.661  24.362  23.900  1.00  0.00     0.116 C 
BRANCH   4   5
ATOM      5  N   UNL A   1      34.820  23.962  23.120  1.00  0.00    -0.351 N 
ATOM      6  C   UNL A   1      35.745  22.966  23.262  1.00  0.00     0.278 C 
ATOM      7  O   UNL A   1      36.649  22.966  22.419  1.00  0.00    -0.268 OA
ATOM      8  H   UNL A   1      34.970  24.523  22.325  1.00  0.00     0.163 HD
BRANCH   6   9
ATOM      9  C   UNL A   1      35.661  21.893  24.385  1.00  0.00     0.277 C 
BRANCH   9  10
ATOM     10  N   UNL A   1      34.329  21.677  25.024  1.00  0.00    -0.324 N 
ATOM     11  C   UNL A   1      32.753  18.659  25.650  1.00  0.00     0.020 C 
ATOM     12  C   UNL A   1      33.810  19.623  25.156  1.00  0.00     0.096 C 
ATOM     13  C   UNL A   1      33.388  20.811  24.277  1.00  0.00     0.271 C 
ATOM     14  C   UNL A   1      34.318  20.713  26.133  1.00  0.00     0.271 C 
ATOM     15  H   UNL A   1      34.106  22.660  25.183  1.00  0.00     0.348 HD
ENDBRANCH   9  10
BRANCH   9  16
ATOM     16  C   UNL A   1      36.728  22.192  25.513  1.00  0.00     0.057 C 
ATOM     17  C   UNL A   1      38.108  21.533  25.274  1.00  0.00     0.010 C 
ATOM     18  C   UNL A   1      36.897  23.718  25.716  1.00  0.00     0.010 C 
ATOM     19  C   UNL A   1      39.144  21.900  26.328  1.00  0.00     0.001 C 
ATOM     20  C   UNL A   1      37.988  24.078  26.726  1.00  0.00     0.001 C 
ATOM     21  C   UNL A   1      39.316  23.410  26.394  1.00  0.00     0.000 C 
ENDBRANCH   9  16
ENDBRANCH   6   9
ENDBRANCH   4   5
ENDBRANCH   3   4
ENDBRANCH   2   3
ENDBRANCH   1   2
BRANCH   1  22
ATOM     22  C   UNL A   1      32.849  28.129  27.036  1.00  0.00     0.021 C 
BRANCH  22  23
ATOM     23  C   UNL A   1      33.871  28.992  26.299  1.00  0.00     0.116 C 
BRANCH  23  24
ATOM     24  N   UNL A   1      33.687  30.406  26.578  1.00  0.00    -0.352 N 
ATOM     25  C   UNL A   1      34.347  31.194  27.490  1.00  0.00     0.251 C 
ATOM     26  H   UNL A   1      32.998  30.861  26.042  1.00  0.00     0.163 HD
ATOM     27  O   UNL A   1      33.916  32.306  27.773  1.00  0.00    -0.269 OA
BRANCH  25  28
ATOM     28  C   UNL A   1      35.573  30.682  28.140  1.00  0.00     0.039 A 
ATOM     29  C   UNL A   1      36.815  31.177  27.736  1.00  0.00     0.014 A 
ATOM     30  C   UNL A   1      35.494  29.712  29.144  1.00  0.00     0.014 A 
ATOM     31  C   UNL A   1      37.975  30.737  28.378  1.00  0.00     0.010 A 
ATOM     32  C   UNL A   1      36.644  29.325  29.826  1.00  0.00     0.010 A 
ATOM     33  C   UNL A   1      37.898  29.829  29.447  1.00  0.00    -0.014 A 
BRANCH  33  34
ATOM     34  C   UNL A   1      39.117  29.392  30.175  1.00  0.00     0.031 A 
ATOM     35  C   UNL A   1      39.545  30.107  31.429  1.00  0.00     0.074 A 
ATOM     36  C   UNL A   1      39.870  28.391  29.678  1.00  0.00     0.049 A 
ATOM     37  N   UNL A   1      40.603  29.905  32.173  1.00  0.00    -0.248 NA
ATOM     38  C   UNL A   1      38.685  31.206  31.896  1.00  0.00     0.031 C 
ATOM     39  C   UNL A   1      39.585  27.644  28.450  1.00  0.00     0.029 A 
ATOM     40  N   UNL A   1      41.036  27.833  30.140  1.00  0.00    -0.354 N 
ATOM     41  C   UNL A   1      40.546  30.858  33.182  1.00  0.00     0.074 A 
ATOM     42  C   UNL A   1      39.374  31.669  32.929  1.00  0.00     0.031 C 
ATOM     43  C   UNL A   1      40.534  26.712  28.272  1.00  0.00     0.029 A 
ATOM     44  C   UNL A   1      41.515  26.818  29.347  1.00  0.00     0.049 A 
ATOM     45  H   UNL A   1      41.486  28.131  30.964  1.00  0.00     0.167 HD
ATOM     46  C   UNL A   1      41.379  31.033  34.235  1.00  0.00     0.031 A 
ATOM     47  C   UNL A   1      42.624  26.061  29.465  1.00  0.00     0.031 A 
ATOM     48  C   UNL A   1      42.537  30.218  34.491  1.00  0.00     0.049 A 
ATOM     49  C   UNL A   1      43.539  26.277  30.639  1.00  0.00     0.074 A 
ATOM     50  C   UNL A   1      43.414  30.280  35.560  1.00  0.00     0.029 A 
ATOM     51  N   UNL A   1      42.982  29.194  33.669  1.00  0.00    -0.354 N 
ATOM     52  N   UNL A   1      43.432  27.144  31.618  1.00  0.00    -0.248 NA
ATOM     53  C   UNL A   1      44.719  25.406  30.730  1.00  0.00     0.031 C 
ATOM     54  C   UNL A   1      44.418  29.326  35.358  1.00  0.00     0.029 A 
ATOM     55  C   UNL A   1      44.133  28.631  34.194  1.00  0.00     0.049 A 
ATOM     56  H   UNL A   1      42.544  28.908  32.834  1.00  0.00     0.167 HD
ATOM     57  C   UNL A   1      44.515  26.904  32.456  1.00  0.00     0.074 A 
ATOM     58  C   UNL A   1      45.256  25.802  31.876  1.00  0.00     0.031 C 
ATOM     59  C   UNL A   1      44.862  27.536  33.604  1.00  0.00     0.031 A 
BRANCH  46  60
ATOM     60  C   UNL A   1      41.069  32.157  35.190  1.00  0.00    -0.014 A 
ATOM     61  C   UNL A   1      40.297  31.937  36.346  1.00  0.00     0.010 A 
ATOM     62  C   UNL A   1      41.588  33.442  34.949  1.00  0.00     0.010 A 
ATOM     63  C   UNL A   1      40.013  32.990  37.218  1.00  0.00     0.020 A 
ATOM     64  C   UNL A   1      41.330  34.492  35.836  1.00  0.00     0.020 A 
ATOM     65  C   UNL A   1      40.527  34.263  36.955  1.00  0.00     0.054 A 
BRANCH  65  66
ATOM     66  S   UNL A   1      40.157  35.607  38.116  1.00  0.00     0.124 S 
ATOM     67  O   UNL A   1      39.976  36.741  37.213  1.00  0.00    -0.237 OA
ATOM     68  O   UNL A   1      38.944  35.133  38.779  1.00  0.00    -0.237 OA
ATOM     69  O   UNL A   1      41.345  35.670  38.965  1.00  0.00    -0.744 OA
ENDBRANCH  65  66
ENDBRANCH  46  60
BRANCH  47  70
ATOM     70  C   UNL A   1      42.920  25.014  28.449  1.00  0.00    -0.014 A 
ATOM     71  C   UNL A   1      42.486  23.691  28.639  1.00  0.00     0.010 A 
ATOM     72  C   UNL A   1      43.626  25.339  27.276  1.00  0.00     0.010 A 
ATOM     73  C   UNL A   1      42.766  22.708  27.684  1.00  0.00     0.020 A 
ATOM     74  C   UNL A   1      43.884  24.367  26.307  1.00  0.00     0.020 A 
ATOM     75  C   UNL A   1      43.463  23.053  26.522  1.00  0.00     0.054 A 
BRANCH  75  76
ATOM     76  S   UNL A   1      43.767  21.775  25.272  1.00  0.00     0.124 S 
ATOM     77  O   UNL A   1      43.742  22.549  24.034  1.00  0.00    -0.237 OA
ATOM     78  O   UNL A   1      45.074  21.253  25.666  1.00  0.00    -0.237 OA
ATOM     79  O   UNL A   1      42.654  20.847  25.454  1.00  0.00    -0.744 OA
ENDBRANCH  75  76
ENDBRANCH  47  70
BRANCH  59  80
ATOM     80  C   UNL A   1      46.081  27.035  34.331  1.00  0.00    -0.014 A 
ATOM     81  C   UNL A   1      47.346  27.611  34.120  1.00  0.00     0.010 A 
ATOM     82  C   UNL A   1      45.946  26.005  35.282  1.00  0.00     0.010 A 
ATOM     83  C   UNL A   1      48.460  27.145  34.824  1.00  0.00     0.020 A 
ATOM     84  C   UNL A   1      47.052  25.558  36.008  1.00  0.00     0.020 A 
ATOM     85  C   UNL A   1      48.305  26.121  35.764  1.00  0.00     0.054 A 
BRANCH  85  86
ATOM     86  S   UNL A   1      49.758  25.565  36.698  1.00  0.00     0.124 S 
ATOM     87  O   UNL A   1      50.781  25.503  35.659  1.00  0.00    -0.237 OA
ATOM     88  O   UNL A   1      49.929  26.628  37.686  1.00  0.00    -0.237 OA
ATOM     89  O   UNL A   1      49.345  24.274  37.244  1.00  0.00    -0.744 OA
ENDBRANCH  85  86
ENDBRANCH  59  80
ENDBRANCH  33  34
ENDBRANCH  25  28
ENDBRANCH  23  24
ENDBRANCH  22  23
ENDBRANCH   1  22
TORSDOF 18
ENDMDL
MODEL 2
REMARK VINA RESULT:      -9.7      3.682      9.700
REMARK SMILES CC1C[NH+]([C@@H](C(=O)NCCCCCCNC(=O)c2ccc(-c3c4nc(c(-c5ccc(S(=O)(=O)[O-])cc5)c5ccc([nH]5)c(-c5ccc(S(=O)(=O)[O-])cc5)c5nc(c(-c6ccc(S(=O)(=O)[O-])cc6)c6ccc3[nH]6)C=C5)C=C4)cc2)C2CCCCC2)C1
REMARK SMILES IDX 12 1 11 2 10 3 9 4 8 5 6 6 7 7 5 9 4 10 1 11 2 12 3 13 84 14
REMARK SMILES IDX 78 16 79 17 83 18 80 19 82 20 81 21 13 22 14 23 15 24 16 25
REMARK SMILES IDX 17 27 18 28 19 29 77 30 20 31 76 32 21 33 22 34 23 35 70 36
REMARK SMILES IDX 24 37 75 38 69 39 71 40 25 41 74 42 68 43 67 44 26 46 56 47
REMARK SMILES IDX 37 48 55 49 38 50 41 51 54 52 72 53 39 54 40 55 53 57 73 58
REMARK SMILES IDX 42 59 27 60 28 61 36 62 29 63 35 64 30 65 31 66 32 67 33 68
REMARK SMILES IDX 34 69 57 70 58 71 66 72 59 73 65 74 60 75 61 76 62 77 63 78
REMARK SMILES IDX 64 79 43 80 44 81 52 82 45 83 51 84 46 85 47 86 48 87 49 88
REMARK SMILES IDX 50 89
REMARK H PARENT 8 8 4 15 15 26 71 45 41 56
REMARK Flexibility Score: inf
ROOT
ATOM      1  C   UNL A   1      34.000  24.564  25.417  1.00  0.00     0.002 C 
ENDROOT
BRANCH   1   2
ATOM      2  C   UNL A   1      34.026  26.091  25.372  1.00  0.00     0.002 C 
BRANCH   2   3
ATOM      3  C   UNL A   1      33.024  26.772  26.311  1.00  0.00     0.021 C 
BRANCH   3   4
ATOM      4  C   UNL A   1      32.791  28.266  26.049  1.00  0.00     0.116 C 
BRANCH   4   5
ATOM      5  N   UNL A   1      33.024  28.625  24.660  1.00  0.00    -0.351 N 
ATOM      6  C   UNL A   1      32.223  28.650  23.553  1.00  0.00     0.278 C 
ATOM      7  O   UNL A   1      32.794  28.958  22.501  1.00  0.00    -0.268 OA
ATOM      8  H   UNL A   1      33.950  28.908  24.479  1.00  0.00     0.163 HD
BRANCH   6   9
ATOM      9  C   UNL A   1      30.701  28.340  23.609  1.00  0.00     0.277 C 
BRANCH   9  10
ATOM     10  N   UNL A   1      30.225  27.122  22.888  1.00  0.00    -0.324 N 
ATOM     11  C   UNL A   1      30.682  23.814  23.801  1.00  0.00     0.020 C 
ATOM     12  C   UNL A   1      30.790  25.322  23.862  1.00  0.00     0.096 C 
ATOM     13  C   UNL A   1      31.253  26.092  22.614  1.00  0.00     0.271 C 
ATOM     14  C   UNL A   1      29.490  26.154  23.714  1.00  0.00     0.271 C 
ATOM     15  H   UNL A   1      29.765  27.606  22.116  1.00  0.00     0.348 HD
ENDBRANCH   9  10
BRANCH   9  16
ATOM     16  C   UNL A   1      29.867  29.588  23.113  1.00  0.00     0.057 C 
ATOM     17  C   UNL A   1      28.409  29.259  22.710  1.00  0.00     0.010 C 
ATOM     18  C   UNL A   1      29.882  30.715  24.175  1.00  0.00     0.010 C 
ATOM     19  C   UNL A   1      27.600  30.487  22.313  1.00  0.00     0.001 C 
ATOM     20  C   UNL A   1      29.011  31.915  23.799  1.00  0.00     0.001 C 
ATOM     21  C   UNL A   1      27.588  31.499  23.448  1.00  0.00     0.000 C 
ENDBRANCH   9  16
ENDBRANCH   6   9
ENDBRANCH   4   5
ENDBRANCH   3   4
ENDBRANCH   2   3
ENDBRANCH   1   2
BRANCH   1  22
ATOM     22  C   UNL A   1      35.192  23.914  26.127  1.00  0.00     0.021 C 
BRANCH  22  23
ATOM     23  C   UNL A   1      36.546  24.138  25.457  1.00  0.00     0.116 C 
BRANCH  23  24
ATOM     24  N   UNL A   1      37.415  22.981  25.591  1.00  0.00    -0.352 N 
ATOM     25  C   UNL A   1      38.706  22.926  26.057  1.00  0.00     0.251 C 
ATOM     26  H   UNL A   1      37.026  22.120  25.311  1.00  0.00     0.163 HD
ATOM     27  O   UNL A   1      39.383  21.918  25.886  1.00  0.00    -0.269 OA
BRANCH  25  28
ATOM     28  C   UNL A   1      39.278  24.099  26.752  1.00  0.00     0.039 A 
ATOM     29  C   UNL A   1      40.102  24.976  26.044  1.00  0.00     0.014 A 
ATOM     30  C   UNL A   1      39.001  24.329  28.104  1.00  0.00     0.014 A 
ATOM     31  C   UNL A   1      40.605  26.115  26.678  1.00  0.00     0.010 A 
ATOM     32  C   UNL A   1      39.450  25.497  28.714  1.00  0.00     0.010 A 
ATOM     33  C   UNL A   1      40.262  26.400  28.010  1.00  0.00    -0.014 A 
BRANCH  33  34
ATOM     34  C   UNL A   1      40.744  27.633  28.683  1.00  0.00     0.031 A 
ATOM     35  C   UNL A   1      42.136  27.687  29.255  1.00  0.00     0.074 A 
ATOM     36  C   UNL A   1      39.913  28.683  28.831  1.00  0.00     0.049 A 
ATOM     37  N   UNL A   1      42.717  28.653  29.920  1.00  0.00    -0.248 NA
ATOM     38  C   UNL A   1      42.977  26.492  29.076  1.00  0.00     0.031 C 
ATOM     39  C   UNL A   1      38.528  28.742  28.356  1.00  0.00     0.029 A 
ATOM     40  N   UNL A   1      40.108  29.903  29.430  1.00  0.00    -0.354 N 
ATOM     41  C   UNL A   1      43.980  28.178  30.253  1.00  0.00     0.074 A 
ATOM     42  C   UNL A   1      44.064  26.821  29.758  1.00  0.00     0.031 C 
ATOM     43  C   UNL A   1      38.009  29.942  28.659  1.00  0.00     0.029 A 
ATOM     44  C   UNL A   1      39.006  30.723  29.384  1.00  0.00     0.049 A 
ATOM     45  H   UNL A   1      40.958  30.165  29.853  1.00  0.00     0.167 HD
ATOM     46  C   UNL A   1      44.987  28.818  30.894  1.00  0.00     0.031 A 
ATOM     47  C   UNL A   1      38.816  31.964  29.874  1.00  0.00     0.031 A 
ATOM     48  C   UNL A   1      44.905  30.172  31.375  1.00  0.00     0.049 A 
ATOM     49  C   UNL A   1      39.946  32.653  30.589  1.00  0.00     0.074 A 
ATOM     50  C   UNL A   1      45.888  30.928  31.989  1.00  0.00     0.029 A 
ATOM     51  N   UNL A   1      43.775  30.972  31.300  1.00  0.00    -0.354 N 
ATOM     52  N   UNL A   1      41.155  32.209  30.838  1.00  0.00    -0.248 NA
ATOM     53  C   UNL A   1      39.689  34.014  31.081  1.00  0.00     0.031 C 
ATOM     54  C   UNL A   1      45.338  32.168  32.330  1.00  0.00     0.029 A 
ATOM     55  C   UNL A   1      44.029  32.205  31.876  1.00  0.00     0.049 A 
ATOM     56  H   UNL A   1      42.918  30.703  30.895  1.00  0.00     0.167 HD
ATOM     57  C   UNL A   1      41.811  33.246  31.490  1.00  0.00     0.074 A 
ATOM     58  C   UNL A   1      40.870  34.344  31.585  1.00  0.00     0.031 C 
ATOM     59  C   UNL A   1      43.081  33.288  31.964  1.00  0.00     0.031 A 
BRANCH  46  60
ATOM     60  C   UNL A   1      46.267  28.055  31.118  1.00  0.00    -0.014 A 
ATOM     61  C   UNL A   1      46.402  27.164  32.198  1.00  0.00     0.010 A 
ATOM     62  C   UNL A   1      47.336  28.203  30.216  1.00  0.00     0.010 A 
ATOM     63  C   UNL A   1      47.597  26.469  32.397  1.00  0.00     0.020 A 
ATOM     64  C   UNL A   1      48.524  27.487  30.395  1.00  0.00     0.020 A 
ATOM     65  C   UNL A   1      48.653  26.638  31.497  1.00  0.00     0.054 A 
BRANCH  65  66
ATOM     66  S   UNL A   1      50.186  25.708  31.771  1.00  0.00     0.124 S 
ATOM     67  O   UNL A   1      50.573  25.359  30.406  1.00  0.00    -0.237 OA
ATOM     68  O   UNL A   1      51.042  26.689  32.434  1.00  0.00    -0.237 OA
ATOM     69  O   UNL A   1      49.766  24.585  32.607  1.00  0.00    -0.744 OA
ENDBRANCH  65  66
ENDBRANCH  46  60
BRANCH  47  70
ATOM     70  C   UNL A   1      37.503  32.642  29.689  1.00  0.00    -0.014 A 
ATOM     71  C   UNL A   1      37.245  33.396  28.531  1.00  0.00     0.010 A 
ATOM     72  C   UNL A   1      36.496  32.524  30.666  1.00  0.00     0.010 A 
ATOM     73  C   UNL A   1      36.012  34.033  28.359  1.00  0.00     0.020 A 
ATOM     74  C   UNL A   1      35.254  33.136  30.485  1.00  0.00     0.020 A 
ATOM     75  C   UNL A   1      35.023  33.898  29.338  1.00  0.00     0.054 A 
BRANCH  75  76
ATOM     76  S   UNL A   1      33.412  34.687  29.070  1.00  0.00     0.124 S 
ATOM     77  O   UNL A   1      32.839  34.671  30.412  1.00  0.00    -0.237 OA
ATOM     78  O   UNL A   1      33.786  36.003  28.556  1.00  0.00    -0.237 OA
ATOM     79  O   UNL A   1      32.760  33.811  28.099  1.00  0.00    -0.744 OA
ENDBRANCH  75  76
ENDBRANCH  47  70
BRANCH  59  80
ATOM     80  C   UNL A   1      43.541  34.571  32.603  1.00  0.00    -0.014 A 
ATOM     81  C   UNL A   1      44.040  35.634  31.830  1.00  0.00     0.010 A 
ATOM     82  C   UNL A   1      43.420  34.734  33.996  1.00  0.00     0.010 A 
ATOM     83  C   UNL A   1      44.438  36.826  32.442  1.00  0.00     0.020 A 
ATOM     84  C   UNL A   1      43.790  35.934  34.607  1.00  0.00     0.020 A 
ATOM     85  C   UNL A   1      44.311  36.967  33.828  1.00  0.00     0.054 A 
BRANCH  85  86
ATOM     86  S   UNL A   1      44.793  38.540  34.593  1.00  0.00     0.124 S 
ATOM     87  O   UNL A   1      43.542  39.292  34.555  1.00  0.00    -0.237 OA
ATOM     88  O   UNL A   1      45.238  38.127  35.922  1.00  0.00    -0.237 OA
ATOM     89  O   UNL A   1      45.849  39.042  33.717  1.00  0.00    -0.744 OA
ENDBRANCH  85  86
ENDBRANCH  59  80
ENDBRANCH  33  34
ENDBRANCH  25  28
ENDBRANCH  23  24
ENDBRANCH  22  23
ENDBRANCH   1  22
TORSDOF 18
ENDMDL
MODEL 3
REMARK VINA RESULT:      -9.7      2.649      3.875
REMARK SMILES CC1C[NH+]([C@@H](C(=O)NCCCCCCNC(=O)c2ccc(-c3c4nc(c(-c5ccc(S(=O)(=O)[O-])cc5)c5ccc([nH]5)c(-c5ccc(S(=O)(=O)[O-])cc5)c5nc(c(-c6ccc(S(=O)(=O)[O-])cc6)c6ccc3[nH]6)C=C5)C=C4)cc2)C2CCCCC2)C1
REMARK SMILES IDX 12 1 11 2 10 3 9 4 8 5 6 6 7 7 5 9 4 10 1 11 2 12 3 13 84 14
REMARK SMILES IDX 78 16 79 17 83 18 80 19 82 20 81 21 13 22 14 23 15 24 16 25
REMARK SMILES IDX 17 27 18 28 19 29 77 30 20 31 76 32 21 33 22 34 23 35 70 36
REMARK SMILES IDX 24 37 75 38 69 39 71 40 25 41 74 42 68 43 67 44 26 46 56 47
REMARK SMILES IDX 37 48 55 49 38 50 41 51 54 52 72 53 39 54 40 55 53 57 73 58
REMARK SMILES IDX 42 59 27 60 28 61 36 62 29 63 35 64 30 65 31 66 32 67 33 68
REMARK SMILES IDX 34 69 57 70 58 71 66 72 59 73 65 74 60 75 61 76 62 77 63 78
REMARK SMILES IDX 64 79 43 80 44 81 52 82 45 83 51 84 46 85 47 86 48 87 49 88
REMARK SMILES IDX 50 89
REMARK H PARENT 8 8 4 15 15 26 71 45 41 56
REMARK Flexibility Score: inf
ROOT
ATOM      1  C   UNL A   1      32.729  26.859  24.594  1.00  0.00     0.002 C 
ENDROOT
BRANCH   1   2
ATOM      2  C   UNL A   1      31.372  26.345  24.115  1.00  0.00     0.002 C 
BRANCH   2   3
ATOM      3  C   UNL A   1      30.634  25.463  25.129  1.00  0.00     0.021 C 
BRANCH   3   4
ATOM      4  C   UNL A   1      31.087  23.998  25.174  1.00  0.00     0.116 C 
BRANCH   4   5
ATOM      5  N   UNL A   1      31.511  23.593  26.504  1.00  0.00    -0.351 N 
ATOM      6  C   UNL A   1      32.451  22.711  26.958  1.00  0.00     0.278 C 
ATOM      7  O   UNL A   1      32.493  22.577  28.186  1.00  0.00    -0.268 OA
ATOM      8  H   UNL A   1      31.021  24.048  27.227  1.00  0.00     0.163 HD
BRANCH   6   9
ATOM      9  C   UNL A   1      33.416  21.947  26.008  1.00  0.00     0.277 C 
BRANCH   9  10
ATOM     10  N   UNL A   1      34.323  22.767  25.152  1.00  0.00    -0.324 N 
ATOM     11  C   UNL A   1      37.490  23.926  25.938  1.00  0.00     0.020 C 
ATOM     12  C   UNL A   1      36.156  23.233  26.117  1.00  0.00     0.096 C 
ATOM     13  C   UNL A   1      34.864  23.995  25.778  1.00  0.00     0.271 C 
ATOM     14  C   UNL A   1      35.691  22.248  25.015  1.00  0.00     0.271 C 
ATOM     15  H   UNL A   1      33.705  22.834  24.343  1.00  0.00     0.348 HD
ENDBRANCH   9  10
BRANCH   9  16
ATOM     16  C   UNL A   1      32.606  20.950  25.086  1.00  0.00     0.057 C 
ATOM     17  C   UNL A   1      32.746  21.229  23.570  1.00  0.00     0.010 C 
ATOM     18  C   UNL A   1      32.993  19.482  25.394  1.00  0.00     0.010 C 
ATOM     19  C   UNL A   1      32.025  20.209  22.698  1.00  0.00     0.001 C 
ATOM     20  C   UNL A   1      32.316  18.469  24.467  1.00  0.00     0.001 C 
ATOM     21  C   UNL A   1      32.533  18.807  22.997  1.00  0.00     0.000 C 
ENDBRANCH   9  16
ENDBRANCH   6   9
ENDBRANCH   4   5
ENDBRANCH   3   4
ENDBRANCH   2   3
ENDBRANCH   1   2
BRANCH   1  22
ATOM     22  C   UNL A   1      32.857  27.045  26.109  1.00  0.00     0.021 C 
BRANCH  22  23
ATOM     23  C   UNL A   1      34.040  27.900  26.559  1.00  0.00     0.116 C 
BRANCH  23  24
ATOM     24  N   UNL A   1      33.642  29.270  26.838  1.00  0.00    -0.352 N 
ATOM     25  C   UNL A   1      34.287  30.214  27.599  1.00  0.00     0.251 C 
ATOM     26  H   UNL A   1      32.796  29.560  26.425  1.00  0.00     0.163 HD
ATOM     27  O   UNL A   1      33.708  31.242  27.932  1.00  0.00    -0.269 OA
BRANCH  25  28
ATOM     28  C   UNL A   1      35.682  29.972  28.027  1.00  0.00     0.039 A 
ATOM     29  C   UNL A   1      35.930  29.538  29.331  1.00  0.00     0.014 A 
ATOM     30  C   UNL A   1      36.743  30.177  27.139  1.00  0.00     0.014 A 
ATOM     31  C   UNL A   1      37.239  29.258  29.729  1.00  0.00     0.010 A 
ATOM     32  C   UNL A   1      38.039  29.836  27.517  1.00  0.00     0.010 A 
ATOM     33  C   UNL A   1      38.302  29.378  28.817  1.00  0.00    -0.014 A 
BRANCH  33  34
ATOM     34  C   UNL A   1      39.693  29.033  29.208  1.00  0.00     0.031 A 
ATOM     35  C   UNL A   1      40.557  30.050  29.906  1.00  0.00     0.074 A 
ATOM     36  C   UNL A   1      40.199  27.826  28.884  1.00  0.00     0.049 A 
ATOM     37  N   UNL A   1      41.807  29.952  30.278  1.00  0.00    -0.248 NA
ATOM     38  C   UNL A   1      39.943  31.354  30.203  1.00  0.00     0.031 C 
ATOM     39  C   UNL A   1      39.477  26.767  28.174  1.00  0.00     0.029 A 
ATOM     40  N   UNL A   1      41.443  27.289  29.103  1.00  0.00    -0.354 N 
ATOM     41  C   UNL A   1      42.134  31.182  30.837  1.00  0.00     0.074 A 
ATOM     42  C   UNL A   1      40.965  32.025  30.711  1.00  0.00     0.031 C 
ATOM     43  C   UNL A   1      40.281  25.701  28.039  1.00  0.00     0.029 A 
ATOM     44  C   UNL A   1      41.586  26.011  28.615  1.00  0.00     0.049 A 
ATOM     45  H   UNL A   1      42.164  27.772  29.567  1.00  0.00     0.167 HD
ATOM     46  C   UNL A   1      43.294  31.570  31.419  1.00  0.00     0.031 A 
ATOM     47  C   UNL A   1      42.649  25.183  28.625  1.00  0.00     0.031 A 
ATOM     48  C   UNL A   1      44.452  30.726  31.553  1.00  0.00     0.049 A 
ATOM     49  C   UNL A   1      43.929  25.638  29.270  1.00  0.00     0.074 A 
ATOM     50  C   UNL A   1      45.655  31.008  32.174  1.00  0.00     0.029 A 
ATOM     51  N   UNL A   1      44.553  29.436  31.054  1.00  0.00    -0.354 N 
ATOM     52  N   UNL A   1      44.197  26.784  29.850  1.00  0.00    -0.248 NA
ATOM     53  C   UNL A   1      45.047  24.684  29.273  1.00  0.00     0.031 C 
ATOM     54  C   UNL A   1      46.502  29.906  32.009  1.00  0.00     0.029 A 
ATOM     55  C   UNL A   1      45.805  28.916  31.335  1.00  0.00     0.049 A 
ATOM     56  H   UNL A   1      43.838  28.959  30.573  1.00  0.00     0.167 HD
ATOM     57  C   UNL A   1      45.504  26.678  30.310  1.00  0.00     0.074 A 
ATOM     58  C   UNL A   1      45.968  25.352  29.954  1.00  0.00     0.031 C 
ATOM     59  C   UNL A   1      46.252  27.595  30.972  1.00  0.00     0.031 A 
BRANCH  46  60
ATOM     60  C   UNL A   1      43.369  32.978  31.953  1.00  0.00    -0.014 A 
ATOM     61  C   UNL A   1      43.109  33.257  33.307  1.00  0.00     0.010 A 
ATOM     62  C   UNL A   1      43.741  34.030  31.097  1.00  0.00     0.010 A 
ATOM     63  C   UNL A   1      43.176  34.567  33.785  1.00  0.00     0.020 A 
ATOM     64  C   UNL A   1      43.837  35.340  31.579  1.00  0.00     0.020 A 
ATOM     65  C   UNL A   1      43.536  35.602  32.917  1.00  0.00     0.054 A 
BRANCH  65  66
ATOM     66  S   UNL A   1      43.632  37.291  33.571  1.00  0.00     0.124 S 
ATOM     67  O   UNL A   1      42.333  37.435  34.222  1.00  0.00    -0.237 OA
ATOM     68  O   UNL A   1      44.781  37.222  34.470  1.00  0.00    -0.237 OA
ATOM     69  O   UNL A   1      43.826  38.114  32.379  1.00  0.00    -0.744 OA
ENDBRANCH  65  66
ENDBRANCH  46  60
BRANCH  47  70
ATOM     70  C   UNL A   1      42.541  23.829  28.014  1.00  0.00    -0.014 A 
ATOM     71  C   UNL A   1      41.889  22.788  28.697  1.00  0.00     0.010 A 
ATOM     72  C   UNL A   1      43.076  23.578  26.738  1.00  0.00     0.010 A 
ATOM     73  C   UNL A   1      41.789  21.516  28.124  1.00  0.00     0.020 A 
ATOM     74  C   UNL A   1      42.955  22.317  26.149  1.00  0.00     0.020 A 
ATOM     75  C   UNL A   1      42.321  21.290  26.851  1.00  0.00     0.054 A 
BRANCH  75  76
ATOM     76  S   UNL A   1      42.133  19.648  26.103  1.00  0.00     0.124 S 
ATOM     77  O   UNL A   1      42.994  19.749  24.929  1.00  0.00    -0.237 OA
ATOM     78  O   UNL A   1      42.607  18.761  27.162  1.00  0.00    -0.237 OA
ATOM     79  O   UNL A   1      40.701  19.563  25.825  1.00  0.00    -0.744 OA
ENDBRANCH  75  76
ENDBRANCH  47  70
BRANCH  59  80
ATOM     80  C   UNL A   1      47.642  27.189  31.384  1.00  0.00    -0.014 A 
ATOM     81  C   UNL A   1      47.897  26.635  32.650  1.00  0.00     0.010 A 
ATOM     82  C   UNL A   1      48.701  27.314  30.464  1.00  0.00     0.010 A 
ATOM     83  C   UNL A   1      49.191  26.243  33.002  1.00  0.00     0.020 A 
ATOM     84  C   UNL A   1      49.990  26.896  30.802  1.00  0.00     0.020 A 
ATOM     85  C   UNL A   1      50.230  26.376  32.075  1.00  0.00     0.054 A 
BRANCH  85  86
ATOM     86  S   UNL A   1      51.892  25.817  32.539  1.00  0.00     0.124 S 
ATOM     87  O   UNL A   1      52.453  27.014  33.158  1.00  0.00    -0.237 OA
ATOM     88  O   UNL A   1      51.615  24.709  33.450  1.00  0.00    -0.237 OA
ATOM     89  O   UNL A   1      52.497  25.433  31.265  1.00  0.00    -0.744 OA
ENDBRANCH  85  86
ENDBRANCH  59  80
ENDBRANCH  33  34
ENDBRANCH  25  28
ENDBRANCH  23  24
ENDBRANCH  22  23
ENDBRANCH   1  22
TORSDOF 18
ENDMDL
