MODEL 1
REMARK VINA RESULT:     -11.3      0.000      0.000
REMARK SMILES C[C@@H](C(=O)NCCCCCCNC(=O)c1ccc(-c2c3nc(c(-c4ccc(S(=O)(=O)[O-])cc4)c4ccc([nH]4)c(-c4ccc(S(=O)(=O)[O-])cc4)c4nc(c(-c5ccc(S(=O)(=O)[O-])cc5)c5ccc2[nH]5)C=C4)C=C3)cc1)c1ccc(-c2cccc(OC(=O)Nc3ccccc3)c2)c(F)c1
REMARK SMILES IDX 7 1 6 2 5 3 3 4 4 5 2 7 1 8 75 9 76 10 97 11 77 12 95 13
REMARK SMILES IDX 78 14 96 15 79 16 80 17 94 18 81 19 83 20 82 21 84 22 85 23
REMARK SMILES IDX 86 24 87 25 88 27 89 28 93 29 90 30 92 31 91 32 8 33 9 34
REMARK SMILES IDX 10 35 11 36 12 37 13 38 14 40 15 41 16 42 74 43 17 44 73 45
REMARK SMILES IDX 18 46 19 47 20 48 67 49 21 50 72 51 66 52 68 53 22 54 71 55
REMARK SMILES IDX 65 56 64 57 23 59 53 60 34 61 52 62 35 63 38 64 51 65 69 66
REMARK SMILES IDX 36 67 37 68 50 70 70 71 39 72 24 73 25 74 33 75 26 76 32 77
REMARK SMILES IDX 27 78 28 79 29 80 30 81 31 82 54 83 55 84 63 85 56 86 62 87
REMARK SMILES IDX 57 88 58 89 59 90 60 91 61 92 40 93 41 94 49 95 42 96 48 97
REMARK SMILES IDX 43 98 44 99 45 100 46 101 47 102
REMARK H PARENT 5 6 87 26 12 39 68 58 38 69
REMARK Flexibility Score: inf
ROOT
ATOM      1  C   UNL A   1      35.050  22.107  27.203  1.00  0.00     0.021 C 
ENDROOT
BRANCH   1   2
ATOM      2  C   UNL A   1      33.892  21.210  26.748  1.00  0.00     0.116 C 
BRANCH   2   3
ATOM      3  N   UNL A   1      34.362  20.255  25.765  1.00  0.00    -0.356 N 
ATOM      4  C   UNL A   1      33.681  19.715  24.711  1.00  0.00     0.227 C 
ATOM      5  O   UNL A   1      34.041  18.596  24.340  1.00  0.00    -0.274 OA
ATOM      6  H   UNL A   1      35.294  19.955  25.870  1.00  0.00     0.163 HD
BRANCH   4   7
ATOM      7  C   UNL A   1      32.532  20.512  24.070  1.00  0.00     0.105 C 
ATOM      8  C   UNL A   1      32.176  19.860  22.726  1.00  0.00     0.023 C 
BRANCH   7   9
ATOM      9  C   UNL A   1      32.771  22.016  23.892  1.00  0.00    -0.033 A 
ATOM     10  C   UNL A   1      33.859  22.555  23.192  1.00  0.00     0.005 A 
ATOM     11  C   UNL A   1      31.873  22.926  24.477  1.00  0.00     0.044 A 
ATOM     12  C   UNL A   1      33.996  23.934  23.000  1.00  0.00     0.012 A 
ATOM     13  C   UNL A   1      32.015  24.298  24.287  1.00  0.00     0.131 A 
ATOM     14  C   UNL A   1      33.065  24.832  23.534  1.00  0.00     0.018 A 
ATOM     15  F   UNL A   1      31.104  25.109  24.850  1.00  0.00    -0.206 F 
BRANCH  14  16
ATOM     16  C   UNL A   1      33.233  26.278  23.368  1.00  0.00    -0.012 A 
ATOM     17  C   UNL A   1      33.641  26.841  22.148  1.00  0.00     0.009 A 
ATOM     18  C   UNL A   1      33.013  27.128  24.461  1.00  0.00     0.056 A 
ATOM     19  C   UNL A   1      33.821  28.221  22.025  1.00  0.00     0.004 A 
ATOM     20  C   UNL A   1      33.216  28.497  24.345  1.00  0.00     0.133 A 
ATOM     21  C   UNL A   1      33.610  29.051  23.126  1.00  0.00     0.047 A 
BRANCH  20  22
ATOM     22  O   UNL A   1      33.072  29.411  25.414  1.00  0.00    -0.410 OA
BRANCH  22  23
ATOM     23  C   UNL A   1      32.425  29.159  26.623  1.00  0.00     0.417 C 
ATOM     24  O   UNL A   1      31.480  28.392  26.790  1.00  0.00    -0.224 OA
ATOM     25  N   UNL A   1      32.995  29.758  27.715  1.00  0.00    -0.291 N 
ATOM     26  H   UNL A   1      32.614  29.482  28.581  1.00  0.00     0.173 HD
BRANCH  25  27
ATOM     27  C   UNL A   1      34.029  30.698  27.805  1.00  0.00     0.044 A 
ATOM     28  C   UNL A   1      35.336  30.209  27.695  1.00  0.00     0.026 A 
ATOM     29  C   UNL A   1      33.830  32.063  28.020  1.00  0.00     0.026 A 
ATOM     30  C   UNL A   1      36.426  31.079  27.749  1.00  0.00     0.002 A 
ATOM     31  C   UNL A   1      34.922  32.932  28.090  1.00  0.00     0.002 A 
ATOM     32  C   UNL A   1      36.218  32.442  27.945  1.00  0.00     0.000 A 
ENDBRANCH  25  27
ENDBRANCH  22  23
ENDBRANCH  20  22
ENDBRANCH  14  16
ENDBRANCH   7   9
ENDBRANCH   4   7
ENDBRANCH   2   3
ENDBRANCH   1   2
BRANCH   1  33
ATOM     33  C   UNL A   1      35.525  23.112  26.145  1.00  0.00     0.002 C 
BRANCH  33  34
ATOM     34  C   UNL A   1      37.044  23.258  26.030  1.00  0.00     0.002 C 
BRANCH  34  35
ATOM     35  C   UNL A   1      37.600  24.584  26.553  1.00  0.00     0.021 C 
BRANCH  35  36
ATOM     36  C   UNL A   1      39.005  24.500  27.143  1.00  0.00     0.116 C 
BRANCH  36  37
ATOM     37  N   UNL A   1      40.010  25.038  26.242  1.00  0.00    -0.352 N 
ATOM     38  C   UNL A   1      40.694  26.226  26.322  1.00  0.00     0.251 C 
ATOM     39  H   UNL A   1      40.232  24.474  25.466  1.00  0.00     0.163 HD
ATOM     40  O   UNL A   1      41.375  26.610  25.377  1.00  0.00    -0.269 OA
BRANCH  38  41
ATOM     41  C   UNL A   1      40.588  27.051  27.545  1.00  0.00     0.039 A 
ATOM     42  C   UNL A   1      40.020  26.490  28.691  1.00  0.00     0.014 A 
ATOM     43  C   UNL A   1      41.047  28.372  27.561  1.00  0.00     0.014 A 
ATOM     44  C   UNL A   1      39.965  27.234  29.871  1.00  0.00     0.010 A 
ATOM     45  C   UNL A   1      41.049  29.091  28.755  1.00  0.00     0.010 A 
ATOM     46  C   UNL A   1      40.507  28.530  29.921  1.00  0.00    -0.014 A 
BRANCH  46  47
ATOM     47  C   UNL A   1      40.525  29.304  31.189  1.00  0.00     0.031 A 
ATOM     48  C   UNL A   1      41.594  29.051  32.218  1.00  0.00     0.074 A 
ATOM     49  C   UNL A   1      39.545  30.194  31.438  1.00  0.00     0.049 A 
ATOM     50  N   UNL A   1      41.743  29.595  33.398  1.00  0.00    -0.248 NA
ATOM     51  C   UNL A   1      42.613  28.042  31.886  1.00  0.00     0.031 C 
ATOM     52  C   UNL A   1      38.427  30.497  30.540  1.00  0.00     0.029 A 
ATOM     53  N   UNL A   1      39.325  31.003  32.524  1.00  0.00    -0.354 N 
ATOM     54  C   UNL A   1      42.863  28.987  33.955  1.00  0.00     0.074 A 
ATOM     55  C   UNL A   1      43.327  28.001  33.003  1.00  0.00     0.031 C 
ATOM     56  C   UNL A   1      37.656  31.443  31.102  1.00  0.00     0.029 A 
ATOM     57  C   UNL A   1      38.201  31.787  32.411  1.00  0.00     0.049 A 
ATOM     58  H   UNL A   1      39.918  31.022  33.311  1.00  0.00     0.167 HD
ATOM     59  C   UNL A   1      43.462  29.239  35.145  1.00  0.00     0.031 A 
ATOM     60  C   UNL A   1      37.665  32.679  33.266  1.00  0.00     0.031 A 
ATOM     61  C   UNL A   1      43.008  30.228  36.086  1.00  0.00     0.049 A 
ATOM     62  C   UNL A   1      38.350  32.941  34.579  1.00  0.00     0.074 A 
ATOM     63  C   UNL A   1      43.580  30.593  37.292  1.00  0.00     0.029 A 
ATOM     64  N   UNL A   1      41.875  31.010  35.927  1.00  0.00    -0.354 N 
ATOM     65  N   UNL A   1      39.443  32.398  35.061  1.00  0.00    -0.248 NA
ATOM     66  C   UNL A   1      37.733  33.943  35.461  1.00  0.00     0.031 C 
ATOM     67  C   UNL A   1      42.767  31.567  37.884  1.00  0.00     0.029 A 
ATOM     68  C   UNL A   1      41.717  31.843  37.022  1.00  0.00     0.049 A 
ATOM     69  H   UNL A   1      41.270  30.978  35.151  1.00  0.00     0.167 HD
ATOM     70  C   UNL A   1      39.658  33.011  36.289  1.00  0.00     0.074 A 
ATOM     71  C   UNL A   1      38.592  33.976  36.471  1.00  0.00     0.031 C 
ATOM     72  C   UNL A   1      40.649  32.795  37.189  1.00  0.00     0.031 A 
BRANCH  59  73
ATOM     73  C   UNL A   1      44.681  28.426  35.496  1.00  0.00    -0.014 A 
ATOM     74  C   UNL A   1      45.973  28.906  35.216  1.00  0.00     0.010 A 
ATOM     75  C   UNL A   1      44.535  27.192  36.154  1.00  0.00     0.010 A 
ATOM     76  C   UNL A   1      47.097  28.147  35.555  1.00  0.00     0.020 A 
ATOM     77  C   UNL A   1      45.658  26.443  36.518  1.00  0.00     0.020 A 
ATOM     78  C   UNL A   1      46.933  26.919  36.201  1.00  0.00     0.054 A 
BRANCH  78  79
ATOM     79  S   UNL A   1      48.409  25.969  36.654  1.00  0.00     0.124 S 
ATOM     80  O   UNL A   1      49.297  27.015  37.156  1.00  0.00    -0.237 OA
ATOM     81  O   UNL A   1      47.899  25.043  37.661  1.00  0.00    -0.237 OA
ATOM     82  O   UNL A   1      48.825  25.352  35.396  1.00  0.00    -0.744 OA
ENDBRANCH  78  79
ENDBRANCH  59  73
BRANCH  60  83
ATOM     83  C   UNL A   1      36.417  33.403  32.901  1.00  0.00    -0.014 A 
ATOM     84  C   UNL A   1      36.475  34.710  32.385  1.00  0.00     0.010 A 
ATOM     85  C   UNL A   1      35.163  32.786  33.063  1.00  0.00     0.010 A 
ATOM     86  C   UNL A   1      35.301  35.395  32.060  1.00  0.00     0.020 A 
ATOM     87  C   UNL A   1      33.989  33.458  32.715  1.00  0.00     0.020 A 
ATOM     88  C   UNL A   1      34.065  34.764  32.228  1.00  0.00     0.054 A 
BRANCH  88  89
ATOM     89  S   UNL A   1      32.555  35.654  31.756  1.00  0.00     0.124 S 
ATOM     90  O   UNL A   1      32.411  35.283  30.353  1.00  0.00    -0.237 OA
ATOM     91  O   UNL A   1      31.560  35.095  32.666  1.00  0.00    -0.237 OA
ATOM     92  O   UNL A   1      32.896  37.054  32.004  1.00  0.00    -0.744 OA
ENDBRANCH  88  89
ENDBRANCH  60  83
BRANCH  72  93
ATOM     93  C   UNL A   1      40.643  33.634  38.437  1.00  0.00    -0.014 A 
ATOM     94  C   UNL A   1      41.298  34.877  38.481  1.00  0.00     0.010 A 
ATOM     95  C   UNL A   1      39.935  33.190  39.569  1.00  0.00     0.010 A 
ATOM     96  C   UNL A   1      41.273  35.648  39.646  1.00  0.00     0.020 A 
ATOM     97  C   UNL A   1      39.886  33.969  40.728  1.00  0.00     0.020 A 
ATOM     98  C   UNL A   1      40.570  35.187  40.764  1.00  0.00     0.054 A 
BRANCH  98  99
ATOM     99  S   UNL A   1      40.519  36.220  42.253  1.00  0.00     0.124 S 
ATOM    100  O   UNL A   1      39.101  36.181  42.601  1.00  0.00    -0.237 OA
ATOM    101  O   UNL A   1      41.409  35.509  43.168  1.00  0.00    -0.237 OA
ATOM    102  O   UNL A   1      41.014  37.515  41.794  1.00  0.00    -0.744 OA
ENDBRANCH  98  99
ENDBRANCH  72  93
ENDBRANCH  46  47
ENDBRANCH  38  41
ENDBRANCH  36  37
ENDBRANCH  35  36
ENDBRANCH  34  35
ENDBRANCH  33  34
ENDBRANCH   1  33
TORSDOF 21
ENDMDL
MODEL 2
REMARK VINA RESULT:     -11.1      1.965      7.970
REMARK SMILES C[C@@H](C(=O)NCCCCCCNC(=O)c1ccc(-c2c3nc(c(-c4ccc(S(=O)(=O)[O-])cc4)c4ccc([nH]4)c(-c4ccc(S(=O)(=O)[O-])cc4)c4nc(c(-c5ccc(S(=O)(=O)[O-])cc5)c5ccc2[nH]5)C=C4)C=C3)cc1)c1ccc(-c2cccc(OC(=O)Nc3ccccc3)c2)c(F)c1
REMARK SMILES IDX 7 1 6 2 5 3 3 4 4 5 2 7 1 8 75 9 76 10 97 11 77 12 95 13
REMARK SMILES IDX 78 14 96 15 79 16 80 17 94 18 81 19 83 20 82 21 84 22 85 23
REMARK SMILES IDX 86 24 87 25 88 27 89 28 93 29 90 30 92 31 91 32 8 33 9 34
REMARK SMILES IDX 10 35 11 36 12 37 13 38 14 40 15 41 16 42 74 43 17 44 73 45
REMARK SMILES IDX 18 46 19 47 20 48 67 49 21 50 72 51 66 52 68 53 22 54 71 55
REMARK SMILES IDX 65 56 64 57 23 59 53 60 34 61 52 62 35 63 38 64 51 65 69 66
REMARK SMILES IDX 36 67 37 68 50 70 70 71 39 72 24 73 25 74 33 75 26 76 32 77
REMARK SMILES IDX 27 78 28 79 29 80 30 81 31 82 54 83 55 84 63 85 56 86 62 87
REMARK SMILES IDX 57 88 58 89 59 90 60 91 61 92 40 93 41 94 49 95 42 96 48 97
REMARK SMILES IDX 43 98 44 99 45 100 46 101 47 102
REMARK H PARENT 5 6 87 26 12 39 68 58 38 69
REMARK Flexibility Score: inf
ROOT
ATOM      1  C   UNL A   1      36.592  22.376  24.036  1.00  0.00     0.021 C 
ENDROOT
BRANCH   1   2
ATOM      2  C   UNL A   1      35.110  22.503  24.410  1.00  0.00     0.116 C 
BRANCH   2   3
ATOM      3  N   UNL A   1      34.862  21.848  25.679  1.00  0.00    -0.356 N 
ATOM      4  C   UNL A   1      33.665  21.598  26.287  1.00  0.00     0.227 C 
ATOM      5  O   UNL A   1      33.678  21.531  27.518  1.00  0.00    -0.274 OA
ATOM      6  H   UNL A   1      35.661  21.544  26.168  1.00  0.00     0.163 HD
BRANCH   4   7
ATOM      7  C   UNL A   1      32.404  21.425  25.423  1.00  0.00     0.105 C 
ATOM      8  C   UNL A   1      32.774  20.608  24.177  1.00  0.00     0.023 C 
BRANCH   7   9
ATOM      9  C   UNL A   1      31.677  22.716  25.024  1.00  0.00    -0.033 A 
ATOM     10  C   UNL A   1      31.460  23.109  23.696  1.00  0.00     0.005 A 
ATOM     11  C   UNL A   1      31.216  23.581  26.032  1.00  0.00     0.044 A 
ATOM     12  C   UNL A   1      30.732  24.263  23.385  1.00  0.00     0.012 A 
ATOM     13  C   UNL A   1      30.495  24.730  25.718  1.00  0.00     0.131 A 
ATOM     14  C   UNL A   1      30.223  25.088  24.394  1.00  0.00     0.018 A 
ATOM     15  F   UNL A   1      30.058  25.496  26.730  1.00  0.00    -0.206 F 
BRANCH  14  16
ATOM     16  C   UNL A   1      29.497  26.318  24.065  1.00  0.00    -0.012 A 
ATOM     17  C   UNL A   1      28.105  26.330  23.880  1.00  0.00     0.009 A 
ATOM     18  C   UNL A   1      30.208  27.515  23.899  1.00  0.00     0.056 A 
ATOM     19  C   UNL A   1      27.442  27.511  23.539  1.00  0.00     0.004 A 
ATOM     20  C   UNL A   1      29.551  28.684  23.535  1.00  0.00     0.133 A 
ATOM     21  C   UNL A   1      28.166  28.690  23.364  1.00  0.00     0.047 A 
BRANCH  20  22
ATOM     22  O   UNL A   1      30.204  29.915  23.292  1.00  0.00    -0.410 OA
BRANCH  22  23
ATOM     23  C   UNL A   1      30.177  31.032  24.126  1.00  0.00     0.417 C 
ATOM     24  O   UNL A   1      29.481  32.032  23.972  1.00  0.00    -0.224 OA
ATOM     25  N   UNL A   1      30.930  30.916  25.265  1.00  0.00    -0.291 N 
ATOM     26  H   UNL A   1      30.815  31.651  25.910  1.00  0.00     0.173 HD
BRANCH  25  27
ATOM     27  C   UNL A   1      31.836  29.925  25.663  1.00  0.00     0.044 A 
ATOM     28  C   UNL A   1      31.557  29.260  26.863  1.00  0.00     0.026 A 
ATOM     29  C   UNL A   1      32.993  29.593  24.955  1.00  0.00     0.026 A 
ATOM     30  C   UNL A   1      32.393  28.242  27.322  1.00  0.00     0.002 A 
ATOM     31  C   UNL A   1      33.840  28.585  25.424  1.00  0.00     0.002 A 
ATOM     32  C   UNL A   1      33.534  27.903  26.600  1.00  0.00     0.000 A 
ENDBRANCH  25  27
ENDBRANCH  22  23
ENDBRANCH  20  22
ENDBRANCH  14  16
ENDBRANCH   7   9
ENDBRANCH   4   7
ENDBRANCH   2   3
ENDBRANCH   1   2
BRANCH   1  33
ATOM     33  C   UNL A   1      37.330  21.236  24.749  1.00  0.00     0.002 C 
BRANCH  33  34
ATOM     34  C   UNL A   1      38.467  21.681  25.671  1.00  0.00     0.002 C 
BRANCH  34  35
ATOM     35  C   UNL A   1      38.397  23.144  26.113  1.00  0.00     0.021 C 
BRANCH  35  36
ATOM     36  C   UNL A   1      39.525  23.587  27.041  1.00  0.00     0.116 C 
BRANCH  36  37
ATOM     37  N   UNL A   1      40.739  23.910  26.310  1.00  0.00    -0.352 N 
ATOM     38  C   UNL A   1      41.532  25.027  26.406  1.00  0.00     0.251 C 
ATOM     39  H   UNL A   1      41.035  23.235  25.657  1.00  0.00     0.163 HD
ATOM     40  O   UNL A   1      42.420  25.224  25.583  1.00  0.00    -0.269 OA
BRANCH  38  41
ATOM     41  C   UNL A   1      41.295  26.003  27.492  1.00  0.00     0.039 A 
ATOM     42  C   UNL A   1      40.252  25.772  28.391  1.00  0.00     0.014 A 
ATOM     43  C   UNL A   1      42.100  27.139  27.623  1.00  0.00     0.014 A 
ATOM     44  C   UNL A   1      40.051  26.651  29.458  1.00  0.00     0.010 A 
ATOM     45  C   UNL A   1      41.938  27.981  28.722  1.00  0.00     0.010 A 
ATOM     46  C   UNL A   1      40.911  27.746  29.650  1.00  0.00    -0.014 A 
BRANCH  46  47
ATOM     47  C   UNL A   1      40.756  28.645  30.822  1.00  0.00     0.031 A 
ATOM     48  C   UNL A   1      39.711  29.727  30.815  1.00  0.00     0.074 A 
ATOM     49  C   UNL A   1      41.596  28.522  31.868  1.00  0.00     0.049 A 
ATOM     50  N   UNL A   1      39.459  30.632  31.725  1.00  0.00    -0.248 NA
ATOM     51  C   UNL A   1      38.851  29.817  29.623  1.00  0.00     0.031 C 
ATOM     52  C   UNL A   1      42.680  27.542  31.976  1.00  0.00     0.029 A 
ATOM     53  N   UNL A   1      41.674  29.232  33.040  1.00  0.00    -0.354 N 
ATOM     54  C   UNL A   1      38.424  31.406  31.213  1.00  0.00     0.074 A 
ATOM     55  C   UNL A   1      38.125  30.892  29.893  1.00  0.00     0.031 C 
ATOM     56  C   UNL A   1      43.296  27.697  33.159  1.00  0.00     0.029 A 
ATOM     57  C   UNL A   1      42.680  28.807  33.877  1.00  0.00     0.049 A 
ATOM     58  H   UNL A   1      41.067  29.976  33.261  1.00  0.00     0.167 HD
ATOM     59  C   UNL A   1      37.769  32.440  31.795  1.00  0.00     0.031 A 
ATOM     60  C   UNL A   1      43.065  29.263  35.085  1.00  0.00     0.031 A 
ATOM     61  C   UNL A   1      38.057  32.943  33.111  1.00  0.00     0.049 A 
ATOM     62  C   UNL A   1      42.321  30.411  35.709  1.00  0.00     0.074 A 
ATOM     63  C   UNL A   1      37.413  33.950  33.808  1.00  0.00     0.029 A 
ATOM     64  N   UNL A   1      39.073  32.475  33.932  1.00  0.00    -0.354 N 
ATOM     65  N   UNL A   1      41.304  31.090  35.233  1.00  0.00    -0.248 NA
ATOM     66  C   UNL A   1      42.770  30.848  37.039  1.00  0.00     0.031 C 
ATOM     67  C   UNL A   1      38.067  34.122  35.034  1.00  0.00     0.029 A 
ATOM     68  C   UNL A   1      39.087  33.187  35.119  1.00  0.00     0.049 A 
ATOM     69  H   UNL A   1      39.694  31.746  33.703  1.00  0.00     0.167 HD
ATOM     70  C   UNL A   1      40.977  32.017  36.215  1.00  0.00     0.074 A 
ATOM     71  C   UNL A   1      41.893  31.802  37.318  1.00  0.00     0.031 C 
ATOM     72  C   UNL A   1      40.006  32.963  36.206  1.00  0.00     0.031 A 
BRANCH  59  73
ATOM     73  C   UNL A   1      36.669  33.099  31.005  1.00  0.00    -0.014 A 
ATOM     74  C   UNL A   1      36.966  34.004  29.969  1.00  0.00     0.010 A 
ATOM     75  C   UNL A   1      35.326  32.776  31.267  1.00  0.00     0.010 A 
ATOM     76  C   UNL A   1      35.937  34.603  29.237  1.00  0.00     0.020 A 
ATOM     77  C   UNL A   1      34.296  33.353  30.518  1.00  0.00     0.020 A 
ATOM     78  C   UNL A   1      34.608  34.275  29.517  1.00  0.00     0.054 A 
BRANCH  78  79
ATOM     79  S   UNL A   1      33.295  35.046  28.533  1.00  0.00     0.124 S 
ATOM     80  O   UNL A   1      32.526  35.749  29.556  1.00  0.00    -0.237 OA
ATOM     81  O   UNL A   1      34.041  35.898  27.612  1.00  0.00    -0.237 OA
ATOM     82  O   UNL A   1      32.614  33.910  27.913  1.00  0.00    -0.744 OA
ENDBRANCH  78  79
ENDBRANCH  59  73
BRANCH  60  83
ATOM     83  C   UNL A   1      44.207  28.621  35.792  1.00  0.00    -0.014 A 
ATOM     84  C   UNL A   1      45.523  29.059  35.565  1.00  0.00     0.010 A 
ATOM     85  C   UNL A   1      43.981  27.571  36.700  1.00  0.00     0.010 A 
ATOM     86  C   UNL A   1      46.596  28.443  36.216  1.00  0.00     0.020 A 
ATOM     87  C   UNL A   1      45.048  26.970  37.373  1.00  0.00     0.020 A 
ATOM     88  C   UNL A   1      46.351  27.402  37.116  1.00  0.00     0.054 A 
BRANCH  88  89
ATOM     89  S   UNL A   1      47.753  26.646  37.985  1.00  0.00     0.124 S 
ATOM     90  O   UNL A   1      48.714  26.457  36.903  1.00  0.00    -0.237 OA
ATOM     91  O   UNL A   1      48.102  27.665  38.972  1.00  0.00    -0.237 OA
ATOM     92  O   UNL A   1      47.185  25.421  38.543  1.00  0.00    -0.744 OA
ENDBRANCH  88  89
ENDBRANCH  60  83
BRANCH  72  93
ATOM     93  C   UNL A   1      39.866  33.820  37.434  1.00  0.00    -0.014 A 
ATOM     94  C   UNL A   1      40.600  35.009  37.579  1.00  0.00     0.010 A 
ATOM     95  C   UNL A   1      38.952  33.449  38.438  1.00  0.00     0.010 A 
ATOM     96  C   UNL A   1      40.449  35.797  38.723  1.00  0.00     0.020 A 
ATOM     97  C   UNL A   1      38.779  34.248  39.572  1.00  0.00     0.020 A 
ATOM     98  C   UNL A   1      39.541  35.410  39.714  1.00  0.00     0.054 A 
BRANCH  98  99
ATOM     99  S   UNL A   1      39.333  36.467  41.173  1.00  0.00     0.124 S 
ATOM    100  O   UNL A   1      38.757  37.676  40.591  1.00  0.00    -0.237 OA
ATOM    101  O   UNL A   1      38.430  35.683  42.012  1.00  0.00    -0.237 OA
ATOM    102  O   UNL A   1      40.690  36.610  41.693  1.00  0.00    -0.744 OA
ENDBRANCH  98  99
ENDBRANCH  72  93
ENDBRANCH  46  47
ENDBRANCH  38  41
ENDBRANCH  36  37
ENDBRANCH  35  36
ENDBRANCH  34  35
ENDBRANCH  33  34
ENDBRANCH   1  33
TORSDOF 21
ENDMDL
MODEL 3
REMARK VINA RESULT:     -11.0      6.448     12.466
REMARK SMILES C[C@@H](C(=O)NCCCCCCNC(=O)c1ccc(-c2c3nc(c(-c4ccc(S(=O)(=O)[O-])cc4)c4ccc([nH]4)c(-c4ccc(S(=O)(=O)[O-])cc4)c4nc(c(-c5ccc(S(=O)(=O)[O-])cc5)c5ccc2[nH]5)C=C4)C=C3)cc1)c1ccc(-c2cccc(OC(=O)Nc3ccccc3)c2)c(F)c1
REMARK SMILES IDX 7 1 6 2 5 3 3 4 4 5 2 7 1 8 75 9 76 10 97 11 77 12 95 13
REMARK SMILES IDX 78 14 96 15 79 16 80 17 94 18 81 19 83 20 82 21 84 22 85 23
REMARK SMILES IDX 86 24 87 25 88 27 89 28 93 29 90 30 92 31 91 32 8 33 9 34
REMARK SMILES IDX 10 35 11 36 12 37 13 38 14 40 15 41 16 42 74 43 17 44 73 45
REMARK SMILES IDX 18 46 19 47 20 48 67 49 21 50 72 51 66 52 68 53 22 54 71 55
REMARK SMILES IDX 65 56 64 57 23 59 53 60 34 61 52 62 35 63 38 64 51 65 69 66
REMARK SMILES IDX 36 67 37 68 50 70 70 71 39 72 24 73 25 74 33 75 26 76 32 77
REMARK SMILES IDX 27 78 28 79 29 80 30 81 31 82 54 83 55 84 63 85 56 86 62 87
REMARK SMILES IDX 57 88 58 89 59 90 60 91 61 92 40 93 41 94 49 95 42 96 48 97
REMARK SMILES IDX 43 98 44 99 45 100 46 101 47 102
REMARK H PARENT 5 6 87 26 12 39 68 58 38 69
REMARK Flexibility Score: inf
ROOT
ATOM      1  C   UNL A   1      31.410  29.396  26.189  1.00  0.00     0.021 C 
ENDROOT
BRANCH   1   2
ATOM      2  C   UNL A   1      31.457  29.555  24.665  1.00  0.00     0.116 C 
BRANCH   2   3
ATOM      3  N   UNL A   1      30.399  30.444  24.227  1.00  0.00    -0.356 N 
ATOM      4  C   UNL A   1      29.527  30.280  23.189  1.00  0.00     0.227 C 
ATOM      5  O   UNL A   1      29.092  31.310  22.670  1.00  0.00    -0.274 OA
ATOM      6  H   UNL A   1      30.296  31.275  24.745  1.00  0.00     0.163 HD
BRANCH   4   7
ATOM      7  C   UNL A   1      29.153  28.858  22.737  1.00  0.00     0.105 C 
ATOM      8  C   UNL A   1      27.702  28.579  23.153  1.00  0.00     0.023 C 
BRANCH   7   9
ATOM      9  C   UNL A   1      30.077  27.732  23.218  1.00  0.00    -0.033 A 
ATOM     10  C   UNL A   1      29.818  26.940  24.345  1.00  0.00     0.005 A 
ATOM     11  C   UNL A   1      31.269  27.479  22.518  1.00  0.00     0.044 A 
ATOM     12  C   UNL A   1      30.659  25.880  24.704  1.00  0.00     0.012 A 
ATOM     13  C   UNL A   1      32.106  26.426  22.881  1.00  0.00     0.131 A 
ATOM     14  C   UNL A   1      31.813  25.595  23.967  1.00  0.00     0.018 A 
ATOM     15  F   UNL A   1      33.213  26.221  22.150  1.00  0.00    -0.206 F 
BRANCH  14  16
ATOM     16  C   UNL A   1      32.714  24.512  24.369  1.00  0.00    -0.012 A 
ATOM     17  C   UNL A   1      33.774  24.723  25.265  1.00  0.00     0.009 A 
ATOM     18  C   UNL A   1      32.538  23.231  23.826  1.00  0.00     0.056 A 
ATOM     19  C   UNL A   1      34.635  23.679  25.610  1.00  0.00     0.004 A 
ATOM     20  C   UNL A   1      33.411  22.199  24.149  1.00  0.00     0.133 A 
ATOM     21  C   UNL A   1      34.455  22.415  25.050  1.00  0.00     0.047 A 
BRANCH  20  22
ATOM     22  O   UNL A   1      33.335  20.898  23.600  1.00  0.00    -0.410 OA
BRANCH  22  23
ATOM     23  C   UNL A   1      32.336  20.428  22.749  1.00  0.00     0.417 C 
ATOM     24  O   UNL A   1      31.721  21.094  21.920  1.00  0.00    -0.224 OA
ATOM     25  N   UNL A   1      32.128  19.075  22.800  1.00  0.00    -0.291 N 
ATOM     26  H   UNL A   1      31.511  18.728  22.115  1.00  0.00     0.173 HD
BRANCH  25  27
ATOM     27  C   UNL A   1      32.646  18.105  23.666  1.00  0.00     0.044 A 
ATOM     28  C   UNL A   1      33.613  17.240  23.139  1.00  0.00     0.026 A 
ATOM     29  C   UNL A   1      32.238  17.940  24.991  1.00  0.00     0.026 A 
ATOM     30  C   UNL A   1      34.200  16.260  23.938  1.00  0.00     0.002 A 
ATOM     31  C   UNL A   1      32.814  16.946  25.788  1.00  0.00     0.002 A 
ATOM     32  C   UNL A   1      33.802  16.114  25.264  1.00  0.00     0.000 A 
ENDBRANCH  25  27
ENDBRANCH  22  23
ENDBRANCH  20  22
ENDBRANCH  14  16
ENDBRANCH   7   9
ENDBRANCH   4   7
ENDBRANCH   2   3
ENDBRANCH   1   2
BRANCH   1  33
ATOM     33  C   UNL A   1      32.650  28.722  26.794  1.00  0.00     0.002 C 
BRANCH  33  34
ATOM     34  C   UNL A   1      33.985  29.361  26.406  1.00  0.00     0.002 C 
BRANCH  34  35
ATOM     35  C   UNL A   1      35.148  29.031  27.344  1.00  0.00     0.021 C 
BRANCH  35  36
ATOM     36  C   UNL A   1      35.788  30.241  28.017  1.00  0.00     0.116 C 
BRANCH  36  37
ATOM     37  N   UNL A   1      35.652  30.200  29.463  1.00  0.00    -0.352 N 
ATOM     38  C   UNL A   1      36.577  29.829  30.407  1.00  0.00     0.251 C 
ATOM     39  H   UNL A   1      34.776  30.477  29.815  1.00  0.00     0.163 HD
ATOM     40  O   UNL A   1      36.237  29.675  31.575  1.00  0.00    -0.269 OA
BRANCH  38  41
ATOM     41  C   UNL A   1      37.981  29.591  30.004  1.00  0.00     0.039 A 
ATOM     42  C   UNL A   1      38.828  28.909  30.879  1.00  0.00     0.014 A 
ATOM     43  C   UNL A   1      38.457  30.039  28.767  1.00  0.00     0.014 A 
ATOM     44  C   UNL A   1      40.139  28.624  30.491  1.00  0.00     0.010 A 
ATOM     45  C   UNL A   1      39.745  29.700  28.356  1.00  0.00     0.010 A 
ATOM     46  C   UNL A   1      40.599  28.990  29.214  1.00  0.00    -0.014 A 
BRANCH  46  47
ATOM     47  C   UNL A   1      41.965  28.626  28.759  1.00  0.00     0.031 A 
ATOM     48  C   UNL A   1      43.044  29.673  28.686  1.00  0.00     0.074 A 
ATOM     49  C   UNL A   1      42.218  27.365  28.358  1.00  0.00     0.049 A 
ATOM     50  N   UNL A   1      44.279  29.552  28.271  1.00  0.00    -0.248 NA
ATOM     51  C   UNL A   1      42.683  31.035  29.113  1.00  0.00     0.031 C 
ATOM     52  C   UNL A   1      41.245  26.270  28.339  1.00  0.00     0.029 A 
ATOM     53  N   UNL A   1      43.370  26.792  27.882  1.00  0.00    -0.354 N 
ATOM     54  C   UNL A   1      44.838  30.821  28.374  1.00  0.00     0.074 A 
ATOM     55  C   UNL A   1      43.795  31.705  28.848  1.00  0.00     0.031 C 
ATOM     56  C   UNL A   1      41.849  25.154  27.899  1.00  0.00     0.029 A 
ATOM     57  C   UNL A   1      43.236  25.459  27.570  1.00  0.00     0.049 A 
ATOM     58  H   UNL A   1      44.214  27.289  27.773  1.00  0.00     0.167 HD
ATOM     59  C   UNL A   1      46.110  31.212  28.116  1.00  0.00     0.031 A 
ATOM     60  C   UNL A   1      44.129  24.581  27.072  1.00  0.00     0.031 A 
ATOM     61  C   UNL A   1      47.151  30.330  27.659  1.00  0.00     0.049 A 
ATOM     62  C   UNL A   1      45.534  25.041  26.795  1.00  0.00     0.074 A 
ATOM     63  C   UNL A   1      48.483  30.621  27.421  1.00  0.00     0.029 A 
ATOM     64  N   UNL A   1      46.977  28.985  27.370  1.00  0.00    -0.354 N 
ATOM     65  N   UNL A   1      46.059  26.232  26.958  1.00  0.00    -0.248 NA
ATOM     66  C   UNL A   1      46.471  24.033  26.277  1.00  0.00     0.031 C 
ATOM     67  C   UNL A   1      49.106  29.461  26.947  1.00  0.00     0.029 A 
ATOM     68  C   UNL A   1      48.173  28.436  26.938  1.00  0.00     0.049 A 
ATOM     69  H   UNL A   1      46.129  28.492  27.458  1.00  0.00     0.167 HD
ATOM     70  C   UNL A   1      47.392  26.111  26.585  1.00  0.00     0.074 A 
ATOM     71  C   UNL A   1      47.598  24.728  26.203  1.00  0.00     0.031 C 
ATOM     72  C   UNL A   1      48.361  27.059  26.559  1.00  0.00     0.031 A 
BRANCH  59  73
ATOM     73  C   UNL A   1      46.447  32.665  28.325  1.00  0.00    -0.014 A 
ATOM     74  C   UNL A   1      46.288  33.600  27.286  1.00  0.00     0.010 A 
ATOM     75  C   UNL A   1      46.881  33.110  29.587  1.00  0.00     0.010 A 
ATOM     76  C   UNL A   1      46.595  34.947  27.494  1.00  0.00     0.020 A 
ATOM     77  C   UNL A   1      47.164  34.461  29.806  1.00  0.00     0.020 A 
ATOM     78  C   UNL A   1      47.034  35.369  28.752  1.00  0.00     0.054 A 
BRANCH  78  79
ATOM     79  S   UNL A   1      47.398  37.128  29.002  1.00  0.00     0.124 S 
ATOM     80  O   UNL A   1      46.775  37.733  27.828  1.00  0.00    -0.237 OA
ATOM     81  O   UNL A   1      46.745  37.414  30.276  1.00  0.00    -0.237 OA
ATOM     82  O   UNL A   1      48.859  37.180  29.028  1.00  0.00    -0.744 OA
ENDBRANCH  78  79
ENDBRANCH  59  73
BRANCH  60  83
ATOM     83  C   UNL A   1      43.724  23.173  26.815  1.00  0.00    -0.014 A 
ATOM     84  C   UNL A   1      42.771  22.544  27.636  1.00  0.00     0.010 A 
ATOM     85  C   UNL A   1      44.287  22.455  25.745  1.00  0.00     0.010 A 
ATOM     86  C   UNL A   1      42.405  21.215  27.404  1.00  0.00     0.020 A 
ATOM     87  C   UNL A   1      43.905  21.134  25.494  1.00  0.00     0.020 A 
ATOM     88  C   UNL A   1      42.975  20.519  26.335  1.00  0.00     0.054 A 
BRANCH  88  89
ATOM     89  S   UNL A   1      42.453  18.809  26.024  1.00  0.00     0.124 S 
ATOM     90  O   UNL A   1      41.029  18.973  25.750  1.00  0.00    -0.237 OA
ATOM     91  O   UNL A   1      43.278  18.427  24.881  1.00  0.00    -0.237 OA
ATOM     92  O   UNL A   1      42.777  18.123  27.273  1.00  0.00    -0.744 OA
ENDBRANCH  88  89
ENDBRANCH  60  83
BRANCH  72  93
ATOM     93  C   UNL A   1      49.737  26.629  26.130  1.00  0.00    -0.014 A 
ATOM     94  C   UNL A   1      50.211  26.896  24.834  1.00  0.00     0.010 A 
ATOM     95  C   UNL A   1      50.583  25.986  27.052  1.00  0.00     0.010 A 
ATOM     96  C   UNL A   1      51.496  26.497  24.456  1.00  0.00     0.020 A 
ATOM     97  C   UNL A   1      51.877  25.609  26.687  1.00  0.00     0.020 A 
ATOM     98  C   UNL A   1      52.320  25.853  25.385  1.00  0.00     0.054 A 
BRANCH  98  99
ATOM     99  S   UNL A   1      53.997  25.378  24.885  1.00  0.00     0.124 S 
ATOM    100  O   UNL A   1      54.074  25.920  23.531  1.00  0.00    -0.237 OA
ATOM    101  O   UNL A   1      54.832  26.050  25.878  1.00  0.00    -0.237 OA
ATOM    102  O   UNL A   1      53.986  23.920  24.974  1.00  0.00    -0.744 OA
ENDBRANCH  98  99
ENDBRANCH  72  93
ENDBRANCH  46  47
ENDBRANCH  38  41
ENDBRANCH  36  37
ENDBRANCH  35  36
ENDBRANCH  34  35
ENDBRANCH  33  34
ENDBRANCH   1  33
TORSDOF 21
ENDMDL
