MODEL 1
REMARK VINA RESULT:     -11.3      0.000      0.000
REMARK SMILES O=C(CCC1CC[NH+]([C@H]2CCO[C@@]3(CCSC3)C2)CC1)NCCCCCCNC(=O)c1ccc(-c2c3nc(c(-c4ccc(S(=O)(=O)[O-])cc4)c4ccc([nH]4)c(-c4ccc(S(=O)(=O)[O-])cc4)c4nc(c(-c5ccc(S(=O)(=O)[O-])cc5)c5ccc2[nH]5)C=C4)C=C3)cc1
REMARK SMILES IDX 24 1 23 2 22 3 21 4 1 5 2 6 3 8 4 9 5 10 6 11 20 12 7 13
REMARK SMILES IDX 19 14 8 15 9 17 10 18 18 19 11 20 13 21 12 22 14 23 17 24
REMARK SMILES IDX 15 25 16 26 25 27 26 28 27 29 28 30 29 31 30 33 31 34 32 35
REMARK SMILES IDX 90 36 33 37 89 38 34 39 35 40 36 41 83 42 37 43 88 44 82 45
REMARK SMILES IDX 84 46 38 47 87 48 81 49 80 50 39 52 69 53 50 54 68 55 51 56
REMARK SMILES IDX 54 57 67 58 85 59 52 60 53 61 66 63 86 64 55 65 40 66 41 67
REMARK SMILES IDX 49 68 42 69 48 70 43 71 44 72 45 73 46 74 47 75 70 76 71 77
REMARK SMILES IDX 79 78 72 79 78 80 73 81 74 82 75 83 76 84 77 85 56 86 57 87
REMARK SMILES IDX 65 88 58 89 64 90 59 91 60 92 61 93 62 94 63 95
REMARK H PARENT 21 7 8 16 28 32 84 51 54 62
REMARK Flexibility Score: inf
ROOT
ATOM      1  C   UNL A   1      35.886  20.781  25.052  1.00  0.00     0.002 C 
ENDROOT
BRANCH   1   2
ATOM      2  C   UNL A   1      35.204  21.520  26.213  1.00  0.00     0.021 C 
BRANCH   2   3
ATOM      3  C   UNL A   1      33.740  21.868  25.971  1.00  0.00     0.116 C 
BRANCH   3   4
ATOM      4  N   UNL A   1      33.568  22.500  24.681  1.00  0.00    -0.356 N 
ATOM      5  O   UNL A   1      32.600  20.712  23.610  1.00  0.00    -0.275 OA
ATOM      6  C   UNL A   1      32.963  21.878  23.618  1.00  0.00     0.220 C 
ATOM      7  H   UNL A   1      33.900  23.419  24.560  1.00  0.00     0.163 HD
BRANCH   6   8
ATOM      8  C   UNL A   1      32.756  22.799  22.437  1.00  0.00     0.100 C 
BRANCH   8   9
ATOM      9  C   UNL A   1      32.709  24.274  22.866  1.00  0.00     0.014 C 
BRANCH   9  10
ATOM     10  C   UNL A   1      31.435  25.016  22.386  1.00  0.00     0.000 C 
ATOM     11  C   UNL A   1      31.748  26.349  21.666  1.00  0.00     0.065 C 
ATOM     12  C   UNL A   1      30.454  25.196  23.558  1.00  0.00     0.065 C 
ATOM     13  C   UNL A   1      31.775  27.606  22.544  1.00  0.00     0.262 C 
ATOM     14  C   UNL A   1      30.734  26.454  24.365  1.00  0.00     0.262 C 
ATOM     15  N   UNL A   1      30.724  27.672  23.557  1.00  0.00    -0.332 N 
ATOM     16  H   UNL A   1      30.946  28.420  24.214  1.00  0.00     0.348 HD
BRANCH  15  17
ATOM     17  C   UNL A   1      29.427  28.241  23.116  1.00  0.00     0.189 C 
ATOM     18  C   UNL A   1      28.143  27.568  23.634  1.00  0.00     0.093 C 
ATOM     19  C   UNL A   1      29.374  29.769  23.329  1.00  0.00     0.101 C 
ATOM     20  C   UNL A   1      26.881  28.333  23.272  1.00  0.00     0.167 C 
ATOM     21  C   UNL A   1      28.031  30.405  22.933  1.00  0.00     0.084 C 
ATOM     22  O   UNL A   1      26.980  29.709  23.623  1.00  0.00    -0.374 OA
ATOM     23  C   UNL A   1      27.971  31.866  23.417  1.00  0.00     0.047 C 
ATOM     24  C   UNL A   1      27.767  30.463  21.416  1.00  0.00     0.105 C 
ATOM     25  C   UNL A   1      28.750  32.728  22.444  1.00  0.00     0.072 C 
ATOM     26  S   UNL A   1      28.309  32.089  20.816  1.00  0.00    -0.159 SA
ENDBRANCH  15  17
ENDBRANCH   9  10
ENDBRANCH   8   9
ENDBRANCH   6   8
ENDBRANCH   3   4
ENDBRANCH   2   3
ENDBRANCH   1   2
BRANCH   1  27
ATOM     27  C   UNL A   1      37.350  21.159  24.801  1.00  0.00     0.002 C 
BRANCH  27  28
ATOM     28  C   UNL A   1      38.359  20.034  25.032  1.00  0.00     0.021 C 
BRANCH  28  29
ATOM     29  C   UNL A   1      39.562  20.416  25.886  1.00  0.00     0.116 C 
BRANCH  29  30
ATOM     30  N   UNL A   1      40.492  19.312  26.062  1.00  0.00    -0.352 N 
ATOM     31  C   UNL A   1      41.849  19.356  26.278  1.00  0.00     0.251 C 
ATOM     32  H   UNL A   1      40.096  18.412  26.023  1.00  0.00     0.163 HD
ATOM     33  O   UNL A   1      42.511  18.324  26.238  1.00  0.00    -0.269 OA
BRANCH  31  34
ATOM     34  C   UNL A   1      42.507  20.658  26.525  1.00  0.00     0.039 A 
ATOM     35  C   UNL A   1      42.996  21.388  25.440  1.00  0.00     0.014 A 
ATOM     36  C   UNL A   1      42.619  21.167  27.823  1.00  0.00     0.014 A 
ATOM     37  C   UNL A   1      43.540  22.657  25.650  1.00  0.00     0.010 A 
ATOM     38  C   UNL A   1      43.089  22.462  28.019  1.00  0.00     0.010 A 
ATOM     39  C   UNL A   1      43.557  23.221  26.936  1.00  0.00    -0.014 A 
BRANCH  39  40
ATOM     40  C   UNL A   1      44.053  24.604  27.165  1.00  0.00     0.031 A 
ATOM     41  C   UNL A   1      43.098  25.697  27.564  1.00  0.00     0.074 A 
ATOM     42  C   UNL A   1      45.354  24.888  26.955  1.00  0.00     0.049 A 
ATOM     43  N   UNL A   1      43.337  26.968  27.762  1.00  0.00    -0.248 NA
ATOM     44  C   UNL A   1      41.687  25.317  27.740  1.00  0.00     0.031 C 
ATOM     45  C   UNL A   1      46.374  23.928  26.527  1.00  0.00     0.029 A 
ATOM     46  N   UNL A   1      46.042  26.072  27.067  1.00  0.00    -0.354 N 
ATOM     47  C   UNL A   1      42.109  27.541  28.071  1.00  0.00     0.074 A 
ATOM     48  C   UNL A   1      41.119  26.490  27.980  1.00  0.00     0.031 C 
ATOM     49  C   UNL A   1      47.560  24.552  26.445  1.00  0.00     0.029 A 
ATOM     50  C   UNL A   1      47.380  25.964  26.766  1.00  0.00     0.049 A 
ATOM     51  H   UNL A   1      45.618  26.918  27.339  1.00  0.00     0.167 HD
ATOM     52  C   UNL A   1      41.832  28.821  28.418  1.00  0.00     0.031 A 
ATOM     53  C   UNL A   1      48.353  26.897  26.740  1.00  0.00     0.031 A 
ATOM     54  C   UNL A   1      42.820  29.863  28.509  1.00  0.00     0.049 A 
ATOM     55  C   UNL A   1      48.017  28.317  27.107  1.00  0.00     0.074 A 
ATOM     56  C   UNL A   1      42.647  31.178  28.904  1.00  0.00     0.029 A 
ATOM     57  N   UNL A   1      44.163  29.713  28.195  1.00  0.00    -0.354 N 
ATOM     58  N   UNL A   1      46.860  28.823  27.465  1.00  0.00    -0.248 NA
ATOM     59  C   UNL A   1      49.118  29.287  27.079  1.00  0.00     0.031 C 
ATOM     60  C   UNL A   1      43.873  31.839  28.767  1.00  0.00     0.029 A 
ATOM     61  C   UNL A   1      44.824  30.919  28.358  1.00  0.00     0.049 A 
ATOM     62  H   UNL A   1      44.583  28.873  27.900  1.00  0.00     0.167 HD
ATOM     63  C   UNL A   1      47.103  30.167  27.734  1.00  0.00     0.074 A 
ATOM     64  C   UNL A   1      48.518  30.388  27.512  1.00  0.00     0.031 C 
ATOM     65  C   UNL A   1      46.234  31.128  28.131  1.00  0.00     0.031 A 
BRANCH  52  66
ATOM     66  C   UNL A   1      40.394  29.167  28.715  1.00  0.00    -0.014 A 
ATOM     67  C   UNL A   1      39.953  29.387  30.033  1.00  0.00     0.010 A 
ATOM     68  C   UNL A   1      39.477  29.312  27.657  1.00  0.00     0.010 A 
ATOM     69  C   UNL A   1      38.615  29.699  30.291  1.00  0.00     0.020 A 
ATOM     70  C   UNL A   1      38.146  29.656  27.908  1.00  0.00     0.020 A 
ATOM     71  C   UNL A   1      37.720  29.829  29.226  1.00  0.00     0.054 A 
BRANCH  71  72
ATOM     72  S   UNL A   1      35.994  30.252  29.591  1.00  0.00     0.124 S 
ATOM     73  O   UNL A   1      35.796  29.610  30.889  1.00  0.00    -0.237 OA
ATOM     74  O   UNL A   1      36.020  31.711  29.610  1.00  0.00    -0.237 OA
ATOM     75  O   UNL A   1      35.249  29.658  28.484  1.00  0.00    -0.744 OA
ENDBRANCH  71  72
ENDBRANCH  52  66
BRANCH  53  76
ATOM     76  C   UNL A   1      49.742  26.512  26.365  1.00  0.00    -0.014 A 
ATOM     77  C   UNL A   1      50.597  25.909  27.304  1.00  0.00     0.010 A 
ATOM     78  C   UNL A   1      50.212  26.731  25.056  1.00  0.00     0.010 A 
ATOM     79  C   UNL A   1      51.900  25.549  26.948  1.00  0.00     0.020 A 
ATOM     80  C   UNL A   1      51.503  26.345  24.688  1.00  0.00     0.020 A 
ATOM     81  C   UNL A   1      52.344  25.765  25.640  1.00  0.00     0.054 A 
BRANCH  81  82
ATOM     82  S   UNL A   1      54.020  25.238  25.187  1.00  0.00     0.124 S 
ATOM     83  O   UNL A   1      54.098  25.647  23.788  1.00  0.00    -0.237 OA
ATOM     84  O   UNL A   1      54.851  26.000  26.117  1.00  0.00    -0.237 OA
ATOM     85  O   UNL A   1      54.000  23.796  25.419  1.00  0.00    -0.744 OA
ENDBRANCH  81  82
ENDBRANCH  53  76
BRANCH  65  86
ATOM     86  C   UNL A   1      46.788  32.504  28.392  1.00  0.00    -0.014 A 
ATOM     87  C   UNL A   1      46.931  33.446  27.359  1.00  0.00     0.010 A 
ATOM     88  C   UNL A   1      47.117  32.878  29.709  1.00  0.00     0.010 A 
ATOM     89  C   UNL A   1      47.424  34.725  27.632  1.00  0.00     0.020 A 
ATOM     90  C   UNL A   1      47.578  34.166  29.991  1.00  0.00     0.020 A 
ATOM     91  C   UNL A   1      47.743  35.077  28.947  1.00  0.00     0.054 A 
BRANCH  91  92
ATOM     92  S   UNL A   1      48.336  36.759  29.282  1.00  0.00     0.124 S 
ATOM     93  O   UNL A   1      49.543  36.505  30.064  1.00  0.00    -0.237 OA
ATOM     94  O   UNL A   1      48.557  37.291  27.939  1.00  0.00    -0.237 OA
ATOM     95  O   UNL A   1      47.235  37.376  30.017  1.00  0.00    -0.744 OA
ENDBRANCH  91  92
ENDBRANCH  65  86
ENDBRANCH  39  40
ENDBRANCH  31  34
ENDBRANCH  29  30
ENDBRANCH  28  29
ENDBRANCH  27  28
ENDBRANCH   1  27
TORSDOF 19
ENDMDL
MODEL 2
REMARK VINA RESULT:     -11.3      6.351     10.824
REMARK SMILES O=C(CCC1CC[NH+]([C@H]2CCO[C@@]3(CCSC3)C2)CC1)NCCCCCCNC(=O)c1ccc(-c2c3nc(c(-c4ccc(S(=O)(=O)[O-])cc4)c4ccc([nH]4)c(-c4ccc(S(=O)(=O)[O-])cc4)c4nc(c(-c5ccc(S(=O)(=O)[O-])cc5)c5ccc2[nH]5)C=C4)C=C3)cc1
REMARK SMILES IDX 24 1 23 2 22 3 21 4 1 5 2 6 3 8 4 9 5 10 6 11 20 12 7 13
REMARK SMILES IDX 19 14 8 15 9 17 10 18 18 19 11 20 13 21 12 22 14 23 17 24
REMARK SMILES IDX 15 25 16 26 25 27 26 28 27 29 28 30 29 31 30 33 31 34 32 35
REMARK SMILES IDX 90 36 33 37 89 38 34 39 35 40 36 41 83 42 37 43 88 44 82 45
REMARK SMILES IDX 84 46 38 47 87 48 81 49 80 50 39 52 69 53 50 54 68 55 51 56
REMARK SMILES IDX 54 57 67 58 85 59 52 60 53 61 66 63 86 64 55 65 40 66 41 67
REMARK SMILES IDX 49 68 42 69 48 70 43 71 44 72 45 73 46 74 47 75 70 76 71 77
REMARK SMILES IDX 79 78 72 79 78 80 73 81 74 82 75 83 76 84 77 85 56 86 57 87
REMARK SMILES IDX 65 88 58 89 64 90 59 91 60 92 61 93 62 94 63 95
REMARK H PARENT 21 7 8 16 28 32 84 51 54 62
REMARK Flexibility Score: inf
ROOT
ATOM      1  C   UNL A   1      36.982  22.198  24.075  1.00  0.00     0.002 C 
ENDROOT
BRANCH   1   2
ATOM      2  C   UNL A   1      37.181  21.053  25.080  1.00  0.00     0.021 C 
BRANCH   2   3
ATOM      3  C   UNL A   1      36.095  19.984  25.045  1.00  0.00     0.116 C 
BRANCH   3   4
ATOM      4  N   UNL A   1      34.827  20.551  24.643  1.00  0.00    -0.356 N 
ATOM      5  O   UNL A   1      33.593  18.617  24.771  1.00  0.00    -0.275 OA
ATOM      6  C   UNL A   1      33.666  19.822  24.588  1.00  0.00     0.220 C 
ATOM      7  H   UNL A   1      34.795  21.503  24.397  1.00  0.00     0.163 HD
BRANCH   6   8
ATOM      8  C   UNL A   1      32.450  20.673  24.300  1.00  0.00     0.100 C 
BRANCH   8   9
ATOM      9  C   UNL A   1      32.110  21.598  25.479  1.00  0.00     0.014 C 
BRANCH   9  10
ATOM     10  C   UNL A   1      32.531  23.072  25.248  1.00  0.00     0.000 C 
ATOM     11  C   UNL A   1      31.949  24.040  26.306  1.00  0.00     0.065 C 
ATOM     12  C   UNL A   1      32.192  23.500  23.809  1.00  0.00     0.065 C 
ATOM     13  C   UNL A   1      30.605  24.692  25.962  1.00  0.00     0.262 C 
ATOM     14  C   UNL A   1      30.767  24.014  23.674  1.00  0.00     0.262 C 
ATOM     15  N   UNL A   1      30.467  25.126  24.574  1.00  0.00    -0.332 N 
ATOM     16  H   UNL A   1      29.488  25.347  24.393  1.00  0.00     0.348 HD
BRANCH  15  17
ATOM     17  C   UNL A   1      30.987  26.479  24.256  1.00  0.00     0.189 C 
ATOM     18  C   UNL A   1      30.258  27.281  23.164  1.00  0.00     0.093 C 
ATOM     19  C   UNL A   1      31.181  27.327  25.530  1.00  0.00     0.101 C 
ATOM     20  C   UNL A   1      30.756  28.713  23.044  1.00  0.00     0.167 C 
ATOM     21  C   UNL A   1      31.674  28.757  25.255  1.00  0.00     0.084 C 
ATOM     22  O   UNL A   1      30.783  29.368  24.308  1.00  0.00    -0.374 OA
ATOM     23  C   UNL A   1      31.589  29.607  26.537  1.00  0.00     0.047 C 
ATOM     24  C   UNL A   1      33.141  28.857  24.793  1.00  0.00     0.105 C 
ATOM     25  C   UNL A   1      32.785  29.283  27.409  1.00  0.00     0.072 C 
ATOM     26  S   UNL A   1      34.169  29.165  26.258  1.00  0.00    -0.159 SA
ENDBRANCH  15  17
ENDBRANCH   9  10
ENDBRANCH   8   9
ENDBRANCH   6   8
ENDBRANCH   3   4
ENDBRANCH   2   3
ENDBRANCH   1   2
BRANCH   1  27
ATOM     27  C   UNL A   1      37.359  23.593  24.584  1.00  0.00     0.002 C 
BRANCH  27  28
ATOM     28  C   UNL A   1      37.199  23.799  26.091  1.00  0.00     0.021 C 
BRANCH  28  29
ATOM     29  C   UNL A   1      38.505  23.982  26.855  1.00  0.00     0.116 C 
BRANCH  29  30
ATOM     30  N   UNL A   1      39.626  24.281  25.979  1.00  0.00    -0.352 N 
ATOM     31  C   UNL A   1      40.551  25.293  26.079  1.00  0.00     0.251 C 
ATOM     32  H   UNL A   1      39.738  23.675  25.210  1.00  0.00     0.163 HD
ATOM     33  O   UNL A   1      41.335  25.502  25.159  1.00  0.00    -0.269 OA
BRANCH  31  34
ATOM     34  C   UNL A   1      40.572  26.145  27.288  1.00  0.00     0.039 A 
ATOM     35  C   UNL A   1      41.456  27.225  27.341  1.00  0.00     0.014 A 
ATOM     36  C   UNL A   1      39.705  25.893  28.356  1.00  0.00     0.014 A 
ATOM     37  C   UNL A   1      41.426  28.089  28.438  1.00  0.00     0.010 A 
ATOM     38  C   UNL A   1      39.623  26.800  29.409  1.00  0.00     0.010 A 
ATOM     39  C   UNL A   1      40.484  27.907  29.464  1.00  0.00    -0.014 A 
BRANCH  39  40
ATOM     40  C   UNL A   1      40.379  28.865  30.594  1.00  0.00     0.031 A 
ATOM     41  C   UNL A   1      41.250  28.703  31.811  1.00  0.00     0.074 A 
ATOM     42  C   UNL A   1      39.456  29.848  30.551  1.00  0.00     0.049 A 
ATOM     43  N   UNL A   1      41.269  29.410  32.911  1.00  0.00    -0.248 NA
ATOM     44  C   UNL A   1      42.209  27.586  31.800  1.00  0.00     0.031 C 
ATOM     45  C   UNL A   1      38.523  30.088  29.448  1.00  0.00     0.029 A 
ATOM     46  N   UNL A   1      39.146  30.827  31.464  1.00  0.00    -0.354 N 
ATOM     47  C   UNL A   1      42.226  28.819  33.727  1.00  0.00     0.074 A 
ATOM     48  C   UNL A   1      42.727  27.662  33.017  1.00  0.00     0.031 C 
ATOM     49  C   UNL A   1      37.770  31.162  29.733  1.00  0.00     0.029 A 
ATOM     50  C   UNL A   1      38.129  31.660  31.057  1.00  0.00     0.049 A 
ATOM     51  H   UNL A   1      39.609  30.924  32.328  1.00  0.00     0.167 HD
ATOM     52  C   UNL A   1      42.664  29.213  34.947  1.00  0.00     0.031 A 
ATOM     53  C   UNL A   1      37.544  32.700  31.681  1.00  0.00     0.031 A 
ATOM     54  C   UNL A   1      42.164  30.365  35.649  1.00  0.00     0.049 A 
ATOM     55  C   UNL A   1      38.031  33.105  33.046  1.00  0.00     0.074 A 
ATOM     56  C   UNL A   1      42.580  30.877  36.866  1.00  0.00     0.029 A 
ATOM     57  N   UNL A   1      41.134  31.181  35.204  1.00  0.00    -0.354 N 
ATOM     58  N   UNL A   1      38.987  32.573  33.770  1.00  0.00    -0.248 NA
ATOM     59  C   UNL A   1      37.369  34.257  33.672  1.00  0.00     0.031 C 
ATOM     60  C   UNL A   1      41.759  31.964  37.185  1.00  0.00     0.029 A 
ATOM     61  C   UNL A   1      40.881  32.174  36.135  1.00  0.00     0.049 A 
ATOM     62  H   UNL A   1      40.655  31.070  34.351  1.00  0.00     0.167 HD
ATOM     63  C   UNL A   1      39.061  33.346  34.925  1.00  0.00     0.074 A 
ATOM     64  C   UNL A   1      38.064  34.389  34.795  1.00  0.00     0.031 C 
ATOM     65  C   UNL A   1      39.883  33.207  35.995  1.00  0.00     0.031 A 
BRANCH  52  66
ATOM     66  C   UNL A   1      43.733  28.378  35.607  1.00  0.00    -0.014 A 
ATOM     67  C   UNL A   1      43.401  27.310  36.461  1.00  0.00     0.010 A 
ATOM     68  C   UNL A   1      45.089  28.642  35.341  1.00  0.00     0.010 A 
ATOM     69  C   UNL A   1      44.405  26.553  37.072  1.00  0.00     0.020 A 
ATOM     70  C   UNL A   1      46.096  27.866  35.924  1.00  0.00     0.020 A 
ATOM     71  C   UNL A   1      45.746  26.837  36.801  1.00  0.00     0.054 A 
BRANCH  71  72
ATOM     72  S   UNL A   1      47.025  25.825  37.595  1.00  0.00     0.124 S 
ATOM     73  O   UNL A   1      46.281  25.206  38.690  1.00  0.00    -0.237 OA
ATOM     74  O   UNL A   1      47.429  24.922  36.521  1.00  0.00    -0.237 OA
ATOM     75  O   UNL A   1      48.035  26.798  38.002  1.00  0.00    -0.744 OA
ENDBRANCH  71  72
ENDBRANCH  52  66
BRANCH  53  76
ATOM     76  C   UNL A   1      36.438  33.442  31.013  1.00  0.00    -0.014 A 
ATOM     77  C   UNL A   1      35.116  33.327  31.476  1.00  0.00     0.010 A 
ATOM     78  C   UNL A   1      36.706  34.282  29.916  1.00  0.00     0.010 A 
ATOM     79  C   UNL A   1      34.080  34.023  30.846  1.00  0.00     0.020 A 
ATOM     80  C   UNL A   1      35.679  35.004  29.303  1.00  0.00     0.020 A 
ATOM     81  C   UNL A   1      34.370  34.862  29.765  1.00  0.00     0.054 A 
BRANCH  81  82
ATOM     82  S   UNL A   1      33.017  35.799  28.999  1.00  0.00     0.124 S 
ATOM     83  O   UNL A   1      33.742  36.827  28.259  1.00  0.00    -0.237 OA
ATOM     84  O   UNL A   1      32.352  34.783  28.187  1.00  0.00    -0.237 OA
ATOM     85  O   UNL A   1      32.243  36.277  30.142  1.00  0.00    -0.744 OA
ENDBRANCH  81  82
ENDBRANCH  53  76
BRANCH  65  86
ATOM     86  C   UNL A   1      39.770  34.226  37.098  1.00  0.00    -0.014 A 
ATOM     87  C   UNL A   1      40.244  35.540  36.935  1.00  0.00     0.010 A 
ATOM     88  C   UNL A   1      39.125  33.876  38.299  1.00  0.00     0.010 A 
ATOM     89  C   UNL A   1      40.104  36.474  37.965  1.00  0.00     0.020 A 
ATOM     90  C   UNL A   1      38.954  34.816  39.318  1.00  0.00     0.020 A 
ATOM     91  C   UNL A   1      39.458  36.106  39.150  1.00  0.00     0.054 A 
BRANCH  91  92
ATOM     92  S   UNL A   1      39.248  37.351  40.452  1.00  0.00     0.124 S 
ATOM     93  O   UNL A   1      38.662  36.563  41.534  1.00  0.00    -0.237 OA
ATOM     94  O   UNL A   1      40.618  37.809  40.678  1.00  0.00    -0.237 OA
ATOM     95  O   UNL A   1      38.358  38.340  39.848  1.00  0.00    -0.744 OA
ENDBRANCH  91  92
ENDBRANCH  65  86
ENDBRANCH  39  40
ENDBRANCH  31  34
ENDBRANCH  29  30
ENDBRANCH  28  29
ENDBRANCH  27  28
ENDBRANCH   1  27
TORSDOF 19
ENDMDL
MODEL 3
REMARK VINA RESULT:     -11.0      6.215     10.724
REMARK SMILES O=C(CCC1CC[NH+]([C@H]2CCO[C@@]3(CCSC3)C2)CC1)NCCCCCCNC(=O)c1ccc(-c2c3nc(c(-c4ccc(S(=O)(=O)[O-])cc4)c4ccc([nH]4)c(-c4ccc(S(=O)(=O)[O-])cc4)c4nc(c(-c5ccc(S(=O)(=O)[O-])cc5)c5ccc2[nH]5)C=C4)C=C3)cc1
REMARK SMILES IDX 24 1 23 2 22 3 21 4 1 5 2 6 3 8 4 9 5 10 6 11 20 12 7 13
REMARK SMILES IDX 19 14 8 15 9 17 10 18 18 19 11 20 13 21 12 22 14 23 17 24
REMARK SMILES IDX 15 25 16 26 25 27 26 28 27 29 28 30 29 31 30 33 31 34 32 35
REMARK SMILES IDX 90 36 33 37 89 38 34 39 35 40 36 41 83 42 37 43 88 44 82 45
REMARK SMILES IDX 84 46 38 47 87 48 81 49 80 50 39 52 69 53 50 54 68 55 51 56
REMARK SMILES IDX 54 57 67 58 85 59 52 60 53 61 66 63 86 64 55 65 40 66 41 67
REMARK SMILES IDX 49 68 42 69 48 70 43 71 44 72 45 73 46 74 47 75 70 76 71 77
REMARK SMILES IDX 79 78 72 79 78 80 73 81 74 82 75 83 76 84 77 85 56 86 57 87
REMARK SMILES IDX 65 88 58 89 64 90 59 91 60 92 61 93 62 94 63 95
REMARK H PARENT 21 7 8 16 28 32 84 51 54 62
REMARK Flexibility Score: inf
ROOT
ATOM      1  C   UNL A   1      37.108  22.720  25.311  1.00  0.00     0.002 C 
ENDROOT
BRANCH   1   2
ATOM      2  C   UNL A   1      36.549  22.189  23.981  1.00  0.00     0.021 C 
BRANCH   2   3
ATOM      3  C   UNL A   1      35.514  23.093  23.322  1.00  0.00     0.116 C 
BRANCH   3   4
ATOM      4  N   UNL A   1      34.578  23.600  24.300  1.00  0.00    -0.356 N 
ATOM      5  O   UNL A   1      33.012  21.931  24.094  1.00  0.00    -0.275 OA
ATOM      6  C   UNL A   1      33.421  22.944  24.640  1.00  0.00     0.220 C 
ATOM      7  H   UNL A   1      34.779  24.456  24.744  1.00  0.00     0.163 HD
BRANCH   6   8
ATOM      8  C   UNL A   1      32.696  23.589  25.799  1.00  0.00     0.100 C 
BRANCH   8   9
ATOM      9  C   UNL A   1      32.612  25.114  25.640  1.00  0.00     0.014 C 
BRANCH   9  10
ATOM     10  C   UNL A   1      31.247  25.602  25.088  1.00  0.00     0.000 C 
ATOM     11  C   UNL A   1      31.149  25.505  23.547  1.00  0.00     0.065 C 
ATOM     12  C   UNL A   1      30.941  27.018  25.609  1.00  0.00     0.065 C 
ATOM     13  C   UNL A   1      31.566  26.754  22.760  1.00  0.00     0.262 C 
ATOM     14  C   UNL A   1      31.546  28.105  24.734  1.00  0.00     0.262 C 
ATOM     15  N   UNL A   1      31.124  28.021  23.336  1.00  0.00    -0.332 N 
ATOM     16  H   UNL A   1      31.617  28.784  22.873  1.00  0.00     0.348 HD
BRANCH  15  17
ATOM     17  C   UNL A   1      29.762  28.473  22.960  1.00  0.00     0.189 C 
ATOM     18  C   UNL A   1      28.571  27.650  23.483  1.00  0.00     0.093 C 
ATOM     19  C   UNL A   1      29.563  29.976  23.243  1.00  0.00     0.101 C 
ATOM     20  C   UNL A   1      27.226  28.297  23.192  1.00  0.00     0.167 C 
ATOM     21  C   UNL A   1      28.151  30.489  22.915  1.00  0.00     0.084 C 
ATOM     22  O   UNL A   1      27.199  29.660  23.603  1.00  0.00    -0.374 OA
ATOM     23  C   UNL A   1      27.959  31.914  23.467  1.00  0.00     0.047 C 
ATOM     24  C   UNL A   1      27.831  30.583  21.411  1.00  0.00     0.105 C 
ATOM     25  C   UNL A   1      28.615  32.891  22.512  1.00  0.00     0.072 C 
ATOM     26  S   UNL A   1      28.187  32.280  20.870  1.00  0.00    -0.159 SA
ENDBRANCH  15  17
ENDBRANCH   9  10
ENDBRANCH   8   9
ENDBRANCH   6   8
ENDBRANCH   3   4
ENDBRANCH   2   3
ENDBRANCH   1   2
BRANCH   1  27
ATOM     27  C   UNL A   1      38.394  22.046  25.800  1.00  0.00     0.002 C 
BRANCH  27  28
ATOM     28  C   UNL A   1      39.181  22.835  26.847  1.00  0.00     0.021 C 
BRANCH  28  29
ATOM     29  C   UNL A   1      39.188  24.346  26.641  1.00  0.00     0.116 C 
BRANCH  29  30
ATOM     30  N   UNL A   1      40.242  24.779  25.738  1.00  0.00    -0.352 N 
ATOM     31  C   UNL A   1      41.074  25.867  25.846  1.00  0.00     0.251 C 
ATOM     32  H   UNL A   1      40.378  24.216  24.942  1.00  0.00     0.163 HD
ATOM     33  O   UNL A   1      41.800  26.182  24.908  1.00  0.00    -0.269 OA
BRANCH  31  34
ATOM     34  C   UNL A   1      41.066  26.672  27.088  1.00  0.00     0.039 A 
ATOM     35  C   UNL A   1      41.784  27.869  27.124  1.00  0.00     0.014 A 
ATOM     36  C   UNL A   1      40.331  26.258  28.203  1.00  0.00     0.014 A 
ATOM     37  C   UNL A   1      41.714  28.682  28.258  1.00  0.00     0.010 A 
ATOM     38  C   UNL A   1      40.200  27.106  29.299  1.00  0.00     0.010 A 
ATOM     39  C   UNL A   1      40.892  28.327  29.340  1.00  0.00    -0.014 A 
BRANCH  39  40
ATOM     40  C   UNL A   1      40.737  29.221  30.518  1.00  0.00     0.031 A 
ATOM     41  C   UNL A   1      41.611  29.039  31.730  1.00  0.00     0.074 A 
ATOM     42  C   UNL A   1      39.768  30.159  30.519  1.00  0.00     0.049 A 
ATOM     43  N   UNL A   1      41.592  29.689  32.864  1.00  0.00    -0.248 NA
ATOM     44  C   UNL A   1      42.623  27.971  31.668  1.00  0.00     0.031 C 
ATOM     45  C   UNL A   1      38.829  30.409  29.424  1.00  0.00     0.029 A 
ATOM     46  N   UNL A   1      39.408  31.074  31.478  1.00  0.00    -0.354 N 
ATOM     47  C   UNL A   1      42.574  29.104  33.655  1.00  0.00     0.074 A 
ATOM     48  C   UNL A   1      43.133  28.010  32.890  1.00  0.00     0.031 C 
ATOM     49  C   UNL A   1      38.024  31.430  29.759  1.00  0.00     0.029 A 
ATOM     50  C   UNL A   1      38.354  31.876  31.108  1.00  0.00     0.049 A 
ATOM     51  H   UNL A   1      39.864  31.149  32.348  1.00  0.00     0.167 HD
ATOM     52  C   UNL A   1      42.989  29.456  34.896  1.00  0.00     0.031 A 
ATOM     53  C   UNL A   1      37.717  32.855  31.781  1.00  0.00     0.031 A 
ATOM     54  C   UNL A   1      42.431  30.546  35.652  1.00  0.00     0.049 A 
ATOM     55  C   UNL A   1      38.179  33.213  33.167  1.00  0.00     0.074 A 
ATOM     56  C   UNL A   1      42.818  31.014  36.896  1.00  0.00     0.029 A 
ATOM     57  N   UNL A   1      41.365  31.333  35.242  1.00  0.00    -0.354 N 
ATOM     58  N   UNL A   1      39.158  32.691  33.869  1.00  0.00    -0.248 NA
ATOM     59  C   UNL A   1      37.461  34.298  33.847  1.00  0.00     0.031 C 
ATOM     60  C   UNL A   1      41.945  32.043  37.265  1.00  0.00     0.029 A 
ATOM     61  C   UNL A   1      41.061  32.264  36.221  1.00  0.00     0.049 A 
ATOM     62  H   UNL A   1      40.894  31.242  34.382  1.00  0.00     0.167 HD
ATOM     63  C   UNL A   1      39.191  33.407  35.062  1.00  0.00     0.074 A 
ATOM     64  C   UNL A   1      38.145  34.407  34.979  1.00  0.00     0.031 C 
ATOM     65  C   UNL A   1      40.015  33.253  36.128  1.00  0.00     0.031 A 
BRANCH  52  66
ATOM     66  C   UNL A   1      44.094  28.641  35.519  1.00  0.00    -0.014 A 
ATOM     67  C   UNL A   1      45.441  29.028  35.400  1.00  0.00     0.010 A 
ATOM     68  C   UNL A   1      43.780  27.491  36.266  1.00  0.00     0.010 A 
ATOM     69  C   UNL A   1      46.455  28.257  35.977  1.00  0.00     0.020 A 
ATOM     70  C   UNL A   1      44.787  26.735  36.872  1.00  0.00     0.020 A 
ATOM     71  C   UNL A   1      46.121  27.114  36.707  1.00  0.00     0.054 A 
BRANCH  71  72
ATOM     72  S   UNL A   1      47.456  26.143  37.458  1.00  0.00     0.124 S 
ATOM     73  O   UNL A   1      47.317  26.485  38.872  1.00  0.00    -0.237 OA
ATOM     74  O   UNL A   1      47.093  24.773  37.106  1.00  0.00    -0.237 OA
ATOM     75  O   UNL A   1      48.663  26.651  36.812  1.00  0.00    -0.744 OA
ENDBRANCH  71  72
ENDBRANCH  52  66
BRANCH  53  76
ATOM     76  C   UNL A   1      36.579  33.575  31.144  1.00  0.00    -0.014 A 
ATOM     77  C   UNL A   1      36.500  33.695  29.745  1.00  0.00     0.010 A 
ATOM     78  C   UNL A   1      35.557  34.132  31.935  1.00  0.00     0.010 A 
ATOM     79  C   UNL A   1      35.431  34.372  29.151  1.00  0.00     0.020 A 
ATOM     80  C   UNL A   1      34.471  34.782  31.344  1.00  0.00     0.020 A 
ATOM     81  C   UNL A   1      34.420  34.907  29.955  1.00  0.00     0.054 A 
BRANCH  81  82
ATOM     82  S   UNL A   1      33.014  35.733  29.157  1.00  0.00     0.124 S 
ATOM     83  O   UNL A   1      33.658  36.873  28.513  1.00  0.00    -0.237 OA
ATOM     84  O   UNL A   1      32.511  34.697  28.258  1.00  0.00    -0.237 OA
ATOM     85  O   UNL A   1      32.131  36.059  30.275  1.00  0.00    -0.744 OA
ENDBRANCH  81  82
ENDBRANCH  53  76
BRANCH  65  86
ATOM     86  C   UNL A   1      39.849  34.209  37.281  1.00  0.00    -0.014 A 
ATOM     87  C   UNL A   1      40.415  35.495  37.255  1.00  0.00     0.010 A 
ATOM     88  C   UNL A   1      39.063  33.829  38.385  1.00  0.00     0.010 A 
ATOM     89  C   UNL A   1      40.225  36.372  38.326  1.00  0.00     0.020 A 
ATOM     90  C   UNL A   1      38.844  34.715  39.443  1.00  0.00     0.020 A 
ATOM     91  C   UNL A   1      39.439  35.976  39.413  1.00  0.00     0.054 A 
BRANCH  91  92
ATOM     92  S   UNL A   1      39.170  37.150  40.769  1.00  0.00     0.124 S 
ATOM     93  O   UNL A   1      38.517  36.313  41.771  1.00  0.00    -0.237 OA
ATOM     94  O   UNL A   1      40.529  37.578  41.095  1.00  0.00    -0.237 OA
ATOM     95  O   UNL A   1      38.325  38.183  40.173  1.00  0.00    -0.744 OA
ENDBRANCH  91  92
ENDBRANCH  65  86
ENDBRANCH  39  40
ENDBRANCH  31  34
ENDBRANCH  29  30
ENDBRANCH  28  29
ENDBRANCH  27  28
ENDBRANCH   1  27
TORSDOF 19
ENDMDL
