MODEL 1
REMARK VINA RESULT:     -12.5      0.000      0.000
REMARK SMILES Cc1cc(=O)n2cc(-c3ccccc3)nc2n1[C@H](C)C(=O)NCCCCCCNC(=O)c1ccc(-c2c3nc(c(-c4ccc(S(=O)(=O)[O-])cc4)c4ccc([nH]4)c(-c4ccc(S(=O)(=O)[O-])cc4)c4nc(c(-c5ccc(S(=O)(=O)[O-])cc5)c5ccc2[nH]5)C=C4)C=C3)cc1
REMARK SMILES IDX 26 1 25 2 24 3 23 4 22 5 20 6 21 7 18 9 19 10 17 11 1 12
REMARK SMILES IDX 2 13 3 14 4 15 16 16 5 17 6 18 15 19 7 20 8 21 9 22 10 23
REMARK SMILES IDX 14 24 11 25 13 26 12 27 27 28 28 29 29 30 30 31 31 33 32 34
REMARK SMILES IDX 33 35 91 36 34 37 90 38 35 39 36 40 37 41 84 42 38 43 89 44
REMARK SMILES IDX 83 45 85 46 39 47 88 48 82 49 81 50 40 52 70 53 51 54 69 55
REMARK SMILES IDX 52 56 55 57 68 58 86 59 53 60 54 61 67 63 87 64 56 65 41 66
REMARK SMILES IDX 42 67 50 68 43 69 49 70 44 71 45 72 46 73 47 74 48 75 71 76
REMARK SMILES IDX 72 77 80 78 73 79 79 80 74 81 75 82 76 83 77 84 78 85 57 86
REMARK SMILES IDX 58 87 66 88 59 89 65 90 60 91 61 92 62 93 63 94 64 95
REMARK H PARENT 22 8 29 32 85 51 55 62
REMARK Flexibility Score: inf
ROOT
ATOM      1  C   UNL A   1      38.276  23.248  26.054  1.00  0.00     0.002 C 
ENDROOT
BRANCH   1   2
ATOM      2  C   UNL A   1      36.765  23.329  25.771  1.00  0.00     0.002 C 
BRANCH   2   3
ATOM      3  C   UNL A   1      36.139  22.143  25.040  1.00  0.00     0.021 C 
BRANCH   3   4
ATOM      4  C   UNL A   1      34.904  21.550  25.694  1.00  0.00     0.116 C 
BRANCH   4   5
ATOM      5  N   UNL A   1      34.336  22.364  26.737  1.00  0.00    -0.354 N 
ATOM      6  C   UNL A   1      33.025  22.683  26.918  1.00  0.00     0.242 C 
ATOM      7  O   UNL A   1      32.723  23.187  28.009  1.00  0.00    -0.273 OA
ATOM      8  H   UNL A   1      34.969  22.732  27.396  1.00  0.00     0.163 HD
BRANCH   6   9
ATOM      9  C   UNL A   1      31.934  22.445  25.842  1.00  0.00     0.176 C 
ATOM     10  C   UNL A   1      30.480  22.389  26.304  1.00  0.00     0.042 C 
BRANCH   9  11
ATOM     11  N   UNL A   1      32.205  23.204  24.573  1.00  0.00    -0.303 N 
ATOM     12  C   UNL A   1      32.164  21.055  23.195  1.00  0.00     0.065 C 
ATOM     13  C   UNL A   1      32.418  22.539  23.339  1.00  0.00     0.024 A 
ATOM     14  C   UNL A   1      32.861  23.183  22.243  1.00  0.00     0.093 A 
ATOM     15  C   UNL A   1      33.191  24.612  22.301  1.00  0.00     0.259 A 
ATOM     16  C   UNL A   1      32.414  24.570  24.633  1.00  0.00     0.218 A 
ATOM     17  O   UNL A   1      33.669  25.248  21.368  1.00  0.00    -0.269 OA
ATOM     18  N   UNL A   1      32.936  25.217  23.520  1.00  0.00    -0.251 N 
ATOM     19  N   UNL A   1      32.223  25.448  25.600  1.00  0.00    -0.212 NA
ATOM     20  C   UNL A   1      33.185  26.524  23.869  1.00  0.00     0.127 A 
ATOM     21  C   UNL A   1      32.730  26.648  25.156  1.00  0.00     0.091 A 
BRANCH  21  22
ATOM     22  C   UNL A   1      32.850  27.854  25.951  1.00  0.00     0.002 A 
ATOM     23  C   UNL A   1      34.053  28.190  26.579  1.00  0.00     0.010 A 
ATOM     24  C   UNL A   1      31.742  28.703  26.103  1.00  0.00     0.010 A 
ATOM     25  C   UNL A   1      34.147  29.363  27.339  1.00  0.00     0.001 A 
ATOM     26  C   UNL A   1      31.845  29.885  26.842  1.00  0.00     0.001 A 
ATOM     27  C   UNL A   1      33.049  30.216  27.459  1.00  0.00     0.000 A 
ENDBRANCH  21  22
ENDBRANCH   9  11
ENDBRANCH   6   9
ENDBRANCH   4   5
ENDBRANCH   3   4
ENDBRANCH   2   3
ENDBRANCH   1   2
BRANCH   1  28
ATOM     28  C   UNL A   1      38.949  21.896  25.797  1.00  0.00     0.021 C 
BRANCH  28  29
ATOM     29  C   UNL A   1      40.223  21.688  26.585  1.00  0.00     0.116 C 
BRANCH  29  30
ATOM     30  N   UNL A   1      41.441  21.795  25.791  1.00  0.00    -0.352 N 
ATOM     31  C   UNL A   1      42.192  22.936  25.550  1.00  0.00     0.251 C 
ATOM     32  H   UNL A   1      41.769  20.963  25.379  1.00  0.00     0.163 HD
ATOM     33  O   UNL A   1      43.031  22.950  24.656  1.00  0.00    -0.269 OA
BRANCH  31  34
ATOM     34  C   UNL A   1      41.947  24.141  26.376  1.00  0.00     0.039 A 
ATOM     35  C   UNL A   1      42.452  24.270  27.672  1.00  0.00     0.014 A 
ATOM     36  C   UNL A   1      41.220  25.183  25.814  1.00  0.00     0.014 A 
ATOM     37  C   UNL A   1      42.267  25.478  28.350  1.00  0.00     0.010 A 
ATOM     38  C   UNL A   1      41.246  26.427  26.375  1.00  0.00     0.010 A 
ATOM     39  C   UNL A   1      41.673  26.564  27.684  1.00  0.00    -0.014 A 
BRANCH  39  40
ATOM     40  C   UNL A   1      41.526  27.875  28.306  1.00  0.00     0.031 A 
ATOM     41  C   UNL A   1      42.596  28.847  27.972  1.00  0.00     0.074 A 
ATOM     42  C   UNL A   1      40.417  28.257  28.981  1.00  0.00     0.049 A 
ATOM     43  N   UNL A   1      43.522  29.279  28.758  1.00  0.00    -0.248 NA
ATOM     44  C   UNL A   1      42.746  29.283  26.574  1.00  0.00     0.031 C 
ATOM     45  C   UNL A   1      39.149  27.534  29.168  1.00  0.00     0.029 A 
ATOM     46  N   UNL A   1      40.152  29.456  29.564  1.00  0.00    -0.354 N 
ATOM     47  C   UNL A   1      44.248  30.211  28.025  1.00  0.00     0.074 A 
ATOM     48  C   UNL A   1      43.840  30.047  26.651  1.00  0.00     0.031 C 
ATOM     49  C   UNL A   1      38.188  28.393  29.578  1.00  0.00     0.029 A 
ATOM     50  C   UNL A   1      38.814  29.663  29.883  1.00  0.00     0.049 A 
ATOM     51  H   UNL A   1      40.851  30.123  29.746  1.00  0.00     0.167 HD
ATOM     52  C   UNL A   1      44.959  31.196  28.642  1.00  0.00     0.031 A 
ATOM     53  C   UNL A   1      38.260  30.803  30.366  1.00  0.00     0.031 A 
ATOM     54  C   UNL A   1      45.083  30.954  30.057  1.00  0.00     0.049 A 
ATOM     55  C   UNL A   1      39.362  31.572  30.991  1.00  0.00     0.074 A 
ATOM     56  C   UNL A   1      45.643  29.954  30.826  1.00  0.00     0.029 A 
ATOM     57  N   UNL A   1      44.210  31.624  30.882  1.00  0.00    -0.354 N 
ATOM     58  N   UNL A   1      40.013  31.158  32.042  1.00  0.00    -0.248 NA
ATOM     59  C   UNL A   1      40.050  32.563  30.179  1.00  0.00     0.031 C 
ATOM     60  C   UNL A   1      44.729  29.769  31.905  1.00  0.00     0.029 A 
ATOM     61  C   UNL A   1      43.708  30.715  31.779  1.00  0.00     0.049 A 
ATOM     62  H   UNL A   1      43.984  32.582  30.837  1.00  0.00     0.167 HD
ATOM     63  C   UNL A   1      41.338  31.487  31.791  1.00  0.00     0.074 A 
ATOM     64  C   UNL A   1      41.284  32.436  30.678  1.00  0.00     0.031 C 
ATOM     65  C   UNL A   1      42.363  30.755  32.319  1.00  0.00     0.031 A 
BRANCH  52  66
ATOM     66  C   UNL A   1      45.202  32.561  28.050  1.00  0.00    -0.014 A 
ATOM     67  C   UNL A   1      46.446  33.184  28.274  1.00  0.00     0.010 A 
ATOM     68  C   UNL A   1      44.167  33.363  27.528  1.00  0.00     0.010 A 
ATOM     69  C   UNL A   1      46.622  34.556  28.056  1.00  0.00     0.020 A 
ATOM     70  C   UNL A   1      44.344  34.722  27.266  1.00  0.00     0.020 A 
ATOM     71  C   UNL A   1      45.562  35.318  27.566  1.00  0.00     0.054 A 
BRANCH  71  72
ATOM     72  S   UNL A   1      45.766  37.108  27.399  1.00  0.00     0.124 S 
ATOM     73  O   UNL A   1      46.252  37.480  28.724  1.00  0.00    -0.237 OA
ATOM     74  O   UNL A   1      46.739  37.207  26.314  1.00  0.00    -0.237 OA
ATOM     75  O   UNL A   1      44.422  37.576  27.070  1.00  0.00    -0.744 OA
ENDBRANCH  71  72
ENDBRANCH  52  66
BRANCH  53  76
ATOM     76  C   UNL A   1      36.941  31.402  30.036  1.00  0.00    -0.014 A 
ATOM     77  C   UNL A   1      36.106  31.909  31.050  1.00  0.00     0.010 A 
ATOM     78  C   UNL A   1      36.639  31.753  28.704  1.00  0.00     0.010 A 
ATOM     79  C   UNL A   1      35.058  32.796  30.750  1.00  0.00     0.020 A 
ATOM     80  C   UNL A   1      35.593  32.633  28.397  1.00  0.00     0.020 A 
ATOM     81  C   UNL A   1      34.825  33.175  29.427  1.00  0.00     0.054 A 
BRANCH  81  82
ATOM     82  S   UNL A   1      33.601  34.472  29.070  1.00  0.00     0.124 S 
ATOM     83  O   UNL A   1      34.426  35.536  28.506  1.00  0.00    -0.237 OA
ATOM     84  O   UNL A   1      32.699  33.807  28.133  1.00  0.00    -0.237 OA
ATOM     85  O   UNL A   1      33.019  34.767  30.379  1.00  0.00    -0.744 OA
ENDBRANCH  81  82
ENDBRANCH  53  76
BRANCH  65  86
ATOM     86  C   UNL A   1      42.050  29.740  33.398  1.00  0.00    -0.014 A 
ATOM     87  C   UNL A   1      41.597  28.430  33.141  1.00  0.00     0.010 A 
ATOM     88  C   UNL A   1      42.392  30.079  34.719  1.00  0.00     0.010 A 
ATOM     89  C   UNL A   1      41.476  27.494  34.182  1.00  0.00     0.020 A 
ATOM     90  C   UNL A   1      42.291  29.148  35.755  1.00  0.00     0.020 A 
ATOM     91  C   UNL A   1      41.829  27.861  35.484  1.00  0.00     0.054 A 
BRANCH  91  92
ATOM     92  S   UNL A   1      41.723  26.637  36.822  1.00  0.00     0.124 S 
ATOM     93  O   UNL A   1      40.460  26.979  37.470  1.00  0.00    -0.237 OA
ATOM     94  O   UNL A   1      41.735  25.366  36.101  1.00  0.00    -0.237 OA
ATOM     95  O   UNL A   1      42.918  26.893  37.626  1.00  0.00    -0.744 OA
ENDBRANCH  91  92
ENDBRANCH  65  86
ENDBRANCH  39  40
ENDBRANCH  31  34
ENDBRANCH  29  30
ENDBRANCH  28  29
ENDBRANCH   1  28
TORSDOF 18
ENDMDL
MODEL 2
REMARK VINA RESULT:     -12.1      1.762      2.632
REMARK SMILES Cc1cc(=O)n2cc(-c3ccccc3)nc2n1[C@H](C)C(=O)NCCCCCCNC(=O)c1ccc(-c2c3nc(c(-c4ccc(S(=O)(=O)[O-])cc4)c4ccc([nH]4)c(-c4ccc(S(=O)(=O)[O-])cc4)c4nc(c(-c5ccc(S(=O)(=O)[O-])cc5)c5ccc2[nH]5)C=C4)C=C3)cc1
REMARK SMILES IDX 26 1 25 2 24 3 23 4 22 5 20 6 21 7 18 9 19 10 17 11 1 12
REMARK SMILES IDX 2 13 3 14 4 15 16 16 5 17 6 18 15 19 7 20 8 21 9 22 10 23
REMARK SMILES IDX 14 24 11 25 13 26 12 27 27 28 28 29 29 30 30 31 31 33 32 34
REMARK SMILES IDX 33 35 91 36 34 37 90 38 35 39 36 40 37 41 84 42 38 43 89 44
REMARK SMILES IDX 83 45 85 46 39 47 88 48 82 49 81 50 40 52 70 53 51 54 69 55
REMARK SMILES IDX 52 56 55 57 68 58 86 59 53 60 54 61 67 63 87 64 56 65 41 66
REMARK SMILES IDX 42 67 50 68 43 69 49 70 44 71 45 72 46 73 47 74 48 75 71 76
REMARK SMILES IDX 72 77 80 78 73 79 79 80 74 81 75 82 76 83 77 84 78 85 57 86
REMARK SMILES IDX 58 87 66 88 59 89 65 90 60 91 61 92 62 93 63 94 64 95
REMARK H PARENT 22 8 29 32 85 51 55 62
REMARK Flexibility Score: inf
ROOT
ATOM      1  C   UNL A   1      36.156  20.676  25.036  1.00  0.00     0.002 C 
ENDROOT
BRANCH   1   2
ATOM      2  C   UNL A   1      34.869  21.094  25.769  1.00  0.00     0.002 C 
BRANCH   2   3
ATOM      3  C   UNL A   1      33.549  20.618  25.164  1.00  0.00     0.021 C 
BRANCH   3   4
ATOM      4  C   UNL A   1      32.511  21.700  24.928  1.00  0.00     0.116 C 
BRANCH   4   5
ATOM      5  N   UNL A   1      32.124  22.421  26.113  1.00  0.00    -0.354 N 
ATOM      6  C   UNL A   1      32.123  23.769  26.301  1.00  0.00     0.242 C 
ATOM      7  O   UNL A   1      31.523  24.189  27.300  1.00  0.00    -0.273 OA
ATOM      8  H   UNL A   1      31.825  21.875  26.876  1.00  0.00     0.163 HD
BRANCH   6   9
ATOM      9  C   UNL A   1      32.821  24.764  25.337  1.00  0.00     0.176 C 
ATOM     10  C   UNL A   1      33.671  24.184  24.210  1.00  0.00     0.042 C 
BRANCH   9  11
ATOM     11  N   UNL A   1      31.940  25.930  24.982  1.00  0.00    -0.303 N 
ATOM     12  C   UNL A   1      30.431  24.446  23.555  1.00  0.00     0.065 C 
ATOM     13  C   UNL A   1      30.873  25.802  24.057  1.00  0.00     0.024 A 
ATOM     14  C   UNL A   1      30.209  26.869  23.575  1.00  0.00     0.093 A 
ATOM     15  C   UNL A   1      30.606  28.229  23.959  1.00  0.00     0.259 A 
ATOM     16  C   UNL A   1      32.274  27.192  25.438  1.00  0.00     0.218 A 
ATOM     17  O   UNL A   1      30.099  29.249  23.505  1.00  0.00    -0.269 OA
ATOM     18  N   UNL A   1      31.632  28.294  24.886  1.00  0.00    -0.251 N 
ATOM     19  N   UNL A   1      33.146  27.600  26.340  1.00  0.00    -0.212 NA
ATOM     20  C   UNL A   1      32.228  29.426  25.390  1.00  0.00     0.127 A 
ATOM     21  C   UNL A   1      33.156  28.976  26.292  1.00  0.00     0.091 A 
BRANCH  21  22
ATOM     22  C   UNL A   1      34.067  29.835  27.023  1.00  0.00     0.002 A 
ATOM     23  C   UNL A   1      33.701  31.133  27.390  1.00  0.00     0.010 A 
ATOM     24  C   UNL A   1      35.345  29.365  27.367  1.00  0.00     0.010 A 
ATOM     25  C   UNL A   1      34.596  31.944  28.099  1.00  0.00     0.001 A 
ATOM     26  C   UNL A   1      36.227  30.167  28.096  1.00  0.00     0.001 A 
ATOM     27  C   UNL A   1      35.852  31.457  28.464  1.00  0.00     0.000 A 
ENDBRANCH  21  22
ENDBRANCH   9  11
ENDBRANCH   6   9
ENDBRANCH   4   5
ENDBRANCH   3   4
ENDBRANCH   2   3
ENDBRANCH   1   2
BRANCH   1  28
ATOM     28  C   UNL A   1      36.986  21.802  24.413  1.00  0.00     0.021 C 
BRANCH  28  29
ATOM     29  C   UNL A   1      37.905  22.499  25.391  1.00  0.00     0.116 C 
BRANCH  29  30
ATOM     30  N   UNL A   1      38.707  21.594  26.206  1.00  0.00    -0.352 N 
ATOM     31  C   UNL A   1      39.782  21.921  27.018  1.00  0.00     0.251 C 
ATOM     32  H   UNL A   1      38.455  20.642  26.178  1.00  0.00     0.163 HD
ATOM     33  O   UNL A   1      40.534  21.047  27.435  1.00  0.00    -0.269 OA
BRANCH  31  34
ATOM     34  C   UNL A   1      40.018  23.344  27.355  1.00  0.00     0.039 A 
ATOM     35  C   UNL A   1      39.025  24.317  27.213  1.00  0.00     0.014 A 
ATOM     36  C   UNL A   1      41.262  23.699  27.861  1.00  0.00     0.014 A 
ATOM     37  C   UNL A   1      39.290  25.618  27.648  1.00  0.00     0.010 A 
ATOM     38  C   UNL A   1      41.435  24.895  28.496  1.00  0.00     0.010 A 
ATOM     39  C   UNL A   1      40.500  25.896  28.308  1.00  0.00    -0.014 A 
BRANCH  39  40
ATOM     40  C   UNL A   1      40.803  27.212  28.859  1.00  0.00     0.031 A 
ATOM     41  C   UNL A   1      41.939  27.912  28.211  1.00  0.00     0.074 A 
ATOM     42  C   UNL A   1      40.011  27.842  29.758  1.00  0.00     0.049 A 
ATOM     43  N   UNL A   1      43.105  28.131  28.718  1.00  0.00    -0.248 NA
ATOM     44  C   UNL A   1      41.822  28.291  26.793  1.00  0.00     0.031 C 
ATOM     45  C   UNL A   1      38.705  27.428  30.295  1.00  0.00     0.029 A 
ATOM     46  N   UNL A   1      40.168  29.075  30.307  1.00  0.00    -0.354 N 
ATOM     47  C   UNL A   1      43.806  28.867  27.770  1.00  0.00     0.074 A 
ATOM     48  C   UNL A   1      43.039  28.787  26.552  1.00  0.00     0.031 C 
ATOM     49  C   UNL A   1      38.089  28.486  30.869  1.00  0.00     0.029 A 
ATOM     50  C   UNL A   1      39.032  29.584  30.928  1.00  0.00     0.049 A 
ATOM     51  H   UNL A   1      41.018  29.568  30.269  1.00  0.00     0.167 HD
ATOM     52  C   UNL A   1      44.847  29.671  28.129  1.00  0.00     0.031 A 
ATOM     53  C   UNL A   1      38.879  30.824  31.456  1.00  0.00     0.031 A 
ATOM     54  C   UNL A   1      45.268  29.420  29.484  1.00  0.00     0.049 A 
ATOM     55  C   UNL A   1      40.243  31.329  31.741  1.00  0.00     0.074 A 
ATOM     56  C   UNL A   1      45.773  28.326  30.158  1.00  0.00     0.029 A 
ATOM     57  N   UNL A   1      44.798  30.278  30.451  1.00  0.00    -0.354 N 
ATOM     58  N   UNL A   1      41.033  30.787  32.627  1.00  0.00    -0.248 NA
ATOM     59  C   UNL A   1      40.903  32.130  30.723  1.00  0.00     0.031 C 
ATOM     60  C   UNL A   1      45.143  28.363  31.437  1.00  0.00     0.029 A 
ATOM     61  C   UNL A   1      44.354  29.515  31.501  1.00  0.00     0.049 A 
ATOM     62  H   UNL A   1      44.782  31.262  30.399  1.00  0.00     0.167 HD
ATOM     63  C   UNL A   1      42.290  30.805  32.040  1.00  0.00     0.074 A 
ATOM     64  C   UNL A   1      42.164  31.730  30.913  1.00  0.00     0.031 C 
ATOM     65  C   UNL A   1      43.231  29.864  32.348  1.00  0.00     0.031 A 
BRANCH  52  66
ATOM     66  C   UNL A   1      45.223  30.939  27.407  1.00  0.00    -0.014 A 
ATOM     67  C   UNL A   1      46.541  31.079  26.928  1.00  0.00     0.010 A 
ATOM     68  C   UNL A   1      44.422  32.098  27.431  1.00  0.00     0.010 A 
ATOM     69  C   UNL A   1      47.052  32.330  26.560  1.00  0.00     0.020 A 
ATOM     70  C   UNL A   1      44.908  33.342  27.026  1.00  0.00     0.020 A 
ATOM     71  C   UNL A   1      46.233  33.456  26.627  1.00  0.00     0.054 A 
BRANCH  71  72
ATOM     72  S   UNL A   1      46.938  35.082  26.262  1.00  0.00     0.124 S 
ATOM     73  O   UNL A   1      47.711  35.353  27.469  1.00  0.00    -0.237 OA
ATOM     74  O   UNL A   1      47.716  34.817  25.055  1.00  0.00    -0.237 OA
ATOM     75  O   UNL A   1      45.763  35.928  26.066  1.00  0.00    -0.744 OA
ENDBRANCH  71  72
ENDBRANCH  52  66
BRANCH  53  76
ATOM     76  C   UNL A   1      37.683  31.703  31.419  1.00  0.00    -0.014 A 
ATOM     77  C   UNL A   1      36.468  31.294  32.000  1.00  0.00     0.010 A 
ATOM     78  C   UNL A   1      37.820  33.067  31.084  1.00  0.00     0.010 A 
ATOM     79  C   UNL A   1      35.461  32.224  32.309  1.00  0.00     0.020 A 
ATOM     80  C   UNL A   1      36.818  33.999  31.384  1.00  0.00     0.020 A 
ATOM     81  C   UNL A   1      35.654  33.577  32.024  1.00  0.00     0.054 A 
BRANCH  81  82
ATOM     82  S   UNL A   1      34.435  34.796  32.604  1.00  0.00     0.124 S 
ATOM     83  O   UNL A   1      35.210  35.585  33.556  1.00  0.00    -0.237 OA
ATOM     84  O   UNL A   1      34.061  35.483  31.370  1.00  0.00    -0.237 OA
ATOM     85  O   UNL A   1      33.379  33.975  33.194  1.00  0.00    -0.744 OA
ENDBRANCH  81  82
ENDBRANCH  53  76
BRANCH  65  86
ATOM     86  C   UNL A   1      42.987  28.956  33.536  1.00  0.00    -0.014 A 
ATOM     87  C   UNL A   1      43.101  29.369  34.880  1.00  0.00     0.010 A 
ATOM     88  C   UNL A   1      42.456  27.682  33.273  1.00  0.00     0.010 A 
ATOM     89  C   UNL A   1      42.709  28.519  35.928  1.00  0.00     0.020 A 
ATOM     90  C   UNL A   1      42.047  26.839  34.310  1.00  0.00     0.020 A 
ATOM     91  C   UNL A   1      42.180  27.258  35.633  1.00  0.00     0.054 A 
BRANCH  91  92
ATOM     92  S   UNL A   1      41.624  26.180  36.985  1.00  0.00     0.124 S 
ATOM     93  O   UNL A   1      41.322  24.930  36.293  1.00  0.00    -0.237 OA
ATOM     94  O   UNL A   1      42.786  26.143  37.870  1.00  0.00    -0.237 OA
ATOM     95  O   UNL A   1      40.461  26.878  37.534  1.00  0.00    -0.744 OA
ENDBRANCH  91  92
ENDBRANCH  65  86
ENDBRANCH  39  40
ENDBRANCH  31  34
ENDBRANCH  29  30
ENDBRANCH  28  29
ENDBRANCH   1  28
TORSDOF 18
ENDMDL
MODEL 3
REMARK VINA RESULT:     -12.0      1.219      3.662
REMARK SMILES Cc1cc(=O)n2cc(-c3ccccc3)nc2n1[C@H](C)C(=O)NCCCCCCNC(=O)c1ccc(-c2c3nc(c(-c4ccc(S(=O)(=O)[O-])cc4)c4ccc([nH]4)c(-c4ccc(S(=O)(=O)[O-])cc4)c4nc(c(-c5ccc(S(=O)(=O)[O-])cc5)c5ccc2[nH]5)C=C4)C=C3)cc1
REMARK SMILES IDX 26 1 25 2 24 3 23 4 22 5 20 6 21 7 18 9 19 10 17 11 1 12
REMARK SMILES IDX 2 13 3 14 4 15 16 16 5 17 6 18 15 19 7 20 8 21 9 22 10 23
REMARK SMILES IDX 14 24 11 25 13 26 12 27 27 28 28 29 29 30 30 31 31 33 32 34
REMARK SMILES IDX 33 35 91 36 34 37 90 38 35 39 36 40 37 41 84 42 38 43 89 44
REMARK SMILES IDX 83 45 85 46 39 47 88 48 82 49 81 50 40 52 70 53 51 54 69 55
REMARK SMILES IDX 52 56 55 57 68 58 86 59 53 60 54 61 67 63 87 64 56 65 41 66
REMARK SMILES IDX 42 67 50 68 43 69 49 70 44 71 45 72 46 73 47 74 48 75 71 76
REMARK SMILES IDX 72 77 80 78 73 79 79 80 74 81 75 82 76 83 77 84 78 85 57 86
REMARK SMILES IDX 58 87 66 88 59 89 65 90 60 91 61 92 62 93 63 94 64 95
REMARK H PARENT 22 8 29 32 85 51 55 62
REMARK Flexibility Score: inf
ROOT
ATOM      1  C   UNL A   1      37.085  21.840  25.088  1.00  0.00     0.002 C 
ENDROOT
BRANCH   1   2
ATOM      2  C   UNL A   1      35.629  22.308  25.266  1.00  0.00     0.002 C 
BRANCH   2   3
ATOM      3  C   UNL A   1      35.423  23.756  25.704  1.00  0.00     0.021 C 
BRANCH   3   4
ATOM      4  C   UNL A   1      34.962  24.709  24.616  1.00  0.00     0.116 C 
BRANCH   4   5
ATOM      5  N   UNL A   1      34.646  24.073  23.364  1.00  0.00    -0.354 N 
ATOM      6  C   UNL A   1      33.594  24.337  22.542  1.00  0.00     0.242 C 
ATOM      7  O   UNL A   1      33.645  23.850  21.403  1.00  0.00    -0.273 OA
ATOM      8  H   UNL A   1      35.263  23.364  23.068  1.00  0.00     0.163 HD
BRANCH   6   9
ATOM      9  C   UNL A   1      32.377  25.200  22.965  1.00  0.00     0.176 C 
ATOM     10  C   UNL A   1      31.535  25.833  21.861  1.00  0.00     0.042 C 
BRANCH   9  11
ATOM     11  N   UNL A   1      31.626  24.600  24.122  1.00  0.00    -0.303 N 
ATOM     12  C   UNL A   1      30.803  26.899  24.869  1.00  0.00     0.065 C 
ATOM     13  C   UNL A   1      30.968  25.411  25.082  1.00  0.00     0.024 A 
ATOM     14  C   UNL A   1      30.469  24.907  26.226  1.00  0.00     0.093 A 
ATOM     15  C   UNL A   1      30.633  23.484  26.548  1.00  0.00     0.259 A 
ATOM     16  C   UNL A   1      31.711  23.239  24.351  1.00  0.00     0.218 A 
ATOM     17  O   UNL A   1      30.273  22.970  27.600  1.00  0.00    -0.269 OA
ATOM     18  N   UNL A   1      31.255  22.735  25.563  1.00  0.00    -0.251 N 
ATOM     19  N   UNL A   1      32.181  22.250  23.615  1.00  0.00    -0.212 NA
ATOM     20  C   UNL A   1      31.574  21.399  25.611  1.00  0.00     0.127 A 
ATOM     21  C   UNL A   1      32.139  21.117  24.395  1.00  0.00     0.091 A 
BRANCH  21  22
ATOM     22  C   UNL A   1      32.685  19.825  24.028  1.00  0.00     0.002 A 
ATOM     23  C   UNL A   1      33.732  19.250  24.754  1.00  0.00     0.010 A 
ATOM     24  C   UNL A   1      32.163  19.135  22.923  1.00  0.00     0.010 A 
ATOM     25  C   UNL A   1      34.242  17.999  24.384  1.00  0.00     0.001 A 
ATOM     26  C   UNL A   1      32.657  17.875  22.571  1.00  0.00     0.001 A 
ATOM     27  C   UNL A   1      33.696  17.306  23.303  1.00  0.00     0.000 A 
ENDBRANCH  21  22
ENDBRANCH   9  11
ENDBRANCH   6   9
ENDBRANCH   4   5
ENDBRANCH   3   4
ENDBRANCH   2   3
ENDBRANCH   1   2
BRANCH   1  28
ATOM     28  C   UNL A   1      38.176  22.882  25.350  1.00  0.00     0.021 C 
BRANCH  28  29
ATOM     29  C   UNL A   1      39.077  22.546  26.517  1.00  0.00     0.116 C 
BRANCH  29  30
ATOM     30  N   UNL A   1      40.403  22.078  26.134  1.00  0.00    -0.352 N 
ATOM     31  C   UNL A   1      41.545  22.843  25.947  1.00  0.00     0.251 C 
ATOM     32  H   UNL A   1      40.500  21.108  25.992  1.00  0.00     0.163 HD
ATOM     33  O   UNL A   1      42.519  22.375  25.368  1.00  0.00    -0.269 OA
BRANCH  31  34
ATOM     34  C   UNL A   1      41.558  24.240  26.438  1.00  0.00     0.039 A 
ATOM     35  C   UNL A   1      41.053  25.301  25.681  1.00  0.00     0.014 A 
ATOM     36  C   UNL A   1      42.060  24.482  27.712  1.00  0.00     0.014 A 
ATOM     37  C   UNL A   1      41.006  26.574  26.254  1.00  0.00     0.010 A 
ATOM     38  C   UNL A   1      41.796  25.661  28.348  1.00  0.00     0.010 A 
ATOM     39  C   UNL A   1      41.366  26.743  27.602  1.00  0.00    -0.014 A 
BRANCH  39  40
ATOM     40  C   UNL A   1      41.260  28.029  28.282  1.00  0.00     0.031 A 
ATOM     41  C   UNL A   1      42.343  28.993  27.966  1.00  0.00     0.074 A 
ATOM     42  C   UNL A   1      40.175  28.404  28.999  1.00  0.00     0.049 A 
ATOM     43  N   UNL A   1      43.296  29.372  28.748  1.00  0.00    -0.248 NA
ATOM     44  C   UNL A   1      42.471  29.486  26.584  1.00  0.00     0.031 C 
ATOM     45  C   UNL A   1      38.896  27.700  29.184  1.00  0.00     0.029 A 
ATOM     46  N   UNL A   1      39.948  29.582  29.639  1.00  0.00    -0.354 N 
ATOM     47  C   UNL A   1      44.024  30.320  28.038  1.00  0.00     0.074 A 
ATOM     48  C   UNL A   1      43.582  30.223  26.669  1.00  0.00     0.031 C 
ATOM     49  C   UNL A   1      37.963  28.559  29.653  1.00  0.00     0.029 A 
ATOM     50  C   UNL A   1      38.623  29.802  29.997  1.00  0.00     0.049 A 
ATOM     51  H   UNL A   1      40.665  30.227  29.833  1.00  0.00     0.167 HD
ATOM     52  C   UNL A   1      44.770  31.263  28.680  1.00  0.00     0.031 A 
ATOM     53  C   UNL A   1      38.103  30.931  30.541  1.00  0.00     0.031 A 
ATOM     54  C   UNL A   1      44.920  30.958  30.080  1.00  0.00     0.049 A 
ATOM     55  C   UNL A   1      39.235  31.650  31.172  1.00  0.00     0.074 A 
ATOM     56  C   UNL A   1      45.476  29.915  30.793  1.00  0.00     0.029 A 
ATOM     57  N   UNL A   1      44.080  31.609  30.953  1.00  0.00    -0.354 N 
ATOM     58  N   UNL A   1      39.901  31.178  32.190  1.00  0.00    -0.248 NA
ATOM     59  C   UNL A   1      39.926  32.661  30.388  1.00  0.00     0.031 C 
ATOM     60  C   UNL A   1      44.583  29.702  31.884  1.00  0.00     0.029 A 
ATOM     61  C   UNL A   1      43.580  30.673  31.822  1.00  0.00     0.049 A 
ATOM     62  H   UNL A   1      43.873  32.572  30.954  1.00  0.00     0.167 HD
ATOM     63  C   UNL A   1      41.227  31.491  31.922  1.00  0.00     0.074 A 
ATOM     64  C   UNL A   1      41.168  32.488  30.852  1.00  0.00     0.031 C 
ATOM     65  C   UNL A   1      42.248  30.717  32.394  1.00  0.00     0.031 A 
BRANCH  52  66
ATOM     66  C   UNL A   1      45.028  32.647  28.141  1.00  0.00    -0.014 A 
ATOM     67  C   UNL A   1      46.358  33.105  28.063  1.00  0.00     0.010 A 
ATOM     68  C   UNL A   1      44.008  33.605  27.976  1.00  0.00     0.010 A 
ATOM     69  C   UNL A   1      46.651  34.465  27.901  1.00  0.00     0.020 A 
ATOM     70  C   UNL A   1      44.289  34.957  27.772  1.00  0.00     0.020 A 
ATOM     71  C   UNL A   1      45.610  35.384  27.772  1.00  0.00     0.054 A 
BRANCH  71  72
ATOM     72  S   UNL A   1      45.998  37.149  27.681  1.00  0.00     0.124 S 
ATOM     73  O   UNL A   1      46.188  37.341  26.247  1.00  0.00    -0.237 OA
ATOM     74  O   UNL A   1      44.800  37.758  28.251  1.00  0.00    -0.237 OA
ATOM     75  O   UNL A   1      47.204  37.276  28.496  1.00  0.00    -0.744 OA
ENDBRANCH  71  72
ENDBRANCH  52  66
BRANCH  53  76
ATOM     76  C   UNL A   1      36.791  31.570  30.268  1.00  0.00    -0.014 A 
ATOM     77  C   UNL A   1      36.083  32.229  31.291  1.00  0.00     0.010 A 
ATOM     78  C   UNL A   1      36.379  31.797  28.938  1.00  0.00     0.010 A 
ATOM     79  C   UNL A   1      35.057  33.142  30.992  1.00  0.00     0.020 A 
ATOM     80  C   UNL A   1      35.354  32.702  28.632  1.00  0.00     0.020 A 
ATOM     81  C   UNL A   1      34.717  33.393  29.661  1.00  0.00     0.054 A 
BRANCH  81  82
ATOM     82  S   UNL A   1      33.530  34.717  29.276  1.00  0.00     0.124 S 
ATOM     83  O   UNL A   1      34.387  35.749  28.701  1.00  0.00    -0.237 OA
ATOM     84  O   UNL A   1      32.617  34.061  28.343  1.00  0.00    -0.237 OA
ATOM     85  O   UNL A   1      32.948  35.047  30.576  1.00  0.00    -0.744 OA
ENDBRANCH  81  82
ENDBRANCH  53  76
BRANCH  65  86
ATOM     86  C   UNL A   1      41.937  29.662  33.436  1.00  0.00    -0.014 A 
ATOM     87  C   UNL A   1      41.575  28.334  33.131  1.00  0.00     0.010 A 
ATOM     88  C   UNL A   1      42.189  29.992  34.780  1.00  0.00     0.010 A 
ATOM     89  C   UNL A   1      41.454  27.371  34.147  1.00  0.00     0.020 A 
ATOM     90  C   UNL A   1      42.088  29.035  35.792  1.00  0.00     0.020 A 
ATOM     91  C   UNL A   1      41.716  27.729  35.473  1.00  0.00     0.054 A 
BRANCH  91  92
ATOM     92  S   UNL A   1      41.611  26.473  36.780  1.00  0.00     0.124 S 
ATOM     93  O   UNL A   1      41.524  25.229  36.022  1.00  0.00    -0.237 OA
ATOM     94  O   UNL A   1      42.854  26.671  37.522  1.00  0.00    -0.237 OA
ATOM     95  O   UNL A   1      40.399  26.834  37.515  1.00  0.00    -0.744 OA
ENDBRANCH  91  92
ENDBRANCH  65  86
ENDBRANCH  39  40
ENDBRANCH  31  34
ENDBRANCH  29  30
ENDBRANCH  28  29
ENDBRANCH   1  28
TORSDOF 18
ENDMDL
