MODEL 1
REMARK VINA RESULT:     -11.4      0.000      0.000
REMARK SMILES Cc1c(NCc2ccccn2)cccc1C(=O)N1CCOC[C@@H]1CC(=O)NCCCCCCNC(=O)c1ccc(-c2c3nc(c(-c4ccc(S(=O)(=O)[O-])cc4)c4ccc([nH]4)c(-c4ccc(S(=O)(=O)[O-])cc4)c4nc(c(-c5ccc(S(=O)(=O)[O-])cc5)c5ccc2[nH]5)C=C4)C=C3)cc1
REMARK SMILES IDX 29 1 28 2 27 3 25 4 26 5 24 7 23 8 18 9 19 10 20 11 22 12
REMARK SMILES IDX 21 13 16 14 17 15 15 16 1 17 2 18 3 19 12 20 14 21 13 22
REMARK SMILES IDX 4 23 5 25 6 26 7 27 11 28 8 29 10 30 9 31 30 32 31 33 32 34
REMARK SMILES IDX 33 35 34 36 35 37 36 39 37 40 38 41 96 42 39 43 95 44 40 45
REMARK SMILES IDX 41 46 42 47 89 48 43 49 94 50 88 51 90 52 44 53 93 54 87 55
REMARK SMILES IDX 86 56 45 58 75 59 56 60 74 61 57 62 60 63 73 64 91 65 58 66
REMARK SMILES IDX 59 67 72 69 92 70 61 71 46 72 47 73 55 74 48 75 54 76 49 77
REMARK SMILES IDX 50 78 51 79 52 80 53 81 76 82 77 83 85 84 78 85 84 86 79 87
REMARK SMILES IDX 80 88 81 89 82 90 83 91 62 92 63 93 71 94 64 95 70 96 65 97
REMARK SMILES IDX 66 98 67 99 68 100 69 101
REMARK H PARENT 27 6 4 24 34 38 90 57 60 68
REMARK Flexibility Score: inf
ROOT
ATOM      1  C   UNL A   1      43.178  35.692  28.936  1.00  0.00     0.021 C 
ENDROOT
BRANCH   1   2
ATOM      2  C   UNL A   1      43.374  37.139  29.386  1.00  0.00     0.116 C 
BRANCH   2   3
ATOM      3  N   UNL A   1      42.637  37.996  28.490  1.00  0.00    -0.356 N 
ATOM      4  C   UNL A   1      42.677  39.357  28.480  1.00  0.00     0.222 C 
ATOM      5  O   UNL A   1      41.698  39.972  28.056  1.00  0.00    -0.275 OA
ATOM      6  H   UNL A   1      42.054  37.559  27.828  1.00  0.00     0.163 HD
BRANCH   4   7
ATOM      7  C   UNL A   1      43.948  40.073  28.888  1.00  0.00     0.127 C 
BRANCH   7   8
ATOM      8  C   UNL A   1      43.859  41.376  29.699  1.00  0.00     0.120 C 
ATOM      9  N   UNL A   1      44.604  42.582  29.234  1.00  0.00    -0.331 N 
ATOM     10  C   UNL A   1      44.143  43.769  29.981  1.00  0.00     0.148 C 
ATOM     11  C   UNL A   1      44.210  43.566  31.509  1.00  0.00     0.181 C 
ATOM     12  C   UNL A   1      44.140  41.202  31.206  1.00  0.00     0.185 C 
ATOM     13  O   UNL A   1      43.611  42.330  31.929  1.00  0.00    -0.377 OA
BRANCH   9  14
ATOM     14  C   UNL A   1      44.903  42.769  27.883  1.00  0.00     0.254 C 
ATOM     15  O   UNL A   1      44.134  42.431  26.987  1.00  0.00    -0.269 OA
BRANCH  14  16
ATOM     16  C   UNL A   1      46.281  43.229  27.496  1.00  0.00     0.045 A 
ATOM     17  C   UNL A   1      45.564  45.057  25.362  1.00  0.00     0.047 C 
ATOM     18  C   UNL A   1      46.637  44.448  26.208  1.00  0.00    -0.015 A 
ATOM     19  C   UNL A   1      48.339  44.985  25.919  1.00  0.00     0.038 A 
ATOM     20  C   UNL A   1      49.698  44.308  26.891  1.00  0.00     0.026 A 
ATOM     21  C   UNL A   1      47.639  42.527  28.468  1.00  0.00     0.014 A 
ATOM     22  C   UNL A   1      49.346  43.077  28.174  1.00  0.00     0.003 A 
BRANCH  19  23
ATOM     23  N   UNL A   1      48.599  45.894  24.909  1.00  0.00    -0.379 N 
ATOM     24  H   UNL A   1      48.367  46.845  25.015  1.00  0.00     0.160 HD
BRANCH  23  25
ATOM     25  C   UNL A   1      49.222  45.412  23.683  1.00  0.00     0.169 C 
BRANCH  25  26
ATOM     26  C   UNL A   1      48.171  44.808  22.759  1.00  0.00     0.059 A 
ATOM     27  C   UNL A   1      47.759  43.017  22.816  1.00  0.00     0.026 A 
ATOM     28  N   UNL A   1      46.985  46.012  22.102  1.00  0.00    -0.259 NA
ATOM     29  C   UNL A   1      46.094  42.463  22.264  1.00  0.00     0.004 A 
ATOM     30  C   UNL A   1      45.354  45.503  21.554  1.00  0.00     0.111 A 
ATOM     31  C   UNL A   1      44.846  43.762  21.678  1.00  0.00     0.020 A 
ENDBRANCH  25  26
ENDBRANCH  23  25
ENDBRANCH  19  23
ENDBRANCH  14  16
ENDBRANCH   9  14
ENDBRANCH   7   8
ENDBRANCH   4   7
ENDBRANCH   2   3
ENDBRANCH   1   2
BRANCH   1  32
ATOM     32  C   UNL A   1      42.312  34.814  29.847  1.00  0.00     0.002 C 
BRANCH  32  33
ATOM     33  C   UNL A   1      40.635  34.819  29.515  1.00  0.00     0.002 C 
BRANCH  33  34
ATOM     34  C   UNL A   1      38.887  33.653  30.119  1.00  0.00     0.021 C 
BRANCH  34  35
ATOM     35  C   UNL A   1      38.149  32.190  29.672  1.00  0.00     0.116 C 
BRANCH  35  36
ATOM     36  N   UNL A   1      36.736  32.109  29.256  1.00  0.00    -0.352 N 
ATOM     37  C   UNL A   1      36.095  31.122  28.511  1.00  0.00     0.251 C 
ATOM     38  H   UNL A   1      36.166  32.858  29.545  1.00  0.00     0.163 HD
ATOM     39  O   UNL A   1      34.961  31.284  28.073  1.00  0.00    -0.269 OA
BRANCH  37  40
ATOM     40  C   UNL A   1      36.759  29.799  28.392  1.00  0.00     0.039 A 
ATOM     41  C   UNL A   1      36.922  29.107  29.593  1.00  0.00     0.014 A 
ATOM     42  C   UNL A   1      37.650  29.615  27.350  1.00  0.00     0.014 A 
ATOM     43  C   UNL A   1      38.157  28.536  29.869  1.00  0.00     0.010 A 
ATOM     44  C   UNL A   1      38.944  29.279  27.710  1.00  0.00     0.010 A 
ATOM     45  C   UNL A   1      39.238  28.831  29.020  1.00  0.00    -0.014 A 
BRANCH  45  46
ATOM     46  C   UNL A   1      40.877  28.733  29.386  1.00  0.00     0.031 A 
ATOM     47  C   UNL A   1      40.918  26.971  28.823  1.00  0.00     0.074 A 
ATOM     48  C   UNL A   1      42.208  29.822  30.142  1.00  0.00     0.049 A 
ATOM     49  N   UNL A   1      42.004  26.258  28.771  1.00  0.00    -0.248 NA
ATOM     50  C   UNL A   1      39.797  26.083  28.425  1.00  0.00     0.031 C 
ATOM     51  C   UNL A   1      43.933  29.746  30.287  1.00  0.00     0.029 A 
ATOM     52  N   UNL A   1      42.286  31.107  30.983  1.00  0.00    -0.354 N 
ATOM     53  C   UNL A   1      41.816  24.976  28.429  1.00  0.00     0.074 A 
ATOM     54  C   UNL A   1      40.419  24.933  28.086  1.00  0.00     0.031 C 
ATOM     55  C   UNL A   1      44.382  30.433  31.347  1.00  0.00     0.029 A 
ATOM     56  C   UNL A   1      43.227  30.941  32.015  1.00  0.00     0.049 A 
ATOM     57  H   UNL A   1      41.756  31.921  30.823  1.00  0.00     0.167 HD
ATOM     58  C   UNL A   1      42.953  24.226  28.420  1.00  0.00     0.031 A 
ATOM     59  C   UNL A   1      42.822  30.591  33.270  1.00  0.00     0.031 A 
ATOM     60  C   UNL A   1      44.008  24.801  29.315  1.00  0.00     0.049 A 
ATOM     61  C   UNL A   1      43.398  29.197  33.629  1.00  0.00     0.074 A 
ATOM     62  C   UNL A   1      45.109  25.620  29.097  1.00  0.00     0.029 A 
ATOM     63  N   UNL A   1      43.823  24.809  30.712  1.00  0.00    -0.354 N 
ATOM     64  N   UNL A   1      43.663  28.218  32.783  1.00  0.00    -0.248 NA
ATOM     65  C   UNL A   1      43.856  28.869  34.971  1.00  0.00     0.031 C 
ATOM     66  C   UNL A   1      45.493  26.217  30.344  1.00  0.00     0.029 A 
ATOM     67  C   UNL A   1      44.659  25.749  31.352  1.00  0.00     0.049 A 
ATOM     68  H   UNL A   1      43.185  24.228  31.185  1.00  0.00     0.167 HD
ATOM     69  C   UNL A   1      44.276  27.155  33.410  1.00  0.00     0.074 A 
ATOM     70  C   UNL A   1      44.423  27.663  34.776  1.00  0.00     0.031 C 
ATOM     71  C   UNL A   1      44.624  25.943  32.828  1.00  0.00     0.031 A 
BRANCH  58  72
ATOM     72  C   UNL A   1      43.195  23.202  27.335  1.00  0.00    -0.014 A 
ATOM     73  C   UNL A   1      42.543  21.953  27.413  1.00  0.00     0.010 A 
ATOM     74  C   UNL A   1      44.159  23.339  26.315  1.00  0.00     0.010 A 
ATOM     75  C   UNL A   1      42.867  20.888  26.555  1.00  0.00     0.020 A 
ATOM     76  C   UNL A   1      44.494  22.282  25.452  1.00  0.00     0.020 A 
ATOM     77  C   UNL A   1      43.853  21.055  25.586  1.00  0.00     0.054 A 
BRANCH  77  78
ATOM     78  S   UNL A   1      44.291  19.657  24.517  1.00  0.00     0.124 S 
ATOM     79  O   UNL A   1      43.096  18.820  24.592  1.00  0.00    -0.237 OA
ATOM     80  O   UNL A   1      44.527  20.306  23.231  1.00  0.00    -0.237 OA
ATOM     81  O   UNL A   1      45.480  19.092  25.153  1.00  0.00    -0.744 OA
ENDBRANCH  77  78
ENDBRANCH  58  72
BRANCH  59  82
ATOM     82  C   UNL A   1      41.485  31.251  33.628  1.00  0.00    -0.014 A 
ATOM     83  C   UNL A   1      40.349  30.386  33.709  1.00  0.00     0.010 A 
ATOM     84  C   UNL A   1      41.357  32.499  34.256  1.00  0.00     0.010 A 
ATOM     85  C   UNL A   1      39.292  30.621  34.606  1.00  0.00     0.020 A 
ATOM     86  C   UNL A   1      40.283  32.748  35.155  1.00  0.00     0.020 A 
ATOM     87  C   UNL A   1      39.304  31.774  35.381  1.00  0.00     0.054 A 
BRANCH  87  88
ATOM     88  S   UNL A   1      38.150  31.877  36.794  1.00  0.00     0.124 S 
ATOM     89  O   UNL A   1      37.762  30.481  36.979  1.00  0.00    -0.237 OA
ATOM     90  O   UNL A   1      38.980  32.425  37.868  1.00  0.00    -0.237 OA
ATOM     91  O   UNL A   1      37.088  32.761  36.320  1.00  0.00    -0.744 OA
ENDBRANCH  87  88
ENDBRANCH  59  82
BRANCH  71  92
ATOM     92  C   UNL A   1      45.076  24.742  33.648  1.00  0.00    -0.014 A 
ATOM     93  C   UNL A   1      44.328  23.564  33.796  1.00  0.00     0.010 A 
ATOM     94  C   UNL A   1      46.375  24.740  34.214  1.00  0.00     0.010 A 
ATOM     95  C   UNL A   1      44.793  22.496  34.569  1.00  0.00     0.020 A 
ATOM     96  C   UNL A   1      46.884  23.648  34.919  1.00  0.00     0.020 A 
ATOM     97  C   UNL A   1      46.065  22.548  35.132  1.00  0.00     0.054 A 
BRANCH  97  98
ATOM     98  S   UNL A   1      46.659  21.145  36.100  1.00  0.00     0.124 S 
ATOM     99  O   UNL A   1      48.049  21.520  36.342  1.00  0.00    -0.237 OA
ATOM    100  O   UNL A   1      45.789  21.171  37.274  1.00  0.00    -0.237 OA
ATOM    101  O   UNL A   1      46.459  20.005  35.210  1.00  0.00    -0.744 OA
ENDBRANCH  97  98
ENDBRANCH  71  92
ENDBRANCH  45  46
ENDBRANCH  37  40
ENDBRANCH  35  36
ENDBRANCH  34  35
ENDBRANCH  33  34
ENDBRANCH  32  33
ENDBRANCH   1  32
TORSDOF 22
ENDMDL
MODEL 2
REMARK VINA RESULT:     -10.8      4.605      8.370
REMARK SMILES Cc1c(NCc2ccccn2)cccc1C(=O)N1CCOC[C@@H]1CC(=O)NCCCCCCNC(=O)c1ccc(-c2c3nc(c(-c4ccc(S(=O)(=O)[O-])cc4)c4ccc([nH]4)c(-c4ccc(S(=O)(=O)[O-])cc4)c4nc(c(-c5ccc(S(=O)(=O)[O-])cc5)c5ccc2[nH]5)C=C4)C=C3)cc1
REMARK SMILES IDX 29 1 28 2 27 3 25 4 26 5 24 7 23 8 18 9 19 10 20 11 22 12
REMARK SMILES IDX 21 13 16 14 17 15 15 16 1 17 2 18 3 19 12 20 14 21 13 22
REMARK SMILES IDX 4 23 5 25 6 26 7 27 11 28 8 29 10 30 9 31 30 32 31 33 32 34
REMARK SMILES IDX 33 35 34 36 35 37 36 39 37 40 38 41 96 42 39 43 95 44 40 45
REMARK SMILES IDX 41 46 42 47 89 48 43 49 94 50 88 51 90 52 44 53 93 54 87 55
REMARK SMILES IDX 86 56 45 58 75 59 56 60 74 61 57 62 60 63 73 64 91 65 58 66
REMARK SMILES IDX 59 67 72 69 92 70 61 71 46 72 47 73 55 74 48 75 54 76 49 77
REMARK SMILES IDX 50 78 51 79 52 80 53 81 76 82 77 83 85 84 78 85 84 86 79 87
REMARK SMILES IDX 80 88 81 89 82 90 83 91 62 92 63 93 71 94 64 95 70 96 65 97
REMARK SMILES IDX 66 98 67 99 68 100 69 101
REMARK H PARENT 27 6 4 24 34 38 90 57 60 68
REMARK Flexibility Score: inf
ROOT
ATOM      1  C   UNL A   1      47.396  37.042  32.773  1.00  0.00     0.021 C 
ENDROOT
BRANCH   1   2
ATOM      2  C   UNL A   1      47.211  38.357  32.018  1.00  0.00     0.116 C 
BRANCH   2   3
ATOM      3  N   UNL A   1      47.963  39.382  32.701  1.00  0.00    -0.356 N 
ATOM      4  C   UNL A   1      48.221  40.630  32.223  1.00  0.00     0.222 C 
ATOM      5  O   UNL A   1      49.229  41.215  32.619  1.00  0.00    -0.275 OA
ATOM      6  H   UNL A   1      48.321  39.158  33.591  1.00  0.00     0.163 HD
BRANCH   4   7
ATOM      7  C   UNL A   1      47.222  41.303  31.305  1.00  0.00     0.127 C 
BRANCH   7   8
ATOM      8  C   UNL A   1      45.749  40.863  31.331  1.00  0.00     0.120 C 
ATOM      9  N   UNL A   1      44.992  40.761  30.050  1.00  0.00    -0.331 N 
ATOM     10  C   UNL A   1      43.719  40.050  30.282  1.00  0.00     0.148 C 
ATOM     11  C   UNL A   1      42.894  40.676  31.426  1.00  0.00     0.181 C 
ATOM     12  C   UNL A   1      44.875  41.646  32.333  1.00  0.00     0.185 C 
ATOM     13  O   UNL A   1      43.674  40.898  32.611  1.00  0.00    -0.377 OA
BRANCH   9  14
ATOM     14  C   UNL A   1      45.645  40.500  28.845  1.00  0.00     0.254 C 
ATOM     15  O   UNL A   1      46.321  39.490  28.669  1.00  0.00    -0.269 OA
BRANCH  14  16
ATOM     16  C   UNL A   1      45.679  41.567  27.785  1.00  0.00     0.045 A 
ATOM     17  C   UNL A   1      43.061  41.128  26.616  1.00  0.00     0.047 C 
ATOM     18  C   UNL A   1      44.325  41.927  26.641  1.00  0.00    -0.015 A 
ATOM     19  C   UNL A   1      44.465  43.311  25.485  1.00  0.00     0.038 A 
ATOM     20  C   UNL A   1      45.949  44.333  25.443  1.00  0.00     0.026 A 
ATOM     21  C   UNL A   1      47.184  42.575  27.742  1.00  0.00     0.014 A 
ATOM     22  C   UNL A   1      47.313  43.966  26.580  1.00  0.00     0.003 A 
BRANCH  19  23
ATOM     23  N   UNL A   1      43.435  43.554  24.594  1.00  0.00    -0.379 N 
ATOM     24  H   UNL A   1      42.798  44.289  24.749  1.00  0.00     0.160 HD
BRANCH  23  25
ATOM     25  C   UNL A   1      43.312  42.697  23.422  1.00  0.00     0.169 C 
BRANCH  25  26
ATOM     26  C   UNL A   1      44.454  42.968  22.449  1.00  0.00     0.059 A 
ATOM     27  C   UNL A   1      44.609  44.580  21.577  1.00  0.00     0.026 A 
ATOM     28  N   UNL A   1      45.900  41.901  22.690  1.00  0.00    -0.259 NA
ATOM     29  C   UNL A   1      46.269  45.136  21.013  1.00  0.00     0.004 A 
ATOM     30  C   UNL A   1      47.532  42.415  22.150  1.00  0.00     0.111 A 
ATOM     31  C   UNL A   1      47.772  44.040  21.373  1.00  0.00     0.020 A 
ENDBRANCH  25  26
ENDBRANCH  23  25
ENDBRANCH  19  23
ENDBRANCH  14  16
ENDBRANCH   9  14
ENDBRANCH   7   8
ENDBRANCH   4   7
ENDBRANCH   2   3
ENDBRANCH   1   2
BRANCH   1  32
ATOM     32  C   UNL A   1      46.344  35.959  32.507  1.00  0.00     0.002 C 
BRANCH  32  33
ATOM     33  C   UNL A   1      46.905  34.345  32.547  1.00  0.00     0.002 C 
BRANCH  33  34
ATOM     34  C   UNL A   1      47.502  32.828  31.090  1.00  0.00     0.021 C 
BRANCH  34  35
ATOM     35  C   UNL A   1      47.160  32.454  29.468  1.00  0.00     0.116 C 
BRANCH  35  36
ATOM     36  N   UNL A   1      48.169  32.573  28.398  1.00  0.00    -0.352 N 
ATOM     37  C   UNL A   1      48.268  31.866  27.202  1.00  0.00     0.251 C 
ATOM     38  H   UNL A   1      48.868  33.248  28.549  1.00  0.00     0.163 HD
ATOM     39  O   UNL A   1      49.270  31.934  26.498  1.00  0.00    -0.269 OA
BRANCH  37  40
ATOM     40  C   UNL A   1      47.062  31.146  26.717  1.00  0.00     0.039 A 
ATOM     41  C   UNL A   1      46.022  31.964  26.275  1.00  0.00     0.014 A 
ATOM     42  C   UNL A   1      46.796  29.900  27.254  1.00  0.00     0.014 A 
ATOM     43  C   UNL A   1      44.731  31.689  26.708  1.00  0.00     0.010 A 
ATOM     44  C   UNL A   1      45.575  29.762  27.892  1.00  0.00     0.010 A 
ATOM     45  C   UNL A   1      44.551  30.722  27.711  1.00  0.00    -0.014 A 
BRANCH  45  46
ATOM     46  C   UNL A   1      43.244  30.572  28.758  1.00  0.00     0.031 A 
ATOM     47  C   UNL A   1      42.657  29.073  27.846  1.00  0.00     0.074 A 
ATOM     48  C   UNL A   1      42.504  31.505  30.213  1.00  0.00     0.049 A 
ATOM     49  N   UNL A   1      41.635  28.360  28.218  1.00  0.00    -0.248 NA
ATOM     50  C   UNL A   1      43.155  28.489  26.576  1.00  0.00     0.031 C 
ATOM     51  C   UNL A   1      41.282  31.180  31.398  1.00  0.00     0.029 A 
ATOM     52  N   UNL A   1      42.613  32.903  30.842  1.00  0.00    -0.354 N 
ATOM     53  C   UNL A   1      41.308  27.370  27.375  1.00  0.00     0.074 A 
ATOM     54  C   UNL A   1      42.376  27.398  26.412  1.00  0.00     0.031 C 
ATOM     55  C   UNL A   1      40.726  32.304  31.870  1.00  0.00     0.029 A 
ATOM     56  C   UNL A   1      41.328  33.382  31.156  1.00  0.00     0.049 A 
ATOM     57  H   UNL A   1      43.454  33.389  31.000  1.00  0.00     0.167 HD
ATOM     58  C   UNL A   1      40.210  26.656  27.750  1.00  0.00     0.031 A 
ATOM     59  C   UNL A   1      40.678  34.227  30.303  1.00  0.00     0.031 A 
ATOM     60  C   UNL A   1      39.306  27.450  28.644  1.00  0.00     0.049 A 
ATOM     61  C   UNL A   1      39.399  33.535  29.765  1.00  0.00     0.074 A 
ATOM     62  C   UNL A   1      39.145  27.524  30.022  1.00  0.00     0.029 A 
ATOM     63  N   UNL A   1      38.615  28.567  28.137  1.00  0.00    -0.354 N 
ATOM     64  N   UNL A   1      39.229  32.239  29.580  1.00  0.00    -0.248 NA
ATOM     65  C   UNL A   1      38.160  34.265  29.539  1.00  0.00     0.031 C 
ATOM     66  C   UNL A   1      38.475  28.753  30.341  1.00  0.00     0.029 A 
ATOM     67  C   UNL A   1      38.183  29.434  29.165  1.00  0.00     0.049 A 
ATOM     68  H   UNL A   1      38.452  28.726  27.179  1.00  0.00     0.167 HD
ATOM     69  C   UNL A   1      37.937  31.943  29.204  1.00  0.00     0.074 A 
ATOM     70  C   UNL A   1      37.304  33.263  29.260  1.00  0.00     0.031 C 
ATOM     71  C   UNL A   1      37.442  30.691  28.864  1.00  0.00     0.031 A 
BRANCH  58  72
ATOM     72  C   UNL A   1      40.171  25.154  27.584  1.00  0.00    -0.014 A 
ATOM     73  C   UNL A   1      41.248  24.382  28.069  1.00  0.00     0.010 A 
ATOM     74  C   UNL A   1      39.200  24.464  26.830  1.00  0.00     0.010 A 
ATOM     75  C   UNL A   1      41.373  23.013  27.780  1.00  0.00     0.020 A 
ATOM     76  C   UNL A   1      39.314  23.096  26.531  1.00  0.00     0.020 A 
ATOM     77  C   UNL A   1      40.410  22.380  26.999  1.00  0.00     0.054 A 
BRANCH  77  78
ATOM     78  S   UNL A   1      40.611  20.623  26.597  1.00  0.00     0.124 S 
ATOM     79  O   UNL A   1      40.783  20.018  27.916  1.00  0.00    -0.237 OA
ATOM     80  O   UNL A   1      39.357  20.309  25.919  1.00  0.00    -0.237 OA
ATOM     81  O   UNL A   1      41.799  20.594  25.746  1.00  0.00    -0.744 OA
ENDBRANCH  77  78
ENDBRANCH  58  72
BRANCH  59  82
ATOM     82  C   UNL A   1      41.654  35.200  29.631  1.00  0.00    -0.014 A 
ATOM     83  C   UNL A   1      42.991  35.215  30.140  1.00  0.00     0.010 A 
ATOM     84  C   UNL A   1      41.472  35.755  28.356  1.00  0.00     0.010 A 
ATOM     85  C   UNL A   1      44.101  35.475  29.317  1.00  0.00     0.020 A 
ATOM     86  C   UNL A   1      42.591  36.033  27.523  1.00  0.00     0.020 A 
ATOM     87  C   UNL A   1      43.894  35.814  27.986  1.00  0.00     0.054 A 
BRANCH  87  88
ATOM     88  S   UNL A   1      45.326  35.771  26.850  1.00  0.00     0.124 S 
ATOM     89  O   UNL A   1      46.344  35.109  27.662  1.00  0.00    -0.237 OA
ATOM     90  O   UNL A   1      44.836  34.977  25.722  1.00  0.00    -0.237 OA
ATOM     91  O   UNL A   1      45.584  37.177  26.552  1.00  0.00    -0.744 OA
ENDBRANCH  87  88
ENDBRANCH  59  82
BRANCH  71  92
ATOM     92  C   UNL A   1      36.071  30.497  28.231  1.00  0.00    -0.014 A 
ATOM     93  C   UNL A   1      35.049  31.456  28.259  1.00  0.00     0.010 A 
ATOM     94  C   UNL A   1      35.824  29.333  27.461  1.00  0.00     0.010 A 
ATOM     95  C   UNL A   1      33.806  31.218  27.665  1.00  0.00     0.020 A 
ATOM     96  C   UNL A   1      34.617  29.118  26.795  1.00  0.00     0.020 A 
ATOM     97  C   UNL A   1      33.595  30.046  26.943  1.00  0.00     0.054 A 
BRANCH  97  98
ATOM     98  S   UNL A   1      31.993  29.771  26.156  1.00  0.00     0.124 S 
ATOM     99  O   UNL A   1      31.375  28.819  27.074  1.00  0.00    -0.237 OA
ATOM    100  O   UNL A   1      31.404  31.109  26.149  1.00  0.00    -0.237 OA
ATOM    101  O   UNL A   1      32.343  29.244  24.841  1.00  0.00    -0.744 OA
ENDBRANCH  97  98
ENDBRANCH  71  92
ENDBRANCH  45  46
ENDBRANCH  37  40
ENDBRANCH  35  36
ENDBRANCH  34  35
ENDBRANCH  33  34
ENDBRANCH  32  33
ENDBRANCH   1  32
TORSDOF 22
ENDMDL
MODEL 3
REMARK VINA RESULT:     -10.7      7.085     12.405
REMARK SMILES Cc1c(NCc2ccccn2)cccc1C(=O)N1CCOC[C@@H]1CC(=O)NCCCCCCNC(=O)c1ccc(-c2c3nc(c(-c4ccc(S(=O)(=O)[O-])cc4)c4ccc([nH]4)c(-c4ccc(S(=O)(=O)[O-])cc4)c4nc(c(-c5ccc(S(=O)(=O)[O-])cc5)c5ccc2[nH]5)C=C4)C=C3)cc1
REMARK SMILES IDX 29 1 28 2 27 3 25 4 26 5 24 7 23 8 18 9 19 10 20 11 22 12
REMARK SMILES IDX 21 13 16 14 17 15 15 16 1 17 2 18 3 19 12 20 14 21 13 22
REMARK SMILES IDX 4 23 5 25 6 26 7 27 11 28 8 29 10 30 9 31 30 32 31 33 32 34
REMARK SMILES IDX 33 35 34 36 35 37 36 39 37 40 38 41 96 42 39 43 95 44 40 45
REMARK SMILES IDX 41 46 42 47 89 48 43 49 94 50 88 51 90 52 44 53 93 54 87 55
REMARK SMILES IDX 86 56 45 58 75 59 56 60 74 61 57 62 60 63 73 64 91 65 58 66
REMARK SMILES IDX 59 67 72 69 92 70 61 71 46 72 47 73 55 74 48 75 54 76 49 77
REMARK SMILES IDX 50 78 51 79 52 80 53 81 76 82 77 83 85 84 78 85 84 86 79 87
REMARK SMILES IDX 80 88 81 89 82 90 83 91 62 92 63 93 71 94 64 95 70 96 65 97
REMARK SMILES IDX 66 98 67 99 68 100 69 101
REMARK H PARENT 27 6 4 24 34 38 90 57 60 68
REMARK Flexibility Score: inf
ROOT
ATOM      1  C   UNL A   1      37.778  29.447  29.512  1.00  0.00     0.021 C 
ENDROOT
BRANCH   1   2
ATOM      2  C   UNL A   1      39.136  28.907  29.957  1.00  0.00     0.116 C 
BRANCH   2   3
ATOM      3  N   UNL A   1      40.106  29.222  28.937  1.00  0.00    -0.356 N 
ATOM      4  C   UNL A   1      41.380  28.746  28.878  1.00  0.00     0.222 C 
ATOM      5  O   UNL A   1      42.235  29.422  28.304  1.00  0.00    -0.275 OA
ATOM      6  H   UNL A   1      39.822  29.835  28.221  1.00  0.00     0.163 HD
BRANCH   4   7
ATOM      7  C   UNL A   1      41.693  27.369  29.424  1.00  0.00     0.127 C 
BRANCH   7   8
ATOM      8  C   UNL A   1      43.145  26.865  29.429  1.00  0.00     0.120 C 
ATOM      9  N   UNL A   1      43.562  25.820  28.449  1.00  0.00    -0.331 N 
ATOM     10  C   UNL A   1      45.034  25.710  28.438  1.00  0.00     0.148 C 
ATOM     11  C   UNL A   1      45.619  25.487  29.848  1.00  0.00     0.181 C 
ATOM     12  C   UNL A   1      43.660  26.437  30.819  1.00  0.00     0.185 C 
ATOM     13  O   UNL A   1      45.101  26.415  30.814  1.00  0.00    -0.377 OA
BRANCH   9  14
ATOM     14  C   UNL A   1      42.914  25.684  27.220  1.00  0.00     0.254 C 
ATOM     15  O   UNL A   1      42.960  26.552  26.353  1.00  0.00    -0.269 OA
BRANCH  14  16
ATOM     16  C   UNL A   1      41.979  24.526  27.011  1.00  0.00     0.045 A 
ATOM     17  C   UNL A   1      39.455  25.927  27.290  1.00  0.00     0.047 C 
ATOM     18  C   UNL A   1      40.174  24.646  27.010  1.00  0.00    -0.015 A 
ATOM     19  C   UNL A   1      39.173  23.185  26.641  1.00  0.00     0.038 A 
ATOM     20  C   UNL A   1      39.949  21.598  26.288  1.00  0.00     0.026 A 
ATOM     21  C   UNL A   1      42.773  22.932  26.676  1.00  0.00     0.014 A 
ATOM     22  C   UNL A   1      41.758  21.472  26.301  1.00  0.00     0.003 A 
BRANCH  19  23
ATOM     23  N   UNL A   1      37.793  23.286  26.675  1.00  0.00    -0.379 N 
ATOM     24  H   UNL A   1      37.288  23.008  27.474  1.00  0.00     0.160 HD
BRANCH  23  25
ATOM     25  C   UNL A   1      37.104  23.811  25.504  1.00  0.00     0.169 C 
BRANCH  25  26
ATOM     26  C   UNL A   1      35.657  23.333  25.483  1.00  0.00     0.059 A 
ATOM     27  C   UNL A   1      34.842  22.811  23.920  1.00  0.00     0.026 A 
ATOM     28  N   UNL A   1      35.050  22.744  27.087  1.00  0.00    -0.259 NA
ATOM     29  C   UNL A   1      33.441  21.621  23.995  1.00  0.00     0.004 A 
ATOM     30  C   UNL A   1      33.685  21.585  27.194  1.00  0.00     0.111 A 
ATOM     31  C   UNL A   1      32.901  20.950  25.683  1.00  0.00     0.020 A 
ENDBRANCH  25  26
ENDBRANCH  23  25
ENDBRANCH  19  23
ENDBRANCH  14  16
ENDBRANCH   9  14
ENDBRANCH   7   8
ENDBRANCH   4   7
ENDBRANCH   2   3
ENDBRANCH   1   2
BRANCH   1  32
ATOM     32  C   UNL A   1      37.448  30.880  29.947  1.00  0.00     0.002 C 
BRANCH  32  33
ATOM     33  C   UNL A   1      35.923  31.478  29.457  1.00  0.00     0.002 C 
BRANCH  33  34
ATOM     34  C   UNL A   1      34.440  32.885  30.230  1.00  0.00     0.021 C 
BRANCH  34  35
ATOM     35  C   UNL A   1      34.255  34.571  30.333  1.00  0.00     0.116 C 
BRANCH  35  36
ATOM     36  N   UNL A   1      34.479  35.317  31.587  1.00  0.00    -0.352 N 
ATOM     37  C   UNL A   1      35.304  34.999  32.663  1.00  0.00     0.251 C 
ATOM     38  H   UNL A   1      33.976  36.158  31.674  1.00  0.00     0.163 HD
ATOM     39  O   UNL A   1      35.241  35.613  33.723  1.00  0.00    -0.269 OA
BRANCH  37  40
ATOM     40  C   UNL A   1      36.377  33.996  32.444  1.00  0.00     0.039 A 
ATOM     41  C   UNL A   1      36.581  33.106  33.499  1.00  0.00     0.014 A 
ATOM     42  C   UNL A   1      37.422  34.341  31.606  1.00  0.00     0.014 A 
ATOM     43  C   UNL A   1      37.881  32.865  33.925  1.00  0.00     0.010 A 
ATOM     44  C   UNL A   1      38.686  34.315  32.168  1.00  0.00     0.010 A 
ATOM     45  C   UNL A   1      38.916  33.661  33.403  1.00  0.00    -0.014 A 
BRANCH  45  46
ATOM     46  C   UNL A   1      40.423  33.952  34.091  1.00  0.00     0.031 A 
ATOM     47  C   UNL A   1      41.214  32.764  32.913  1.00  0.00     0.074 A 
ATOM     48  C   UNL A   1      41.141  34.947  35.514  1.00  0.00     0.049 A 
ATOM     49  N   UNL A   1      42.495  32.555  32.856  1.00  0.00    -0.248 NA
ATOM     50  C   UNL A   1      40.579  31.842  31.939  1.00  0.00     0.031 C 
ATOM     51  C   UNL A   1      42.733  35.386  36.037  1.00  0.00     0.029 A 
ATOM     52  N   UNL A   1      40.631  35.653  36.781  1.00  0.00    -0.354 N 
ATOM     53  C   UNL A   1      42.867  31.588  32.005  1.00  0.00     0.074 A 
ATOM     54  C   UNL A   1      41.636  31.249  31.342  1.00  0.00     0.031 C 
ATOM     55  C   UNL A   1      42.786  35.619  37.355  1.00  0.00     0.029 A 
ATOM     56  C   UNL A   1      41.479  35.355  37.863  1.00  0.00     0.049 A 
ATOM     57  H   UNL A   1      39.831  36.225  36.827  1.00  0.00     0.167 HD
ATOM     58  C   UNL A   1      44.207  31.346  31.984  1.00  0.00     0.031 A 
ATOM     59  C   UNL A   1      41.157  34.361  38.741  1.00  0.00     0.031 A 
ATOM     60  C   UNL A   1      44.870  31.761  33.262  1.00  0.00     0.049 A 
ATOM     61  C   UNL A   1      42.218  33.234  38.656  1.00  0.00     0.074 A 
ATOM     62  C   UNL A   1      45.560  32.900  33.658  1.00  0.00     0.029 A 
ATOM     63  N   UNL A   1      44.594  31.071  34.458  1.00  0.00    -0.354 N 
ATOM     64  N   UNL A   1      42.918  32.896  37.588  1.00  0.00    -0.248 NA
ATOM     65  C   UNL A   1      42.667  32.502  39.831  1.00  0.00     0.031 C 
ATOM     66  C   UNL A   1      45.576  32.953  35.092  1.00  0.00     0.029 A 
ATOM     67  C   UNL A   1      44.929  31.833  35.599  1.00  0.00     0.049 A 
ATOM     68  H   UNL A   1      44.211  30.165  34.495  1.00  0.00     0.167 HD
ATOM     69  C   UNL A   1      43.859  31.933  37.879  1.00  0.00     0.074 A 
ATOM     70  C   UNL A   1      43.686  31.780  39.327  1.00  0.00     0.031 C 
ATOM     71  C   UNL A   1      44.709  31.309  36.976  1.00  0.00     0.031 A 
BRANCH  58  72
ATOM     72  C   UNL A   1      44.922  31.072  30.681  1.00  0.00    -0.014 A 
ATOM     73  C   UNL A   1      45.070  32.118  29.746  1.00  0.00     0.010 A 
ATOM     74  C   UNL A   1      45.325  29.791  30.250  1.00  0.00     0.010 A 
ATOM     75  C   UNL A   1      45.545  31.893  28.443  1.00  0.00     0.020 A 
ATOM     76  C   UNL A   1      45.800  29.551  28.950  1.00  0.00     0.020 A 
ATOM     77  C   UNL A   1      45.896  30.604  28.048  1.00  0.00     0.054 A 
BRANCH  77  78
ATOM     78  S   UNL A   1      46.465  30.323  26.349  1.00  0.00     0.124 S 
ATOM     79  O   UNL A   1      47.905  30.150  26.526  1.00  0.00    -0.237 OA
ATOM     80  O   UNL A   1      45.728  29.123  25.964  1.00  0.00    -0.237 OA
ATOM     81  O   UNL A   1      46.073  31.543  25.644  1.00  0.00    -0.744 OA
ENDBRANCH  77  78
ENDBRANCH  58  72
BRANCH  59  82
ATOM     82  C   UNL A   1      39.644  34.304  38.988  1.00  0.00    -0.014 A 
ATOM     83  C   UNL A   1      38.849  33.735  37.945  1.00  0.00     0.010 A 
ATOM     84  C   UNL A   1      39.042  34.380  40.253  1.00  0.00     0.010 A 
ATOM     85  C   UNL A   1      37.671  33.016  38.211  1.00  0.00     0.020 A 
ATOM     86  C   UNL A   1      37.843  33.666  40.525  1.00  0.00     0.020 A 
ATOM     87  C   UNL A   1      37.212  32.926  39.519  1.00  0.00     0.054 A 
BRANCH  87  88
ATOM     88  S   UNL A   1      35.920  31.689  39.898  1.00  0.00     0.124 S 
ATOM     89  O   UNL A   1      36.399  30.511  39.180  1.00  0.00    -0.237 OA
ATOM     90  O   UNL A   1      35.978  31.579  41.357  1.00  0.00    -0.237 OA
ATOM     91  O   UNL A   1      34.695  32.285  39.371  1.00  0.00    -0.744 OA
ENDBRANCH  87  88
ENDBRANCH  59  82
BRANCH  71  92
ATOM     92  C   UNL A   1      45.544  30.091  37.345  1.00  0.00    -0.014 A 
ATOM     93  C   UNL A   1      45.043  28.970  38.025  1.00  0.00     0.010 A 
ATOM     94  C   UNL A   1      46.883  30.006  36.888  1.00  0.00     0.010 A 
ATOM     95  C   UNL A   1      45.862  27.883  38.343  1.00  0.00     0.020 A 
ATOM     96  C   UNL A   1      47.687  28.891  37.128  1.00  0.00     0.020 A 
ATOM     97  C   UNL A   1      47.182  27.854  37.898  1.00  0.00     0.054 A 
BRANCH  97  98
ATOM     98  S   UNL A   1      48.213  26.425  38.293  1.00  0.00     0.124 S 
ATOM     99  O   UNL A   1      47.748  25.446  37.314  1.00  0.00    -0.237 OA
ATOM    100  O   UNL A   1      49.566  26.934  38.077  1.00  0.00    -0.237 OA
ATOM    101  O   UNL A   1      47.878  26.134  39.684  1.00  0.00    -0.744 OA
ENDBRANCH  97  98
ENDBRANCH  71  92
ENDBRANCH  45  46
ENDBRANCH  37  40
ENDBRANCH  35  36
ENDBRANCH  34  35
ENDBRANCH  33  34
ENDBRANCH  32  33
ENDBRANCH   1  32
TORSDOF 22
ENDMDL
