MODEL 1
REMARK VINA RESULT:     -10.8      0.000      0.000
REMARK SMILES O=C(NCCCCCCNC(=O)c1ccc(-c2c3nc(c(-c4ccc(S(=O)(=O)[O-])cc4)c4ccc([nH]4)c(-c4ccc(S(=O)(=O)[O-])cc4)c4nc(c(-c5ccc(S(=O)(=O)[O-])cc5)c5ccc2[nH]5)C=C4)C=C3)cc1)C1=Cc2cc(C(F)(F)F)ccc2O[C@@H]1C(F)(F)F
REMARK SMILES IDX 7 1 6 2 5 3 4 4 3 5 1 6 2 7 73 9 74 10 86 11 75 12 85 13
REMARK SMILES IDX 76 14 84 15 77 16 83 17 82 18 87 19 88 20 89 21 90 22 78 23
REMARK SMILES IDX 79 24 80 25 81 26 8 27 9 28 10 29 11 30 12 32 13 33 14 34
REMARK SMILES IDX 72 35 15 36 71 37 16 38 17 39 18 40 65 41 19 42 70 43 64 44
REMARK SMILES IDX 66 45 20 46 69 47 63 48 62 49 21 51 51 52 32 53 50 54 33 55
REMARK SMILES IDX 36 56 49 57 67 58 34 59 35 60 48 62 68 63 37 64 22 65 23 66
REMARK SMILES IDX 31 67 24 68 30 69 25 70 26 71 27 72 28 73 29 74 52 75 53 76
REMARK SMILES IDX 61 77 54 78 60 79 55 80 56 81 57 82 58 83 59 84 38 85 39 86
REMARK SMILES IDX 47 87 40 88 46 89 41 90 42 91 43 92 44 93 45 94
REMARK H PARENT 3 8 10 31 66 50 36 61
REMARK Flexibility Score: inf
ROOT
ATOM      1  C   UNL A   1      31.697  27.593  26.255  1.00  0.00     0.002 C 
ENDROOT
BRANCH   1   2
ATOM      2  C   UNL A   1      31.477  26.255  25.537  1.00  0.00     0.002 C 
BRANCH   2   3
ATOM      3  C   UNL A   1      30.461  25.300  26.161  1.00  0.00     0.021 C 
BRANCH   3   4
ATOM      4  C   UNL A   1      30.698  23.814  25.922  1.00  0.00     0.116 C 
BRANCH   4   5
ATOM      5  N   UNL A   1      31.617  23.162  26.837  1.00  0.00    -0.352 N 
ATOM      6  O   UNL A   1      33.604  22.540  27.682  1.00  0.00    -0.270 OA
ATOM      7  C   UNL A   1      32.967  22.961  26.717  1.00  0.00     0.251 C 
ATOM      8  H   UNL A   1      31.212  22.813  27.663  1.00  0.00     0.163 HD
BRANCH   7   9
ATOM      9  C   UNL A   1      33.725  23.315  25.479  1.00  0.00     0.067 C 
ATOM     10  C   UNL A   1      34.791  24.136  25.491  1.00  0.00     0.025 C 
ATOM     11  C   UNL A   1      33.620  22.274  24.388  1.00  0.00     0.314 C 
ATOM     12  C   UNL A   1      36.040  23.355  25.275  1.00  0.00     0.018 A 
ATOM     13  O   UNL A   1      34.827  21.465  24.307  1.00  0.00    -0.475 OA
ATOM     14  C   UNL A   1      37.216  23.834  25.865  1.00  0.00     0.025 A 
ATOM     15  C   UNL A   1      35.976  22.035  24.797  1.00  0.00     0.128 A 
ATOM     16  C   UNL A   1      38.283  22.956  26.110  1.00  0.00     0.056 A 
ATOM     17  C   UNL A   1      37.073  21.192  24.944  1.00  0.00     0.048 A 
ATOM     18  C   UNL A   1      38.211  21.640  25.622  1.00  0.00     0.017 A 
BRANCH  11  19
ATOM     19  C   UNL A   1      33.271  22.880  23.020  1.00  0.00     0.429 C 
ATOM     20  F   UNL A   1      34.385  23.269  22.356  1.00  0.00    -0.167 F 
ATOM     21  F   UNL A   1      32.634  21.988  22.224  1.00  0.00    -0.167 F 
ATOM     22  F   UNL A   1      32.465  23.964  23.123  1.00  0.00    -0.167 F 
ENDBRANCH  11  19
BRANCH  16  23
ATOM     23  C   UNL A   1      39.427  23.403  26.990  1.00  0.00     0.416 C 
ATOM     24  F   UNL A   1      40.116  22.371  27.537  1.00  0.00    -0.166 F 
ATOM     25  F   UNL A   1      40.340  24.144  26.293  1.00  0.00    -0.166 F 
ATOM     26  F   UNL A   1      39.031  24.205  28.017  1.00  0.00    -0.166 F 
ENDBRANCH  16  23
ENDBRANCH   7   9
ENDBRANCH   4   5
ENDBRANCH   3   4
ENDBRANCH   2   3
ENDBRANCH   1   2
BRANCH   1  27
ATOM     27  C   UNL A   1      33.084  27.844  26.855  1.00  0.00     0.021 C 
BRANCH  27  28
ATOM     28  C   UNL A   1      33.962  28.869  26.140  1.00  0.00     0.116 C 
BRANCH  28  29
ATOM     29  N   UNL A   1      33.688  30.234  26.555  1.00  0.00    -0.352 N 
ATOM     30  C   UNL A   1      34.308  31.015  27.497  1.00  0.00     0.251 C 
ATOM     31  H   UNL A   1      32.938  30.666  26.086  1.00  0.00     0.163 HD
ATOM     32  O   UNL A   1      33.807  32.102  27.795  1.00  0.00    -0.269 OA
BRANCH  30  33
ATOM     33  C   UNL A   1      35.547  30.570  28.173  1.00  0.00     0.039 A 
ATOM     34  C   UNL A   1      36.778  31.016  27.679  1.00  0.00     0.014 A 
ATOM     35  C   UNL A   1      35.519  29.687  29.256  1.00  0.00     0.014 A 
ATOM     36  C   UNL A   1      37.967  30.622  28.298  1.00  0.00     0.010 A 
ATOM     37  C   UNL A   1      36.701  29.353  29.919  1.00  0.00     0.010 A 
ATOM     38  C   UNL A   1      37.939  29.810  29.444  1.00  0.00    -0.014 A 
BRANCH  38  39
ATOM     39  C   UNL A   1      39.195  29.427  30.145  1.00  0.00     0.031 A 
ATOM     40  C   UNL A   1      39.631  30.165  31.385  1.00  0.00     0.074 A 
ATOM     41  C   UNL A   1      39.968  28.441  29.646  1.00  0.00     0.049 A 
ATOM     42  N   UNL A   1      40.714  30.003  32.103  1.00  0.00    -0.248 NA
ATOM     43  C   UNL A   1      38.746  31.237  31.869  1.00  0.00     0.031 C 
ATOM     44  C   UNL A   1      39.679  27.672  28.432  1.00  0.00     0.029 A 
ATOM     45  N   UNL A   1      41.157  27.919  30.092  1.00  0.00    -0.354 N 
ATOM     46  C   UNL A   1      40.643  30.953  33.117  1.00  0.00     0.074 A 
ATOM     47  C   UNL A   1      39.441  31.724  32.887  1.00  0.00     0.031 C 
ATOM     48  C   UNL A   1      40.652  26.766  28.243  1.00  0.00     0.029 A 
ATOM     49  C   UNL A   1      41.654  26.915  29.293  1.00  0.00     0.049 A 
ATOM     50  H   UNL A   1      41.611  28.235  30.906  1.00  0.00     0.167 HD
ATOM     51  C   UNL A   1      41.486  31.151  34.158  1.00  0.00     0.031 A 
ATOM     52  C   UNL A   1      42.793  26.200  29.387  1.00  0.00     0.031 A 
ATOM     53  C   UNL A   1      42.682  30.382  34.387  1.00  0.00     0.049 A 
ATOM     54  C   UNL A   1      43.728  26.454  30.538  1.00  0.00     0.074 A 
ATOM     55  C   UNL A   1      43.584  30.484  35.433  1.00  0.00     0.029 A 
ATOM     56  N   UNL A   1      43.144  29.369  33.560  1.00  0.00    -0.354 N 
ATOM     57  N   UNL A   1      43.612  27.320  31.517  1.00  0.00    -0.248 NA
ATOM     58  C   UNL A   1      44.938  25.624  30.608  1.00  0.00     0.031 C 
ATOM     59  C   UNL A   1      44.619  29.570  35.210  1.00  0.00     0.029 A 
ATOM     60  C   UNL A   1      44.328  28.852  34.061  1.00  0.00     0.049 A 
ATOM     61  H   UNL A   1      42.697  29.062  32.739  1.00  0.00     0.167 HD
ATOM     62  C   UNL A   1      44.723  27.121  32.331  1.00  0.00     0.074 A 
ATOM     63  C   UNL A   1      45.485  26.040  31.742  1.00  0.00     0.031 C 
ATOM     64  C   UNL A   1      45.077  27.775  33.466  1.00  0.00     0.031 A 
BRANCH  51  65
ATOM     65  C   UNL A   1      41.143  32.245  35.137  1.00  0.00    -0.014 A 
ATOM     66  C   UNL A   1      40.372  31.975  36.282  1.00  0.00     0.010 A 
ATOM     67  C   UNL A   1      41.637  33.548  34.939  1.00  0.00     0.010 A 
ATOM     68  C   UNL A   1      40.068  32.994  37.189  1.00  0.00     0.020 A 
ATOM     69  C   UNL A   1      41.361  34.563  35.860  1.00  0.00     0.020 A 
ATOM     70  C   UNL A   1      40.564  34.282  36.971  1.00  0.00     0.054 A 
BRANCH  70  71
ATOM     71  S   UNL A   1      40.175  35.577  38.182  1.00  0.00     0.124 S 
ATOM     72  O   UNL A   1      41.369  35.569  39.023  1.00  0.00    -0.237 OA
ATOM     73  O   UNL A   1      40.007  36.759  37.341  1.00  0.00    -0.237 OA
ATOM     74  O   UNL A   1      38.957  35.095  38.827  1.00  0.00    -0.744 OA
ENDBRANCH  70  71
ENDBRANCH  51  65
BRANCH  52  75
ATOM     75  C   UNL A   1      43.117  25.178  28.351  1.00  0.00    -0.014 A 
ATOM     76  C   UNL A   1      43.657  25.556  27.108  1.00  0.00     0.010 A 
ATOM     77  C   UNL A   1      42.886  23.814  28.607  1.00  0.00     0.010 A 
ATOM     78  C   UNL A   1      43.935  24.592  26.134  1.00  0.00     0.020 A 
ATOM     79  C   UNL A   1      43.193  22.845  27.648  1.00  0.00     0.020 A 
ATOM     80  C   UNL A   1      43.703  23.243  26.412  1.00  0.00     0.054 A 
BRANCH  80  81
ATOM     81  S   UNL A   1      44.113  22.004  25.150  1.00  0.00     0.124 S 
ATOM     82  O   UNL A   1      43.856  22.735  23.913  1.00  0.00    -0.237 OA
ATOM     83  O   UNL A   1      45.516  21.717  25.435  1.00  0.00    -0.237 OA
ATOM     84  O   UNL A   1      43.191  20.908  25.435  1.00  0.00    -0.744 OA
ENDBRANCH  80  81
ENDBRANCH  52  75
BRANCH  64  85
ATOM     85  C   UNL A   1      46.328  27.317  34.169  1.00  0.00    -0.014 A 
ATOM     86  C   UNL A   1      47.577  27.902  33.898  1.00  0.00     0.010 A 
ATOM     87  C   UNL A   1      46.239  26.322  35.161  1.00  0.00     0.010 A 
ATOM     88  C   UNL A   1      48.720  27.476  34.582  1.00  0.00     0.020 A 
ATOM     89  C   UNL A   1      47.373  25.916  35.868  1.00  0.00     0.020 A 
ATOM     90  C   UNL A   1      48.610  26.487  35.563  1.00  0.00     0.054 A 
BRANCH  90  91
ATOM     91  S   UNL A   1      50.101  25.984  36.467  1.00  0.00     0.124 S 
ATOM     92  O   UNL A   1      51.159  26.613  35.681  1.00  0.00    -0.237 OA
ATOM     93  O   UNL A   1      49.879  26.557  37.792  1.00  0.00    -0.237 OA
ATOM     94  O   UNL A   1      50.067  24.524  36.411  1.00  0.00    -0.744 OA
ENDBRANCH  90  91
ENDBRANCH  64  85
ENDBRANCH  38  39
ENDBRANCH  30  33
ENDBRANCH  28  29
ENDBRANCH  27  28
ENDBRANCH   1  27
TORSDOF 18
ENDMDL
MODEL 2
REMARK VINA RESULT:     -10.7      5.160      6.637
REMARK SMILES O=C(NCCCCCCNC(=O)c1ccc(-c2c3nc(c(-c4ccc(S(=O)(=O)[O-])cc4)c4ccc([nH]4)c(-c4ccc(S(=O)(=O)[O-])cc4)c4nc(c(-c5ccc(S(=O)(=O)[O-])cc5)c5ccc2[nH]5)C=C4)C=C3)cc1)C1=Cc2cc(C(F)(F)F)ccc2O[C@@H]1C(F)(F)F
REMARK SMILES IDX 7 1 6 2 5 3 4 4 3 5 1 6 2 7 73 9 74 10 86 11 75 12 85 13
REMARK SMILES IDX 76 14 84 15 77 16 83 17 82 18 87 19 88 20 89 21 90 22 78 23
REMARK SMILES IDX 79 24 80 25 81 26 8 27 9 28 10 29 11 30 12 32 13 33 14 34
REMARK SMILES IDX 72 35 15 36 71 37 16 38 17 39 18 40 65 41 19 42 70 43 64 44
REMARK SMILES IDX 66 45 20 46 69 47 63 48 62 49 21 51 51 52 32 53 50 54 33 55
REMARK SMILES IDX 36 56 49 57 67 58 34 59 35 60 48 62 68 63 37 64 22 65 23 66
REMARK SMILES IDX 31 67 24 68 30 69 25 70 26 71 27 72 28 73 29 74 52 75 53 76
REMARK SMILES IDX 61 77 54 78 60 79 55 80 56 81 57 82 58 83 59 84 38 85 39 86
REMARK SMILES IDX 47 87 40 88 46 89 41 90 42 91 43 92 44 93 45 94
REMARK H PARENT 3 8 10 31 66 50 36 61
REMARK Flexibility Score: inf
ROOT
ATOM      1  C   UNL A   1      33.380  29.406  26.348  1.00  0.00     0.002 C 
ENDROOT
BRANCH   1   2
ATOM      2  C   UNL A   1      31.985  29.359  26.987  1.00  0.00     0.002 C 
BRANCH   2   3
ATOM      3  C   UNL A   1      31.480  27.988  27.430  1.00  0.00     0.021 C 
BRANCH   3   4
ATOM      4  C   UNL A   1      31.357  26.930  26.340  1.00  0.00     0.116 C 
BRANCH   4   5
ATOM      5  N   UNL A   1      30.775  25.663  26.746  1.00  0.00    -0.352 N 
ATOM      6  O   UNL A   1      30.724  23.470  27.230  1.00  0.00    -0.270 OA
ATOM      7  C   UNL A   1      31.303  24.402  26.672  1.00  0.00     0.251 C 
ATOM      8  H   UNL A   1      29.870  25.719  27.129  1.00  0.00     0.163 HD
BRANCH   7   9
ATOM      9  C   UNL A   1      32.611  24.115  26.010  1.00  0.00     0.067 C 
ATOM     10  C   UNL A   1      33.360  23.039  26.316  1.00  0.00     0.025 C 
ATOM     11  C   UNL A   1      32.734  24.719  24.629  1.00  0.00     0.314 C 
ATOM     12  C   UNL A   1      33.299  22.044  25.210  1.00  0.00     0.018 A 
ATOM     13  O   UNL A   1      32.546  23.716  23.591  1.00  0.00    -0.475 OA
ATOM     14  C   UNL A   1      33.426  20.691  25.547  1.00  0.00     0.025 A 
ATOM     15  C   UNL A   1      32.800  22.415  23.950  1.00  0.00     0.128 A 
ATOM     16  C   UNL A   1      32.922  19.705  24.685  1.00  0.00     0.056 A 
ATOM     17  C   UNL A   1      32.397  21.434  23.050  1.00  0.00     0.048 A 
ATOM     18  C   UNL A   1      32.432  20.086  23.424  1.00  0.00     0.017 A 
BRANCH  11  19
ATOM     19  C   UNL A   1      34.054  25.478  24.427  1.00  0.00     0.429 C 
ATOM     20  F   UNL A   1      34.471  26.053  25.580  1.00  0.00    -0.167 F 
ATOM     21  F   UNL A   1      35.049  24.654  24.019  1.00  0.00    -0.167 F 
ATOM     22  F   UNL A   1      33.951  26.461  23.501  1.00  0.00    -0.167 F 
ENDBRANCH  11  19
BRANCH  16  23
ATOM     23  C   UNL A   1      32.809  18.279  25.171  1.00  0.00     0.416 C 
ATOM     24  F   UNL A   1      32.543  18.186  26.497  1.00  0.00    -0.166 F 
ATOM     25  F   UNL A   1      31.805  17.607  24.533  1.00  0.00    -0.166 F 
ATOM     26  F   UNL A   1      33.931  17.544  24.938  1.00  0.00    -0.166 F 
ENDBRANCH  16  23
ENDBRANCH   7   9
ENDBRANCH   4   5
ENDBRANCH   3   4
ENDBRANCH   2   3
ENDBRANCH   1   2
BRANCH   1  27
ATOM     27  C   UNL A   1      34.568  29.022  27.234  1.00  0.00     0.021 C 
BRANCH  27  28
ATOM     28  C   UNL A   1      35.420  30.171  27.771  1.00  0.00     0.116 C 
BRANCH  28  29
ATOM     29  N   UNL A   1      35.387  30.267  29.220  1.00  0.00    -0.352 N 
ATOM     30  C   UNL A   1      36.361  30.000  30.149  1.00  0.00     0.251 C 
ATOM     31  H   UNL A   1      34.530  30.573  29.596  1.00  0.00     0.163 HD
ATOM     32  O   UNL A   1      36.064  30.005  31.345  1.00  0.00    -0.269 OA
BRANCH  30  33
ATOM     33  C   UNL A   1      37.750  29.685  29.740  1.00  0.00     0.039 A 
ATOM     34  C   UNL A   1      38.676  29.338  30.728  1.00  0.00     0.014 A 
ATOM     35  C   UNL A   1      38.162  29.770  28.407  1.00  0.00     0.014 A 
ATOM     36  C   UNL A   1      39.993  29.027  30.377  1.00  0.00     0.010 A 
ATOM     37  C   UNL A   1      39.455  29.388  28.049  1.00  0.00     0.010 A 
ATOM     38  C   UNL A   1      40.389  29.019  29.030  1.00  0.00    -0.014 A 
BRANCH  38  39
ATOM     39  C   UNL A   1      41.773  28.637  28.638  1.00  0.00     0.031 A 
ATOM     40  C   UNL A   1      42.861  29.677  28.576  1.00  0.00     0.074 A 
ATOM     41  C   UNL A   1      42.045  27.361  28.297  1.00  0.00     0.049 A 
ATOM     42  N   UNL A   1      44.112  29.542  28.214  1.00  0.00    -0.248 NA
ATOM     43  C   UNL A   1      42.493  31.053  28.950  1.00  0.00     0.031 C 
ATOM     44  C   UNL A   1      41.074  26.264  28.279  1.00  0.00     0.029 A 
ATOM     45  N   UNL A   1      43.218  26.770  27.896  1.00  0.00    -0.354 N 
ATOM     46  C   UNL A   1      44.676  30.809  28.311  1.00  0.00     0.074 A 
ATOM     47  C   UNL A   1      43.617  31.711  28.710  1.00  0.00     0.031 C 
ATOM     48  C   UNL A   1      41.694  25.133  27.907  1.00  0.00     0.029 A 
ATOM     49  C   UNL A   1      43.094  25.428  27.619  1.00  0.00     0.049 A 
ATOM     50  H   UNL A   1      44.067  27.261  27.813  1.00  0.00     0.167 HD
ATOM     51  C   UNL A   1      45.962  31.187  28.111  1.00  0.00     0.031 A 
ATOM     52  C   UNL A   1      44.000  24.535  27.172  1.00  0.00     0.031 A 
ATOM     53  C   UNL A   1      47.015  30.289  27.715  1.00  0.00     0.049 A 
ATOM     54  C   UNL A   1      45.416  24.982  26.933  1.00  0.00     0.074 A 
ATOM     55  C   UNL A   1      48.357  30.570  27.520  1.00  0.00     0.029 A 
ATOM     56  N   UNL A   1      46.849  28.937  27.454  1.00  0.00    -0.354 N 
ATOM     57  N   UNL A   1      45.940  26.176  27.085  1.00  0.00    -0.248 NA
ATOM     58  C   UNL A   1      46.368  23.960  26.477  1.00  0.00     0.031 C 
ATOM     59  C   UNL A   1      48.991  29.400  27.090  1.00  0.00     0.029 A 
ATOM     60  C   UNL A   1      48.059  28.375  27.081  1.00  0.00     0.049 A 
ATOM     61  H   UNL A   1      45.998  28.449  27.524  1.00  0.00     0.167 HD
ATOM     62  C   UNL A   1      47.287  26.041  26.768  1.00  0.00     0.074 A 
ATOM     63  C   UNL A   1      47.502  24.647  26.436  1.00  0.00     0.031 C 
ATOM     64  C   UNL A   1      48.260  26.986  26.754  1.00  0.00     0.031 A 
BRANCH  51  65
ATOM     65  C   UNL A   1      46.303  32.640  28.321  1.00  0.00    -0.014 A 
ATOM     66  C   UNL A   1      46.780  33.099  29.563  1.00  0.00     0.010 A 
ATOM     67  C   UNL A   1      46.195  33.551  27.253  1.00  0.00     0.010 A 
ATOM     68  C   UNL A   1      47.105  34.446  29.745  1.00  0.00     0.020 A 
ATOM     69  C   UNL A   1      46.548  34.893  27.423  1.00  0.00     0.020 A 
ATOM     70  C   UNL A   1      46.985  35.335  28.673  1.00  0.00     0.054 A 
BRANCH  70  71
ATOM     71  S   UNL A   1      47.441  37.072  28.933  1.00  0.00     0.124 S 
ATOM     72  O   UNL A   1      48.887  36.978  29.118  1.00  0.00    -0.237 OA
ATOM     73  O   UNL A   1      47.007  37.705  27.691  1.00  0.00    -0.237 OA
ATOM     74  O   UNL A   1      46.686  37.456  30.122  1.00  0.00    -0.744 OA
ENDBRANCH  70  71
ENDBRANCH  51  65
BRANCH  52  75
ATOM     75  C   UNL A   1      43.589  23.125  26.915  1.00  0.00    -0.014 A 
ATOM     76  C   UNL A   1      43.110  22.311  27.957  1.00  0.00     0.010 A 
ATOM     77  C   UNL A   1      43.674  22.590  25.616  1.00  0.00     0.010 A 
ATOM     78  C   UNL A   1      42.749  20.983  27.710  1.00  0.00     0.020 A 
ATOM     79  C   UNL A   1      43.284  21.273  25.359  1.00  0.00     0.020 A 
ATOM     80  C   UNL A   1      42.836  20.474  26.412  1.00  0.00     0.054 A 
BRANCH  80  81
ATOM     81  S   UNL A   1      42.321  18.761  26.105  1.00  0.00     0.124 S 
ATOM     82  O   UNL A   1      40.925  18.929  25.715  1.00  0.00    -0.237 OA
ATOM     83  O   UNL A   1      43.230  18.345  25.040  1.00  0.00    -0.237 OA
ATOM     84  O   UNL A   1      42.538  18.103  27.391  1.00  0.00    -0.744 OA
ENDBRANCH  80  81
ENDBRANCH  52  75
BRANCH  64  85
ATOM     85  C   UNL A   1      49.655  26.542  26.403  1.00  0.00    -0.014 A 
ATOM     86  C   UNL A   1      50.477  25.895  27.343  1.00  0.00     0.010 A 
ATOM     87  C   UNL A   1      50.130  26.725  25.091  1.00  0.00     0.010 A 
ATOM     88  C   UNL A   1      51.760  25.470  26.986  1.00  0.00     0.020 A 
ATOM     89  C   UNL A   1      51.400  26.274  24.722  1.00  0.00     0.020 A 
ATOM     90  C   UNL A   1      52.213  25.661  25.678  1.00  0.00     0.054 A 
BRANCH  90  91
ATOM     91  S   UNL A   1      53.865  25.061  25.228  1.00  0.00     0.124 S 
ATOM     92  O   UNL A   1      54.080  25.703  23.934  1.00  0.00    -0.237 OA
ATOM     93  O   UNL A   1      54.694  25.560  26.322  1.00  0.00    -0.237 OA
ATOM     94  O   UNL A   1      53.707  23.608  25.185  1.00  0.00    -0.744 OA
ENDBRANCH  90  91
ENDBRANCH  64  85
ENDBRANCH  38  39
ENDBRANCH  30  33
ENDBRANCH  28  29
ENDBRANCH  27  28
ENDBRANCH   1  27
TORSDOF 18
ENDMDL
MODEL 3
REMARK VINA RESULT:     -10.6      3.038      4.102
REMARK SMILES O=C(NCCCCCCNC(=O)c1ccc(-c2c3nc(c(-c4ccc(S(=O)(=O)[O-])cc4)c4ccc([nH]4)c(-c4ccc(S(=O)(=O)[O-])cc4)c4nc(c(-c5ccc(S(=O)(=O)[O-])cc5)c5ccc2[nH]5)C=C4)C=C3)cc1)C1=Cc2cc(C(F)(F)F)ccc2O[C@@H]1C(F)(F)F
REMARK SMILES IDX 7 1 6 2 5 3 4 4 3 5 1 6 2 7 73 9 74 10 86 11 75 12 85 13
REMARK SMILES IDX 76 14 84 15 77 16 83 17 82 18 87 19 88 20 89 21 90 22 78 23
REMARK SMILES IDX 79 24 80 25 81 26 8 27 9 28 10 29 11 30 12 32 13 33 14 34
REMARK SMILES IDX 72 35 15 36 71 37 16 38 17 39 18 40 65 41 19 42 70 43 64 44
REMARK SMILES IDX 66 45 20 46 69 47 63 48 62 49 21 51 51 52 32 53 50 54 33 55
REMARK SMILES IDX 36 56 49 57 67 58 34 59 35 60 48 62 68 63 37 64 22 65 23 66
REMARK SMILES IDX 31 67 24 68 30 69 25 70 26 71 27 72 28 73 29 74 52 75 53 76
REMARK SMILES IDX 61 77 54 78 60 79 55 80 56 81 57 82 58 83 59 84 38 85 39 86
REMARK SMILES IDX 47 87 40 88 46 89 41 90 42 91 43 92 44 93 45 94
REMARK H PARENT 3 8 10 31 66 50 36 61
REMARK Flexibility Score: inf
ROOT
ATOM      1  C   UNL A   1      31.754  27.836  25.350  1.00  0.00     0.002 C 
ENDROOT
BRANCH   1   2
ATOM      2  C   UNL A   1      30.751  26.749  24.942  1.00  0.00     0.002 C 
BRANCH   2   3
ATOM      3  C   UNL A   1      31.072  25.960  23.674  1.00  0.00     0.021 C 
BRANCH   3   4
ATOM      4  C   UNL A   1      30.596  24.513  23.643  1.00  0.00     0.116 C 
BRANCH   4   5
ATOM      5  N   UNL A   1      31.322  23.623  22.754  1.00  0.00    -0.352 N 
ATOM      6  O   UNL A   1      32.500  21.808  22.152  1.00  0.00    -0.270 OA
ATOM      7  C   UNL A   1      32.109  22.545  23.057  1.00  0.00     0.251 C 
ATOM      8  H   UNL A   1      31.236  23.826  21.794  1.00  0.00     0.163 HD
BRANCH   7   9
ATOM      9  C   UNL A   1      32.448  22.167  24.462  1.00  0.00     0.067 C 
ATOM     10  C   UNL A   1      32.107  20.980  24.997  1.00  0.00     0.025 C 
ATOM     11  C   UNL A   1      33.660  22.889  25.006  1.00  0.00     0.314 C 
ATOM     12  C   UNL A   1      33.313  20.119  25.142  1.00  0.00     0.018 A 
ATOM     13  O   UNL A   1      34.835  22.030  25.010  1.00  0.00    -0.475 OA
ATOM     14  C   UNL A   1      33.137  18.733  25.047  1.00  0.00     0.025 A 
ATOM     15  C   UNL A   1      34.598  20.677  25.036  1.00  0.00     0.128 A 
ATOM     16  C   UNL A   1      34.222  17.913  24.702  1.00  0.00     0.056 A 
ATOM     17  C   UNL A   1      35.694  19.852  24.799  1.00  0.00     0.048 A 
ATOM     18  C   UNL A   1      35.504  18.480  24.606  1.00  0.00     0.017 A 
BRANCH  11  19
ATOM     19  C   UNL A   1      33.416  23.494  26.398  1.00  0.00     0.429 C 
ATOM     20  F   UNL A   1      33.830  22.656  27.377  1.00  0.00    -0.167 F 
ATOM     21  F   UNL A   1      34.093  24.655  26.565  1.00  0.00    -0.167 F 
ATOM     22  F   UNL A   1      32.108  23.763  26.624  1.00  0.00    -0.167 F 
ENDBRANCH  11  19
BRANCH  16  23
ATOM     23  C   UNL A   1      33.975  16.469  24.330  1.00  0.00     0.416 C 
ATOM     24  F   UNL A   1      34.836  15.609  24.924  1.00  0.00    -0.166 F 
ATOM     25  F   UNL A   1      32.721  16.063  24.689  1.00  0.00    -0.166 F 
ATOM     26  F   UNL A   1      34.049  16.243  22.989  1.00  0.00    -0.166 F 
ENDBRANCH  16  23
ENDBRANCH   7   9
ENDBRANCH   4   5
ENDBRANCH   3   4
ENDBRANCH   2   3
ENDBRANCH   1   2
BRANCH   1  27
ATOM     27  C   UNL A   1      32.534  27.614  26.650  1.00  0.00     0.021 C 
BRANCH  27  28
ATOM     28  C   UNL A   1      33.872  28.340  26.775  1.00  0.00     0.116 C 
BRANCH  28  29
ATOM     29  N   UNL A   1      33.726  29.718  27.212  1.00  0.00    -0.352 N 
ATOM     30  C   UNL A   1      34.574  30.511  27.944  1.00  0.00     0.251 C 
ATOM     31  H   UNL A   1      32.885  30.152  26.940  1.00  0.00     0.163 HD
ATOM     32  O   UNL A   1      34.177  31.612  28.333  1.00  0.00    -0.269 OA
BRANCH  30  33
ATOM     33  C   UNL A   1      35.941  30.061  28.291  1.00  0.00     0.039 A 
ATOM     34  C   UNL A   1      36.929  30.093  27.301  1.00  0.00     0.014 A 
ATOM     35  C   UNL A   1      36.254  29.569  29.561  1.00  0.00     0.014 A 
ATOM     36  C   UNL A   1      38.232  29.684  27.596  1.00  0.00     0.010 A 
ATOM     37  C   UNL A   1      37.571  29.232  29.877  1.00  0.00     0.010 A 
ATOM     38  C   UNL A   1      38.574  29.277  28.896  1.00  0.00    -0.014 A 
BRANCH  38  39
ATOM     39  C   UNL A   1      39.971  28.891  29.238  1.00  0.00     0.031 A 
ATOM     40  C   UNL A   1      40.892  29.878  29.906  1.00  0.00     0.074 A 
ATOM     41  C   UNL A   1      40.425  27.663  28.912  1.00  0.00     0.049 A 
ATOM     42  N   UNL A   1      42.151  29.736  30.238  1.00  0.00    -0.248 NA
ATOM     43  C   UNL A   1      40.335  31.202  30.224  1.00  0.00     0.031 C 
ATOM     44  C   UNL A   1      39.646  26.626  28.230  1.00  0.00     0.029 A 
ATOM     45  N   UNL A   1      41.654  27.081  29.104  1.00  0.00    -0.354 N 
ATOM     46  C   UNL A   1      42.536  30.950  30.797  1.00  0.00     0.074 A 
ATOM     47  C   UNL A   1      41.394  31.835  30.707  1.00  0.00     0.031 C 
ATOM     48  C   UNL A   1      40.408  25.531  28.080  1.00  0.00     0.029 A 
ATOM     49  C   UNL A   1      41.740  25.798  28.614  1.00  0.00     0.049 A 
ATOM     50  H   UNL A   1      42.402  27.539  29.550  1.00  0.00     0.167 HD
ATOM     51  C   UNL A   1      43.720  31.292  31.357  1.00  0.00     0.031 A 
ATOM     52  C   UNL A   1      42.776  24.936  28.585  1.00  0.00     0.031 A 
ATOM     53  C   UNL A   1      44.855  30.411  31.448  1.00  0.00     0.049 A 
ATOM     54  C   UNL A   1      44.090  25.346  29.191  1.00  0.00     0.074 A 
ATOM     55  C   UNL A   1      46.089  30.654  32.028  1.00  0.00     0.029 A 
ATOM     56  N   UNL A   1      44.898  29.118  30.948  1.00  0.00    -0.354 N 
ATOM     57  N   UNL A   1      44.414  26.481  29.765  1.00  0.00    -0.248 NA
ATOM     58  C   UNL A   1      45.175  24.355  29.161  1.00  0.00     0.031 C 
ATOM     59  C   UNL A   1      46.895  29.528  31.831  1.00  0.00     0.029 A 
ATOM     60  C   UNL A   1      46.142  28.559  31.188  1.00  0.00     0.049 A 
ATOM     61  H   UNL A   1      44.154  28.666  30.490  1.00  0.00     0.167 HD
ATOM     62  C   UNL A   1      45.732  26.330  30.185  1.00  0.00     0.074 A 
ATOM     63  C   UNL A   1      46.137  24.988  29.819  1.00  0.00     0.031 C 
ATOM     64  C   UNL A   1      46.533  27.222  30.819  1.00  0.00     0.031 A 
BRANCH  51  65
ATOM     65  C   UNL A   1      43.850  32.684  31.922  1.00  0.00    -0.014 A 
ATOM     66  C   UNL A   1      43.299  33.011  33.174  1.00  0.00     0.010 A 
ATOM     67  C   UNL A   1      44.574  33.666  31.218  1.00  0.00     0.010 A 
ATOM     68  C   UNL A   1      43.434  34.302  33.694  1.00  0.00     0.020 A 
ATOM     69  C   UNL A   1      44.737  34.949  31.748  1.00  0.00     0.020 A 
ATOM     70  C   UNL A   1      44.152  35.263  32.977  1.00  0.00     0.054 A 
BRANCH  70  71
ATOM     71  S   UNL A   1      44.333  36.921  33.691  1.00  0.00     0.124 S 
ATOM     72  O   UNL A   1      44.731  36.614  35.063  1.00  0.00    -0.237 OA
ATOM     73  O   UNL A   1      45.372  37.516  32.855  1.00  0.00    -0.237 OA
ATOM     74  O   UNL A   1      43.005  37.510  33.545  1.00  0.00    -0.744 OA
ENDBRANCH  70  71
ENDBRANCH  51  65
BRANCH  52  75
ATOM     75  C   UNL A   1      42.611  23.597  27.951  1.00  0.00    -0.014 A 
ATOM     76  C   UNL A   1      43.134  23.336  26.672  1.00  0.00     0.010 A 
ATOM     77  C   UNL A   1      41.928  22.572  28.631  1.00  0.00     0.010 A 
ATOM     78  C   UNL A   1      42.955  22.083  26.076  1.00  0.00     0.020 A 
ATOM     79  C   UNL A   1      41.775  21.310  28.052  1.00  0.00     0.020 A 
ATOM     80  C   UNL A   1      42.278  21.078  26.771  1.00  0.00     0.054 A 
BRANCH  80  81
ATOM     81  S   UNL A   1      42.094  19.446  25.997  1.00  0.00     0.124 S 
ATOM     82  O   UNL A   1      42.603  18.559  27.037  1.00  0.00    -0.237 OA
ATOM     83  O   UNL A   1      40.657  19.375  25.750  1.00  0.00    -0.237 OA
ATOM     84  O   UNL A   1      42.920  19.544  24.796  1.00  0.00    -0.744 OA
ENDBRANCH  80  81
ENDBRANCH  52  75
BRANCH  64  85
ATOM     85  C   UNL A   1      47.920  26.767  31.192  1.00  0.00    -0.014 A 
ATOM     86  C   UNL A   1      48.171  26.101  32.404  1.00  0.00     0.010 A 
ATOM     87  C   UNL A   1      48.979  26.961  30.286  1.00  0.00     0.010 A 
ATOM     88  C   UNL A   1      49.463  25.666  32.717  1.00  0.00     0.020 A 
ATOM     89  C   UNL A   1      50.264  26.501  30.581  1.00  0.00     0.020 A 
ATOM     90  C   UNL A   1      50.501  25.869  31.803  1.00  0.00     0.054 A 
BRANCH  90  91
ATOM     91  S   UNL A   1      52.158  25.256  32.214  1.00  0.00     0.124 S 
ATOM     92  O   UNL A   1      52.420  25.920  33.488  1.00  0.00    -0.237 OA
ATOM     93  O   UNL A   1      51.955  23.812  32.289  1.00  0.00    -0.237 OA
ATOM     94  O   UNL A   1      52.983  25.707  31.095  1.00  0.00    -0.744 OA
ENDBRANCH  90  91
ENDBRANCH  64  85
ENDBRANCH  38  39
ENDBRANCH  30  33
ENDBRANCH  28  29
ENDBRANCH  27  28
ENDBRANCH   1  27
TORSDOF 18
ENDMDL
