MODEL 1
REMARK VINA RESULT:     -11.1      0.000      0.000
REMARK SMILES O=C(NCCCCCCNC(=O)[C@@H]1[C@H](C(=O)Nc2cccc(Cl)c2F)[C@@H]2C=C[C@H]1C2)c1ccc(-c2c3nc(c(-c4ccc(S(=O)(=O)[O-])cc4)c4ccc([nH]4)c(-c4ccc(S(=O)(=O)[O-])cc4)c4nc(c(-c5ccc(S(=O)(=O)[O-])cc5)c5ccc2[nH]5)C=C4)C=C3)cc1
REMARK SMILES IDX 6 1 5 2 4 3 3 4 1 5 2 6 31 8 32 9 90 10 33 11 89 12 34 13
REMARK SMILES IDX 35 14 36 15 83 16 37 17 88 18 82 19 84 20 38 21 87 22 81 23
REMARK SMILES IDX 80 24 39 26 69 27 50 28 68 29 51 30 54 31 67 32 85 33 52 34
REMARK SMILES IDX 53 35 66 37 86 38 55 39 40 40 41 41 49 42 42 43 48 44 43 45
REMARK SMILES IDX 44 46 45 47 46 48 47 49 70 50 71 51 79 52 72 53 78 54 73 55
REMARK SMILES IDX 74 56 75 57 76 58 77 59 56 60 57 61 65 62 58 63 64 64 59 65
REMARK SMILES IDX 60 66 61 67 62 68 63 69 7 70 8 71 9 72 10 73 11 74 12 76
REMARK SMILES IDX 13 77 14 78 29 79 26 80 28 81 30 82 27 83 15 84 16 85 17 86
REMARK SMILES IDX 18 88 19 89 24 90 20 91 22 92 25 93 21 94 23 95
REMARK H PARENT 3 7 84 25 54 36 10 75 17 87
REMARK Flexibility Score: inf
ROOT
ATOM      1  C   UNL A   1      34.630  24.479  23.705  1.00  0.00     0.002 C 
ENDROOT
BRANCH   1   2
ATOM      2  C   UNL A   1      35.189  23.691  24.893  1.00  0.00     0.021 C 
BRANCH   2   3
ATOM      3  C   UNL A   1      36.593  24.097  25.337  1.00  0.00     0.116 C 
BRANCH   3   4
ATOM      4  N   UNL A   1      37.412  22.938  25.652  1.00  0.00    -0.352 N 
ATOM      5  O   UNL A   1      39.353  21.892  26.153  1.00  0.00    -0.269 OA
ATOM      6  C   UNL A   1      38.673  22.920  26.186  1.00  0.00     0.251 C 
ATOM      7  H   UNL A   1      37.011  22.059  25.460  1.00  0.00     0.163 HD
BRANCH   6   8
ATOM      8  C   UNL A   1      39.212  24.149  26.798  1.00  0.00     0.039 A 
ATOM      9  C   UNL A   1      40.054  24.986  26.056  1.00  0.00     0.014 A 
ATOM     10  C   UNL A   1      38.873  24.470  28.113  1.00  0.00     0.014 A 
ATOM     11  C   UNL A   1      40.630  26.099  26.660  1.00  0.00     0.010 A 
ATOM     12  C   UNL A   1      39.398  25.625  28.695  1.00  0.00     0.010 A 
ATOM     13  C   UNL A   1      40.285  26.444  27.976  1.00  0.00    -0.014 A 
BRANCH  13  14
ATOM     14  C   UNL A   1      40.777  27.715  28.562  1.00  0.00     0.031 A 
ATOM     15  C   UNL A   1      42.166  27.827  29.117  1.00  0.00     0.074 A 
ATOM     16  C   UNL A   1      39.930  28.759  28.633  1.00  0.00     0.049 A 
ATOM     17  N   UNL A   1      42.725  28.835  29.738  1.00  0.00    -0.248 NA
ATOM     18  C   UNL A   1      43.040  26.654  28.965  1.00  0.00     0.031 C 
ATOM     19  C   UNL A   1      38.553  28.760  28.133  1.00  0.00     0.029 A 
ATOM     20  N   UNL A   1      40.091  30.014  29.165  1.00  0.00    -0.354 N 
ATOM     21  C   UNL A   1      44.005  28.411  30.077  1.00  0.00     0.074 A 
ATOM     22  C   UNL A   1      44.131  27.046  29.609  1.00  0.00     0.031 C 
ATOM     23  C   UNL A   1      37.997  29.956  28.375  1.00  0.00     0.029 A 
ATOM     24  C   UNL A   1      38.951  30.779  29.107  1.00  0.00     0.049 A 
ATOM     25  H   UNL A   1      40.939  30.333  29.549  1.00  0.00     0.167 HD
ATOM     26  C   UNL A   1      44.977  29.098  30.723  1.00  0.00     0.031 A 
ATOM     27  C   UNL A   1      38.680  31.994  29.624  1.00  0.00     0.031 A 
ATOM     28  C   UNL A   1      44.825  30.449  31.202  1.00  0.00     0.049 A 
ATOM     29  C   UNL A   1      39.756  32.721  30.373  1.00  0.00     0.074 A 
ATOM     30  C   UNL A   1      45.761  31.249  31.833  1.00  0.00     0.029 A 
ATOM     31  N   UNL A   1      43.654  31.192  31.124  1.00  0.00    -0.354 N 
ATOM     32  N   UNL A   1      40.980  32.328  30.638  1.00  0.00    -0.248 NA
ATOM     33  C   UNL A   1      39.424  34.055  30.888  1.00  0.00     0.031 C 
ATOM     34  C   UNL A   1      45.137  32.448  32.196  1.00  0.00     0.029 A 
ATOM     35  C   UNL A   1      43.834  32.427  31.725  1.00  0.00     0.049 A 
ATOM     36  H   UNL A   1      42.818  30.886  30.703  1.00  0.00     0.167 HD
ATOM     37  C   UNL A   1      41.572  33.375  31.332  1.00  0.00     0.074 A 
ATOM     38  C   UNL A   1      40.574  34.422  31.438  1.00  0.00     0.031 C 
ATOM     39  C   UNL A   1      42.831  33.461  31.826  1.00  0.00     0.031 A 
BRANCH  26  40
ATOM     40  C   UNL A   1      46.273  28.378  30.998  1.00  0.00    -0.014 A 
ATOM     41  C   UNL A   1      47.397  28.536  30.165  1.00  0.00     0.010 A 
ATOM     42  C   UNL A   1      46.373  27.530  32.118  1.00  0.00     0.010 A 
ATOM     43  C   UNL A   1      48.567  27.809  30.407  1.00  0.00     0.020 A 
ATOM     44  C   UNL A   1      47.551  26.827  32.382  1.00  0.00     0.020 A 
ATOM     45  C   UNL A   1      48.632  26.950  31.507  1.00  0.00     0.054 A 
BRANCH  45  46
ATOM     46  S   UNL A   1      50.150  25.995  31.777  1.00  0.00     0.124 S 
ATOM     47  O   UNL A   1      51.172  27.037  31.727  1.00  0.00    -0.237 OA
ATOM     48  O   UNL A   1      49.926  25.401  33.093  1.00  0.00    -0.237 OA
ATOM     49  O   UNL A   1      50.171  25.049  30.664  1.00  0.00    -0.744 OA
ENDBRANCH  45  46
ENDBRANCH  26  40
BRANCH  27  50
ATOM     50  C   UNL A   1      37.315  32.557  29.457  1.00  0.00    -0.014 A 
ATOM     51  C   UNL A   1      36.376  32.489  30.500  1.00  0.00     0.010 A 
ATOM     52  C   UNL A   1      36.980  33.251  28.278  1.00  0.00     0.010 A 
ATOM     53  C   UNL A   1      35.131  33.112  30.369  1.00  0.00     0.020 A 
ATOM     54  C   UNL A   1      35.750  33.901  28.155  1.00  0.00     0.020 A 
ATOM     55  C   UNL A   1      34.831  33.824  29.203  1.00  0.00     0.054 A 
BRANCH  55  56
ATOM     56  S   UNL A   1      33.250  34.707  29.101  1.00  0.00     0.124 S 
ATOM     57  O   UNL A   1      32.483  33.856  28.196  1.00  0.00    -0.237 OA
ATOM     58  O   UNL A   1      32.804  34.716  30.492  1.00  0.00    -0.237 OA
ATOM     59  O   UNL A   1      33.621  36.015  28.565  1.00  0.00    -0.744 OA
ENDBRANCH  55  56
ENDBRANCH  27  50
BRANCH  39  60
ATOM     60  C   UNL A   1      43.231  34.747  32.501  1.00  0.00    -0.014 A 
ATOM     61  C   UNL A   1      43.742  35.830  31.768  1.00  0.00     0.010 A 
ATOM     62  C   UNL A   1      42.996  34.900  33.880  1.00  0.00     0.010 A 
ATOM     63  C   UNL A   1      44.015  37.045  32.404  1.00  0.00     0.020 A 
ATOM     64  C   UNL A   1      43.240  36.120  34.513  1.00  0.00     0.020 A 
ATOM     65  C   UNL A   1      43.752  37.185  33.771  1.00  0.00     0.054 A 
BRANCH  65  66
ATOM     66  S   UNL A   1      44.027  38.799  34.551  1.00  0.00     0.124 S 
ATOM     67  O   UNL A   1      42.976  39.614  33.948  1.00  0.00    -0.237 OA
ATOM     68  O   UNL A   1      43.856  38.500  35.970  1.00  0.00    -0.237 OA
ATOM     69  O   UNL A   1      45.390  39.148  34.155  1.00  0.00    -0.744 OA
ENDBRANCH  65  66
ENDBRANCH  39  60
ENDBRANCH  13  14
ENDBRANCH   6   8
ENDBRANCH   3   4
ENDBRANCH   2   3
ENDBRANCH   1   2
BRANCH   1  70
ATOM     70  C   UNL A   1      33.946  23.645  22.625  1.00  0.00     0.002 C 
BRANCH  70  71
ATOM     71  C   UNL A   1      32.792  24.324  21.893  1.00  0.00     0.021 C 
BRANCH  71  72
ATOM     72  C   UNL A   1      32.811  25.851  21.807  1.00  0.00     0.116 C 
BRANCH  72  73
ATOM     73  N   UNL A   1      31.616  26.480  22.349  1.00  0.00    -0.356 N 
ATOM     74  C   UNL A   1      31.443  27.334  23.400  1.00  0.00     0.224 C 
ATOM     75  H   UNL A   1      30.786  26.250  21.872  1.00  0.00     0.163 HD
ATOM     76  O   UNL A   1      30.465  28.090  23.348  1.00  0.00    -0.275 OA
BRANCH  74  77
ATOM     77  C   UNL A   1      32.462  27.482  24.516  1.00  0.00     0.098 C 
ATOM     78  C   UNL A   1      32.545  26.595  25.765  1.00  0.00     0.099 C 
ATOM     79  C   UNL A   1      32.706  28.906  25.135  1.00  0.00     0.025 C 
ATOM     80  C   UNL A   1      33.183  27.526  26.835  1.00  0.00     0.025 C 
ATOM     81  C   UNL A   1      31.818  29.263  26.322  1.00  0.00    -0.027 C 
ATOM     82  C   UNL A   1      33.945  28.558  25.983  1.00  0.00     0.017 C 
ATOM     83  C   UNL A   1      32.123  28.451  27.345  1.00  0.00    -0.027 C 
BRANCH  78  84
ATOM     84  C   UNL A   1      31.424  25.729  26.318  1.00  0.00     0.228 C 
ATOM     85  O   UNL A   1      30.345  26.331  26.514  1.00  0.00    -0.274 OA
ATOM     86  N   UNL A   1      31.303  24.397  26.515  1.00  0.00    -0.323 N 
ATOM     87  H   UNL A   1      30.398  24.196  26.843  1.00  0.00     0.170 HD
BRANCH  86  88
ATOM     88  C   UNL A   1      32.039  23.201  26.409  1.00  0.00     0.078 A 
ATOM     89  C   UNL A   1      32.972  22.997  27.437  1.00  0.00     0.029 A 
ATOM     90  C   UNL A   1      31.978  22.219  25.427  1.00  0.00     0.165 A 
ATOM     91  C   UNL A   1      33.675  21.793  27.563  1.00  0.00     0.004 A 
ATOM     92  C   UNL A   1      32.664  21.004  25.546  1.00  0.00     0.078 A 
ATOM     93  F   UNL A   1      31.322  22.440  24.299  1.00  0.00    -0.203 F 
ATOM     94  C   UNL A   1      33.491  20.776  26.635  1.00  0.00     0.024 A 
ATOM     95  Cl  UNL A   1      32.479  19.766  24.357  1.00  0.00    -0.081 Cl
ENDBRANCH  86  88
ENDBRANCH  78  84
ENDBRANCH  74  77
ENDBRANCH  72  73
ENDBRANCH  71  72
ENDBRANCH  70  71
ENDBRANCH   1  70
TORSDOF 18
ENDMDL
MODEL 2
REMARK VINA RESULT:     -11.0      3.952      9.186
REMARK SMILES O=C(NCCCCCCNC(=O)[C@@H]1[C@H](C(=O)Nc2cccc(Cl)c2F)[C@@H]2C=C[C@H]1C2)c1ccc(-c2c3nc(c(-c4ccc(S(=O)(=O)[O-])cc4)c4ccc([nH]4)c(-c4ccc(S(=O)(=O)[O-])cc4)c4nc(c(-c5ccc(S(=O)(=O)[O-])cc5)c5ccc2[nH]5)C=C4)C=C3)cc1
REMARK SMILES IDX 6 1 5 2 4 3 3 4 1 5 2 6 31 8 32 9 90 10 33 11 89 12 34 13
REMARK SMILES IDX 35 14 36 15 83 16 37 17 88 18 82 19 84 20 38 21 87 22 81 23
REMARK SMILES IDX 80 24 39 26 69 27 50 28 68 29 51 30 54 31 67 32 85 33 52 34
REMARK SMILES IDX 53 35 66 37 86 38 55 39 40 40 41 41 49 42 42 43 48 44 43 45
REMARK SMILES IDX 44 46 45 47 46 48 47 49 70 50 71 51 79 52 72 53 78 54 73 55
REMARK SMILES IDX 74 56 75 57 76 58 77 59 56 60 57 61 65 62 58 63 64 64 59 65
REMARK SMILES IDX 60 66 61 67 62 68 63 69 7 70 8 71 9 72 10 73 11 74 12 76
REMARK SMILES IDX 13 77 14 78 29 79 26 80 28 81 30 82 27 83 15 84 16 85 17 86
REMARK SMILES IDX 18 88 19 89 24 90 20 91 22 92 25 93 21 94 23 95
REMARK H PARENT 3 7 84 25 54 36 10 75 17 87
REMARK Flexibility Score: inf
ROOT
ATOM      1  C   UNL A   1      36.939  20.654  25.070  1.00  0.00     0.002 C 
ENDROOT
BRANCH   1   2
ATOM      2  C   UNL A   1      38.234  19.849  24.926  1.00  0.00     0.021 C 
BRANCH   2   3
ATOM      3  C   UNL A   1      39.366  20.270  25.862  1.00  0.00     0.116 C 
BRANCH   3   4
ATOM      4  N   UNL A   1      40.362  19.221  26.003  1.00  0.00    -0.352 N 
ATOM      5  O   UNL A   1      42.464  18.389  25.947  1.00  0.00    -0.269 OA
ATOM      6  C   UNL A   1      41.721  19.361  26.102  1.00  0.00     0.251 C 
ATOM      7  H   UNL A   1      40.019  18.299  26.032  1.00  0.00     0.163 HD
BRANCH   6   8
ATOM      8  C   UNL A   1      42.287  20.692  26.392  1.00  0.00     0.039 A 
ATOM      9  C   UNL A   1      42.679  21.527  25.339  1.00  0.00     0.014 A 
ATOM     10  C   UNL A   1      42.424  21.109  27.716  1.00  0.00     0.014 A 
ATOM     11  C   UNL A   1      43.291  22.745  25.614  1.00  0.00     0.010 A 
ATOM     12  C   UNL A   1      42.974  22.363  27.988  1.00  0.00     0.010 A 
ATOM     13  C   UNL A   1      43.419  23.186  26.940  1.00  0.00    -0.014 A 
BRANCH  13  14
ATOM     14  C   UNL A   1      43.927  24.551  27.221  1.00  0.00     0.031 A 
ATOM     15  C   UNL A   1      43.002  25.650  27.655  1.00  0.00     0.074 A 
ATOM     16  C   UNL A   1      45.237  24.801  27.028  1.00  0.00     0.049 A 
ATOM     17  N   UNL A   1      43.267  26.915  27.859  1.00  0.00    -0.248 NA
ATOM     18  C   UNL A   1      41.596  25.285  27.879  1.00  0.00     0.031 C 
ATOM     19  C   UNL A   1      46.227  23.811  26.598  1.00  0.00     0.029 A 
ATOM     20  N   UNL A   1      45.959  25.961  27.151  1.00  0.00    -0.354 N 
ATOM     21  C   UNL A   1      42.058  27.506  28.209  1.00  0.00     0.074 A 
ATOM     22  C   UNL A   1      41.056  26.461  28.168  1.00  0.00     0.031 C 
ATOM     23  C   UNL A   1      47.426  24.402  26.500  1.00  0.00     0.029 A 
ATOM     24  C   UNL A   1      47.277  25.822  26.790  1.00  0.00     0.049 A 
ATOM     25  H   UNL A   1      45.570  26.809  27.467  1.00  0.00     0.167 HD
ATOM     26  C   UNL A   1      41.812  28.799  28.527  1.00  0.00     0.031 A 
ATOM     27  C   UNL A   1      48.255  26.740  26.660  1.00  0.00     0.031 A 
ATOM     28  C   UNL A   1      42.819  29.830  28.540  1.00  0.00     0.049 A 
ATOM     29  C   UNL A   1      47.953  28.174  26.975  1.00  0.00     0.074 A 
ATOM     30  C   UNL A   1      42.683  31.162  28.887  1.00  0.00     0.029 A 
ATOM     31  N   UNL A   1      44.145  29.649  28.169  1.00  0.00    -0.354 N 
ATOM     32  N   UNL A   1      46.816  28.707  27.357  1.00  0.00    -0.248 NA
ATOM     33  C   UNL A   1      49.059  29.131  26.852  1.00  0.00     0.031 C 
ATOM     34  C   UNL A   1      43.907  31.801  28.660  1.00  0.00     0.029 A 
ATOM     35  C   UNL A   1      44.828  30.852  28.245  1.00  0.00     0.049 A 
ATOM     36  H   UNL A   1      44.542  28.791  27.891  1.00  0.00     0.167 HD
ATOM     37  C   UNL A   1      47.075  30.059  27.541  1.00  0.00     0.074 A 
ATOM     38  C   UNL A   1      48.478  30.260  27.236  1.00  0.00     0.031 C 
ATOM     39  C   UNL A   1      46.226  31.040  27.936  1.00  0.00     0.031 A 
BRANCH  26  40
ATOM     40  C   UNL A   1      40.385  29.181  28.834  1.00  0.00    -0.014 A 
ATOM     41  C   UNL A   1      39.410  29.267  27.823  1.00  0.00     0.010 A 
ATOM     42  C   UNL A   1      40.010  29.450  30.164  1.00  0.00     0.010 A 
ATOM     43  C   UNL A   1      38.110  29.682  28.126  1.00  0.00     0.020 A 
ATOM     44  C   UNL A   1      38.702  29.834  30.476  1.00  0.00     0.020 A 
ATOM     45  C   UNL A   1      37.767  29.975  29.449  1.00  0.00     0.054 A 
BRANCH  45  46
ATOM     46  S   UNL A   1      36.083  30.543  29.808  1.00  0.00     0.124 S 
ATOM     47  O   UNL A   1      35.348  30.054  28.644  1.00  0.00    -0.237 OA
ATOM     48  O   UNL A   1      35.779  29.871  31.068  1.00  0.00    -0.237 OA
ATOM     49  O   UNL A   1      36.215  31.995  29.894  1.00  0.00    -0.744 OA
ENDBRANCH  45  46
ENDBRANCH  26  40
BRANCH  27  50
ATOM     50  C   UNL A   1      49.592  26.302  26.180  1.00  0.00    -0.014 A 
ATOM     51  C   UNL A   1      50.027  26.610  24.880  1.00  0.00     0.010 A 
ATOM     52  C   UNL A   1      50.477  25.652  27.062  1.00  0.00     0.010 A 
ATOM     53  C   UNL A   1      51.324  26.283  24.475  1.00  0.00     0.020 A 
ATOM     54  C   UNL A   1      51.784  25.351  26.672  1.00  0.00     0.020 A 
ATOM     55  C   UNL A   1      52.198  25.667  25.377  1.00  0.00     0.054 A 
BRANCH  55  56
ATOM     56  S   UNL A   1      53.907  25.346  24.858  1.00  0.00     0.124 S 
ATOM     57  O   UNL A   1      53.896  25.807  23.473  1.00  0.00    -0.237 OA
ATOM     58  O   UNL A   1      54.678  26.163  25.791  1.00  0.00    -0.237 OA
ATOM     59  O   UNL A   1      54.054  23.903  25.036  1.00  0.00    -0.744 OA
ENDBRANCH  55  56
ENDBRANCH  27  50
BRANCH  39  60
ATOM     60  C   UNL A   1      46.789  32.426  28.103  1.00  0.00    -0.014 A 
ATOM     61  C   UNL A   1      47.384  32.835  29.308  1.00  0.00     0.010 A 
ATOM     62  C   UNL A   1      46.808  33.297  26.997  1.00  0.00     0.010 A 
ATOM     63  C   UNL A   1      47.985  34.094  29.406  1.00  0.00     0.020 A 
ATOM     64  C   UNL A   1      47.432  34.543  27.082  1.00  0.00     0.020 A 
ATOM     65  C   UNL A   1      48.014  34.935  28.288  1.00  0.00     0.054 A 
BRANCH  65  66
ATOM     66  S   UNL A   1      48.882  36.524  28.414  1.00  0.00     0.124 S 
ATOM     67  O   UNL A   1      48.180  37.168  29.521  1.00  0.00    -0.237 OA
ATOM     68  O   UNL A   1      50.256  36.115  28.692  1.00  0.00    -0.237 OA
ATOM     69  O   UNL A   1      48.674  37.138  27.104  1.00  0.00    -0.744 OA
ENDBRANCH  65  66
ENDBRANCH  39  60
ENDBRANCH  13  14
ENDBRANCH   6   8
ENDBRANCH   3   4
ENDBRANCH   2   3
ENDBRANCH   1   2
BRANCH   1  70
ATOM     70  C   UNL A   1      36.920  22.004  24.357  1.00  0.00     0.002 C 
BRANCH  70  71
ATOM     71  C   UNL A   1      37.295  23.212  25.211  1.00  0.00     0.021 C 
BRANCH  71  72
ATOM     72  C   UNL A   1      36.181  24.195  25.572  1.00  0.00     0.116 C 
BRANCH  72  73
ATOM     73  N   UNL A   1      35.032  24.127  24.681  1.00  0.00    -0.356 N 
ATOM     74  C   UNL A   1      34.106  25.066  24.328  1.00  0.00     0.224 C 
ATOM     75  H   UNL A   1      34.901  23.248  24.258  1.00  0.00     0.163 HD
ATOM     76  O   UNL A   1      33.562  24.925  23.226  1.00  0.00    -0.275 OA
BRANCH  74  77
ATOM     77  C   UNL A   1      33.846  26.315  25.152  1.00  0.00     0.098 C 
ATOM     78  C   UNL A   1      32.789  26.445  26.256  1.00  0.00     0.099 C 
ATOM     79  C   UNL A   1      33.686  27.692  24.411  1.00  0.00     0.025 C 
ATOM     80  C   UNL A   1      32.440  27.961  26.254  1.00  0.00     0.025 C 
ATOM     81  C   UNL A   1      32.262  28.047  23.995  1.00  0.00    -0.027 C 
ATOM     82  C   UNL A   1      33.704  28.604  25.653  1.00  0.00     0.017 C 
ATOM     83  C   UNL A   1      31.526  28.231  25.101  1.00  0.00    -0.027 C 
BRANCH  78  84
ATOM     84  C   UNL A   1      31.571  25.552  26.432  1.00  0.00     0.228 C 
ATOM     85  O   UNL A   1      30.486  26.163  26.549  1.00  0.00    -0.274 OA
ATOM     86  N   UNL A   1      31.391  24.215  26.347  1.00  0.00    -0.323 N 
ATOM     87  H   UNL A   1      30.438  24.004  26.470  1.00  0.00     0.170 HD
BRANCH  86  88
ATOM     88  C   UNL A   1      32.112  23.022  26.143  1.00  0.00     0.078 A 
ATOM     89  C   UNL A   1      33.020  22.708  27.166  1.00  0.00     0.029 A 
ATOM     90  C   UNL A   1      32.056  22.137  25.073  1.00  0.00     0.165 A 
ATOM     91  C   UNL A   1      33.703  21.486  27.192  1.00  0.00     0.004 A 
ATOM     92  C   UNL A   1      32.722  20.905  25.091  1.00  0.00     0.078 A 
ATOM     93  F   UNL A   1      31.426  22.472  23.959  1.00  0.00    -0.203 F 
ATOM     94  C   UNL A   1      33.524  20.563  26.169  1.00  0.00     0.024 A 
ATOM     95  Cl  UNL A   1      32.543  19.787  23.788  1.00  0.00    -0.081 Cl
ENDBRANCH  86  88
ENDBRANCH  78  84
ENDBRANCH  74  77
ENDBRANCH  72  73
ENDBRANCH  71  72
ENDBRANCH  70  71
ENDBRANCH   1  70
TORSDOF 18
ENDMDL
MODEL 3
REMARK VINA RESULT:     -10.9      3.818      5.115
REMARK SMILES O=C(NCCCCCCNC(=O)[C@@H]1[C@H](C(=O)Nc2cccc(Cl)c2F)[C@@H]2C=C[C@H]1C2)c1ccc(-c2c3nc(c(-c4ccc(S(=O)(=O)[O-])cc4)c4ccc([nH]4)c(-c4ccc(S(=O)(=O)[O-])cc4)c4nc(c(-c5ccc(S(=O)(=O)[O-])cc5)c5ccc2[nH]5)C=C4)C=C3)cc1
REMARK SMILES IDX 6 1 5 2 4 3 3 4 1 5 2 6 31 8 32 9 90 10 33 11 89 12 34 13
REMARK SMILES IDX 35 14 36 15 83 16 37 17 88 18 82 19 84 20 38 21 87 22 81 23
REMARK SMILES IDX 80 24 39 26 69 27 50 28 68 29 51 30 54 31 67 32 85 33 52 34
REMARK SMILES IDX 53 35 66 37 86 38 55 39 40 40 41 41 49 42 42 43 48 44 43 45
REMARK SMILES IDX 44 46 45 47 46 48 47 49 70 50 71 51 79 52 72 53 78 54 73 55
REMARK SMILES IDX 74 56 75 57 76 58 77 59 56 60 57 61 65 62 58 63 64 64 59 65
REMARK SMILES IDX 60 66 61 67 62 68 63 69 7 70 8 71 9 72 10 73 11 74 12 76
REMARK SMILES IDX 13 77 14 78 29 79 26 80 28 81 30 82 27 83 15 84 16 85 17 86
REMARK SMILES IDX 18 88 19 89 24 90 20 91 22 92 25 93 21 94 23 95
REMARK H PARENT 3 7 84 25 54 36 10 75 17 87
REMARK Flexibility Score: inf
ROOT
ATOM      1  C   UNL A   1      38.218  23.217  26.078  1.00  0.00     0.002 C 
ENDROOT
BRANCH   1   2
ATOM      2  C   UNL A   1      39.451  22.462  26.583  1.00  0.00     0.021 C 
BRANCH   2   3
ATOM      3  C   UNL A   1      40.555  23.342  27.168  1.00  0.00     0.116 C 
BRANCH   3   4
ATOM      4  N   UNL A   1      41.365  23.950  26.125  1.00  0.00    -0.352 N 
ATOM      5  O   UNL A   1      42.196  25.692  24.949  1.00  0.00    -0.269 OA
ATOM      6  C   UNL A   1      41.741  25.262  26.011  1.00  0.00     0.251 C 
ATOM      7  H   UNL A   1      41.682  23.345  25.416  1.00  0.00     0.163 HD
BRANCH   6   8
ATOM      8  C   UNL A   1      41.591  26.156  27.174  1.00  0.00     0.039 A 
ATOM      9  C   UNL A   1      42.516  27.185  27.385  1.00  0.00     0.014 A 
ATOM     10  C   UNL A   1      40.524  25.969  28.055  1.00  0.00     0.014 A 
ATOM     11  C   UNL A   1      42.424  27.973  28.528  1.00  0.00     0.010 A 
ATOM     12  C   UNL A   1      40.395  26.807  29.163  1.00  0.00     0.010 A 
ATOM     13  C   UNL A   1      41.347  27.809  29.413  1.00  0.00    -0.014 A 
BRANCH  13  14
ATOM     14  C   UNL A   1      41.166  28.753  30.543  1.00  0.00     0.031 A 
ATOM     15  C   UNL A   1      41.992  28.639  31.790  1.00  0.00     0.074 A 
ATOM     16  C   UNL A   1      40.203  29.690  30.448  1.00  0.00     0.049 A 
ATOM     17  N   UNL A   1      41.905  29.327  32.900  1.00  0.00    -0.248 NA
ATOM     18  C   UNL A   1      43.048  27.615  31.797  1.00  0.00     0.031 C 
ATOM     19  C   UNL A   1      39.333  29.887  29.286  1.00  0.00     0.029 A 
ATOM     20  N   UNL A   1      39.782  30.640  31.344  1.00  0.00    -0.354 N 
ATOM     21  C   UNL A   1      42.872  28.802  33.750  1.00  0.00     0.074 A 
ATOM     22  C   UNL A   1      43.521  27.725  33.031  1.00  0.00     0.031 C 
ATOM     23  C   UNL A   1      38.487  30.897  29.536  1.00  0.00     0.029 A 
ATOM     24  C   UNL A   1      38.707  31.371  30.897  1.00  0.00     0.049 A 
ATOM     25  H   UNL A   1      40.208  30.784  32.220  1.00  0.00     0.167 HD
ATOM     26  C   UNL A   1      43.183  29.183  35.012  1.00  0.00     0.031 A 
ATOM     27  C   UNL A   1      37.948  32.291  31.522  1.00  0.00     0.031 A 
ATOM     28  C   UNL A   1      42.510  30.244  35.720  1.00  0.00     0.049 A 
ATOM     29  C   UNL A   1      38.279  32.669  32.935  1.00  0.00     0.074 A 
ATOM     30  C   UNL A   1      42.774  30.735  36.986  1.00  0.00     0.029 A 
ATOM     31  N   UNL A   1      41.426  30.961  35.232  1.00  0.00    -0.354 N 
ATOM     32  N   UNL A   1      39.233  32.201  33.706  1.00  0.00    -0.248 NA
ATOM     33  C   UNL A   1      37.444  33.700  33.562  1.00  0.00     0.031 C 
ATOM     34  C   UNL A   1      41.808  31.701  37.290  1.00  0.00     0.029 A 
ATOM     35  C   UNL A   1      40.988  31.867  36.184  1.00  0.00     0.049 A 
ATOM     36  H   UNL A   1      41.026  30.843  34.339  1.00  0.00     0.167 HD
ATOM     37  C   UNL A   1      39.126  32.897  34.903  1.00  0.00     0.074 A 
ATOM     38  C   UNL A   1      38.021  33.823  34.750  1.00  0.00     0.031 C 
ATOM     39  C   UNL A   1      39.884  32.782  36.021  1.00  0.00     0.031 A 
BRANCH  26  40
ATOM     40  C   UNL A   1      44.263  28.410  35.727  1.00  0.00    -0.014 A 
ATOM     41  C   UNL A   1      45.618  28.775  35.631  1.00  0.00     0.010 A 
ATOM     42  C   UNL A   1      43.913  27.299  36.518  1.00  0.00     0.010 A 
ATOM     43  C   UNL A   1      46.606  28.005  36.255  1.00  0.00     0.020 A 
ATOM     44  C   UNL A   1      44.894  26.546  37.170  1.00  0.00     0.020 A 
ATOM     45  C   UNL A   1      46.238  26.888  37.010  1.00  0.00     0.054 A 
BRANCH  45  46
ATOM     46  S   UNL A   1      47.541  25.889  37.779  1.00  0.00     0.124 S 
ATOM     47  O   UNL A   1      48.736  26.379  37.096  1.00  0.00    -0.237 OA
ATOM     48  O   UNL A   1      47.433  26.251  39.190  1.00  0.00    -0.237 OA
ATOM     49  O   UNL A   1      47.162  24.515  37.460  1.00  0.00    -0.744 OA
ENDBRANCH  45  46
ENDBRANCH  26  40
BRANCH  27  50
ATOM     50  C   UNL A   1      36.788  32.877  30.799  1.00  0.00    -0.014 A 
ATOM     51  C   UNL A   1      35.477  32.463  31.085  1.00  0.00     0.010 A 
ATOM     52  C   UNL A   1      36.991  33.928  29.883  1.00  0.00     0.010 A 
ATOM     53  C   UNL A   1      34.389  33.093  30.473  1.00  0.00     0.020 A 
ATOM     54  C   UNL A   1      35.906  34.581  29.293  1.00  0.00     0.020 A 
ATOM     55  C   UNL A   1      34.610  34.156  29.591  1.00  0.00     0.054 A 
BRANCH  55  56
ATOM     56  S   UNL A   1      33.179  35.022  28.890  1.00  0.00     0.124 S 
ATOM     57  O   UNL A   1      32.358  35.261  30.073  1.00  0.00    -0.237 OA
ATOM     58  O   UNL A   1      33.789  36.208  28.293  1.00  0.00    -0.237 OA
ATOM     59  O   UNL A   1      32.632  34.063  27.932  1.00  0.00    -0.744 OA
ENDBRANCH  55  56
ENDBRANCH  27  50
BRANCH  39  60
ATOM     60  C   UNL A   1      39.577  33.706  37.171  1.00  0.00    -0.014 A 
ATOM     61  C   UNL A   1      38.784  33.289  38.253  1.00  0.00     0.010 A 
ATOM     62  C   UNL A   1      40.177  34.977  37.208  1.00  0.00     0.010 A 
ATOM     63  C   UNL A   1      38.594  34.132  39.353  1.00  0.00     0.020 A 
ATOM     64  C   UNL A   1      40.014  35.810  38.317  1.00  0.00     0.020 A 
ATOM     65  C   UNL A   1      39.220  35.383  39.382  1.00  0.00     0.054 A 
BRANCH  65  66
ATOM     66  S   UNL A   1      39.032  36.418  40.860  1.00  0.00     0.124 S 
ATOM     67  O   UNL A   1      37.994  35.707  41.601  1.00  0.00    -0.237 OA
ATOM     68  O   UNL A   1      40.368  36.375  41.449  1.00  0.00    -0.237 OA
ATOM     69  O   UNL A   1      38.635  37.719  40.325  1.00  0.00    -0.744 OA
ENDBRANCH  65  66
ENDBRANCH  39  60
ENDBRANCH  13  14
ENDBRANCH   6   8
ENDBRANCH   3   4
ENDBRANCH   2   3
ENDBRANCH   1   2
BRANCH   1  70
ATOM     70  C   UNL A   1      37.132  22.352  25.441  1.00  0.00     0.002 C 
BRANCH  70  71
ATOM     71  C   UNL A   1      36.838  22.633  23.970  1.00  0.00     0.021 C 
BRANCH  71  72
ATOM     72  C   UNL A   1      35.712  23.617  23.651  1.00  0.00     0.116 C 
BRANCH  72  73
ATOM     73  N   UNL A   1      35.122  24.231  24.831  1.00  0.00    -0.356 N 
ATOM     74  C   UNL A   1      33.820  24.411  25.200  1.00  0.00     0.224 C 
ATOM     75  H   UNL A   1      35.779  24.578  25.477  1.00  0.00     0.163 HD
ATOM     76  O   UNL A   1      33.591  24.491  26.413  1.00  0.00    -0.275 OA
BRANCH  74  77
ATOM     77  C   UNL A   1      32.670  24.362  24.209  1.00  0.00     0.098 C 
ATOM     78  C   UNL A   1      32.588  25.166  22.904  1.00  0.00     0.099 C 
ATOM     79  C   UNL A   1      31.200  24.502  24.747  1.00  0.00     0.025 C 
ATOM     80  C   UNL A   1      31.060  25.331  22.669  1.00  0.00     0.025 C 
ATOM     81  C   UNL A   1      30.665  25.927  24.821  1.00  0.00    -0.027 C 
ATOM     82  C   UNL A   1      30.462  24.140  23.443  1.00  0.00     0.017 C 
ATOM     83  C   UNL A   1      30.560  26.412  23.575  1.00  0.00    -0.027 C 
BRANCH  78  84
ATOM     84  C   UNL A   1      33.381  26.422  22.582  1.00  0.00     0.228 C 
ATOM     85  O   UNL A   1      33.847  26.464  21.422  1.00  0.00    -0.274 OA
ATOM     86  N   UNL A   1      33.576  27.583  23.247  1.00  0.00    -0.323 N 
ATOM     87  H   UNL A   1      34.112  28.193  22.691  1.00  0.00     0.170 HD
BRANCH  86  88
ATOM     88  C   UNL A   1      33.269  28.212  24.470  1.00  0.00     0.078 A 
ATOM     89  C   UNL A   1      33.965  27.703  25.577  1.00  0.00     0.029 A 
ATOM     90  C   UNL A   1      32.371  29.241  24.723  1.00  0.00     0.165 A 
ATOM     91  C   UNL A   1      33.889  28.312  26.835  1.00  0.00     0.004 A 
ATOM     92  C   UNL A   1      32.294  29.870  25.972  1.00  0.00     0.078 A 
ATOM     93  F   UNL A   1      31.495  29.609  23.802  1.00  0.00    -0.203 F 
ATOM     94  C   UNL A   1      33.079  29.425  27.025  1.00  0.00     0.024 A 
ATOM     95  Cl  UNL A   1      31.240  31.215  26.220  1.00  0.00    -0.081 Cl
ENDBRANCH  86  88
ENDBRANCH  78  84
ENDBRANCH  74  77
ENDBRANCH  72  73
ENDBRANCH  71  72
ENDBRANCH  70  71
ENDBRANCH   1  70
TORSDOF 18
ENDMDL
