MODEL 1
REMARK VINA RESULT:     -10.2      0.000      0.000
REMARK SMILES Cc1cccc(C(=O)NCCCCCCNC(=O)c2ccc(-c3c4nc(c(-c5ccc(S(=O)(=O)[O-])cc5)c5ccc([nH]5)c(-c5ccc(S(=O)(=O)[O-])cc5)c5nc(c(-c6ccc(S(=O)(=O)[O-])cc6)c6ccc3[nH]6)C=C5)C=C4)cc2)c1O[C@H](C)[C@H](C)O
REMARK SMILES IDX 12 1 11 2 10 3 9 4 7 5 8 6 6 8 1 9 2 10 3 11 79 12 4 13 5 14
REMARK SMILES IDX 80 15 81 16 82 17 83 18 84 19 85 20 13 22 14 23 15 24 16 25
REMARK SMILES IDX 17 26 18 28 19 29 20 30 78 31 21 32 77 33 22 34 23 35 24 36
REMARK SMILES IDX 71 37 25 38 76 39 70 40 72 41 26 42 75 43 69 44 68 45 27 47
REMARK SMILES IDX 57 48 38 49 56 50 39 51 42 52 55 53 73 54 40 55 41 56 54 58
REMARK SMILES IDX 74 59 43 60 28 61 29 62 37 63 30 64 36 65 31 66 32 67 33 68
REMARK SMILES IDX 34 69 35 70 58 71 59 72 67 73 60 74 66 75 61 76 62 77 63 78
REMARK SMILES IDX 64 79 65 80 44 81 45 82 53 83 46 84 52 85 47 86 48 87 49 88
REMARK SMILES IDX 50 89 51 90
REMARK H PARENT 9 7 85 21 16 27 72 46 42 57
REMARK Flexibility Score: inf
ROOT
ATOM      1  C   UNL A   1      43.421  15.853  38.484  1.00  0.00     0.002 C 
ENDROOT
BRANCH   1   2
ATOM      2  C   UNL A   1      43.190  15.385  39.917  1.00  0.00     0.021 C 
BRANCH   2   3
ATOM      3  C   UNL A   1      41.908  14.558  40.247  1.00  0.00     0.116 C 
BRANCH   3   4
ATOM      4  N   UNL A   1      41.443  14.489  41.703  1.00  0.00    -0.352 N 
ATOM      5  C   UNL A   1      41.561  13.992  43.010  1.00  0.00     0.255 C 
ATOM      6  O   UNL A   1      40.863  14.708  43.759  1.00  0.00    -0.269 OA
ATOM      7  H   UNL A   1      40.673  15.102  41.743  1.00  0.00     0.163 HD
BRANCH   5   8
ATOM      8  C   UNL A   1      42.312  12.851  43.747  1.00  0.00     0.082 A 
ATOM      9  C   UNL A   1      44.561  11.491  46.587  1.00  0.00     0.048 C 
ATOM     10  C   UNL A   1      43.704  11.509  45.335  1.00  0.00    -0.008 A 
ATOM     11  C   UNL A   1      43.324  10.313  44.750  1.00  0.00     0.007 A 
ATOM     12  C   UNL A   1      43.323  12.749  44.736  1.00  0.00     0.135 A 
ATOM     13  C   UNL A   1      42.502  10.355  43.641  1.00  0.00     0.001 A 
ATOM     14  C   UNL A   1      41.980  11.584  43.191  1.00  0.00     0.018 A 
BRANCH  12  15
ATOM     15  O   UNL A   1      44.198  13.676  45.233  1.00  0.00    -0.487 OA
BRANCH  15  16
ATOM     16  C   UNL A   1      44.904  14.486  44.319  1.00  0.00     0.198 C 
ATOM     17  C   UNL A   1      46.269  13.744  44.279  1.00  0.00     0.056 C 
BRANCH  16  18
ATOM     18  C   UNL A   1      44.257  15.922  44.592  1.00  0.00     0.151 C 
ATOM     19  C   UNL A   1      43.985  16.708  43.312  1.00  0.00     0.042 C 
BRANCH  18  20
ATOM     20  O   UNL A   1      44.675  16.860  45.567  1.00  0.00    -0.390 OA
ATOM     21  H   UNL A   1      45.491  17.292  45.272  1.00  0.00     0.211 HD
ENDBRANCH  18  20
ENDBRANCH  16  18
ENDBRANCH  15  16
ENDBRANCH  12  15
ENDBRANCH   5   8
ENDBRANCH   3   4
ENDBRANCH   2   3
ENDBRANCH   1   2
BRANCH   1  22
ATOM     22  C   UNL A   1      44.386  17.020  38.306  1.00  0.00     0.002 C 
BRANCH  22  23
ATOM     23  C   UNL A   1      45.302  17.360  39.487  1.00  0.00     0.021 C 
BRANCH  23  24
ATOM     24  C   UNL A   1      46.446  18.316  39.190  1.00  0.00     0.116 C 
BRANCH  24  25
ATOM     25  N   UNL A   1      46.354  19.515  40.002  1.00  0.00    -0.352 N 
ATOM     26  C   UNL A   1      47.037  20.676  39.701  1.00  0.00     0.251 C 
ATOM     27  H   UNL A   1      45.780  19.499  40.802  1.00  0.00     0.163 HD
ATOM     28  O   UNL A   1      48.117  21.009  40.176  1.00  0.00    -0.269 OA
BRANCH  26  29
ATOM     29  C   UNL A   1      46.479  21.381  38.543  1.00  0.00     0.039 A 
ATOM     30  C   UNL A   1      46.851  21.006  37.248  1.00  0.00     0.014 A 
ATOM     31  C   UNL A   1      45.943  22.633  38.844  1.00  0.00     0.014 A 
ATOM     32  C   UNL A   1      46.841  21.975  36.259  1.00  0.00     0.010 A 
ATOM     33  C   UNL A   1      46.077  23.617  37.912  1.00  0.00     0.010 A 
ATOM     34  C   UNL A   1      46.551  23.282  36.641  1.00  0.00    -0.014 A 
BRANCH  34  35
ATOM     35  C   UNL A   1      46.626  24.420  35.762  1.00  0.00     0.031 A 
ATOM     36  C   UNL A   1      45.396  24.733  35.028  1.00  0.00     0.074 A 
ATOM     37  C   UNL A   1      47.731  25.188  35.836  1.00  0.00     0.049 A 
ATOM     38  N   UNL A   1      45.364  25.382  33.926  1.00  0.00    -0.248 NA
ATOM     39  C   UNL A   1      44.072  24.265  35.454  1.00  0.00     0.031 C 
ATOM     40  C   UNL A   1      47.971  26.528  35.321  1.00  0.00     0.029 A 
ATOM     41  N   UNL A   1      48.986  24.759  36.264  1.00  0.00    -0.354 N 
ATOM     42  C   UNL A   1      44.048  25.736  33.721  1.00  0.00     0.074 A 
ATOM     43  C   UNL A   1      43.271  24.898  34.593  1.00  0.00     0.031 C 
ATOM     44  C   UNL A   1      49.300  26.710  35.202  1.00  0.00     0.029 A 
ATOM     45  C   UNL A   1      49.943  25.433  35.492  1.00  0.00     0.049 A 
ATOM     46  H   UNL A   1      49.168  24.106  36.977  1.00  0.00     0.167 HD
ATOM     47  C   UNL A   1      43.797  26.852  32.989  1.00  0.00     0.031 A 
ATOM     48  C   UNL A   1      50.659  24.705  34.582  1.00  0.00     0.031 A 
ATOM     49  C   UNL A   1      45.055  27.421  32.502  1.00  0.00     0.049 A 
ATOM     50  C   UNL A   1      50.270  25.022  33.144  1.00  0.00     0.074 A 
ATOM     51  C   UNL A   1      45.859  28.456  32.951  1.00  0.00     0.029 A 
ATOM     52  N   UNL A   1      45.857  26.635  31.688  1.00  0.00    -0.354 N 
ATOM     53  N   UNL A   1      49.184  25.652  32.781  1.00  0.00    -0.248 NA
ATOM     54  C   UNL A   1      51.090  24.646  32.001  1.00  0.00     0.031 C 
ATOM     55  C   UNL A   1      47.165  28.263  32.412  1.00  0.00     0.029 A 
ATOM     56  C   UNL A   1      47.147  27.126  31.624  1.00  0.00     0.049 A 
ATOM     57  H   UNL A   1      45.546  25.830  31.215  1.00  0.00     0.167 HD
ATOM     58  C   UNL A   1      49.144  25.793  31.414  1.00  0.00     0.074 A 
ATOM     59  C   UNL A   1      50.357  25.118  30.977  1.00  0.00     0.031 C 
ATOM     60  C   UNL A   1      48.118  26.443  30.771  1.00  0.00     0.031 A 
BRANCH  47  61
ATOM     61  C   UNL A   1      42.477  27.579  32.969  1.00  0.00    -0.014 A 
ATOM     62  C   UNL A   1      41.983  28.098  34.182  1.00  0.00     0.010 A 
ATOM     63  C   UNL A   1      41.674  27.777  31.828  1.00  0.00     0.010 A 
ATOM     64  C   UNL A   1      40.745  28.744  34.268  1.00  0.00     0.020 A 
ATOM     65  C   UNL A   1      40.417  28.405  31.904  1.00  0.00     0.020 A 
ATOM     66  C   UNL A   1      39.963  28.889  33.127  1.00  0.00     0.054 A 
BRANCH  66  67
ATOM     67  S   UNL A   1      38.378  29.751  33.272  1.00  0.00     0.124 S 
ATOM     68  O   UNL A   1      38.442  30.711  32.171  1.00  0.00    -0.237 OA
ATOM     69  O   UNL A   1      37.416  28.667  33.105  1.00  0.00    -0.237 OA
ATOM     70  O   UNL A   1      38.423  30.342  34.608  1.00  0.00    -0.744 OA
ENDBRANCH  66  67
ENDBRANCH  47  61
BRANCH  48  71
ATOM     71  C   UNL A   1      51.059  23.355  35.112  1.00  0.00    -0.014 A 
ATOM     72  C   UNL A   1      50.521  22.210  34.475  1.00  0.00     0.010 A 
ATOM     73  C   UNL A   1      52.215  23.194  35.896  1.00  0.00     0.010 A 
ATOM     74  C   UNL A   1      51.194  20.982  34.500  1.00  0.00     0.020 A 
ATOM     75  C   UNL A   1      52.885  21.959  35.935  1.00  0.00     0.020 A 
ATOM     76  C   UNL A   1      52.396  20.876  35.200  1.00  0.00     0.054 A 
BRANCH  76  77
ATOM     77  S   UNL A   1      53.395  19.376  34.981  1.00  0.00     0.124 S 
ATOM     78  O   UNL A   1      53.119  19.006  33.598  1.00  0.00    -0.237 OA
ATOM     79  O   UNL A   1      54.742  19.880  35.245  1.00  0.00    -0.237 OA
ATOM     80  O   UNL A   1      52.885  18.465  35.999  1.00  0.00    -0.744 OA
ENDBRANCH  76  77
ENDBRANCH  48  71
BRANCH  60  81
ATOM     81  C   UNL A   1      47.867  26.514  29.268  1.00  0.00    -0.014 A 
ATOM     82  C   UNL A   1      47.497  27.662  28.563  1.00  0.00     0.010 A 
ATOM     83  C   UNL A   1      48.004  25.333  28.485  1.00  0.00     0.010 A 
ATOM     84  C   UNL A   1      47.359  27.656  27.166  1.00  0.00     0.020 A 
ATOM     85  C   UNL A   1      47.881  25.310  27.096  1.00  0.00     0.020 A 
ATOM     86  C   UNL A   1      47.567  26.484  26.440  1.00  0.00     0.054 A 
BRANCH  86  87
ATOM     87  S   UNL A   1      47.386  26.513  24.646  1.00  0.00     0.124 S 
ATOM     88  O   UNL A   1      46.745  25.227  24.384  1.00  0.00    -0.237 OA
ATOM     89  O   UNL A   1      46.542  27.689  24.442  1.00  0.00    -0.237 OA
ATOM     90  O   UNL A   1      48.755  26.639  24.154  1.00  0.00    -0.744 OA
ENDBRANCH  86  87
ENDBRANCH  60  81
ENDBRANCH  34  35
ENDBRANCH  26  29
ENDBRANCH  24  25
ENDBRANCH  23  24
ENDBRANCH  22  23
ENDBRANCH   1  22
TORSDOF 20
ENDMDL
MODEL 2
REMARK VINA RESULT:      -9.8      6.478     16.242
REMARK SMILES Cc1cccc(C(=O)NCCCCCCNC(=O)c2ccc(-c3c4nc(c(-c5ccc(S(=O)(=O)[O-])cc5)c5ccc([nH]5)c(-c5ccc(S(=O)(=O)[O-])cc5)c5nc(c(-c6ccc(S(=O)(=O)[O-])cc6)c6ccc3[nH]6)C=C5)C=C4)cc2)c1O[C@H](C)[C@H](C)O
REMARK SMILES IDX 12 1 11 2 10 3 9 4 7 5 8 6 6 8 1 9 2 10 3 11 79 12 4 13 5 14
REMARK SMILES IDX 80 15 81 16 82 17 83 18 84 19 85 20 13 22 14 23 15 24 16 25
REMARK SMILES IDX 17 26 18 28 19 29 20 30 78 31 21 32 77 33 22 34 23 35 24 36
REMARK SMILES IDX 71 37 25 38 76 39 70 40 72 41 26 42 75 43 69 44 68 45 27 47
REMARK SMILES IDX 57 48 38 49 56 50 39 51 42 52 55 53 73 54 40 55 41 56 54 58
REMARK SMILES IDX 74 59 43 60 28 61 29 62 37 63 30 64 36 65 31 66 32 67 33 68
REMARK SMILES IDX 34 69 35 70 58 71 59 72 67 73 60 74 66 75 61 76 62 77 63 78
REMARK SMILES IDX 64 79 65 80 44 81 45 82 53 83 46 84 52 85 47 86 48 87 49 88
REMARK SMILES IDX 50 89 51 90
REMARK H PARENT 9 7 85 21 16 27 72 46 42 57
REMARK Flexibility Score: inf
ROOT
ATOM      1  C   UNL A   1      36.255  29.739  27.482  1.00  0.00     0.002 C 
ENDROOT
BRANCH   1   2
ATOM      2  C   UNL A   1      35.521  31.070  27.612  1.00  0.00     0.021 C 
BRANCH   2   3
ATOM      3  C   UNL A   1      33.999  31.066  27.958  1.00  0.00     0.116 C 
BRANCH   3   4
ATOM      4  N   UNL A   1      33.001  30.751  26.842  1.00  0.00    -0.352 N 
ATOM      5  C   UNL A   1      32.476  29.886  25.869  1.00  0.00     0.255 C 
ATOM      6  O   UNL A   1      31.372  30.344  25.504  1.00  0.00    -0.269 OA
ATOM      7  H   UNL A   1      32.451  31.565  26.769  1.00  0.00     0.163 HD
BRANCH   5   8
ATOM      8  C   UNL A   1      32.872  28.558  25.171  1.00  0.00     0.082 A 
ATOM      9  C   UNL A   1      33.272  26.300  22.054  1.00  0.00     0.048 C 
ATOM     10  C   UNL A   1      33.303  26.741  23.505  1.00  0.00    -0.008 A 
ATOM     11  C   UNL A   1      33.933  25.947  24.447  1.00  0.00     0.007 A 
ATOM     12  C   UNL A   1      32.652  27.948  23.909  1.00  0.00     0.135 A 
ATOM     13  C   UNL A   1      33.992  26.394  25.752  1.00  0.00     0.001 A 
ATOM     14  C   UNL A   1      33.518  27.679  26.084  1.00  0.00     0.018 A 
BRANCH  12  15
ATOM     15  O   UNL A   1      31.768  28.237  22.907  1.00  0.00    -0.487 OA
BRANCH  15  16
ATOM     16  C   UNL A   1      30.403  28.371  23.239  1.00  0.00     0.198 C 
ATOM     17  C   UNL A   1      30.013  26.881  23.445  1.00  0.00     0.056 C 
BRANCH  16  18
ATOM     18  C   UNL A   1      29.996  29.677  22.413  1.00  0.00     0.151 C 
ATOM     19  C   UNL A   1      28.487  29.892  22.339  1.00  0.00     0.042 C 
BRANCH  18  20
ATOM     20  O   UNL A   1      30.528  30.082  21.165  1.00  0.00    -0.390 OA
ATOM     21  H   UNL A   1      29.803  30.306  20.561  1.00  0.00     0.211 HD
ENDBRANCH  18  20
ENDBRANCH  16  18
ENDBRANCH  15  16
ENDBRANCH  12  15
ENDBRANCH   5   8
ENDBRANCH   3   4
ENDBRANCH   2   3
ENDBRANCH   1   2
BRANCH   1  22
ATOM     22  C   UNL A   1      37.713  29.729  27.927  1.00  0.00     0.002 C 
BRANCH  22  23
ATOM     23  C   UNL A   1      38.020  29.148  29.313  1.00  0.00     0.021 C 
BRANCH  23  24
ATOM     24  C   UNL A   1      37.178  29.680  30.460  1.00  0.00     0.116 C 
BRANCH  24  25
ATOM     25  N   UNL A   1      37.219  31.130  30.515  1.00  0.00    -0.352 N 
ATOM     26  C   UNL A   1      37.695  31.824  31.608  1.00  0.00     0.251 C 
ATOM     27  H   UNL A   1      36.892  31.640  29.738  1.00  0.00     0.163 HD
ATOM     28  O   UNL A   1      37.007  32.283  32.514  1.00  0.00    -0.269 OA
BRANCH  26  29
ATOM     29  C   UNL A   1      39.153  31.747  31.740  1.00  0.00     0.039 A 
ATOM     30  C   UNL A   1      39.970  31.971  30.628  1.00  0.00     0.014 A 
ATOM     31  C   UNL A   1      39.585  31.051  32.870  1.00  0.00     0.014 A 
ATOM     32  C   UNL A   1      41.198  31.334  30.581  1.00  0.00     0.010 A 
ATOM     33  C   UNL A   1      40.721  30.308  32.756  1.00  0.00     0.010 A 
ATOM     34  C   UNL A   1      41.499  30.437  31.603  1.00  0.00    -0.014 A 
BRANCH  34  35
ATOM     35  C   UNL A   1      42.671  29.602  31.632  1.00  0.00     0.031 A 
ATOM     36  C   UNL A   1      42.546  28.313  30.943  1.00  0.00     0.074 A 
ATOM     37  C   UNL A   1      43.808  30.145  32.111  1.00  0.00     0.049 A 
ATOM     38  N   UNL A   1      43.262  27.287  31.207  1.00  0.00    -0.248 NA
ATOM     39  C   UNL A   1      41.526  28.051  29.922  1.00  0.00     0.031 C 
ATOM     40  C   UNL A   1      45.183  29.683  31.996  1.00  0.00     0.029 A 
ATOM     41  N   UNL A   1      43.879  31.199  33.021  1.00  0.00    -0.354 N 
ATOM     42  C   UNL A   1      43.070  26.401  30.169  1.00  0.00     0.074 A 
ATOM     43  C   UNL A   1      41.881  26.839  29.489  1.00  0.00     0.031 C 
ATOM     44  C   UNL A   1      45.907  30.241  32.986  1.00  0.00     0.029 A 
ATOM     45  C   UNL A   1      44.978  30.955  33.855  1.00  0.00     0.049 A 
ATOM     46  H   UNL A   1      43.271  31.971  33.069  1.00  0.00     0.167 HD
ATOM     47  C   UNL A   1      44.070  25.526  29.886  1.00  0.00     0.031 A 
ATOM     48  C   UNL A   1      44.732  30.624  35.160  1.00  0.00     0.031 A 
ATOM     49  C   UNL A   1      45.161  25.692  30.847  1.00  0.00     0.049 A 
ATOM     50  C   UNL A   1      45.046  29.165  35.461  1.00  0.00     0.074 A 
ATOM     51  C   UNL A   1      46.367  26.373  30.798  1.00  0.00     0.029 A 
ATOM     52  N   UNL A   1      44.885  25.493  32.192  1.00  0.00    -0.354 N 
ATOM     53  N   UNL A   1      45.218  28.232  34.563  1.00  0.00    -0.248 NA
ATOM     54  C   UNL A   1      45.190  28.650  36.816  1.00  0.00     0.031 C 
ATOM     55  C   UNL A   1      46.797  26.601  32.139  1.00  0.00     0.029 A 
ATOM     56  C   UNL A   1      45.865  26.044  32.996  1.00  0.00     0.049 A 
ATOM     57  H   UNL A   1      44.092  25.019  32.531  1.00  0.00     0.167 HD
ATOM     58  C   UNL A   1      45.505  27.030  35.165  1.00  0.00     0.074 A 
ATOM     59  C   UNL A   1      45.449  27.351  36.585  1.00  0.00     0.031 C 
ATOM     60  C   UNL A   1      45.756  25.887  34.445  1.00  0.00     0.031 A 
BRANCH  47  61
ATOM     61  C   UNL A   1      44.188  24.757  28.596  1.00  0.00    -0.014 A 
ATOM     62  C   UNL A   1      45.102  25.214  27.627  1.00  0.00     0.010 A 
ATOM     63  C   UNL A   1      43.444  23.607  28.264  1.00  0.00     0.010 A 
ATOM     64  C   UNL A   1      45.244  24.592  26.383  1.00  0.00     0.020 A 
ATOM     65  C   UNL A   1      43.560  22.983  27.007  1.00  0.00     0.020 A 
ATOM     66  C   UNL A   1      44.466  23.481  26.075  1.00  0.00     0.054 A 
BRANCH  66  67
ATOM     67  S   UNL A   1      44.694  22.687  24.464  1.00  0.00     0.124 S 
ATOM     68  O   UNL A   1      43.329  22.637  23.944  1.00  0.00    -0.237 OA
ATOM     69  O   UNL A   1      45.592  23.614  23.783  1.00  0.00    -0.237 OA
ATOM     70  O   UNL A   1      45.275  21.388  24.795  1.00  0.00    -0.744 OA
ENDBRANCH  66  67
ENDBRANCH  47  61
BRANCH  48  71
ATOM     71  C   UNL A   1      43.608  31.428  35.755  1.00  0.00    -0.014 A 
ATOM     72  C   UNL A   1      43.630  32.832  35.565  1.00  0.00     0.010 A 
ATOM     73  C   UNL A   1      42.387  30.826  36.103  1.00  0.00     0.010 A 
ATOM     74  C   UNL A   1      42.448  33.583  35.578  1.00  0.00     0.020 A 
ATOM     75  C   UNL A   1      41.200  31.580  36.130  1.00  0.00     0.020 A 
ATOM     76  C   UNL A   1      41.233  32.942  35.823  1.00  0.00     0.054 A 
BRANCH  76  77
ATOM     77  S   UNL A   1      39.696  33.868  35.548  1.00  0.00     0.124 S 
ATOM     78  O   UNL A   1      39.768  34.917  36.559  1.00  0.00    -0.237 OA
ATOM     79  O   UNL A   1      39.864  34.310  34.164  1.00  0.00    -0.237 OA
ATOM     80  O   UNL A   1      38.648  32.871  35.736  1.00  0.00    -0.744 OA
ENDBRANCH  76  77
ENDBRANCH  48  71
BRANCH  60  81
ATOM     81  C   UNL A   1      45.912  24.470  34.986  1.00  0.00    -0.014 A 
ATOM     82  C   UNL A   1      44.913  23.732  35.626  1.00  0.00     0.010 A 
ATOM     83  C   UNL A   1      47.168  23.811  34.853  1.00  0.00     0.010 A 
ATOM     84  C   UNL A   1      45.121  22.402  36.026  1.00  0.00     0.020 A 
ATOM     85  C   UNL A   1      47.390  22.488  35.235  1.00  0.00     0.020 A 
ATOM     86  C   UNL A   1      46.353  21.784  35.814  1.00  0.00     0.054 A 
BRANCH  86  87
ATOM     87  S   UNL A   1      46.583  20.074  36.337  1.00  0.00     0.124 S 
ATOM     88  O   UNL A   1      46.052  19.332  35.196  1.00  0.00    -0.237 OA
ATOM     89  O   UNL A   1      48.032  20.000  36.515  1.00  0.00    -0.237 OA
ATOM     90  O   UNL A   1      45.800  19.971  37.566  1.00  0.00    -0.744 OA
ENDBRANCH  86  87
ENDBRANCH  60  81
ENDBRANCH  34  35
ENDBRANCH  26  29
ENDBRANCH  24  25
ENDBRANCH  23  24
ENDBRANCH  22  23
ENDBRANCH   1  22
TORSDOF 20
ENDMDL
MODEL 3
REMARK VINA RESULT:      -9.8      6.421     12.592
REMARK SMILES Cc1cccc(C(=O)NCCCCCCNC(=O)c2ccc(-c3c4nc(c(-c5ccc(S(=O)(=O)[O-])cc5)c5ccc([nH]5)c(-c5ccc(S(=O)(=O)[O-])cc5)c5nc(c(-c6ccc(S(=O)(=O)[O-])cc6)c6ccc3[nH]6)C=C5)C=C4)cc2)c1O[C@H](C)[C@H](C)O
REMARK SMILES IDX 12 1 11 2 10 3 9 4 7 5 8 6 6 8 1 9 2 10 3 11 79 12 4 13 5 14
REMARK SMILES IDX 80 15 81 16 82 17 83 18 84 19 85 20 13 22 14 23 15 24 16 25
REMARK SMILES IDX 17 26 18 28 19 29 20 30 78 31 21 32 77 33 22 34 23 35 24 36
REMARK SMILES IDX 71 37 25 38 76 39 70 40 72 41 26 42 75 43 69 44 68 45 27 47
REMARK SMILES IDX 57 48 38 49 56 50 39 51 42 52 55 53 73 54 40 55 41 56 54 58
REMARK SMILES IDX 74 59 43 60 28 61 29 62 37 63 30 64 36 65 31 66 32 67 33 68
REMARK SMILES IDX 34 69 35 70 58 71 59 72 67 73 60 74 66 75 61 76 62 77 63 78
REMARK SMILES IDX 64 79 65 80 44 81 45 82 53 83 46 84 52 85 47 86 48 87 49 88
REMARK SMILES IDX 50 89 51 90
REMARK H PARENT 9 7 85 21 16 27 72 46 42 57
REMARK Flexibility Score: inf
ROOT
ATOM      1  C   UNL A   1      43.428  27.409  29.146  1.00  0.00     0.002 C 
ENDROOT
BRANCH   1   2
ATOM      2  C   UNL A   1      41.946  27.385  29.504  1.00  0.00     0.021 C 
BRANCH   2   3
ATOM      3  C   UNL A   1      40.893  27.704  28.396  1.00  0.00     0.116 C 
BRANCH   3   4
ATOM      4  N   UNL A   1      40.942  26.901  27.094  1.00  0.00    -0.352 N 
ATOM      5  C   UNL A   1      41.600  26.036  26.206  1.00  0.00     0.255 C 
ATOM      6  O   UNL A   1      40.758  25.610  25.388  1.00  0.00    -0.269 OA
ATOM      7  H   UNL A   1      40.076  27.084  26.662  1.00  0.00     0.163 HD
BRANCH   5   8
ATOM      8  C   UNL A   1      43.030  25.473  25.991  1.00  0.00     0.082 A 
ATOM      9  C   UNL A   1      45.597  22.582  25.834  1.00  0.00     0.048 C 
ATOM     10  C   UNL A   1      45.035  23.990  25.784  1.00  0.00    -0.008 A 
ATOM     11  C   UNL A   1      45.824  25.024  25.310  1.00  0.00     0.007 A 
ATOM     12  C   UNL A   1      43.714  24.259  26.259  1.00  0.00     0.135 A 
ATOM     13  C   UNL A   1      45.272  26.287  25.226  1.00  0.00     0.001 A 
ATOM     14  C   UNL A   1      43.908  26.486  25.514  1.00  0.00     0.018 A 
BRANCH  12  15
ATOM     15  O   UNL A   1      43.392  23.197  27.058  1.00  0.00    -0.487 OA
BRANCH  15  16
ATOM     16  C   UNL A   1      42.136  23.201  27.701  1.00  0.00     0.198 C 
ATOM     17  C   UNL A   1      42.575  23.409  29.178  1.00  0.00     0.056 C 
BRANCH  16  18
ATOM     18  C   UNL A   1      41.289  22.224  26.763  1.00  0.00     0.151 C 
ATOM     19  C   UNL A   1      42.112  21.060  26.216  1.00  0.00     0.042 C 
BRANCH  18  20
ATOM     20  O   UNL A   1      40.395  22.610  25.737  1.00  0.00    -0.390 OA
ATOM     21  H   UNL A   1      40.797  23.313  25.204  1.00  0.00     0.211 HD
ENDBRANCH  18  20
ENDBRANCH  16  18
ENDBRANCH  15  16
ENDBRANCH  12  15
ENDBRANCH   5   8
ENDBRANCH   3   4
ENDBRANCH   2   3
ENDBRANCH   1   2
BRANCH   1  22
ATOM     22  C   UNL A   1      44.044  28.787  28.929  1.00  0.00     0.002 C 
BRANCH  22  23
ATOM     23  C   UNL A   1      45.230  28.882  27.961  1.00  0.00     0.021 C 
BRANCH  23  24
ATOM     24  C   UNL A   1      46.585  28.492  28.527  1.00  0.00     0.116 C 
BRANCH  24  25
ATOM     25  N   UNL A   1      47.067  27.257  27.935  1.00  0.00    -0.352 N 
ATOM     26  C   UNL A   1      47.940  26.408  28.585  1.00  0.00     0.251 C 
ATOM     27  H   UNL A   1      46.758  27.016  27.032  1.00  0.00     0.163 HD
ATOM     28  O   UNL A   1      49.158  26.396  28.443  1.00  0.00    -0.269 OA
BRANCH  26  29
ATOM     29  C   UNL A   1      47.306  25.671  29.682  1.00  0.00     0.039 A 
ATOM     30  C   UNL A   1      46.028  25.128  29.516  1.00  0.00     0.014 A 
ATOM     31  C   UNL A   1      47.861  25.929  30.935  1.00  0.00     0.014 A 
ATOM     32  C   UNL A   1      45.222  24.998  30.634  1.00  0.00     0.010 A 
ATOM     33  C   UNL A   1      47.021  25.943  32.007  1.00  0.00     0.010 A 
ATOM     34  C   UNL A   1      45.705  25.505  31.838  1.00  0.00    -0.014 A 
BRANCH  34  35
ATOM     35  C   UNL A   1      44.942  25.565  33.057  1.00  0.00     0.031 A 
ATOM     36  C   UNL A   1      44.527  26.907  33.477  1.00  0.00     0.074 A 
ATOM     37  C   UNL A   1      44.527  24.397  33.587  1.00  0.00     0.049 A 
ATOM     38  N   UNL A   1      44.247  27.226  34.684  1.00  0.00    -0.248 NA
ATOM     39  C   UNL A   1      44.461  28.046  32.555  1.00  0.00     0.031 C 
ATOM     40  C   UNL A   1      43.519  24.141  34.605  1.00  0.00     0.029 A 
ATOM     41  N   UNL A   1      45.144  23.160  33.403  1.00  0.00    -0.354 N 
ATOM     42  C   UNL A   1      43.616  28.449  34.626  1.00  0.00     0.074 A 
ATOM     43  C   UNL A   1      43.910  28.987  33.326  1.00  0.00     0.031 C 
ATOM     44  C   UNL A   1      43.759  22.933  35.152  1.00  0.00     0.029 A 
ATOM     45  C   UNL A   1      45.022  22.450  34.604  1.00  0.00     0.049 A 
ATOM     46  H   UNL A   1      45.584  22.845  32.581  1.00  0.00     0.167 HD
ATOM     47  C   UNL A   1      42.739  28.760  35.616  1.00  0.00     0.031 A 
ATOM     48  C   UNL A   1      46.154  22.241  35.344  1.00  0.00     0.031 A 
ATOM     49  C   UNL A   1      42.713  27.687  36.611  1.00  0.00     0.049 A 
ATOM     50  C   UNL A   1      46.176  23.063  36.624  1.00  0.00     0.074 A 
ATOM     51  C   UNL A   1      41.860  26.616  36.822  1.00  0.00     0.029 A 
ATOM     52  N   UNL A   1      43.894  27.374  37.268  1.00  0.00    -0.354 N 
ATOM     53  N   UNL A   1      45.402  24.088  36.873  1.00  0.00    -0.248 NA
ATOM     54  C   UNL A   1      47.083  22.785  37.729  1.00  0.00     0.031 C 
ATOM     55  C   UNL A   1      42.559  25.643  37.596  1.00  0.00     0.029 A 
ATOM     56  C   UNL A   1      43.824  26.131  37.869  1.00  0.00     0.049 A 
ATOM     57  H   UNL A   1      44.682  27.963  37.302  1.00  0.00     0.167 HD
ATOM     58  C   UNL A   1      45.662  24.594  38.124  1.00  0.00     0.074 A 
ATOM     59  C   UNL A   1      46.747  23.749  38.604  1.00  0.00     0.031 C 
ATOM     60  C   UNL A   1      44.970  25.660  38.645  1.00  0.00     0.031 A 
BRANCH  47  61
ATOM     61  C   UNL A   1      41.712  29.859  35.530  1.00  0.00    -0.014 A 
ATOM     62  C   UNL A   1      40.606  29.674  34.677  1.00  0.00     0.010 A 
ATOM     63  C   UNL A   1      41.766  31.081  36.230  1.00  0.00     0.010 A 
ATOM     64  C   UNL A   1      39.629  30.659  34.498  1.00  0.00     0.020 A 
ATOM     65  C   UNL A   1      40.803  32.089  36.042  1.00  0.00     0.020 A 
ATOM     66  C   UNL A   1      39.736  31.867  35.177  1.00  0.00     0.054 A 
BRANCH  66  67
ATOM     67  S   UNL A   1      38.441  33.109  34.938  1.00  0.00     0.124 S 
ATOM     68  O   UNL A   1      37.223  32.349  35.217  1.00  0.00    -0.237 OA
ATOM     69  O   UNL A   1      38.791  34.121  35.929  1.00  0.00    -0.237 OA
ATOM     70  O   UNL A   1      38.605  33.520  33.545  1.00  0.00    -0.744 OA
ENDBRANCH  66  67
ENDBRANCH  47  61
BRANCH  48  71
ATOM     71  C   UNL A   1      47.345  21.905  34.488  1.00  0.00    -0.014 A 
ATOM     72  C   UNL A   1      48.357  22.886  34.353  1.00  0.00     0.010 A 
ATOM     73  C   UNL A   1      47.671  20.572  34.185  1.00  0.00     0.010 A 
ATOM     74  C   UNL A   1      49.681  22.528  34.069  1.00  0.00     0.020 A 
ATOM     75  C   UNL A   1      48.997  20.211  33.885  1.00  0.00     0.020 A 
ATOM     76  C   UNL A   1      49.999  21.184  33.875  1.00  0.00     0.054 A 
BRANCH  76  77
ATOM     77  S   UNL A   1      51.750  20.711  33.801  1.00  0.00     0.124 S 
ATOM     78  O   UNL A   1      52.368  21.619  34.760  1.00  0.00    -0.237 OA
ATOM     79  O   UNL A   1      51.692  19.307  34.204  1.00  0.00    -0.237 OA
ATOM     80  O   UNL A   1      52.109  20.919  32.402  1.00  0.00    -0.744 OA
ENDBRANCH  76  77
ENDBRANCH  48  71
BRANCH  60  81
ATOM     81  C   UNL A   1      45.274  26.421  39.932  1.00  0.00    -0.014 A 
ATOM     82  C   UNL A   1      46.462  27.102  40.209  1.00  0.00     0.010 A 
ATOM     83  C   UNL A   1      44.293  26.459  40.964  1.00  0.00     0.010 A 
ATOM     84  C   UNL A   1      46.630  27.841  41.391  1.00  0.00     0.020 A 
ATOM     85  C   UNL A   1      44.437  27.195  42.139  1.00  0.00     0.020 A 
ATOM     86  C   UNL A   1      45.611  27.895  42.341  1.00  0.00     0.054 A 
BRANCH  86  87
ATOM     87  S   UNL A   1      45.858  28.857  43.845  1.00  0.00     0.124 S 
ATOM     88  O   UNL A   1      45.609  30.220  43.380  1.00  0.00    -0.237 OA
ATOM     89  O   UNL A   1      44.842  28.302  44.736  1.00  0.00    -0.237 OA
ATOM     90  O   UNL A   1      47.239  28.572  44.225  1.00  0.00    -0.744 OA
ENDBRANCH  86  87
ENDBRANCH  60  81
ENDBRANCH  34  35
ENDBRANCH  26  29
ENDBRANCH  24  25
ENDBRANCH  23  24
ENDBRANCH  22  23
ENDBRANCH   1  22
TORSDOF 20
ENDMDL
