MODEL 1
REMARK VINA RESULT:     -13.4      0.000      0.000
REMARK SMILES Cc1ccc(NC(=O)NC2CCCC2)cc1/C=C/C(=O)NCCCCCCNC(=O)c1ccc(-c2c3nc(c(-c4ccc(S(=O)(=O)[O-])cc4)c4ccc([nH]4)c(-c4ccc(S(=O)(=O)[O-])cc4)c4nc(c(-c5ccc(S(=O)(=O)[O-])cc5)c5ccc2[nH]5)C=C4)C=C3)cc1
REMARK SMILES IDX 24 1 23 2 22 3 21 4 19 5 20 6 18 8 17 9 16 10 1 11 2 12 3 13
REMARK SMILES IDX 4 14 15 15 5 16 6 17 7 18 8 20 9 21 10 23 11 24 14 25 12 26
REMARK SMILES IDX 13 27 25 28 26 29 27 30 28 31 29 32 30 34 31 35 32 36 90 37
REMARK SMILES IDX 33 38 89 39 34 40 35 41 36 42 83 43 37 44 88 45 82 46 84 47
REMARK SMILES IDX 38 48 87 49 81 50 80 51 39 53 69 54 50 55 68 56 51 57 54 58
REMARK SMILES IDX 67 59 85 60 52 61 53 62 66 64 86 65 55 66 40 67 41 68 49 69
REMARK SMILES IDX 42 70 48 71 43 72 44 73 45 74 46 75 47 76 70 77 71 78 79 79
REMARK SMILES IDX 72 80 78 81 73 82 74 83 75 84 76 85 77 86 56 87 57 88 65 89
REMARK SMILES IDX 58 90 64 91 59 92 60 93 61 94 62 95 63 96
REMARK H PARENT 21 7 6 19 9 22 28 33 84 52 54 63
REMARK Flexibility Score: inf
ROOT
ATOM      1  C   UNL A   1      33.297  28.857  24.604  1.00  0.00     0.002 C 
ENDROOT
BRANCH   1   2
ATOM      2  C   UNL A   1      32.807  28.969  23.155  1.00  0.00     0.021 C 
BRANCH   2   3
ATOM      3  C   UNL A   1      31.939  27.798  22.697  1.00  0.00     0.116 C 
BRANCH   3   4
ATOM      4  N   UNL A   1      32.492  27.143  21.526  1.00  0.00    -0.353 N 
ATOM      5  C   UNL A   1      32.896  25.854  21.363  1.00  0.00     0.243 C 
ATOM      6  O   UNL A   1      33.184  25.420  20.251  1.00  0.00    -0.270 OA
ATOM      7  H   UNL A   1      32.590  27.716  20.730  1.00  0.00     0.163 HD
BRANCH   5   8
ATOM      8  C   UNL A   1      32.885  24.934  22.519  1.00  0.00     0.072 C 
ATOM      9  C   UNL A   1      31.765  24.533  23.139  1.00  0.00     0.014 C 
BRANCH   9  10
ATOM     10  C   UNL A   1      31.844  23.585  24.256  1.00  0.00    -0.020 A 
ATOM     11  C   UNL A   1      31.867  25.464  25.984  1.00  0.00     0.045 C 
ATOM     12  C   UNL A   1      31.773  24.014  25.596  1.00  0.00    -0.044 A 
ATOM     13  C   UNL A   1      31.683  23.053  26.612  1.00  0.00     0.006 A 
ATOM     14  C   UNL A   1      31.826  21.698  26.318  1.00  0.00     0.026 A 
ATOM     15  C   UNL A   1      32.016  22.219  23.977  1.00  0.00     0.034 A 
ATOM     16  C   UNL A   1      32.132  21.302  25.021  1.00  0.00     0.043 A 
BRANCH  16  17
ATOM     17  N   UNL A   1      32.600  20.018  24.726  1.00  0.00    -0.308 N 
ATOM     18  C   UNL A   1      33.813  19.442  24.898  1.00  0.00     0.319 C 
ATOM     19  H   UNL A   1      31.925  19.427  24.320  1.00  0.00     0.171 HD
ATOM     20  O   UNL A   1      33.892  18.211  24.873  1.00  0.00    -0.248 OA
ATOM     21  N   UNL A   1      34.967  20.143  24.967  1.00  0.00    -0.335 N 
ATOM     22  H   UNL A   1      35.754  19.583  25.161  1.00  0.00     0.165 HD
BRANCH  21  23
ATOM     23  C   UNL A   1      35.287  21.550  24.812  1.00  0.00     0.083 C 
ATOM     24  C   UNL A   1      35.360  22.318  26.132  1.00  0.00     0.025 C 
ATOM     25  C   UNL A   1      36.654  21.863  24.215  1.00  0.00     0.025 C 
ATOM     26  C   UNL A   1      35.952  23.661  25.704  1.00  0.00     0.002 C 
ATOM     27  C   UNL A   1      36.810  23.361  24.472  1.00  0.00     0.002 C 
ENDBRANCH  21  23
ENDBRANCH  16  17
ENDBRANCH   9  10
ENDBRANCH   5   8
ENDBRANCH   3   4
ENDBRANCH   2   3
ENDBRANCH   1   2
BRANCH   1  28
ATOM     28  C   UNL A   1      32.385  29.478  25.679  1.00  0.00     0.002 C 
BRANCH  28  29
ATOM     29  C   UNL A   1      32.889  29.385  27.123  1.00  0.00     0.021 C 
BRANCH  29  30
ATOM     30  C   UNL A   1      34.406  29.291  27.229  1.00  0.00     0.116 C 
BRANCH  30  31
ATOM     31  N   UNL A   1      35.062  30.588  27.276  1.00  0.00    -0.352 N 
ATOM     32  C   UNL A   1      36.203  30.864  28.012  1.00  0.00     0.251 C 
ATOM     33  H   UNL A   1      34.667  31.320  26.749  1.00  0.00     0.163 HD
ATOM     34  O   UNL A   1      36.441  31.944  28.524  1.00  0.00    -0.269 OA
BRANCH  32  35
ATOM     35  C   UNL A   1      37.217  29.788  28.018  1.00  0.00     0.039 A 
ATOM     36  C   UNL A   1      37.360  29.039  29.190  1.00  0.00     0.014 A 
ATOM     37  C   UNL A   1      38.162  29.725  26.996  1.00  0.00     0.014 A 
ATOM     38  C   UNL A   1      38.534  28.320  29.401  1.00  0.00     0.010 A 
ATOM     39  C   UNL A   1      39.357  29.078  27.244  1.00  0.00     0.010 A 
ATOM     40  C   UNL A   1      39.561  28.409  28.461  1.00  0.00    -0.014 A 
BRANCH  40  41
ATOM     41  C   UNL A   1      40.906  27.880  28.679  1.00  0.00     0.031 A 
ATOM     42  C   UNL A   1      41.227  26.487  28.289  1.00  0.00     0.074 A 
ATOM     43  C   UNL A   1      41.884  28.667  29.181  1.00  0.00     0.049 A 
ATOM     44  N   UNL A   1      42.228  25.810  28.748  1.00  0.00    -0.248 NA
ATOM     45  C   UNL A   1      40.392  25.723  27.369  1.00  0.00     0.031 C 
ATOM     46  C   UNL A   1      43.318  28.388  29.181  1.00  0.00     0.029 A 
ATOM     47  N   UNL A   1      41.760  29.780  30.013  1.00  0.00    -0.354 N 
ATOM     48  C   UNL A   1      42.340  24.668  27.990  1.00  0.00     0.074 A 
ATOM     49  C   UNL A   1      41.133  24.626  27.195  1.00  0.00     0.031 C 
ATOM     50  C   UNL A   1      43.885  29.071  30.186  1.00  0.00     0.029 A 
ATOM     51  C   UNL A   1      42.809  29.683  30.946  1.00  0.00     0.049 A 
ATOM     52  H   UNL A   1      41.079  30.489  29.959  1.00  0.00     0.167 HD
ATOM     53  C   UNL A   1      43.492  23.939  28.020  1.00  0.00     0.031 A 
ATOM     54  C   UNL A   1      42.615  29.556  32.293  1.00  0.00     0.031 A 
ATOM     55  C   UNL A   1      44.447  24.442  29.004  1.00  0.00     0.049 A 
ATOM     56  C   UNL A   1      43.240  28.304  32.887  1.00  0.00     0.074 A 
ATOM     57  C   UNL A   1      45.630  25.160  28.940  1.00  0.00     0.029 A 
ATOM     58  N   UNL A   1      44.087  24.423  30.341  1.00  0.00    -0.354 N 
ATOM     59  N   UNL A   1      43.884  27.401  32.201  1.00  0.00    -0.248 NA
ATOM     60  C   UNL A   1      43.090  27.924  34.294  1.00  0.00     0.031 C 
ATOM     61  C   UNL A   1      45.973  25.574  30.260  1.00  0.00     0.029 A 
ATOM     62  C   UNL A   1      45.001  25.102  31.121  1.00  0.00     0.049 A 
ATOM     63  H   UNL A   1      43.279  23.981  30.690  1.00  0.00     0.167 HD
ATOM     64  C   UNL A   1      44.177  26.335  33.009  1.00  0.00     0.074 A 
ATOM     65  C   UNL A   1      43.675  26.713  34.316  1.00  0.00     0.031 C 
ATOM     66  C   UNL A   1      44.760  25.193  32.549  1.00  0.00     0.031 A 
BRANCH  53  67
ATOM     67  C   UNL A   1      43.834  22.893  26.982  1.00  0.00    -0.014 A 
ATOM     68  C   UNL A   1      42.912  21.866  26.693  1.00  0.00     0.010 A 
ATOM     69  C   UNL A   1      45.060  22.836  26.294  1.00  0.00     0.010 A 
ATOM     70  C   UNL A   1      43.238  20.784  25.861  1.00  0.00     0.020 A 
ATOM     71  C   UNL A   1      45.418  21.741  25.494  1.00  0.00     0.020 A 
ATOM     72  C   UNL A   1      44.507  20.709  25.294  1.00  0.00     0.054 A 
BRANCH  72  73
ATOM     73  S   UNL A   1      44.956  19.251  24.319  1.00  0.00     0.124 S 
ATOM     74  O   UNL A   1      46.405  19.188  24.492  1.00  0.00    -0.237 OA
ATOM     75  O   UNL A   1      44.195  18.190  24.972  1.00  0.00    -0.237 OA
ATOM     76  O   UNL A   1      44.515  19.590  22.966  1.00  0.00    -0.744 OA
ENDBRANCH  72  73
ENDBRANCH  53  67
BRANCH  54  77
ATOM     77  C   UNL A   1      41.363  30.199  32.785  1.00  0.00    -0.014 A 
ATOM     78  C   UNL A   1      40.294  29.351  33.152  1.00  0.00     0.010 A 
ATOM     79  C   UNL A   1      41.384  31.516  33.272  1.00  0.00     0.010 A 
ATOM     80  C   UNL A   1      39.376  29.747  34.127  1.00  0.00     0.020 A 
ATOM     81  C   UNL A   1      40.452  31.920  34.239  1.00  0.00     0.020 A 
ATOM     82  C   UNL A   1      39.506  31.006  34.713  1.00  0.00     0.054 A 
BRANCH  82  83
ATOM     83  S   UNL A   1      38.542  31.360  36.215  1.00  0.00     0.124 S 
ATOM     84  O   UNL A   1      38.158  30.026  36.663  1.00  0.00    -0.237 OA
ATOM     85  O   UNL A   1      39.519  32.053  37.057  1.00  0.00    -0.237 OA
ATOM     86  O   UNL A   1      37.453  32.199  35.722  1.00  0.00    -0.744 OA
ENDBRANCH  82  83
ENDBRANCH  54  77
BRANCH  66  87
ATOM     87  C   UNL A   1      45.113  24.032  33.431  1.00  0.00    -0.014 A 
ATOM     88  C   UNL A   1      44.140  23.143  33.916  1.00  0.00     0.010 A 
ATOM     89  C   UNL A   1      46.433  23.881  33.905  1.00  0.00     0.010 A 
ATOM     90  C   UNL A   1      44.484  22.110  34.797  1.00  0.00     0.020 A 
ATOM     91  C   UNL A   1      46.783  22.863  34.797  1.00  0.00     0.020 A 
ATOM     92  C   UNL A   1      45.806  21.970  35.224  1.00  0.00     0.054 A 
BRANCH  92  93
ATOM     93  S   UNL A   1      46.229  20.648  36.388  1.00  0.00     0.124 S 
ATOM     94  O   UNL A   1      45.591  19.476  35.793  1.00  0.00    -0.237 OA
ATOM     95  O   UNL A   1      47.688  20.659  36.339  1.00  0.00    -0.237 OA
ATOM     96  O   UNL A   1      45.641  21.095  37.649  1.00  0.00    -0.744 OA
ENDBRANCH  92  93
ENDBRANCH  66  87
ENDBRANCH  40  41
ENDBRANCH  32  35
ENDBRANCH  30  31
ENDBRANCH  29  30
ENDBRANCH  28  29
ENDBRANCH   1  28
TORSDOF 19
ENDMDL
MODEL 2
REMARK VINA RESULT:     -10.9      5.680     11.592
REMARK SMILES Cc1ccc(NC(=O)NC2CCCC2)cc1/C=C/C(=O)NCCCCCCNC(=O)c1ccc(-c2c3nc(c(-c4ccc(S(=O)(=O)[O-])cc4)c4ccc([nH]4)c(-c4ccc(S(=O)(=O)[O-])cc4)c4nc(c(-c5ccc(S(=O)(=O)[O-])cc5)c5ccc2[nH]5)C=C4)C=C3)cc1
REMARK SMILES IDX 24 1 23 2 22 3 21 4 19 5 20 6 18 8 17 9 16 10 1 11 2 12 3 13
REMARK SMILES IDX 4 14 15 15 5 16 6 17 7 18 8 20 9 21 10 23 11 24 14 25 12 26
REMARK SMILES IDX 13 27 25 28 26 29 27 30 28 31 29 32 30 34 31 35 32 36 90 37
REMARK SMILES IDX 33 38 89 39 34 40 35 41 36 42 83 43 37 44 88 45 82 46 84 47
REMARK SMILES IDX 38 48 87 49 81 50 80 51 39 53 69 54 50 55 68 56 51 57 54 58
REMARK SMILES IDX 67 59 85 60 52 61 53 62 66 64 86 65 55 66 40 67 41 68 49 69
REMARK SMILES IDX 42 70 48 71 43 72 44 73 45 74 46 75 47 76 70 77 71 78 79 79
REMARK SMILES IDX 72 80 78 81 73 82 74 83 75 84 76 85 77 86 56 87 57 88 65 89
REMARK SMILES IDX 58 90 64 91 59 92 60 93 61 94 62 95 63 96
REMARK H PARENT 21 7 6 19 9 22 28 33 84 52 54 63
REMARK Flexibility Score: inf
ROOT
ATOM      1  C   UNL A   1      42.022  27.943  28.042  1.00  0.00     0.002 C 
ENDROOT
BRANCH   1   2
ATOM      2  C   UNL A   1      41.123  26.938  28.773  1.00  0.00     0.021 C 
BRANCH   2   3
ATOM      3  C   UNL A   1      39.747  27.486  29.146  1.00  0.00     0.116 C 
BRANCH   3   4
ATOM      4  N   UNL A   1      39.404  27.187  30.524  1.00  0.00    -0.353 N 
ATOM      5  C   UNL A   1      38.598  27.868  31.384  1.00  0.00     0.243 C 
ATOM      6  O   UNL A   1      38.281  27.384  32.467  1.00  0.00    -0.270 OA
ATOM      7  H   UNL A   1      39.814  26.371  30.892  1.00  0.00     0.163 HD
BRANCH   5   8
ATOM      8  C   UNL A   1      38.011  29.158  30.967  1.00  0.00     0.072 C 
ATOM      9  C   UNL A   1      36.695  29.353  30.790  1.00  0.00     0.014 C 
BRANCH   9  10
ATOM     10  C   UNL A   1      36.194  30.680  30.415  1.00  0.00    -0.020 A 
ATOM     11  C   UNL A   1      36.865  30.355  27.973  1.00  0.00     0.045 C 
ATOM     12  C   UNL A   1      36.164  31.106  29.072  1.00  0.00    -0.044 A 
ATOM     13  C   UNL A   1      35.522  32.310  28.756  1.00  0.00     0.006 A 
ATOM     14  C   UNL A   1      35.062  33.152  29.767  1.00  0.00     0.026 A 
ATOM     15  C   UNL A   1      35.753  31.551  31.424  1.00  0.00     0.034 A 
ATOM     16  C   UNL A   1      35.308  32.831  31.097  1.00  0.00     0.043 A 
BRANCH  16  17
ATOM     17  N   UNL A   1      35.167  33.767  32.126  1.00  0.00    -0.308 N 
ATOM     18  C   UNL A   1      35.945  34.807  32.507  1.00  0.00     0.319 C 
ATOM     19  H   UNL A   1      34.356  33.647  32.672  1.00  0.00     0.171 HD
ATOM     20  O   UNL A   1      35.452  35.684  33.223  1.00  0.00    -0.248 OA
ATOM     21  N   UNL A   1      37.272  34.876  32.258  1.00  0.00    -0.335 N 
ATOM     22  H   UNL A   1      37.679  35.726  32.541  1.00  0.00     0.165 HD
BRANCH  21  23
ATOM     23  C   UNL A   1      38.220  33.954  31.659  1.00  0.00     0.083 C 
ATOM     24  C   UNL A   1      38.510  34.234  30.185  1.00  0.00     0.025 C 
ATOM     25  C   UNL A   1      39.628  33.971  32.243  1.00  0.00     0.025 C 
ATOM     26  C   UNL A   1      39.695  33.312  29.897  1.00  0.00     0.002 C 
ATOM     27  C   UNL A   1      40.433  33.159  31.230  1.00  0.00     0.002 C 
ENDBRANCH  21  23
ENDBRANCH  16  17
ENDBRANCH   9  10
ENDBRANCH   5   8
ENDBRANCH   3   4
ENDBRANCH   2   3
ENDBRANCH   1   2
BRANCH   1  28
ATOM     28  C   UNL A   1      43.460  27.477  27.743  1.00  0.00     0.002 C 
BRANCH  28  29
ATOM     29  C   UNL A   1      44.506  28.584  27.584  1.00  0.00     0.021 C 
BRANCH  29  30
ATOM     30  C   UNL A   1      45.919  28.135  27.938  1.00  0.00     0.116 C 
BRANCH  30  31
ATOM     31  N   UNL A   1      46.398  27.038  27.114  1.00  0.00    -0.352 N 
ATOM     32  C   UNL A   1      47.072  25.927  27.598  1.00  0.00     0.251 C 
ATOM     33  H   UNL A   1      46.232  27.086  26.144  1.00  0.00     0.163 HD
ATOM     34  O   UNL A   1      47.934  25.328  26.980  1.00  0.00    -0.269 OA
BRANCH  32  35
ATOM     35  C   UNL A   1      46.568  25.406  28.887  1.00  0.00     0.039 A 
ATOM     36  C   UNL A   1      45.344  24.731  28.879  1.00  0.00     0.014 A 
ATOM     37  C   UNL A   1      47.161  25.821  30.078  1.00  0.00     0.014 A 
ATOM     38  C   UNL A   1      44.636  24.590  30.070  1.00  0.00     0.010 A 
ATOM     39  C   UNL A   1      46.419  25.751  31.241  1.00  0.00     0.010 A 
ATOM     40  C   UNL A   1      45.141  25.172  31.233  1.00  0.00    -0.014 A 
BRANCH  40  41
ATOM     41  C   UNL A   1      44.386  25.275  32.480  1.00  0.00     0.031 A 
ATOM     42  C   UNL A   1      43.869  26.590  32.927  1.00  0.00     0.074 A 
ATOM     43  C   UNL A   1      44.099  24.172  33.206  1.00  0.00     0.049 A 
ATOM     44  N   UNL A   1      43.523  26.866  34.141  1.00  0.00    -0.248 NA
ATOM     45  C   UNL A   1      43.750  27.729  32.024  1.00  0.00     0.031 C 
ATOM     46  C   UNL A   1      43.125  24.066  34.290  1.00  0.00     0.029 A 
ATOM     47  N   UNL A   1      44.805  22.970  33.273  1.00  0.00    -0.354 N 
ATOM     48  C   UNL A   1      42.879  28.082  34.123  1.00  0.00     0.074 A 
ATOM     49  C   UNL A   1      43.111  28.610  32.798  1.00  0.00     0.031 C 
ATOM     50  C   UNL A   1      43.487  23.053  35.091  1.00  0.00     0.029 A 
ATOM     51  C   UNL A   1      44.780  22.582  34.625  1.00  0.00     0.049 A 
ATOM     52  H   UNL A   1      45.233  22.491  32.527  1.00  0.00     0.167 HD
ATOM     53  C   UNL A   1      42.115  28.465  35.185  1.00  0.00     0.031 A 
ATOM     54  C   UNL A   1      45.901  22.449  35.395  1.00  0.00     0.031 A 
ATOM     55  C   UNL A   1      42.196  27.526  36.302  1.00  0.00     0.049 A 
ATOM     56  C   UNL A   1      45.904  23.332  36.633  1.00  0.00     0.074 A 
ATOM     57  C   UNL A   1      41.354  26.562  36.831  1.00  0.00     0.029 A 
ATOM     58  N   UNL A   1      43.423  27.335  36.913  1.00  0.00    -0.354 N 
ATOM     59  N   UNL A   1      44.955  24.170  36.947  1.00  0.00    -0.248 NA
ATOM     60  C   UNL A   1      47.038  23.411  37.558  1.00  0.00     0.031 C 
ATOM     61  C   UNL A   1      42.096  25.788  37.770  1.00  0.00     0.029 A 
ATOM     62  C   UNL A   1      43.384  26.288  37.811  1.00  0.00     0.049 A 
ATOM     63  H   UNL A   1      44.223  27.879  36.730  1.00  0.00     0.167 HD
ATOM     64  C   UNL A   1      45.342  24.915  38.028  1.00  0.00     0.074 A 
ATOM     65  C   UNL A   1      46.646  24.394  38.389  1.00  0.00     0.031 C 
ATOM     66  C   UNL A   1      44.598  25.943  38.526  1.00  0.00     0.031 A 
BRANCH  53  67
ATOM     67  C   UNL A   1      41.110  29.594  35.115  1.00  0.00    -0.014 A 
ATOM     68  C   UNL A   1      41.179  30.651  36.047  1.00  0.00     0.010 A 
ATOM     69  C   UNL A   1      40.050  29.650  34.192  1.00  0.00     0.010 A 
ATOM     70  C   UNL A   1      40.185  31.637  36.130  1.00  0.00     0.020 A 
ATOM     71  C   UNL A   1      39.024  30.603  34.289  1.00  0.00     0.020 A 
ATOM     72  C   UNL A   1      39.090  31.586  35.271  1.00  0.00     0.054 A 
BRANCH  72  73
ATOM     73  S   UNL A   1      37.755  32.794  35.465  1.00  0.00     0.124 S 
ATOM     74  O   UNL A   1      38.439  34.062  35.225  1.00  0.00    -0.237 OA
ATOM     75  O   UNL A   1      36.807  32.383  34.434  1.00  0.00    -0.237 OA
ATOM     76  O   UNL A   1      37.303  32.592  36.842  1.00  0.00    -0.744 OA
ENDBRANCH  72  73
ENDBRANCH  53  67
BRANCH  54  77
ATOM     77  C   UNL A   1      47.117  22.055  34.628  1.00  0.00    -0.014 A 
ATOM     78  C   UNL A   1      48.218  22.939  34.650  1.00  0.00     0.010 A 
ATOM     79  C   UNL A   1      47.330  20.712  34.272  1.00  0.00     0.010 A 
ATOM     80  C   UNL A   1      49.521  22.455  34.506  1.00  0.00     0.020 A 
ATOM     81  C   UNL A   1      48.636  20.230  34.111  1.00  0.00     0.020 A 
ATOM     82  C   UNL A   1      49.721  21.090  34.306  1.00  0.00     0.054 A 
BRANCH  82  83
ATOM     83  S   UNL A   1      51.409  20.433  34.484  1.00  0.00     0.124 S 
ATOM     84  O   UNL A   1      51.172  19.107  35.046  1.00  0.00    -0.237 OA
ATOM     85  O   UNL A   1      51.899  20.456  33.104  1.00  0.00    -0.237 OA
ATOM     86  O   UNL A   1      52.048  21.393  35.378  1.00  0.00    -0.744 OA
ENDBRANCH  82  83
ENDBRANCH  54  77
BRANCH  66  87
ATOM     87  C   UNL A   1      44.998  26.745  39.729  1.00  0.00    -0.014 A 
ATOM     88  C   UNL A   1      44.453  26.501  41.000  1.00  0.00     0.010 A 
ATOM     89  C   UNL A   1      45.848  27.862  39.582  1.00  0.00     0.010 A 
ATOM     90  C   UNL A   1      44.788  27.310  42.094  1.00  0.00     0.020 A 
ATOM     91  C   UNL A   1      46.174  28.685  40.664  1.00  0.00     0.020 A 
ATOM     92  C   UNL A   1      45.655  28.391  41.920  1.00  0.00     0.054 A 
BRANCH  92  93
ATOM     93  S   UNL A   1      46.053  29.447  43.338  1.00  0.00     0.124 S 
ATOM     94  O   UNL A   1      45.893  28.540  44.473  1.00  0.00    -0.237 OA
ATOM     95  O   UNL A   1      47.427  29.844  43.042  1.00  0.00    -0.237 OA
ATOM     96  O   UNL A   1      45.062  30.518  43.262  1.00  0.00    -0.744 OA
ENDBRANCH  92  93
ENDBRANCH  66  87
ENDBRANCH  40  41
ENDBRANCH  32  35
ENDBRANCH  30  31
ENDBRANCH  29  30
ENDBRANCH  28  29
ENDBRANCH   1  28
TORSDOF 19
ENDMDL
MODEL 3
REMARK VINA RESULT:     -10.8      2.125      4.275
REMARK SMILES Cc1ccc(NC(=O)NC2CCCC2)cc1/C=C/C(=O)NCCCCCCNC(=O)c1ccc(-c2c3nc(c(-c4ccc(S(=O)(=O)[O-])cc4)c4ccc([nH]4)c(-c4ccc(S(=O)(=O)[O-])cc4)c4nc(c(-c5ccc(S(=O)(=O)[O-])cc5)c5ccc2[nH]5)C=C4)C=C3)cc1
REMARK SMILES IDX 24 1 23 2 22 3 21 4 19 5 20 6 18 8 17 9 16 10 1 11 2 12 3 13
REMARK SMILES IDX 4 14 15 15 5 16 6 17 7 18 8 20 9 21 10 23 11 24 14 25 12 26
REMARK SMILES IDX 13 27 25 28 26 29 27 30 28 31 29 32 30 34 31 35 32 36 90 37
REMARK SMILES IDX 33 38 89 39 34 40 35 41 36 42 83 43 37 44 88 45 82 46 84 47
REMARK SMILES IDX 38 48 87 49 81 50 80 51 39 53 69 54 50 55 68 56 51 57 54 58
REMARK SMILES IDX 67 59 85 60 52 61 53 62 66 64 86 65 55 66 40 67 41 68 49 69
REMARK SMILES IDX 42 70 48 71 43 72 44 73 45 74 46 75 47 76 70 77 71 78 79 79
REMARK SMILES IDX 72 80 78 81 73 82 74 83 75 84 76 85 77 86 56 87 57 88 65 89
REMARK SMILES IDX 58 90 64 91 59 92 60 93 61 94 62 95 63 96
REMARK H PARENT 21 7 6 19 9 22 28 33 84 52 54 63
REMARK Flexibility Score: inf
ROOT
ATOM      1  C   UNL A   1      39.005  26.203  28.588  1.00  0.00     0.002 C 
ENDROOT
BRANCH   1   2
ATOM      2  C   UNL A   1      39.523  25.077  27.685  1.00  0.00     0.021 C 
BRANCH   2   3
ATOM      3  C   UNL A   1      38.458  24.467  26.775  1.00  0.00     0.116 C 
BRANCH   3   4
ATOM      4  N   UNL A   1      38.781  23.100  26.410  1.00  0.00    -0.353 N 
ATOM      5  C   UNL A   1      38.027  22.177  25.751  1.00  0.00     0.243 C 
ATOM      6  O   UNL A   1      38.518  21.116  25.374  1.00  0.00    -0.270 OA
ATOM      7  H   UNL A   1      39.678  22.793  26.679  1.00  0.00     0.163 HD
BRANCH   5   8
ATOM      8  C   UNL A   1      36.632  22.499  25.389  1.00  0.00     0.072 C 
ATOM      9  C   UNL A   1      35.918  21.803  24.491  1.00  0.00     0.014 C 
BRANCH   9  10
ATOM     10  C   UNL A   1      34.523  22.167  24.222  1.00  0.00    -0.020 A 
ATOM     11  C   UNL A   1      33.645  20.438  25.881  1.00  0.00     0.045 C 
ATOM     12  C   UNL A   1      33.459  21.610  24.959  1.00  0.00    -0.044 A 
ATOM     13  C   UNL A   1      32.166  22.118  24.774  1.00  0.00     0.006 A 
ATOM     14  C   UNL A   1      31.909  23.044  23.763  1.00  0.00     0.026 A 
ATOM     15  C   UNL A   1      34.244  23.076  23.189  1.00  0.00     0.034 A 
ATOM     16  C   UNL A   1      32.924  23.409  22.888  1.00  0.00     0.043 A 
BRANCH  16  17
ATOM     17  N   UNL A   1      32.665  24.066  21.681  1.00  0.00    -0.308 N 
ATOM     18  C   UNL A   1      32.924  25.330  21.273  1.00  0.00     0.319 C 
ATOM     19  H   UNL A   1      32.212  23.508  21.007  1.00  0.00     0.171 HD
ATOM     20  O   UNL A   1      32.905  25.577  20.063  1.00  0.00    -0.248 OA
ATOM     21  N   UNL A   1      33.073  26.371  22.121  1.00  0.00    -0.335 N 
ATOM     22  H   UNL A   1      33.324  27.210  21.671  1.00  0.00     0.165 HD
BRANCH  21  23
ATOM     23  C   UNL A   1      32.941  26.508  23.561  1.00  0.00     0.083 C 
ATOM     24  C   UNL A   1      33.656  27.730  24.136  1.00  0.00     0.025 C 
ATOM     25  C   UNL A   1      31.525  26.724  24.084  1.00  0.00     0.025 C 
ATOM     26  C   UNL A   1      33.145  27.767  25.576  1.00  0.00     0.002 C 
ATOM     27  C   UNL A   1      31.751  27.133  25.538  1.00  0.00     0.002 C 
ENDBRANCH  21  23
ENDBRANCH  16  17
ENDBRANCH   9  10
ENDBRANCH   5   8
ENDBRANCH   3   4
ENDBRANCH   2   3
ENDBRANCH   1   2
BRANCH   1  28
ATOM     28  C   UNL A   1      38.974  27.612  27.967  1.00  0.00     0.002 C 
BRANCH  28  29
ATOM     29  C   UNL A   1      37.952  28.587  28.561  1.00  0.00     0.021 C 
BRANCH  29  30
ATOM     30  C   UNL A   1      38.149  30.025  28.098  1.00  0.00     0.116 C 
BRANCH  30  31
ATOM     31  N   UNL A   1      37.397  30.991  28.882  1.00  0.00    -0.352 N 
ATOM     32  C   UNL A   1      37.437  31.082  30.265  1.00  0.00     0.251 C 
ATOM     33  H   UNL A   1      36.820  31.625  28.398  1.00  0.00     0.163 HD
ATOM     34  O   UNL A   1      36.492  31.423  30.954  1.00  0.00    -0.269 OA
BRANCH  32  35
ATOM     35  C   UNL A   1      38.772  30.878  30.865  1.00  0.00     0.039 A 
ATOM     36  C   UNL A   1      39.862  31.502  30.249  1.00  0.00     0.014 A 
ATOM     37  C   UNL A   1      38.953  29.886  31.826  1.00  0.00     0.014 A 
ATOM     38  C   UNL A   1      41.148  31.032  30.499  1.00  0.00     0.010 A 
ATOM     39  C   UNL A   1      40.221  29.369  32.009  1.00  0.00     0.010 A 
ATOM     40  C   UNL A   1      41.314  29.914  31.318  1.00  0.00    -0.014 A 
BRANCH  40  41
ATOM     41  C   UNL A   1      42.584  29.206  31.474  1.00  0.00     0.031 A 
ATOM     42  C   UNL A   1      42.817  27.935  30.750  1.00  0.00     0.074 A 
ATOM     43  C   UNL A   1      43.577  29.729  32.227  1.00  0.00     0.049 A 
ATOM     44  N   UNL A   1      43.711  27.060  31.076  1.00  0.00    -0.248 NA
ATOM     45  C   UNL A   1      42.006  27.527  29.609  1.00  0.00     0.031 C 
ATOM     46  C   UNL A   1      44.976  29.309  32.245  1.00  0.00     0.029 A 
ATOM     47  N   UNL A   1      43.475  30.597  33.315  1.00  0.00    -0.354 N 
ATOM     48  C   UNL A   1      43.792  26.146  30.052  1.00  0.00     0.074 A 
ATOM     49  C   UNL A   1      42.662  26.439  29.198  1.00  0.00     0.031 C 
ATOM     50  C   UNL A   1      45.507  29.645  33.429  1.00  0.00     0.029 A 
ATOM     51  C   UNL A   1      44.424  30.152  34.254  1.00  0.00     0.049 A 
ATOM     52  H   UNL A   1      42.865  31.364  33.407  1.00  0.00     0.167 HD
ATOM     53  C   UNL A   1      44.869  25.315  29.961  1.00  0.00     0.031 A 
ATOM     54  C   UNL A   1      44.100  29.705  35.504  1.00  0.00     0.031 A 
ATOM     55  C   UNL A   1      45.773  25.443  31.102  1.00  0.00     0.049 A 
ATOM     56  C   UNL A   1      44.559  28.283  35.784  1.00  0.00     0.074 A 
ATOM     57  C   UNL A   1      47.014  26.024  31.306  1.00  0.00     0.029 A 
ATOM     58  N   UNL A   1      45.294  25.120  32.360  1.00  0.00    -0.354 N 
ATOM     59  N   UNL A   1      45.182  27.523  34.926  1.00  0.00    -0.248 NA
ATOM     60  C   UNL A   1      44.251  27.571  37.027  1.00  0.00     0.031 C 
ATOM     61  C   UNL A   1      47.271  26.045  32.707  1.00  0.00     0.029 A 
ATOM     62  C   UNL A   1      46.189  25.474  33.349  1.00  0.00     0.049 A 
ATOM     63  H   UNL A   1      44.423  24.692  32.528  1.00  0.00     0.167 HD
ATOM     64  C   UNL A   1      45.308  26.260  35.439  1.00  0.00     0.074 A 
ATOM     65  C   UNL A   1      44.726  26.341  36.765  1.00  0.00     0.031 C 
ATOM     66  C   UNL A   1      45.830  25.220  34.731  1.00  0.00     0.031 A 
BRANCH  53  67
ATOM     67  C   UNL A   1      45.212  24.541  28.707  1.00  0.00    -0.014 A 
ATOM     68  C   UNL A   1      46.285  24.964  27.896  1.00  0.00     0.010 A 
ATOM     69  C   UNL A   1      44.492  23.422  28.249  1.00  0.00     0.010 A 
ATOM     70  C   UNL A   1      46.548  24.383  26.646  1.00  0.00     0.020 A 
ATOM     71  C   UNL A   1      44.714  22.858  26.984  1.00  0.00     0.020 A 
ATOM     72  C   UNL A   1      45.734  23.354  26.180  1.00  0.00     0.054 A 
BRANCH  72  73
ATOM     73  S   UNL A   1      46.009  22.692  24.516  1.00  0.00     0.124 S 
ATOM     74  O   UNL A   1      46.779  23.756  23.876  1.00  0.00    -0.237 OA
ATOM     75  O   UNL A   1      46.741  21.458  24.787  1.00  0.00    -0.237 OA
ATOM     76  O   UNL A   1      44.658  22.511  23.988  1.00  0.00    -0.744 OA
ENDBRANCH  72  73
ENDBRANCH  53  67
BRANCH  54  77
ATOM     77  C   UNL A   1      42.869  30.329  36.068  1.00  0.00    -0.014 A 
ATOM     78  C   UNL A   1      42.943  31.685  36.453  1.00  0.00     0.010 A 
ATOM     79  C   UNL A   1      41.608  29.757  35.829  1.00  0.00     0.010 A 
ATOM     80  C   UNL A   1      41.806  32.497  36.416  1.00  0.00     0.020 A 
ATOM     81  C   UNL A   1      40.465  30.567  35.809  1.00  0.00     0.020 A 
ATOM     82  C   UNL A   1      40.587  31.943  36.026  1.00  0.00     0.054 A 
BRANCH  82  83
ATOM     83  S   UNL A   1      39.214  33.073  35.637  1.00  0.00     0.124 S 
ATOM     84  O   UNL A   1      38.175  32.634  36.561  1.00  0.00    -0.237 OA
ATOM     85  O   UNL A   1      39.800  34.385  35.921  1.00  0.00    -0.237 OA
ATOM     86  O   UNL A   1      38.956  32.809  34.225  1.00  0.00    -0.744 OA
ENDBRANCH  82  83
ENDBRANCH  54  77
BRANCH  66  87
ATOM     87  C   UNL A   1      46.001  23.840  35.296  1.00  0.00    -0.014 A 
ATOM     88  C   UNL A   1      45.125  22.791  34.974  1.00  0.00     0.010 A 
ATOM     89  C   UNL A   1      46.985  23.596  36.277  1.00  0.00     0.010 A 
ATOM     90  C   UNL A   1      45.263  21.530  35.569  1.00  0.00     0.020 A 
ATOM     91  C   UNL A   1      47.119  22.346  36.889  1.00  0.00     0.020 A 
ATOM     92  C   UNL A   1      46.266  21.313  36.516  1.00  0.00     0.054 A 
BRANCH  92  93
ATOM     93  S   UNL A   1      46.410  19.686  37.301  1.00  0.00     0.124 S 
ATOM     94  O   UNL A   1      45.699  18.813  36.370  1.00  0.00    -0.237 OA
ATOM     95  O   UNL A   1      47.859  19.503  37.349  1.00  0.00    -0.237 OA
ATOM     96  O   UNL A   1      45.758  19.866  38.596  1.00  0.00    -0.744 OA
ENDBRANCH  92  93
ENDBRANCH  66  87
ENDBRANCH  40  41
ENDBRANCH  32  35
ENDBRANCH  30  31
ENDBRANCH  29  30
ENDBRANCH  28  29
ENDBRANCH   1  28
TORSDOF 19
ENDMDL
