MODEL 1
REMARK VINA RESULT:     -10.5      0.000      0.000
REMARK SMILES C[C@@H](c1ccccc1)[C@@H]1[NH2+][C@@H](C(=O)NCCCCCCNC(=O)c2ccc(-c3c4nc(c(-c5ccc(S(=O)(=O)[O-])cc5)c5ccc([nH]5)c(-c5ccc(S(=O)(=O)[O-])cc5)c5nc(c(-c6ccc(S(=O)(=O)[O-])cc6)c6ccc3[nH]6)C=C5)C=C4)cc2)CS1
REMARK SMILES IDX 18 1 17 2 16 3 15 4 14 5 12 6 13 7 11 9 9 10 10 11 85 12
REMARK SMILES IDX 84 15 2 16 1 17 3 18 4 19 8 20 5 21 7 22 6 23 19 24 20 25
REMARK SMILES IDX 21 26 22 27 23 29 24 30 25 31 83 32 26 33 82 34 27 35 28 36
REMARK SMILES IDX 29 37 76 38 30 39 81 40 75 41 77 42 31 43 80 44 74 45 73 46
REMARK SMILES IDX 32 48 62 49 43 50 61 51 44 52 47 53 60 54 78 55 45 56 46 57
REMARK SMILES IDX 59 59 79 60 48 61 33 62 34 63 42 64 35 65 41 66 36 67 37 68
REMARK SMILES IDX 38 69 39 70 40 71 63 72 64 73 72 74 65 75 71 76 66 77 67 78
REMARK SMILES IDX 68 79 69 80 70 81 49 82 50 83 58 84 51 85 57 86 52 87 53 88
REMARK SMILES IDX 54 89 55 90 56 91
REMARK H PARENT 14 8 10 13 10 14 21 28 77 47 47 58
REMARK Flexibility Score: inf
ROOT
ATOM      1  C   UNL A   1      34.645  23.215  25.101  1.00  0.00     0.002 C 
ENDROOT
BRANCH   1   2
ATOM      2  C   UNL A   1      34.389  21.754  25.481  1.00  0.00     0.002 C 
BRANCH   2   3
ATOM      3  C   UNL A   1      34.174  21.508  26.978  1.00  0.00     0.021 C 
BRANCH   3   4
ATOM      4  C   UNL A   1      33.311  22.562  27.664  1.00  0.00     0.116 C 
BRANCH   4   5
ATOM      5  N   UNL A   1      31.893  22.296  27.479  1.00  0.00    -0.351 N 
ATOM      6  C   UNL A   1      30.975  23.006  26.755  1.00  0.00     0.279 C 
ATOM      7  O   UNL A   1      29.812  22.605  26.702  1.00  0.00    -0.268 OA
ATOM      8  H   UNL A   1      31.546  21.496  27.938  1.00  0.00     0.163 HD
BRANCH   6   9
ATOM      9  C   UNL A   1      31.458  24.245  25.995  1.00  0.00     0.283 C 
ATOM     10  C   UNL A   1      31.152  26.584  25.754  1.00  0.00     0.249 C 
ATOM     11  N   UNL A   1      31.128  25.488  26.732  1.00  0.00    -0.324 N 
ATOM     12  S   UNL A   1      30.252  25.935  24.318  1.00  0.00    -0.092 SA
ATOM     13  H   UNL A   1      30.201  25.412  27.151  1.00  0.00     0.347 HD
ATOM     14  H   UNL A   1      31.797  25.655  27.484  1.00  0.00     0.347 HD
ATOM     15  C   UNL A   1      30.829  24.242  24.601  1.00  0.00     0.151 C 
BRANCH  10  16
ATOM     16  C   UNL A   1      32.563  27.221  25.439  1.00  0.00     0.085 C 
ATOM     17  C   UNL A   1      32.776  27.401  23.927  1.00  0.00     0.020 C 
BRANCH  16  18
ATOM     18  C   UNL A   1      32.982  28.459  26.234  1.00  0.00    -0.038 A 
ATOM     19  C   UNL A   1      34.241  28.599  26.836  1.00  0.00     0.004 A 
ATOM     20  C   UNL A   1      32.081  29.534  26.343  1.00  0.00     0.004 A 
ATOM     21  C   UNL A   1      34.624  29.805  27.430  1.00  0.00     0.000 A 
ATOM     22  C   UNL A   1      32.450  30.725  26.970  1.00  0.00     0.000 A 
ATOM     23  C   UNL A   1      33.732  30.870  27.490  1.00  0.00     0.000 A 
ENDBRANCH  16  18
ENDBRANCH  10  16
ENDBRANCH   6   9
ENDBRANCH   4   5
ENDBRANCH   3   4
ENDBRANCH   2   3
ENDBRANCH   1   2
BRANCH   1  24
ATOM     24  C   UNL A   1      35.898  23.832  25.725  1.00  0.00     0.021 C 
BRANCH  24  25
ATOM     25  C   UNL A   1      37.157  23.709  24.872  1.00  0.00     0.116 C 
BRANCH  25  26
ATOM     26  N   UNL A   1      38.055  22.679  25.367  1.00  0.00    -0.352 N 
ATOM     27  C   UNL A   1      39.175  22.802  26.153  1.00  0.00     0.251 C 
ATOM     28  H   UNL A   1      37.828  21.758  25.100  1.00  0.00     0.163 HD
ATOM     29  O   UNL A   1      39.924  21.846  26.310  1.00  0.00    -0.269 OA
BRANCH  27  30
ATOM     30  C   UNL A   1      39.482  24.102  26.788  1.00  0.00     0.039 A 
ATOM     31  C   UNL A   1      38.982  24.364  28.066  1.00  0.00     0.014 A 
ATOM     32  C   UNL A   1      40.261  25.056  26.128  1.00  0.00     0.014 A 
ATOM     33  C   UNL A   1      39.316  25.559  28.706  1.00  0.00     0.010 A 
ATOM     34  C   UNL A   1      40.656  26.210  26.796  1.00  0.00     0.010 A 
ATOM     35  C   UNL A   1      40.185  26.475  28.091  1.00  0.00    -0.014 A 
BRANCH  35  36
ATOM     36  C   UNL A   1      40.623  27.709  28.792  1.00  0.00     0.031 A 
ATOM     37  C   UNL A   1      41.970  27.769  29.457  1.00  0.00     0.074 A 
ATOM     38  C   UNL A   1      39.777  28.752  28.891  1.00  0.00     0.049 A 
ATOM     39  N   UNL A   1      42.502  28.737  30.159  1.00  0.00    -0.248 NA
ATOM     40  C   UNL A   1      42.821  26.574  29.340  1.00  0.00     0.031 C 
ATOM     41  C   UNL A   1      38.423  28.800  28.332  1.00  0.00     0.029 A 
ATOM     42  N   UNL A   1      39.924  29.970  29.506  1.00  0.00    -0.354 N 
ATOM     43  C   UNL A   1      43.740  28.267  30.577  1.00  0.00     0.074 A 
ATOM     44  C   UNL A   1      43.854  26.904  30.101  1.00  0.00     0.031 C 
ATOM     45  C   UNL A   1      37.874  29.991  28.613  1.00  0.00     0.029 A 
ATOM     46  C   UNL A   1      38.814  30.774  29.410  1.00  0.00     0.049 A 
ATOM     47  H   UNL A   1      40.746  30.242  29.973  1.00  0.00     0.167 HD
ATOM     48  C   UNL A   1      44.705  28.913  31.275  1.00  0.00     0.031 A 
ATOM     49  C   UNL A   1      38.567  31.998  29.915  1.00  0.00     0.031 A 
ATOM     50  C   UNL A   1      44.580  30.263  31.759  1.00  0.00     0.049 A 
ATOM     51  C   UNL A   1      39.639  32.693  30.708  1.00  0.00     0.074 A 
ATOM     52  C   UNL A   1      45.515  31.027  32.433  1.00  0.00     0.029 A 
ATOM     53  N   UNL A   1      43.441  31.048  31.634  1.00  0.00    -0.354 N 
ATOM     54  N   UNL A   1      40.836  32.261  31.027  1.00  0.00    -0.248 NA
ATOM     55  C   UNL A   1      39.332  34.043  31.196  1.00  0.00     0.031 C 
ATOM     56  C   UNL A   1      44.921  32.248  32.773  1.00  0.00     0.029 A 
ATOM     57  C   UNL A   1      43.639  32.273  32.248  1.00  0.00     0.049 A 
ATOM     58  H   UNL A   1      42.615  30.773  31.174  1.00  0.00     0.167 HD
ATOM     59  C   UNL A   1      41.433  33.293  31.742  1.00  0.00     0.074 A 
ATOM     60  C   UNL A   1      40.472  34.377  31.788  1.00  0.00     0.031 C 
ATOM     61  C   UNL A   1      42.666  33.338  32.307  1.00  0.00     0.031 A 
BRANCH  48  62
ATOM     62  C   UNL A   1      45.969  28.146  31.574  1.00  0.00    -0.014 A 
ATOM     63  C   UNL A   1      47.081  28.203  30.712  1.00  0.00     0.010 A 
ATOM     64  C   UNL A   1      46.047  27.348  32.730  1.00  0.00     0.010 A 
ATOM     65  C   UNL A   1      48.214  27.425  30.960  1.00  0.00     0.020 A 
ATOM     66  C   UNL A   1      47.194  26.595  33.003  1.00  0.00     0.020 A 
ATOM     67  C   UNL A   1      48.258  26.617  32.099  1.00  0.00     0.054 A 
BRANCH  67  68
ATOM     68  S   UNL A   1      49.731  25.596  32.383  1.00  0.00     0.124 S 
ATOM     69  O   UNL A   1      50.700  26.589  32.838  1.00  0.00    -0.237 OA
ATOM     70  O   UNL A   1      49.275  24.650  33.399  1.00  0.00    -0.237 OA
ATOM     71  O   UNL A   1      50.006  25.014  31.072  1.00  0.00    -0.744 OA
ENDBRANCH  67  68
ENDBRANCH  48  62
BRANCH  49  72
ATOM     72  C   UNL A   1      37.241  32.632  29.677  1.00  0.00    -0.014 A 
ATOM     73  C   UNL A   1      36.200  32.493  30.609  1.00  0.00     0.010 A 
ATOM     74  C   UNL A   1      37.039  33.435  28.539  1.00  0.00     0.010 A 
ATOM     75  C   UNL A   1      34.982  33.151  30.411  1.00  0.00     0.020 A 
ATOM     76  C   UNL A   1      35.834  34.117  28.353  1.00  0.00     0.020 A 
ATOM     77  C   UNL A   1      34.811  33.968  29.290  1.00  0.00     0.054 A 
BRANCH  77  78
ATOM     78  S   UNL A   1      33.258  34.888  29.107  1.00  0.00     0.124 S 
ATOM     79  O   UNL A   1      32.526  34.064  28.152  1.00  0.00    -0.237 OA
ATOM     80  O   UNL A   1      32.735  34.895  30.471  1.00  0.00    -0.237 OA
ATOM     81  O   UNL A   1      33.691  36.193  28.608  1.00  0.00    -0.744 OA
ENDBRANCH  77  78
ENDBRANCH  49  72
BRANCH  61  82
ATOM     82  C   UNL A   1      43.056  34.608  33.018  1.00  0.00    -0.014 A 
ATOM     83  C   UNL A   1      42.836  34.769  34.398  1.00  0.00     0.010 A 
ATOM     84  C   UNL A   1      43.702  35.635  32.304  1.00  0.00     0.010 A 
ATOM     85  C   UNL A   1      43.227  35.946  35.044  1.00  0.00     0.020 A 
ATOM     86  C   UNL A   1      44.123  36.799  32.953  1.00  0.00     0.020 A 
ATOM     87  C   UNL A   1      43.870  36.953  34.317  1.00  0.00     0.054 A 
BRANCH  87  88
ATOM     88  S   UNL A   1      44.407  38.449  35.190  1.00  0.00     0.124 S 
ATOM     89  O   UNL A   1      43.658  39.492  34.493  1.00  0.00    -0.237 OA
ATOM     90  O   UNL A   1      43.990  38.186  36.564  1.00  0.00    -0.237 OA
ATOM     91  O   UNL A   1      45.853  38.474  34.977  1.00  0.00    -0.744 OA
ENDBRANCH  87  88
ENDBRANCH  61  82
ENDBRANCH  35  36
ENDBRANCH  27  30
ENDBRANCH  25  26
ENDBRANCH  24  25
ENDBRANCH   1  24
TORSDOF 18
ENDMDL
MODEL 2
REMARK VINA RESULT:     -10.5      2.477      9.232
REMARK SMILES C[C@@H](c1ccccc1)[C@@H]1[NH2+][C@@H](C(=O)NCCCCCCNC(=O)c2ccc(-c3c4nc(c(-c5ccc(S(=O)(=O)[O-])cc5)c5ccc([nH]5)c(-c5ccc(S(=O)(=O)[O-])cc5)c5nc(c(-c6ccc(S(=O)(=O)[O-])cc6)c6ccc3[nH]6)C=C5)C=C4)cc2)CS1
REMARK SMILES IDX 18 1 17 2 16 3 15 4 14 5 12 6 13 7 11 9 9 10 10 11 85 12
REMARK SMILES IDX 84 15 2 16 1 17 3 18 4 19 8 20 5 21 7 22 6 23 19 24 20 25
REMARK SMILES IDX 21 26 22 27 23 29 24 30 25 31 83 32 26 33 82 34 27 35 28 36
REMARK SMILES IDX 29 37 76 38 30 39 81 40 75 41 77 42 31 43 80 44 74 45 73 46
REMARK SMILES IDX 32 48 62 49 43 50 61 51 44 52 47 53 60 54 78 55 45 56 46 57
REMARK SMILES IDX 59 59 79 60 48 61 33 62 34 63 42 64 35 65 41 66 36 67 37 68
REMARK SMILES IDX 38 69 39 70 40 71 63 72 64 73 72 74 65 75 71 76 66 77 67 78
REMARK SMILES IDX 68 79 69 80 70 81 49 82 50 83 58 84 51 85 57 86 52 87 53 88
REMARK SMILES IDX 54 89 55 90 56 91
REMARK H PARENT 14 8 10 13 10 14 21 28 77 47 47 58
REMARK Flexibility Score: inf
ROOT
ATOM      1  C   UNL A   1      31.398  28.516  25.605  1.00  0.00     0.002 C 
ENDROOT
BRANCH   1   2
ATOM      2  C   UNL A   1      30.862  27.587  24.512  1.00  0.00     0.002 C 
BRANCH   2   3
ATOM      3  C   UNL A   1      31.589  26.244  24.398  1.00  0.00     0.021 C 
BRANCH   3   4
ATOM      4  C   UNL A   1      30.663  25.051  24.183  1.00  0.00     0.116 C 
BRANCH   4   5
ATOM      5  N   UNL A   1      30.162  24.527  25.444  1.00  0.00    -0.351 N 
ATOM      6  C   UNL A   1      30.779  23.681  26.325  1.00  0.00     0.279 C 
ATOM      7  O   UNL A   1      30.194  23.365  27.362  1.00  0.00    -0.268 OA
ATOM      8  H   UNL A   1      29.257  24.820  25.698  1.00  0.00     0.163 HD
BRANCH   6   9
ATOM      9  C   UNL A   1      32.200  23.213  26.001  1.00  0.00     0.283 C 
ATOM     10  C   UNL A   1      33.498  21.334  25.358  1.00  0.00     0.249 C 
ATOM     11  N   UNL A   1      32.183  21.969  25.194  1.00  0.00    -0.324 N 
ATOM     12  S   UNL A   1      33.833  21.434  27.140  1.00  0.00    -0.092 SA
ATOM     13  H   UNL A   1      31.448  21.345  25.526  1.00  0.00     0.347 HD
ATOM     14  H   UNL A   1      31.998  22.175  24.212  1.00  0.00     0.347 HD
ATOM     15  C   UNL A   1      32.963  23.014  27.312  1.00  0.00     0.151 C 
BRANCH  10  16
ATOM     16  C   UNL A   1      34.657  21.853  24.420  1.00  0.00     0.085 C 
ATOM     17  C   UNL A   1      34.160  22.941  23.456  1.00  0.00     0.020 C 
BRANCH  16  18
ATOM     18  C   UNL A   1      35.991  22.222  25.072  1.00  0.00    -0.038 A 
ATOM     19  C   UNL A   1      37.048  21.314  25.235  1.00  0.00     0.004 A 
ATOM     20  C   UNL A   1      36.195  23.547  25.499  1.00  0.00     0.004 A 
ATOM     21  C   UNL A   1      38.294  21.737  25.708  1.00  0.00     0.000 A 
ATOM     22  C   UNL A   1      37.428  23.961  26.007  1.00  0.00     0.000 A 
ATOM     23  C   UNL A   1      38.486  23.062  26.086  1.00  0.00     0.000 A 
ENDBRANCH  16  18
ENDBRANCH  10  16
ENDBRANCH   6   9
ENDBRANCH   4   5
ENDBRANCH   3   4
ENDBRANCH   2   3
ENDBRANCH   1   2
BRANCH   1  24
ATOM     24  C   UNL A   1      32.004  27.803  26.816  1.00  0.00     0.021 C 
BRANCH  24  25
ATOM     25  C   UNL A   1      33.348  28.361  27.273  1.00  0.00     0.116 C 
BRANCH  25  26
ATOM     26  N   UNL A   1      33.316  29.807  27.429  1.00  0.00    -0.352 N 
ATOM     27  C   UNL A   1      34.266  30.648  27.955  1.00  0.00     0.251 C 
ATOM     28  H   UNL A   1      32.494  30.247  27.111  1.00  0.00     0.163 HD
ATOM     29  O   UNL A   1      33.989  31.818  28.188  1.00  0.00    -0.269 OA
BRANCH  27  30
ATOM     30  C   UNL A   1      35.616  30.126  28.258  1.00  0.00     0.039 A 
ATOM     31  C   UNL A   1      36.591  30.150  27.258  1.00  0.00     0.014 A 
ATOM     32  C   UNL A   1      35.919  29.618  29.524  1.00  0.00     0.014 A 
ATOM     33  C   UNL A   1      37.888  29.723  27.548  1.00  0.00     0.010 A 
ATOM     34  C   UNL A   1      37.229  29.265  29.833  1.00  0.00     0.010 A 
ATOM     35  C   UNL A   1      38.226  29.311  28.847  1.00  0.00    -0.014 A 
BRANCH  35  36
ATOM     36  C   UNL A   1      39.620  28.936  29.195  1.00  0.00     0.031 A 
ATOM     37  C   UNL A   1      40.539  29.939  29.840  1.00  0.00     0.074 A 
ATOM     38  C   UNL A   1      40.082  27.715  28.867  1.00  0.00     0.049 A 
ATOM     39  N   UNL A   1      41.800  29.812  30.166  1.00  0.00    -0.248 NA
ATOM     40  C   UNL A   1      39.972  31.265  30.130  1.00  0.00     0.031 C 
ATOM     41  C   UNL A   1      39.307  26.669  28.195  1.00  0.00     0.029 A 
ATOM     42  N   UNL A   1      41.319  27.147  29.043  1.00  0.00    -0.354 N 
ATOM     43  C   UNL A   1      42.181  31.041  30.689  1.00  0.00     0.074 A 
ATOM     44  C   UNL A   1      41.035  31.919  30.577  1.00  0.00     0.031 C 
ATOM     45  C   UNL A   1      40.079  25.585  28.034  1.00  0.00     0.029 A 
ATOM     46  C   UNL A   1      41.415  25.870  28.547  1.00  0.00     0.049 A 
ATOM     47  H   UNL A   1      42.068  27.612  29.482  1.00  0.00     0.167 HD
ATOM     48  C   UNL A   1      43.369  31.404  31.231  1.00  0.00     0.031 A 
ATOM     49  C   UNL A   1      42.461  25.022  28.495  1.00  0.00     0.031 A 
ATOM     50  C   UNL A   1      44.511  30.532  31.324  1.00  0.00     0.049 A 
ATOM     51  C   UNL A   1      43.779  25.448  29.079  1.00  0.00     0.074 A 
ATOM     52  C   UNL A   1      45.743  30.785  31.897  1.00  0.00     0.029 A 
ATOM     53  N   UNL A   1      44.565  29.241  30.817  1.00  0.00    -0.354 N 
ATOM     54  N   UNL A   1      44.099  26.590  29.640  1.00  0.00    -0.248 NA
ATOM     55  C   UNL A   1      44.871  24.468  29.034  1.00  0.00     0.031 C 
ATOM     56  C   UNL A   1      46.564  29.672  31.680  1.00  0.00     0.029 A 
ATOM     57  C   UNL A   1      45.820  28.698  31.034  1.00  0.00     0.049 A 
ATOM     58  H   UNL A   1      43.819  28.779  30.370  1.00  0.00     0.167 HD
ATOM     59  C   UNL A   1      45.428  26.462  30.030  1.00  0.00     0.074 A 
ATOM     60  C   UNL A   1      45.841  25.123  29.660  1.00  0.00     0.031 C 
ATOM     61  C   UNL A   1      46.229  27.370  30.641  1.00  0.00     0.031 A 
BRANCH  48  62
ATOM     62  C   UNL A   1      43.490  32.820  31.738  1.00  0.00    -0.014 A 
ATOM     63  C   UNL A   1      44.077  33.831  30.955  1.00  0.00     0.010 A 
ATOM     64  C   UNL A   1      43.015  33.145  33.022  1.00  0.00     0.010 A 
ATOM     65  C   UNL A   1      44.254  35.117  31.469  1.00  0.00     0.020 A 
ATOM     66  C   UNL A   1      43.156  34.441  33.529  1.00  0.00     0.020 A 
ATOM     67  C   UNL A   1      43.801  35.411  32.759  1.00  0.00     0.054 A 
BRANCH  67  68
ATOM     68  S   UNL A   1      44.067  37.082  33.412  1.00  0.00     0.124 S 
ATOM     69  O   UNL A   1      43.001  37.189  34.405  1.00  0.00    -0.237 OA
ATOM     70  O   UNL A   1      45.422  37.004  33.952  1.00  0.00    -0.237 OA
ATOM     71  O   UNL A   1      43.914  37.941  32.241  1.00  0.00    -0.744 OA
ENDBRANCH  67  68
ENDBRANCH  48  62
BRANCH  49  72
ATOM     72  C   UNL A   1      42.286  23.686  27.861  1.00  0.00    -0.014 A 
ATOM     73  C   UNL A   1      42.890  23.392  26.628  1.00  0.00     0.010 A 
ATOM     74  C   UNL A   1      41.564  22.679  28.528  1.00  0.00     0.010 A 
ATOM     75  C   UNL A   1      42.779  22.111  26.075  1.00  0.00     0.020 A 
ATOM     76  C   UNL A   1      41.476  21.392  27.994  1.00  0.00     0.020 A 
ATOM     77  C   UNL A   1      42.083  21.116  26.768  1.00  0.00     0.054 A 
BRANCH  77  78
ATOM     78  S   UNL A   1      42.037  19.439  26.078  1.00  0.00     0.124 S 
ATOM     79  O   UNL A   1      42.623  18.650  27.156  1.00  0.00    -0.237 OA
ATOM     80  O   UNL A   1      40.609  19.234  25.845  1.00  0.00    -0.237 OA
ATOM     81  O   UNL A   1      42.848  19.546  24.866  1.00  0.00    -0.744 OA
ENDBRANCH  77  78
ENDBRANCH  49  72
BRANCH  61  82
ATOM     82  C   UNL A   1      47.639  26.945  30.962  1.00  0.00    -0.014 A 
ATOM     83  C   UNL A   1      47.933  26.211  32.126  1.00  0.00     0.010 A 
ATOM     84  C   UNL A   1      48.677  27.237  30.057  1.00  0.00     0.010 A 
ATOM     85  C   UNL A   1      49.244  25.806  32.393  1.00  0.00     0.020 A 
ATOM     86  C   UNL A   1      49.982  26.805  30.306  1.00  0.00     0.020 A 
ATOM     87  C   UNL A   1      50.260  26.104  31.480  1.00  0.00     0.054 A 
BRANCH  87  88
ATOM     88  S   UNL A   1      51.943  25.526  31.830  1.00  0.00     0.124 S 
ATOM     89  O   UNL A   1      52.320  26.360  32.968  1.00  0.00    -0.237 OA
ATOM     90  O   UNL A   1      51.741  24.110  32.126  1.00  0.00    -0.237 OA
ATOM     91  O   UNL A   1      52.669  25.801  30.591  1.00  0.00    -0.744 OA
ENDBRANCH  87  88
ENDBRANCH  61  82
ENDBRANCH  35  36
ENDBRANCH  27  30
ENDBRANCH  25  26
ENDBRANCH  24  25
ENDBRANCH   1  24
TORSDOF 18
ENDMDL
MODEL 3
REMARK VINA RESULT:     -10.2      1.979      2.666
REMARK SMILES C[C@@H](c1ccccc1)[C@@H]1[NH2+][C@@H](C(=O)NCCCCCCNC(=O)c2ccc(-c3c4nc(c(-c5ccc(S(=O)(=O)[O-])cc5)c5ccc([nH]5)c(-c5ccc(S(=O)(=O)[O-])cc5)c5nc(c(-c6ccc(S(=O)(=O)[O-])cc6)c6ccc3[nH]6)C=C5)C=C4)cc2)CS1
REMARK SMILES IDX 18 1 17 2 16 3 15 4 14 5 12 6 13 7 11 9 9 10 10 11 85 12
REMARK SMILES IDX 84 15 2 16 1 17 3 18 4 19 8 20 5 21 7 22 6 23 19 24 20 25
REMARK SMILES IDX 21 26 22 27 23 29 24 30 25 31 83 32 26 33 82 34 27 35 28 36
REMARK SMILES IDX 29 37 76 38 30 39 81 40 75 41 77 42 31 43 80 44 74 45 73 46
REMARK SMILES IDX 32 48 62 49 43 50 61 51 44 52 47 53 60 54 78 55 45 56 46 57
REMARK SMILES IDX 59 59 79 60 48 61 33 62 34 63 42 64 35 65 41 66 36 67 37 68
REMARK SMILES IDX 38 69 39 70 40 71 63 72 64 73 72 74 65 75 71 76 66 77 67 78
REMARK SMILES IDX 68 79 69 80 70 81 49 82 50 83 58 84 51 85 57 86 52 87 53 88
REMARK SMILES IDX 54 89 55 90 56 91
REMARK H PARENT 14 8 10 13 10 14 21 28 77 47 47 58
REMARK Flexibility Score: inf
ROOT
ATOM      1  C   UNL A   1      34.535  23.876  25.875  1.00  0.00     0.002 C 
ENDROOT
BRANCH   1   2
ATOM      2  C   UNL A   1      34.412  23.904  24.349  1.00  0.00     0.002 C 
BRANCH   2   3
ATOM      3  C   UNL A   1      33.414  22.897  23.768  1.00  0.00     0.021 C 
BRANCH   3   4
ATOM      4  C   UNL A   1      32.231  23.539  23.049  1.00  0.00     0.116 C 
BRANCH   4   5
ATOM      5  N   UNL A   1      32.616  24.066  21.749  1.00  0.00    -0.351 N 
ATOM      6  C   UNL A   1      32.730  25.371  21.353  1.00  0.00     0.279 C 
ATOM      7  O   UNL A   1      33.094  25.620  20.204  1.00  0.00    -0.268 OA
ATOM      8  H   UNL A   1      32.822  23.393  21.060  1.00  0.00     0.163 HD
BRANCH   6   9
ATOM      9  C   UNL A   1      32.450  26.465  22.388  1.00  0.00     0.283 C 
ATOM     10  C   UNL A   1      31.969  28.772  22.652  1.00  0.00     0.249 C 
ATOM     11  N   UNL A   1      31.749  27.617  21.772  1.00  0.00    -0.324 N 
ATOM     12  S   UNL A   1      33.737  28.705  23.059  1.00  0.00    -0.092 SA
ATOM     13  H   UNL A   1      32.130  27.805  20.845  1.00  0.00     0.347 HD
ATOM     14  H   UNL A   1      30.752  27.423  21.667  1.00  0.00     0.347 HD
ATOM     15  C   UNL A   1      33.775  26.895  23.020  1.00  0.00     0.151 C 
BRANCH  10  16
ATOM     16  C   UNL A   1      30.995  28.919  23.886  1.00  0.00     0.085 C 
ATOM     17  C   UNL A   1      31.759  29.281  25.170  1.00  0.00     0.020 C 
BRANCH  16  18
ATOM     18  C   UNL A   1      29.735  29.768  23.705  1.00  0.00    -0.038 A 
ATOM     19  C   UNL A   1      29.656  31.119  24.072  1.00  0.00     0.004 A 
ATOM     20  C   UNL A   1      28.604  29.185  23.105  1.00  0.00     0.004 A 
ATOM     21  C   UNL A   1      28.529  31.885  23.757  1.00  0.00     0.000 A 
ATOM     22  C   UNL A   1      27.464  29.940  22.824  1.00  0.00     0.000 A 
ATOM     23  C   UNL A   1      27.437  31.298  23.126  1.00  0.00     0.000 A 
ENDBRANCH  16  18
ENDBRANCH  10  16
ENDBRANCH   6   9
ENDBRANCH   4   5
ENDBRANCH   3   4
ENDBRANCH   2   3
ENDBRANCH   1   2
BRANCH   1  24
ATOM     24  C   UNL A   1      35.953  23.647  26.402  1.00  0.00     0.021 C 
BRANCH  24  25
ATOM     25  C   UNL A   1      37.031  23.602  25.324  1.00  0.00     0.116 C 
BRANCH  25  26
ATOM     26  N   UNL A   1      38.083  22.650  25.641  1.00  0.00    -0.352 N 
ATOM     27  C   UNL A   1      39.306  22.865  26.229  1.00  0.00     0.251 C 
ATOM     28  H   UNL A   1      37.893  21.714  25.399  1.00  0.00     0.163 HD
ATOM     29  O   UNL A   1      40.148  21.976  26.240  1.00  0.00    -0.269 OA
BRANCH  27  30
ATOM     30  C   UNL A   1      39.605  24.184  26.829  1.00  0.00     0.039 A 
ATOM     31  C   UNL A   1      39.200  24.438  28.141  1.00  0.00     0.014 A 
ATOM     32  C   UNL A   1      40.285  25.164  26.099  1.00  0.00     0.014 A 
ATOM     33  C   UNL A   1      39.532  25.653  28.743  1.00  0.00     0.010 A 
ATOM     34  C   UNL A   1      40.681  26.341  26.725  1.00  0.00     0.010 A 
ATOM     35  C   UNL A   1      40.307  26.599  28.053  1.00  0.00    -0.014 A 
BRANCH  35  36
ATOM     36  C   UNL A   1      40.745  27.858  28.707  1.00  0.00     0.031 A 
ATOM     37  C   UNL A   1      42.117  27.963  29.314  1.00  0.00     0.074 A 
ATOM     38  C   UNL A   1      39.880  28.885  28.817  1.00  0.00     0.049 A 
ATOM     39  N   UNL A   1      42.655  28.958  29.971  1.00  0.00    -0.248 NA
ATOM     40  C   UNL A   1      42.989  26.784  29.188  1.00  0.00     0.031 C 
ATOM     41  C   UNL A   1      38.505  28.891  28.314  1.00  0.00     0.029 A 
ATOM     42  N   UNL A   1      40.025  30.120  29.399  1.00  0.00    -0.354 N 
ATOM     43  C   UNL A   1      43.920  28.524  30.347  1.00  0.00     0.074 A 
ATOM     44  C   UNL A   1      44.045  27.154  29.898  1.00  0.00     0.031 C 
ATOM     45  C   UNL A   1      37.941  30.075  28.592  1.00  0.00     0.029 A 
ATOM     46  C   UNL A   1      38.895  30.897  29.331  1.00  0.00     0.049 A 
ATOM     47  H   UNL A   1      40.860  30.420  29.825  1.00  0.00     0.167 HD
ATOM     48  C   UNL A   1      44.899  29.208  30.990  1.00  0.00     0.031 A 
ATOM     49  C   UNL A   1      38.642  32.127  29.819  1.00  0.00     0.031 A 
ATOM     50  C   UNL A   1      44.763  30.566  31.449  1.00  0.00     0.049 A 
ATOM     51  C   UNL A   1      39.729  32.863  30.550  1.00  0.00     0.074 A 
ATOM     52  C   UNL A   1      45.708  31.365  32.066  1.00  0.00     0.029 A 
ATOM     53  N   UNL A   1      43.603  31.322  31.353  1.00  0.00    -0.354 N 
ATOM     54  N   UNL A   1      40.948  32.465  30.829  1.00  0.00    -0.248 NA
ATOM     55  C   UNL A   1      39.412  34.218  31.020  1.00  0.00     0.031 C 
ATOM     56  C   UNL A   1      45.101  32.580  32.402  1.00  0.00     0.029 A 
ATOM     57  C   UNL A   1      43.798  32.566  31.931  1.00  0.00     0.049 A 
ATOM     58  H   UNL A   1      42.765  31.019  30.935  1.00  0.00     0.167 HD
ATOM     59  C   UNL A   1      41.551  33.526  31.495  1.00  0.00     0.074 A 
ATOM     60  C   UNL A   1      40.568  34.590  31.556  1.00  0.00     0.031 C 
ATOM     61  C   UNL A   1      42.804  33.611  32.006  1.00  0.00     0.031 A 
BRANCH  48  62
ATOM     62  C   UNL A   1      46.191  28.475  31.252  1.00  0.00    -0.014 A 
ATOM     63  C   UNL A   1      47.180  28.357  30.258  1.00  0.00     0.010 A 
ATOM     64  C   UNL A   1      46.419  27.888  32.511  1.00  0.00     0.010 A 
ATOM     65  C   UNL A   1      48.336  27.607  30.490  1.00  0.00     0.020 A 
ATOM     66  C   UNL A   1      47.592  27.167  32.761  1.00  0.00     0.020 A 
ATOM     67  C   UNL A   1      48.528  27.008  31.738  1.00  0.00     0.054 A 
BRANCH  67  68
ATOM     68  S   UNL A   1      50.026  26.018  32.003  1.00  0.00     0.124 S 
ATOM     69  O   UNL A   1      49.465  24.703  32.304  1.00  0.00    -0.237 OA
ATOM     70  O   UNL A   1      50.715  26.129  30.721  1.00  0.00    -0.237 OA
ATOM     71  O   UNL A   1      50.686  26.684  33.123  1.00  0.00    -0.744 OA
ENDBRANCH  67  68
ENDBRANCH  48  62
BRANCH  49  72
ATOM     72  C   UNL A   1      37.293  32.727  29.621  1.00  0.00    -0.014 A 
ATOM     73  C   UNL A   1      36.308  32.623  30.617  1.00  0.00     0.010 A 
ATOM     74  C   UNL A   1      37.013  33.462  28.455  1.00  0.00     0.010 A 
ATOM     75  C   UNL A   1      35.069  33.250  30.453  1.00  0.00     0.020 A 
ATOM     76  C   UNL A   1      35.787  34.115  28.301  1.00  0.00     0.020 A 
ATOM     77  C   UNL A   1      34.821  34.002  29.301  1.00  0.00     0.054 A 
BRANCH  77  78
ATOM     78  S   UNL A   1      33.244  34.887  29.156  1.00  0.00     0.124 S 
ATOM     79  O   UNL A   1      32.529  34.078  28.175  1.00  0.00    -0.237 OA
ATOM     80  O   UNL A   1      32.727  34.832  30.521  1.00  0.00    -0.237 OA
ATOM     81  O   UNL A   1      33.640  36.219  28.702  1.00  0.00    -0.744 OA
ENDBRANCH  77  78
ENDBRANCH  49  72
BRANCH  61  82
ATOM     82  C   UNL A   1      43.195  34.905  32.671  1.00  0.00    -0.014 A 
ATOM     83  C   UNL A   1      43.728  35.976  31.929  1.00  0.00     0.010 A 
ATOM     84  C   UNL A   1      42.975  35.073  34.051  1.00  0.00     0.010 A 
ATOM     85  C   UNL A   1      44.062  37.177  32.562  1.00  0.00     0.020 A 
ATOM     86  C   UNL A   1      43.278  36.283  34.680  1.00  0.00     0.020 A 
ATOM     87  C   UNL A   1      43.833  37.324  33.933  1.00  0.00     0.054 A 
BRANCH  87  88
ATOM     88  S   UNL A   1      44.233  38.909  34.718  1.00  0.00     0.124 S 
ATOM     89  O   UNL A   1      45.632  39.090  34.341  1.00  0.00    -0.237 OA
ATOM     90  O   UNL A   1      43.287  39.826  34.088  1.00  0.00    -0.237 OA
ATOM     91  O   UNL A   1      44.000  38.660  36.139  1.00  0.00    -0.744 OA
ENDBRANCH  87  88
ENDBRANCH  61  82
ENDBRANCH  35  36
ENDBRANCH  27  30
ENDBRANCH  25  26
ENDBRANCH  24  25
ENDBRANCH   1  24
TORSDOF 18
ENDMDL
