MODEL 1
REMARK VINA RESULT:      -9.9      0.000      0.000
REMARK SMILES O=C(NCCCCCCNC(=O)[C@H](CO)NC(=O)[C@H](CS)NC(=O)[C@H](Cc1ccccc1)NC(=O)c1ccc(F)cc1)c1ccc(-c2c3nc(c(-c4ccc(S(=O)(=O)[O-])cc4)c4ccc([nH]4)c(-c4ccc(S(=O)(=O)[O-])cc4)c4nc(c(-c5ccc(S(=O)(=O)[O-])cc5)c5ccc2[nH]5)C=C4)C=C3)cc1
REMARK SMILES IDX 8 1 7 2 6 3 5 4 4 5 3 6 1 7 2 8 43 10 44 11 102 12 45 13
REMARK SMILES IDX 101 14 46 15 47 16 48 17 95 18 49 19 100 20 94 21 96 22
REMARK SMILES IDX 50 23 99 24 93 25 92 26 51 28 81 29 62 30 80 31 63 32 66 33
REMARK SMILES IDX 79 34 97 35 64 36 65 37 78 39 98 40 67 41 52 42 53 43 61 44
REMARK SMILES IDX 54 45 60 46 55 47 56 48 57 49 58 50 59 51 82 52 83 53 91 54
REMARK SMILES IDX 84 55 90 56 85 57 86 58 87 59 88 60 89 61 68 62 69 63 77 64
REMARK SMILES IDX 70 65 76 66 71 67 72 68 73 69 74 70 75 71 9 72 10 73 11 74
REMARK SMILES IDX 12 76 13 77 16 78 17 79 18 81 19 82 22 83 23 84 24 86 25 87
REMARK SMILES IDX 33 88 34 89 35 91 36 92 37 93 42 94 38 95 41 96 39 97 40 98
REMARK SMILES IDX 26 99 27 100 28 101 32 102 29 103 31 104 30 105 20 106
REMARK SMILES IDX 21 107 14 109 15 110
REMARK H PARENT 3 9 96 27 66 38 10 75 16 80 22 85 33 90 21 108 15 111
REMARK Flexibility Score: inf
ROOT
ATOM      1  C   UNL A   1      40.199  19.945  26.083  1.00  0.00     0.021 C 
ENDROOT
BRANCH   1   2
ATOM      2  C   UNL A   1      41.511  20.325  26.768  1.00  0.00     0.002 C 
BRANCH   2   3
ATOM      3  C   UNL A   1      41.706  21.824  27.016  1.00  0.00     0.002 C 
BRANCH   3   4
ATOM      4  C   UNL A   1      43.156  22.269  27.209  1.00  0.00     0.021 C 
BRANCH   4   5
ATOM      5  C   UNL A   1      43.357  23.776  27.228  1.00  0.00     0.116 C 
BRANCH   5   6
ATOM      6  N   UNL A   1      42.765  24.416  26.069  1.00  0.00    -0.352 N 
ATOM      7  O   UNL A   1      41.358  25.815  24.999  1.00  0.00    -0.269 OA
ATOM      8  C   UNL A   1      41.937  25.511  26.031  1.00  0.00     0.251 C 
ATOM      9  H   UNL A   1      42.985  24.015  25.198  1.00  0.00     0.163 HD
BRANCH   8  10
ATOM     10  C   UNL A   1      41.748  26.301  27.266  1.00  0.00     0.039 A 
ATOM     11  C   UNL A   1      42.553  27.415  27.521  1.00  0.00     0.014 A 
ATOM     12  C   UNL A   1      40.759  25.918  28.174  1.00  0.00     0.014 A 
ATOM     13  C   UNL A   1      42.444  28.082  28.733  1.00  0.00     0.010 A 
ATOM     14  C   UNL A   1      40.590  26.646  29.352  1.00  0.00     0.010 A 
ATOM     15  C   UNL A   1      41.437  27.728  29.644  1.00  0.00    -0.014 A 
BRANCH  15  16
ATOM     16  C   UNL A   1      41.204  28.576  30.838  1.00  0.00     0.031 A 
ATOM     17  C   UNL A   1      40.102  29.595  30.872  1.00  0.00     0.074 A 
ATOM     18  C   UNL A   1      42.028  28.420  31.893  1.00  0.00     0.049 A 
ATOM     19  N   UNL A   1      39.796  30.435  31.826  1.00  0.00    -0.248 NA
ATOM     20  C   UNL A   1      39.236  29.690  29.687  1.00  0.00     0.031 C 
ATOM     21  C   UNL A   1      43.140  27.465  31.961  1.00  0.00     0.029 A 
ATOM     22  N   UNL A   1      42.064  29.053  33.109  1.00  0.00    -0.354 N 
ATOM     23  C   UNL A   1      38.723  31.179  31.351  1.00  0.00     0.074 A 
ATOM     24  C   UNL A   1      38.436  30.697  30.016  1.00  0.00     0.031 C 
ATOM     25  C   UNL A   1      43.725  27.554  33.163  1.00  0.00     0.029 A 
ATOM     26  C   UNL A   1      43.086  28.621  33.920  1.00  0.00     0.049 A 
ATOM     27  H   UNL A   1      41.420  29.749  33.375  1.00  0.00     0.167 HD
ATOM     28  C   UNL A   1      38.044  32.172  31.975  1.00  0.00     0.031 A 
ATOM     29  C   UNL A   1      43.494  29.058  35.126  1.00  0.00     0.031 A 
ATOM     30  C   UNL A   1      38.346  32.640  33.304  1.00  0.00     0.049 A 
ATOM     31  C   UNL A   1      42.751  30.191  35.771  1.00  0.00     0.074 A 
ATOM     32  C   UNL A   1      37.683  33.603  34.046  1.00  0.00     0.029 A 
ATOM     33  N   UNL A   1      39.402  32.194  34.085  1.00  0.00    -0.354 N 
ATOM     34  N   UNL A   1      41.696  30.836  35.334  1.00  0.00    -0.248 NA
ATOM     35  C   UNL A   1      43.252  30.657  37.070  1.00  0.00     0.031 C 
ATOM     36  C   UNL A   1      38.380  33.790  35.243  1.00  0.00     0.029 A 
ATOM     37  C   UNL A   1      39.436  32.893  35.280  1.00  0.00     0.049 A 
ATOM     38  H   UNL A   1      40.036  31.486  33.827  1.00  0.00     0.167 HD
ATOM     39  C   UNL A   1      41.397  31.775  36.311  1.00  0.00     0.074 A 
ATOM     40  C   UNL A   1      42.366  31.597  37.373  1.00  0.00     0.031 C 
ATOM     41  C   UNL A   1      40.411  32.706  36.326  1.00  0.00     0.031 A 
BRANCH  28  42
ATOM     42  C   UNL A   1      36.932  32.855  31.222  1.00  0.00    -0.014 A 
ATOM     43  C   UNL A   1      37.198  33.788  30.205  1.00  0.00     0.010 A 
ATOM     44  C   UNL A   1      35.596  32.496  31.485  1.00  0.00     0.010 A 
ATOM     45  C   UNL A   1      36.149  34.369  29.485  1.00  0.00     0.020 A 
ATOM     46  C   UNL A   1      34.546  33.053  30.751  1.00  0.00     0.020 A 
ATOM     47  C   UNL A   1      34.829  33.997  29.762  1.00  0.00     0.054 A 
BRANCH  47  48
ATOM     48  S   UNL A   1      33.493  34.740  28.786  1.00  0.00     0.124 S 
ATOM     49  O   UNL A   1      33.164  33.662  27.856  1.00  0.00    -0.237 OA
ATOM     50  O   UNL A   1      32.478  35.025  29.797  1.00  0.00    -0.237 OA
ATOM     51  O   UNL A   1      34.114  35.915  28.181  1.00  0.00    -0.744 OA
ENDBRANCH  47  48
ENDBRANCH  28  42
BRANCH  29  52
ATOM     52  C   UNL A   1      44.690  28.449  35.768  1.00  0.00    -0.014 A 
ATOM     53  C   UNL A   1      44.561  27.354  36.639  1.00  0.00     0.010 A 
ATOM     54  C   UNL A   1      45.974  28.959  35.495  1.00  0.00     0.010 A 
ATOM     55  C   UNL A   1      45.691  26.796  37.242  1.00  0.00     0.020 A 
ATOM     56  C   UNL A   1      47.108  28.383  36.069  1.00  0.00     0.020 A 
ATOM     57  C   UNL A   1      46.958  27.315  36.953  1.00  0.00     0.054 A 
BRANCH  57  58
ATOM     58  S   UNL A   1      48.411  26.553  37.724  1.00  0.00     0.124 S 
ATOM     59  O   UNL A   1      49.257  27.712  37.988  1.00  0.00    -0.237 OA
ATOM     60  O   UNL A   1      47.840  25.904  38.902  1.00  0.00    -0.237 OA
ATOM     61  O   UNL A   1      48.903  25.638  36.696  1.00  0.00    -0.744 OA
ENDBRANCH  57  58
ENDBRANCH  29  52
BRANCH  41  62
ATOM     62  C   UNL A   1      40.314  33.589  37.540  1.00  0.00    -0.014 A 
ATOM     63  C   UNL A   1      39.444  33.275  38.599  1.00  0.00     0.010 A 
ATOM     64  C   UNL A   1      41.151  34.714  37.649  1.00  0.00     0.010 A 
ATOM     65  C   UNL A   1      39.400  34.082  39.738  1.00  0.00     0.020 A 
ATOM     66  C   UNL A   1      41.133  35.506  38.799  1.00  0.00     0.020 A 
ATOM     67  C   UNL A   1      40.250  35.190  39.832  1.00  0.00     0.054 A 
BRANCH  67  68
ATOM     68  S   UNL A   1      40.221  36.181  41.351  1.00  0.00     0.124 S 
ATOM     69  O   UNL A   1      38.791  36.408  41.539  1.00  0.00    -0.237 OA
ATOM     70  O   UNL A   1      40.850  35.293  42.324  1.00  0.00    -0.237 OA
ATOM     71  O   UNL A   1      41.000  37.368  41.005  1.00  0.00    -0.744 OA
ENDBRANCH  67  68
ENDBRANCH  41  62
ENDBRANCH  15  16
ENDBRANCH   8  10
ENDBRANCH   5   6
ENDBRANCH   4   5
ENDBRANCH   3   4
ENDBRANCH   2   3
ENDBRANCH   1   2
BRANCH   1  72
ATOM     72  C   UNL A   1      39.278  21.116  25.792  1.00  0.00     0.116 C 
BRANCH  72  73
ATOM     73  N   UNL A   1      37.965  20.675  25.387  1.00  0.00    -0.354 N 
ATOM     74  C   UNL A   1      36.967  21.396  24.818  1.00  0.00     0.244 C 
ATOM     75  H   UNL A   1      37.766  19.724  25.546  1.00  0.00     0.163 HD
ATOM     76  O   UNL A   1      35.855  20.865  24.738  1.00  0.00    -0.273 OA
BRANCH  74  77
ATOM     77  C   UNL A   1      37.161  22.875  24.442  1.00  0.00     0.197 C 
BRANCH  77  78
ATOM     78  N   UNL A   1      36.127  23.218  23.471  1.00  0.00    -0.340 N 
ATOM     79  C   UNL A   1      35.044  24.038  23.582  1.00  0.00     0.244 C 
ATOM     80  H   UNL A   1      36.227  22.787  22.591  1.00  0.00     0.164 HD
ATOM     81  O   UNL A   1      34.461  24.300  22.526  1.00  0.00    -0.273 OA
BRANCH  79  82
ATOM     82  C   UNL A   1      34.421  24.354  24.961  1.00  0.00     0.181 C 
BRANCH  82  83
ATOM     83  N   UNL A   1      34.702  23.392  26.043  1.00  0.00    -0.342 N 
ATOM     84  C   UNL A   1      33.909  22.511  26.719  1.00  0.00     0.243 C 
ATOM     85  H   UNL A   1      35.642  23.384  26.336  1.00  0.00     0.164 HD
ATOM     86  O   UNL A   1      34.156  22.381  27.922  1.00  0.00    -0.273 OA
BRANCH  84  87
ATOM     87  C   UNL A   1      32.845  21.593  26.042  1.00  0.00     0.176 C 
BRANCH  87  88
ATOM     88  N   UNL A   1      32.911  20.185  26.459  1.00  0.00    -0.340 N 
ATOM     89  C   UNL A   1      32.793  19.018  25.760  1.00  0.00     0.251 C 
ATOM     90  H   UNL A   1      33.071  20.060  27.423  1.00  0.00     0.164 HD
ATOM     91  O   UNL A   1      32.860  17.960  26.381  1.00  0.00    -0.269 OA
BRANCH  89  92
ATOM     92  C   UNL A   1      32.596  18.992  24.295  1.00  0.00     0.040 A 
ATOM     93  C   UNL A   1      32.786  17.766  23.645  1.00  0.00     0.017 A 
ATOM     94  C   UNL A   1      32.306  20.137  23.546  1.00  0.00     0.017 A 
ATOM     95  C   UNL A   1      32.627  17.679  22.261  1.00  0.00     0.040 A 
ATOM     96  C   UNL A   1      32.140  20.047  22.165  1.00  0.00     0.040 A 
ATOM     97  C   UNL A   1      32.294  18.818  21.536  1.00  0.00     0.123 A 
ATOM     98  F   UNL A   1      32.129  18.734  20.211  1.00  0.00    -0.207 F 
ENDBRANCH  89  92
ENDBRANCH  87  88
BRANCH  87  99
ATOM     99  C   UNL A   1      31.370  22.067  26.199  1.00  0.00     0.070 C 
BRANCH  99 100
ATOM    100  C   UNL A   1      30.851  23.315  25.525  1.00  0.00    -0.045 A 
ATOM    101  C   UNL A   1      30.408  24.408  26.281  1.00  0.00     0.004 A 
ATOM    102  C   UNL A   1      30.923  23.469  24.135  1.00  0.00     0.004 A 
ATOM    103  C   UNL A   1      30.020  25.599  25.657  1.00  0.00     0.000 A 
ATOM    104  C   UNL A   1      30.529  24.651  23.508  1.00  0.00     0.000 A 
ATOM    105  C   UNL A   1      30.074  25.718  24.270  1.00  0.00     0.000 A 
ENDBRANCH  99 100
ENDBRANCH  87  99
ENDBRANCH  84  87
ENDBRANCH  82  83
BRANCH  82 106
ATOM    106  C   UNL A   1      34.758  25.804  25.398  1.00  0.00     0.101 C 
BRANCH 106 107
ATOM    107  S   UNL A   1      33.593  27.071  24.780  1.00  0.00    -0.177 SA
ATOM    108  H   UNL A   1      33.326  27.963  25.772  1.00  0.00     0.102 HD
ENDBRANCH 106 107
ENDBRANCH  82 106
ENDBRANCH  79  82
ENDBRANCH  77  78
BRANCH  77 109
ATOM    109  C   UNL A   1      37.285  23.871  25.604  1.00  0.00     0.191 C 
BRANCH 109 110
ATOM    110  O   UNL A   1      38.612  24.369  25.768  1.00  0.00    -0.394 OA
ATOM    111  H   UNL A   1      38.783  24.530  26.708  1.00  0.00     0.210 HD
ENDBRANCH 109 110
ENDBRANCH  77 109
ENDBRANCH  74  77
ENDBRANCH  72  73
ENDBRANCH   1  72
TORSDOF 28
ENDMDL
MODEL 2
REMARK VINA RESULT:      -9.6      6.526     12.162
REMARK SMILES O=C(NCCCCCCNC(=O)[C@H](CO)NC(=O)[C@H](CS)NC(=O)[C@H](Cc1ccccc1)NC(=O)c1ccc(F)cc1)c1ccc(-c2c3nc(c(-c4ccc(S(=O)(=O)[O-])cc4)c4ccc([nH]4)c(-c4ccc(S(=O)(=O)[O-])cc4)c4nc(c(-c5ccc(S(=O)(=O)[O-])cc5)c5ccc2[nH]5)C=C4)C=C3)cc1
REMARK SMILES IDX 8 1 7 2 6 3 5 4 4 5 3 6 1 7 2 8 43 10 44 11 102 12 45 13
REMARK SMILES IDX 101 14 46 15 47 16 48 17 95 18 49 19 100 20 94 21 96 22
REMARK SMILES IDX 50 23 99 24 93 25 92 26 51 28 81 29 62 30 80 31 63 32 66 33
REMARK SMILES IDX 79 34 97 35 64 36 65 37 78 39 98 40 67 41 52 42 53 43 61 44
REMARK SMILES IDX 54 45 60 46 55 47 56 48 57 49 58 50 59 51 82 52 83 53 91 54
REMARK SMILES IDX 84 55 90 56 85 57 86 58 87 59 88 60 89 61 68 62 69 63 77 64
REMARK SMILES IDX 70 65 76 66 71 67 72 68 73 69 74 70 75 71 9 72 10 73 11 74
REMARK SMILES IDX 12 76 13 77 16 78 17 79 18 81 19 82 22 83 23 84 24 86 25 87
REMARK SMILES IDX 33 88 34 89 35 91 36 92 37 93 42 94 38 95 41 96 39 97 40 98
REMARK SMILES IDX 26 99 27 100 28 101 32 102 29 103 31 104 30 105 20 106
REMARK SMILES IDX 21 107 14 109 15 110
REMARK H PARENT 3 9 96 27 66 38 10 75 16 80 22 85 33 90 21 108 15 111
REMARK Flexibility Score: inf
ROOT
ATOM      1  C   UNL A   1      45.621  25.756  32.306  1.00  0.00     0.021 C 
ENDROOT
BRANCH   1   2
ATOM      2  C   UNL A   1      46.092  25.772  33.760  1.00  0.00     0.002 C 
BRANCH   2   3
ATOM      3  C   UNL A   1      45.964  24.437  34.500  1.00  0.00     0.002 C 
BRANCH   3   4
ATOM      4  C   UNL A   1      44.552  24.083  34.968  1.00  0.00     0.021 C 
BRANCH   4   5
ATOM      5  C   UNL A   1      44.194  24.608  36.349  1.00  0.00     0.116 C 
BRANCH   5   6
ATOM      6  N   UNL A   1      42.769  24.528  36.606  1.00  0.00    -0.352 N 
ATOM      7  O   UNL A   1      40.674  25.340  36.799  1.00  0.00    -0.269 OA
ATOM      8  C   UNL A   1      41.802  25.468  36.346  1.00  0.00     0.251 C 
ATOM      9  H   UNL A   1      42.453  23.693  37.020  1.00  0.00     0.163 HD
BRANCH   8  10
ATOM     10  C   UNL A   1      42.158  26.644  35.523  1.00  0.00     0.039 A 
ATOM     11  C   UNL A   1      42.272  26.525  34.135  1.00  0.00     0.014 A 
ATOM     12  C   UNL A   1      42.382  27.870  36.150  1.00  0.00     0.014 A 
ATOM     13  C   UNL A   1      42.716  27.604  33.384  1.00  0.00     0.010 A 
ATOM     14  C   UNL A   1      42.741  28.979  35.382  1.00  0.00     0.010 A 
ATOM     15  C   UNL A   1      42.919  28.852  33.995  1.00  0.00    -0.014 A 
BRANCH  15  16
ATOM     16  C   UNL A   1      43.195  30.039  33.151  1.00  0.00     0.031 A 
ATOM     17  C   UNL A   1      44.578  30.612  33.034  1.00  0.00     0.074 A 
ATOM     18  C   UNL A   1      42.159  30.606  32.501  1.00  0.00     0.049 A 
ATOM     19  N   UNL A   1      44.971  31.665  32.365  1.00  0.00    -0.248 NA
ATOM     20  C   UNL A   1      45.656  29.923  33.759  1.00  0.00     0.031 C 
ATOM     21  C   UNL A   1      40.770  30.135  32.555  1.00  0.00     0.029 A 
ATOM     22  N   UNL A   1      42.105  31.694  31.670  1.00  0.00    -0.354 N 
ATOM     23  C   UNL A   1      46.333  31.786  32.610  1.00  0.00     0.074 A 
ATOM     24  C   UNL A   1      46.698  30.703  33.498  1.00  0.00     0.031 C 
ATOM     25  C   UNL A   1      40.011  30.909  31.767  1.00  0.00     0.029 A 
ATOM     26  C   UNL A   1      40.838  31.974  31.216  1.00  0.00     0.049 A 
ATOM     27  H   UNL A   1      42.896  32.224  31.421  1.00  0.00     0.167 HD
ATOM     28  C   UNL A   1      47.195  32.718  32.136  1.00  0.00     0.031 A 
ATOM     29  C   UNL A   1      40.378  32.997  30.472  1.00  0.00     0.031 A 
ATOM     30  C   UNL A   1      46.812  33.792  31.254  1.00  0.00     0.049 A 
ATOM     31  C   UNL A   1      41.348  34.039  30.000  1.00  0.00     0.074 A 
ATOM     32  C   UNL A   1      47.620  34.755  30.673  1.00  0.00     0.029 A 
ATOM     33  N   UNL A   1      45.516  34.055  30.836  1.00  0.00    -0.354 N 
ATOM     34  N   UNL A   1      42.645  34.097  30.187  1.00  0.00    -0.248 NA
ATOM     35  C   UNL A   1      40.796  35.153  29.219  1.00  0.00     0.031 C 
ATOM     36  C   UNL A   1      46.804  35.641  29.965  1.00  0.00     0.029 A 
ATOM     37  C   UNL A   1      45.495  35.191  30.043  1.00  0.00     0.049 A 
ATOM     38  H   UNL A   1      44.726  33.515  31.069  1.00  0.00     0.167 HD
ATOM     39  C   UNL A   1      43.068  35.247  29.534  1.00  0.00     0.074 A 
ATOM     40  C   UNL A   1      41.893  35.840  28.927  1.00  0.00     0.031 C 
ATOM     41  C   UNL A   1      44.316  35.769  29.449  1.00  0.00     0.031 A 
BRANCH  28  42
ATOM     42  C   UNL A   1      48.631  32.653  32.585  1.00  0.00    -0.014 A 
ATOM     43  C   UNL A   1      49.594  31.922  31.867  1.00  0.00     0.010 A 
ATOM     44  C   UNL A   1      49.041  33.404  33.703  1.00  0.00     0.010 A 
ATOM     45  C   UNL A   1      50.931  31.920  32.275  1.00  0.00     0.020 A 
ATOM     46  C   UNL A   1      50.381  33.427  34.099  1.00  0.00     0.020 A 
ATOM     47  C   UNL A   1      51.317  32.674  33.389  1.00  0.00     0.054 A 
BRANCH  47  48
ATOM     48  S   UNL A   1      53.066  32.682  33.870  1.00  0.00     0.124 S 
ATOM     49  O   UNL A   1      53.095  31.662  34.916  1.00  0.00    -0.237 OA
ATOM     50  O   UNL A   1      53.742  32.323  32.626  1.00  0.00    -0.237 OA
ATOM     51  O   UNL A   1      53.295  34.050  34.328  1.00  0.00    -0.744 OA
ENDBRANCH  47  48
ENDBRANCH  28  42
BRANCH  29  52
ATOM     52  C   UNL A   1      38.923  33.099  30.174  1.00  0.00    -0.014 A 
ATOM     53  C   UNL A   1      38.365  32.428  29.072  1.00  0.00     0.010 A 
ATOM     54  C   UNL A   1      38.084  33.863  31.008  1.00  0.00     0.010 A 
ATOM     55  C   UNL A   1      36.999  32.539  28.798  1.00  0.00     0.020 A 
ATOM     56  C   UNL A   1      36.714  33.948  30.757  1.00  0.00     0.020 A 
ATOM     57  C   UNL A   1      36.182  33.299  29.643  1.00  0.00     0.054 A 
BRANCH  57  58
ATOM     58  S   UNL A   1      34.408  33.400  29.283  1.00  0.00     0.124 S 
ATOM     59  O   UNL A   1      33.862  33.824  30.569  1.00  0.00    -0.237 OA
ATOM     60  O   UNL A   1      34.359  34.396  28.215  1.00  0.00    -0.237 OA
ATOM     61  O   UNL A   1      34.064  32.040  28.873  1.00  0.00    -0.744 OA
ENDBRANCH  57  58
ENDBRANCH  29  52
BRANCH  41  62
ATOM     62  C   UNL A   1      44.482  37.033  28.650  1.00  0.00    -0.014 A 
ATOM     63  C   UNL A   1      44.644  38.277  29.285  1.00  0.00     0.010 A 
ATOM     64  C   UNL A   1      44.541  36.965  27.247  1.00  0.00     0.010 A 
ATOM     65  C   UNL A   1      44.843  39.434  28.527  1.00  0.00     0.020 A 
ATOM     66  C   UNL A   1      44.770  38.114  26.487  1.00  0.00     0.020 A 
ATOM     67  C   UNL A   1      44.910  39.344  27.133  1.00  0.00     0.054 A 
BRANCH  67  68
ATOM     68  S   UNL A   1      45.237  40.850  26.178  1.00  0.00     0.124 S 
ATOM     69  O   UNL A   1      43.888  41.290  25.831  1.00  0.00    -0.237 OA
ATOM     70  O   UNL A   1      45.944  41.691  27.140  1.00  0.00    -0.237 OA
ATOM     71  O   UNL A   1      46.046  40.382  25.056  1.00  0.00    -0.744 OA
ENDBRANCH  67  68
ENDBRANCH  41  62
ENDBRANCH  15  16
ENDBRANCH   8  10
ENDBRANCH   5   6
ENDBRANCH   4   5
ENDBRANCH   3   4
ENDBRANCH   2   3
ENDBRANCH   1   2
BRANCH   1  72
ATOM     72  C   UNL A   1      46.256  26.819  31.427  1.00  0.00     0.116 C 
BRANCH  72  73
ATOM     73  N   UNL A   1      45.271  27.731  30.897  1.00  0.00    -0.354 N 
ATOM     74  C   UNL A   1      45.406  28.634  29.895  1.00  0.00     0.244 C 
ATOM     75  H   UNL A   1      44.383  27.693  31.320  1.00  0.00     0.163 HD
ATOM     76  O   UNL A   1      44.493  29.452  29.739  1.00  0.00    -0.273 OA
BRANCH  74  77
ATOM     77  C   UNL A   1      46.712  28.751  29.092  1.00  0.00     0.197 C 
BRANCH  77  78
ATOM     78  N   UNL A   1      46.352  29.077  27.715  1.00  0.00    -0.340 N 
ATOM     79  C   UNL A   1      46.166  28.269  26.633  1.00  0.00     0.244 C 
ATOM     80  H   UNL A   1      46.221  30.036  27.539  1.00  0.00     0.164 HD
ATOM     81  O   UNL A   1      45.659  28.808  25.645  1.00  0.00    -0.273 OA
BRANCH  79  82
ATOM     82  C   UNL A   1      46.829  26.875  26.556  1.00  0.00     0.181 C 
BRANCH  82  83
ATOM     83  N   UNL A   1      46.497  26.055  25.375  1.00  0.00    -0.342 N 
ATOM     84  C   UNL A   1      45.475  25.189  25.116  1.00  0.00     0.243 C 
ATOM     85  H   UNL A   1      47.136  26.150  24.632  1.00  0.00     0.164 HD
ATOM     86  O   UNL A   1      45.777  24.186  24.460  1.00  0.00    -0.273 OA
BRANCH  84  87
ATOM     87  C   UNL A   1      43.982  25.464  25.470  1.00  0.00     0.176 C 
BRANCH  87  88
ATOM     88  N   UNL A   1      43.456  26.725  24.927  1.00  0.00    -0.340 N 
ATOM     89  C   UNL A   1      42.514  27.598  25.390  1.00  0.00     0.251 C 
ATOM     90  H   UNL A   1      43.858  26.989  24.068  1.00  0.00     0.164 HD
ATOM     91  O   UNL A   1      42.242  28.578  24.700  1.00  0.00    -0.269 OA
BRANCH  89  92
ATOM     92  C   UNL A   1      41.827  27.404  26.684  1.00  0.00     0.040 A 
ATOM     93  C   UNL A   1      40.432  27.287  26.658  1.00  0.00     0.017 A 
ATOM     94  C   UNL A   1      42.500  27.407  27.911  1.00  0.00     0.017 A 
ATOM     95  C   UNL A   1      39.724  27.114  27.848  1.00  0.00     0.040 A 
ATOM     96  C   UNL A   1      41.792  27.226  29.098  1.00  0.00     0.040 A 
ATOM     97  C   UNL A   1      40.412  27.073  29.055  1.00  0.00     0.123 A 
ATOM     98  F   UNL A   1      39.736  26.895  30.196  1.00  0.00    -0.207 F 
ENDBRANCH  89  92
ENDBRANCH  87  88
BRANCH  87  99
ATOM     99  C   UNL A   1      42.992  24.328  25.082  1.00  0.00     0.070 C 
BRANCH  99 100
ATOM    100  C   UNL A   1      42.378  23.409  26.111  1.00  0.00    -0.045 A 
ATOM    101  C   UNL A   1      41.253  23.805  26.847  1.00  0.00     0.004 A 
ATOM    102  C   UNL A   1      42.828  22.092  26.263  1.00  0.00     0.004 A 
ATOM    103  C   UNL A   1      40.627  22.916  27.728  1.00  0.00     0.000 A 
ATOM    104  C   UNL A   1      42.213  21.206  27.148  1.00  0.00     0.000 A 
ATOM    105  C   UNL A   1      41.111  21.619  27.884  1.00  0.00     0.000 A 
ENDBRANCH  99 100
ENDBRANCH  87  99
ENDBRANCH  84  87
ENDBRANCH  82  83
BRANCH  82 106
ATOM    106  C   UNL A   1      48.364  26.985  26.749  1.00  0.00     0.101 C 
BRANCH 106 107
ATOM    107  S   UNL A   1      49.136  25.524  27.532  1.00  0.00    -0.177 SA
ATOM    108  H   UNL A   1      49.734  24.761  26.579  1.00  0.00     0.102 HD
ENDBRANCH 106 107
ENDBRANCH  82 106
ENDBRANCH  79  82
ENDBRANCH  77  78
BRANCH  77 109
ATOM    109  C   UNL A   1      47.806  29.652  29.683  1.00  0.00     0.191 C 
BRANCH 109 110
ATOM    110  O   UNL A   1      48.339  30.573  28.734  1.00  0.00    -0.394 OA
ATOM    111  H   UNL A   1      48.006  31.464  28.923  1.00  0.00     0.210 HD
ENDBRANCH 109 110
ENDBRANCH  77 109
ENDBRANCH  74  77
ENDBRANCH  72  73
ENDBRANCH   1  72
TORSDOF 28
ENDMDL
MODEL 3
REMARK VINA RESULT:      -9.2      6.745     10.815
REMARK SMILES O=C(NCCCCCCNC(=O)[C@H](CO)NC(=O)[C@H](CS)NC(=O)[C@H](Cc1ccccc1)NC(=O)c1ccc(F)cc1)c1ccc(-c2c3nc(c(-c4ccc(S(=O)(=O)[O-])cc4)c4ccc([nH]4)c(-c4ccc(S(=O)(=O)[O-])cc4)c4nc(c(-c5ccc(S(=O)(=O)[O-])cc5)c5ccc2[nH]5)C=C4)C=C3)cc1
REMARK SMILES IDX 8 1 7 2 6 3 5 4 4 5 3 6 1 7 2 8 43 10 44 11 102 12 45 13
REMARK SMILES IDX 101 14 46 15 47 16 48 17 95 18 49 19 100 20 94 21 96 22
REMARK SMILES IDX 50 23 99 24 93 25 92 26 51 28 81 29 62 30 80 31 63 32 66 33
REMARK SMILES IDX 79 34 97 35 64 36 65 37 78 39 98 40 67 41 52 42 53 43 61 44
REMARK SMILES IDX 54 45 60 46 55 47 56 48 57 49 58 50 59 51 82 52 83 53 91 54
REMARK SMILES IDX 84 55 90 56 85 57 86 58 87 59 88 60 89 61 68 62 69 63 77 64
REMARK SMILES IDX 70 65 76 66 71 67 72 68 73 69 74 70 75 71 9 72 10 73 11 74
REMARK SMILES IDX 12 76 13 77 16 78 17 79 18 81 19 82 22 83 23 84 24 86 25 87
REMARK SMILES IDX 33 88 34 89 35 91 36 92 37 93 42 94 38 95 41 96 39 97 40 98
REMARK SMILES IDX 26 99 27 100 28 101 32 102 29 103 31 104 30 105 20 106
REMARK SMILES IDX 21 107 14 109 15 110
REMARK H PARENT 3 9 96 27 66 38 10 75 16 80 22 85 33 90 21 108 15 111
REMARK Flexibility Score: inf
ROOT
ATOM      1  C   UNL A   1      44.404  23.657  30.217  1.00  0.00     0.021 C 
ENDROOT
BRANCH   1   2
ATOM      2  C   UNL A   1      44.222  23.230  31.673  1.00  0.00     0.002 C 
BRANCH   2   3
ATOM      3  C   UNL A   1      44.980  24.077  32.700  1.00  0.00     0.002 C 
BRANCH   3   4
ATOM      4  C   UNL A   1      45.521  23.309  33.906  1.00  0.00     0.021 C 
BRANCH   4   5
ATOM      5  C   UNL A   1      46.419  24.124  34.823  1.00  0.00     0.116 C 
BRANCH   5   6
ATOM      6  N   UNL A   1      47.822  23.827  34.612  1.00  0.00    -0.352 N 
ATOM      7  O   UNL A   1      49.836  24.049  33.623  1.00  0.00    -0.269 OA
ATOM      8  C   UNL A   1      48.740  24.529  33.870  1.00  0.00     0.251 C 
ATOM      9  H   UNL A   1      48.161  23.017  35.057  1.00  0.00     0.163 HD
BRANCH   8  10
ATOM     10  C   UNL A   1      48.369  25.867  33.364  1.00  0.00     0.039 A 
ATOM     11  C   UNL A   1      47.740  26.002  32.122  1.00  0.00     0.014 A 
ATOM     12  C   UNL A   1      48.658  26.992  34.137  1.00  0.00     0.014 A 
ATOM     13  C   UNL A   1      47.498  27.267  31.605  1.00  0.00     0.010 A 
ATOM     14  C   UNL A   1      48.331  28.260  33.655  1.00  0.00     0.010 A 
ATOM     15  C   UNL A   1      47.756  28.407  32.382  1.00  0.00    -0.014 A 
BRANCH  15  16
ATOM     16  C   UNL A   1      47.306  29.735  31.899  1.00  0.00     0.031 A 
ATOM     17  C   UNL A   1      46.014  30.340  32.365  1.00  0.00     0.074 A 
ATOM     18  C   UNL A   1      48.085  30.380  31.008  1.00  0.00     0.049 A 
ATOM     19  N   UNL A   1      45.467  31.473  32.007  1.00  0.00    -0.248 NA
ATOM     20  C   UNL A   1      45.231  29.581  33.352  1.00  0.00     0.031 C 
ATOM     21  C   UNL A   1      49.357  29.875  30.480  1.00  0.00     0.029 A 
ATOM     22  N   UNL A   1      47.930  31.592  30.389  1.00  0.00    -0.354 N 
ATOM     23  C   UNL A   1      44.265  31.553  32.699  1.00  0.00     0.074 A 
ATOM     24  C   UNL A   1      44.156  30.347  33.492  1.00  0.00     0.031 C 
ATOM     25  C   UNL A   1      49.879  30.783  29.644  1.00  0.00     0.029 A 
ATOM     26  C   UNL A   1      48.948  31.894  29.515  1.00  0.00     0.049 A 
ATOM     27  H   UNL A   1      47.165  32.190  30.554  1.00  0.00     0.167 HD
ATOM     28  C   UNL A   1      43.341  32.544  32.670  1.00  0.00     0.031 A 
ATOM     29  C   UNL A   1      49.100  32.930  28.670  1.00  0.00     0.031 A 
ATOM     30  C   UNL A   1      43.466  33.737  31.871  1.00  0.00     0.049 A 
ATOM     31  C   UNL A   1      48.037  33.988  28.626  1.00  0.00     0.074 A 
ATOM     32  C   UNL A   1      42.611  34.824  31.814  1.00  0.00     0.029 A 
ATOM     33  N   UNL A   1      44.498  33.995  30.982  1.00  0.00    -0.354 N 
ATOM     34  N   UNL A   1      46.940  34.079  29.339  1.00  0.00    -0.248 NA
ATOM     35  C   UNL A   1      48.229  35.082  27.666  1.00  0.00     0.031 C 
ATOM     36  C   UNL A   1      43.088  35.705  30.839  1.00  0.00     0.029 A 
ATOM     37  C   UNL A   1      44.279  35.202  30.338  1.00  0.00     0.049 A 
ATOM     38  H   UNL A   1      45.273  33.407  30.829  1.00  0.00     0.167 HD
ATOM     39  C   UNL A   1      46.317  35.247  28.924  1.00  0.00     0.074 A 
ATOM     40  C   UNL A   1      47.172  35.843  27.917  1.00  0.00     0.031 C 
ATOM     41  C   UNL A   1      45.139  35.779  29.335  1.00  0.00     0.031 A 
BRANCH  28  42
ATOM     42  C   UNL A   1      42.089  32.373  33.491  1.00  0.00    -0.014 A 
ATOM     43  C   UNL A   1      40.964  31.699  32.984  1.00  0.00     0.010 A 
ATOM     44  C   UNL A   1      42.069  32.826  34.824  1.00  0.00     0.010 A 
ATOM     45  C   UNL A   1      39.834  31.507  33.786  1.00  0.00     0.020 A 
ATOM     46  C   UNL A   1      40.952  32.614  35.637  1.00  0.00     0.020 A 
ATOM     47  C   UNL A   1      39.835  31.965  35.107  1.00  0.00     0.054 A 
BRANCH  47  48
ATOM     48  S   UNL A   1      38.369  31.668  36.133  1.00  0.00     0.124 S 
ATOM     49  O   UNL A   1      37.289  32.092  35.244  1.00  0.00    -0.237 OA
ATOM     50  O   UNL A   1      38.442  30.232  36.387  1.00  0.00    -0.237 OA
ATOM     51  O   UNL A   1      38.583  32.517  37.302  1.00  0.00    -0.744 OA
ENDBRANCH  47  48
ENDBRANCH  28  42
BRANCH  29  52
ATOM     52  C   UNL A   1      50.284  32.983  27.770  1.00  0.00    -0.014 A 
ATOM     53  C   UNL A   1      50.248  32.392  26.496  1.00  0.00     0.010 A 
ATOM     54  C   UNL A   1      51.456  33.645  28.185  1.00  0.00     0.010 A 
ATOM     55  C   UNL A   1      51.370  32.441  25.664  1.00  0.00     0.020 A 
ATOM     56  C   UNL A   1      52.567  33.726  27.343  1.00  0.00     0.020 A 
ATOM     57  C   UNL A   1      52.522  33.108  26.093  1.00  0.00     0.054 A 
BRANCH  57  58
ATOM     58  S   UNL A   1      53.953  33.185  24.982  1.00  0.00     0.124 S 
ATOM     59  O   UNL A   1      53.498  34.131  23.968  1.00  0.00    -0.237 OA
ATOM     60  O   UNL A   1      55.013  33.665  25.865  1.00  0.00    -0.237 OA
ATOM     61  O   UNL A   1      54.107  31.805  24.528  1.00  0.00    -0.744 OA
ENDBRANCH  57  58
ENDBRANCH  29  52
BRANCH  41  62
ATOM     62  C   UNL A   1      44.716  37.082  28.715  1.00  0.00    -0.014 A 
ATOM     63  C   UNL A   1      45.074  38.313  29.295  1.00  0.00     0.010 A 
ATOM     64  C   UNL A   1      44.004  37.075  27.502  1.00  0.00     0.010 A 
ATOM     65  C   UNL A   1      44.710  39.513  28.680  1.00  0.00     0.020 A 
ATOM     66  C   UNL A   1      43.666  38.273  26.868  1.00  0.00     0.020 A 
ATOM     67  C   UNL A   1      44.013  39.485  27.468  1.00  0.00     0.054 A 
BRANCH  67  68
ATOM     68  S   UNL A   1      43.613  41.057  26.657  1.00  0.00     0.124 S 
ATOM     69  O   UNL A   1      44.196  40.873  25.331  1.00  0.00    -0.237 OA
ATOM     70  O   UNL A   1      42.154  41.080  26.705  1.00  0.00    -0.237 OA
ATOM     71  O   UNL A   1      44.274  42.057  27.494  1.00  0.00    -0.744 OA
ENDBRANCH  67  68
ENDBRANCH  41  62
ENDBRANCH  15  16
ENDBRANCH   8  10
ENDBRANCH   5   6
ENDBRANCH   4   5
ENDBRANCH   3   4
ENDBRANCH   2   3
ENDBRANCH   1   2
BRANCH   1  72
ATOM     72  C   UNL A   1      43.152  23.538  29.365  1.00  0.00     0.116 C 
BRANCH  72  73
ATOM     73  N   UNL A   1      43.270  22.484  28.387  1.00  0.00    -0.354 N 
ATOM     74  C   UNL A   1      43.779  22.546  27.131  1.00  0.00     0.244 C 
ATOM     75  H   UNL A   1      42.936  21.602  28.668  1.00  0.00     0.163 HD
ATOM     76  O   UNL A   1      43.597  21.572  26.395  1.00  0.00    -0.273 OA
BRANCH  74  77
ATOM     77  C   UNL A   1      44.406  23.840  26.584  1.00  0.00     0.197 C 
BRANCH  77  78
ATOM     78  N   UNL A   1      45.853  23.720  26.733  1.00  0.00    -0.340 N 
ATOM     79  C   UNL A   1      46.803  24.673  26.951  1.00  0.00     0.244 C 
ATOM     80  H   UNL A   1      46.200  22.802  26.665  1.00  0.00     0.164 HD
ATOM     81  O   UNL A   1      47.925  24.251  27.244  1.00  0.00    -0.273 OA
BRANCH  79  82
ATOM     82  C   UNL A   1      46.560  26.147  26.552  1.00  0.00     0.181 C 
BRANCH  82  83
ATOM     83  N   UNL A   1      46.492  27.122  27.657  1.00  0.00    -0.342 N 
ATOM     84  C   UNL A   1      45.642  28.157  27.918  1.00  0.00     0.243 C 
ATOM     85  H   UNL A   1      47.195  27.004  28.336  1.00  0.00     0.164 HD
ATOM     86  O   UNL A   1      46.160  29.162  28.417  1.00  0.00    -0.273 OA
BRANCH  84  87
ATOM     87  C   UNL A   1      44.093  28.082  27.754  1.00  0.00     0.176 C 
BRANCH  87  88
ATOM     88  N   UNL A   1      43.644  27.819  26.379  1.00  0.00    -0.340 N 
ATOM     89  C   UNL A   1      42.399  27.698  25.831  1.00  0.00     0.251 C 
ATOM     90  H   UNL A   1      44.379  27.710  25.732  1.00  0.00     0.164 HD
ATOM     91  O   UNL A   1      42.316  27.440  24.633  1.00  0.00    -0.269 OA
BRANCH  89  92
ATOM     92  C   UNL A   1      41.167  27.874  26.627  1.00  0.00     0.040 A 
ATOM     93  C   UNL A   1      40.536  26.715  27.097  1.00  0.00     0.017 A 
ATOM     94  C   UNL A   1      40.582  29.124  26.859  1.00  0.00     0.017 A 
ATOM     95  C   UNL A   1      39.362  26.814  27.844  1.00  0.00     0.040 A 
ATOM     96  C   UNL A   1      39.414  29.221  27.613  1.00  0.00     0.040 A 
ATOM     97  C   UNL A   1      38.819  28.067  28.105  1.00  0.00     0.123 A 
ATOM     98  F   UNL A   1      37.700  28.165  28.832  1.00  0.00    -0.207 F 
ENDBRANCH  89  92
ENDBRANCH  87  88
BRANCH  87  99
ATOM     99  C   UNL A   1      43.380  27.064  28.691  1.00  0.00     0.070 C 
BRANCH  99 100
ATOM    100  C   UNL A   1      42.956  27.424  30.095  1.00  0.00    -0.045 A 
ATOM    101  C   UNL A   1      41.773  28.139  30.327  1.00  0.00     0.004 A 
ATOM    102  C   UNL A   1      43.656  26.941  31.207  1.00  0.00     0.004 A 
ATOM    103  C   UNL A   1      41.331  28.385  31.632  1.00  0.00     0.000 A 
ATOM    104  C   UNL A   1      43.224  27.192  32.510  1.00  0.00     0.000 A 
ATOM    105  C   UNL A   1      42.061  27.918  32.723  1.00  0.00     0.000 A 
ENDBRANCH  99 100
ENDBRANCH  87  99
ENDBRANCH  84  87
ENDBRANCH  82  83
BRANCH  82 106
ATOM    106  C   UNL A   1      47.573  26.597  25.467  1.00  0.00     0.101 C 
BRANCH 106 107
ATOM    107  S   UNL A   1      46.931  27.855  24.306  1.00  0.00    -0.177 SA
ATOM    108  H   UNL A   1      47.705  28.971  24.372  1.00  0.00     0.102 HD
ENDBRANCH 106 107
ENDBRANCH  82 106
ENDBRANCH  79  82
ENDBRANCH  77  78
BRANCH  77 109
ATOM    109  C   UNL A   1      43.954  24.287  25.186  1.00  0.00     0.191 C 
BRANCH 109 110
ATOM    110  O   UNL A   1      42.543  24.193  25.004  1.00  0.00    -0.394 OA
ATOM    111  H   UNL A   1      42.252  24.871  24.374  1.00  0.00     0.210 HD
ENDBRANCH 109 110
ENDBRANCH  77 109
ENDBRANCH  74  77
ENDBRANCH  72  73
ENDBRANCH   1  72
TORSDOF 28
ENDMDL
