MODEL 1
REMARK VINA RESULT:     -11.1      0.000      0.000
REMARK SMILES C[C@@H](C(=O)NCCCCCCNC(=O)c1ccc(-c2c3nc(c(-c4ccc(S(=O)(=O)[O-])cc4)c4ccc([nH]4)c(-c4ccc(S(=O)(=O)[O-])cc4)c4nc(c(-c5ccc(S(=O)(=O)[O-])cc5)c5ccc2[nH]5)C=C4)C=C3)cc1)c1cc(/C=C/S(C)(=O)=O)cc(C(=O)c2ccccc2)c1
REMARK SMILES IDX 8 1 7 2 6 3 5 4 3 5 4 6 2 8 1 9 75 10 76 11 94 12 77 13
REMARK SMILES IDX 85 14 84 15 78 16 79 17 80 18 81 19 82 20 83 21 86 22 87 23
REMARK SMILES IDX 88 24 89 25 93 26 90 27 92 28 91 29 9 30 10 31 11 32 12 33
REMARK SMILES IDX 13 34 14 36 15 37 16 38 74 39 17 40 73 41 18 42 19 43 20 44
REMARK SMILES IDX 67 45 21 46 72 47 66 48 68 49 22 50 71 51 65 52 64 53 23 55
REMARK SMILES IDX 53 56 34 57 52 58 35 59 38 60 51 61 69 62 36 63 37 64 50 66
REMARK SMILES IDX 70 67 39 68 24 69 25 70 33 71 26 72 32 73 27 74 28 75 29 76
REMARK SMILES IDX 30 77 31 78 54 79 55 80 63 81 56 82 62 83 57 84 58 85 59 86
REMARK SMILES IDX 60 87 61 88 40 89 41 90 49 91 42 92 48 93 43 94 44 95 45 96
REMARK SMILES IDX 46 97 47 98
REMARK H PARENT 5 7 12 35 68 54 38 65
REMARK Flexibility Score: inf
ROOT
ATOM      1  C   UNL A   1      31.134  27.379  25.253  1.00  0.00     0.002 C 
ENDROOT
BRANCH   1   2
ATOM      2  C   UNL A   1      30.541  26.332  24.302  1.00  0.00     0.021 C 
BRANCH   2   3
ATOM      3  C   UNL A   1      31.212  24.961  24.416  1.00  0.00     0.116 C 
BRANCH   3   4
ATOM      4  N   UNL A   1      30.365  24.057  25.166  1.00  0.00    -0.356 N 
ATOM      5  C   UNL A   1      30.705  23.161  26.137  1.00  0.00     0.227 C 
ATOM      6  O   UNL A   1      29.842  22.357  26.494  1.00  0.00    -0.274 OA
ATOM      7  H   UNL A   1      29.407  24.094  24.943  1.00  0.00     0.163 HD
BRANCH   5   8
ATOM      8  C   UNL A   1      32.097  23.235  26.774  1.00  0.00     0.105 C 
ATOM      9  C   UNL A   1      32.576  24.684  26.970  1.00  0.00     0.023 C 
BRANCH   8  10
ATOM     10  C   UNL A   1      33.117  22.395  26.006  1.00  0.00    -0.035 A 
ATOM     11  C   UNL A   1      32.919  21.015  25.841  1.00  0.00     0.012 A 
ATOM     12  C   UNL A   1      34.274  22.966  25.474  1.00  0.00     0.016 A 
ATOM     13  C   UNL A   1      33.881  20.203  25.213  1.00  0.00    -0.024 A 
ATOM     14  C   UNL A   1      35.290  22.174  24.938  1.00  0.00     0.023 A 
ATOM     15  C   UNL A   1      35.080  20.799  24.785  1.00  0.00     0.020 A 
BRANCH  13  16
ATOM     16  C   UNL A   1      33.703  18.748  25.031  1.00  0.00     0.020 C 
ATOM     17  C   UNL A   1      34.628  17.907  24.540  1.00  0.00     0.106 C 
BRANCH  17  18
ATOM     18  S   UNL A   1      34.260  16.222  24.331  1.00  0.00     0.168 S 
ATOM     19  C   UNL A   1      32.672  16.114  25.122  1.00  0.00     0.163 C 
ATOM     20  O   UNL A   1      34.046  15.973  22.916  1.00  0.00    -0.225 OA
ATOM     21  O   UNL A   1      35.174  15.397  25.095  1.00  0.00    -0.225 OA
ENDBRANCH  17  18
ENDBRANCH  13  16
BRANCH  14  22
ATOM     22  C   UNL A   1      36.593  22.793  24.550  1.00  0.00     0.193 C 
ATOM     23  O   UNL A   1      36.733  23.321  23.453  1.00  0.00    -0.289 OA
BRANCH  22  24
ATOM     24  C   UNL A   1      37.734  22.787  25.508  1.00  0.00     0.022 A 
ATOM     25  C   UNL A   1      38.506  21.629  25.620  1.00  0.00     0.012 A 
ATOM     26  C   UNL A   1      38.079  23.936  26.235  1.00  0.00     0.012 A 
ATOM     27  C   UNL A   1      39.651  21.636  26.419  1.00  0.00     0.001 A 
ATOM     28  C   UNL A   1      39.229  23.940  27.026  1.00  0.00     0.001 A 
ATOM     29  C   UNL A   1      40.018  22.792  27.111  1.00  0.00     0.000 A 
ENDBRANCH  22  24
ENDBRANCH  14  22
ENDBRANCH   8  10
ENDBRANCH   5   8
ENDBRANCH   3   4
ENDBRANCH   2   3
ENDBRANCH   1   2
BRANCH   1  30
ATOM     30  C   UNL A   1      32.270  28.210  24.649  1.00  0.00     0.002 C 
BRANCH  30  31
ATOM     31  C   UNL A   1      33.672  27.669  24.936  1.00  0.00     0.021 C 
BRANCH  31  32
ATOM     32  C   UNL A   1      34.322  28.257  26.184  1.00  0.00     0.116 C 
BRANCH  32  33
ATOM     33  N   UNL A   1      33.832  29.598  26.461  1.00  0.00    -0.352 N 
ATOM     34  C   UNL A   1      34.258  30.500  27.402  1.00  0.00     0.251 C 
ATOM     35  H   UNL A   1      33.087  29.901  25.893  1.00  0.00     0.163 HD
ATOM     36  O   UNL A   1      33.574  31.487  27.657  1.00  0.00    -0.269 OA
BRANCH  34  37
ATOM     37  C   UNL A   1      35.533  30.271  28.115  1.00  0.00     0.039 A 
ATOM     38  C   UNL A   1      35.512  29.593  29.334  1.00  0.00     0.014 A 
ATOM     39  C   UNL A   1      36.743  30.736  27.588  1.00  0.00     0.014 A 
ATOM     40  C   UNL A   1      36.711  29.337  30.001  1.00  0.00     0.010 A 
ATOM     41  C   UNL A   1      37.943  30.409  28.214  1.00  0.00     0.010 A 
ATOM     42  C   UNL A   1      37.940  29.715  29.432  1.00  0.00    -0.014 A 
BRANCH  42  43
ATOM     43  C   UNL A   1      39.224  29.391  30.105  1.00  0.00     0.031 A 
ATOM     44  C   UNL A   1      39.663  30.163  31.319  1.00  0.00     0.074 A 
ATOM     45  C   UNL A   1      40.010  28.418  29.601  1.00  0.00     0.049 A 
ATOM     46  N   UNL A   1      40.757  30.034  32.025  1.00  0.00    -0.248 NA
ATOM     47  C   UNL A   1      38.770  31.235  31.791  1.00  0.00     0.031 C 
ATOM     48  C   UNL A   1      39.715  27.625  28.404  1.00  0.00     0.029 A 
ATOM     49  N   UNL A   1      41.216  27.926  30.032  1.00  0.00    -0.354 N 
ATOM     50  C   UNL A   1      40.681  31.000  33.023  1.00  0.00     0.074 A 
ATOM     51  C   UNL A   1      39.470  31.754  32.789  1.00  0.00     0.031 C 
ATOM     52  C   UNL A   1      40.697  26.728  28.217  1.00  0.00     0.029 A 
ATOM     53  C   UNL A   1      41.710  26.908  29.251  1.00  0.00     0.049 A 
ATOM     54  H   UNL A   1      41.684  28.271  30.828  1.00  0.00     0.167 HD
ATOM     55  C   UNL A   1      41.526  31.221  34.059  1.00  0.00     0.031 A 
ATOM     56  C   UNL A   1      42.855  26.204  29.349  1.00  0.00     0.031 A 
ATOM     57  C   UNL A   1      42.734  30.472  34.287  1.00  0.00     0.049 A 
ATOM     58  C   UNL A   1      43.794  26.491  30.489  1.00  0.00     0.074 A 
ATOM     59  C   UNL A   1      43.644  30.602  35.321  1.00  0.00     0.029 A 
ATOM     60  N   UNL A   1      43.199  29.451  33.472  1.00  0.00    -0.354 N 
ATOM     61  N   UNL A   1      43.673  27.372  31.455  1.00  0.00    -0.248 NA
ATOM     62  C   UNL A   1      45.015  25.680  30.563  1.00  0.00     0.031 C 
ATOM     63  C   UNL A   1      44.688  29.697  35.102  1.00  0.00     0.029 A 
ATOM     64  C   UNL A   1      44.393  28.955  33.969  1.00  0.00     0.049 A 
ATOM     65  H   UNL A   1      42.747  29.125  32.660  1.00  0.00     0.167 HD
ATOM     66  C   UNL A   1      44.789  27.197  32.266  1.00  0.00     0.074 A 
ATOM     67  C   UNL A   1      45.558  26.114  31.691  1.00  0.00     0.031 C 
ATOM     68  C   UNL A   1      45.146  27.874  33.386  1.00  0.00     0.031 A 
BRANCH  55  69
ATOM     69  C   UNL A   1      41.166  32.314  35.032  1.00  0.00    -0.014 A 
ATOM     70  C   UNL A   1      40.344  32.046  36.143  1.00  0.00     0.010 A 
ATOM     71  C   UNL A   1      41.693  33.607  34.870  1.00  0.00     0.010 A 
ATOM     72  C   UNL A   1      40.028  33.060  37.052  1.00  0.00     0.020 A 
ATOM     73  C   UNL A   1      41.405  34.617  35.794  1.00  0.00     0.020 A 
ATOM     74  C   UNL A   1      40.562  34.338  36.872  1.00  0.00     0.054 A 
BRANCH  74  75
ATOM     75  S   UNL A   1      40.161  35.623  38.088  1.00  0.00     0.124 S 
ATOM     76  O   UNL A   1      41.422  35.752  38.815  1.00  0.00    -0.237 OA
ATOM     77  O   UNL A   1      39.803  36.760  37.244  1.00  0.00    -0.237 OA
ATOM     78  O   UNL A   1      39.059  35.046  38.853  1.00  0.00    -0.744 OA
ENDBRANCH  74  75
ENDBRANCH  55  69
BRANCH  56  79
ATOM     79  C   UNL A   1      43.181  25.160  28.336  1.00  0.00    -0.014 A 
ATOM     80  C   UNL A   1      43.563  25.515  27.029  1.00  0.00     0.010 A 
ATOM     81  C   UNL A   1      43.093  23.798  28.674  1.00  0.00     0.010 A 
ATOM     82  C   UNL A   1      43.810  24.527  26.071  1.00  0.00     0.020 A 
ATOM     83  C   UNL A   1      43.375  22.807  27.729  1.00  0.00     0.020 A 
ATOM     84  C   UNL A   1      43.713  23.179  26.427  1.00  0.00     0.054 A 
BRANCH  84  85
ATOM     85  S   UNL A   1      44.056  21.913  25.175  1.00  0.00     0.124 S 
ATOM     86  O   UNL A   1      43.887  22.660  23.934  1.00  0.00    -0.237 OA
ATOM     87  O   UNL A   1      45.426  21.518  25.496  1.00  0.00    -0.237 OA
ATOM     88  O   UNL A   1      43.044  20.892  25.435  1.00  0.00    -0.744 OA
ENDBRANCH  84  85
ENDBRANCH  56  79
BRANCH  68  89
ATOM     89  C   UNL A   1      46.406  27.434  34.087  1.00  0.00    -0.014 A 
ATOM     90  C   UNL A   1      46.443  26.265  34.867  1.00  0.00     0.010 A 
ATOM     91  C   UNL A   1      47.584  28.189  33.931  1.00  0.00     0.010 A 
ATOM     92  C   UNL A   1      47.621  25.883  35.513  1.00  0.00     0.020 A 
ATOM     93  C   UNL A   1      48.772  27.791  34.547  1.00  0.00     0.020 A 
ATOM     94  C   UNL A   1      48.778  26.649  35.349  1.00  0.00     0.054 A 
BRANCH  94  95
ATOM     95  S   UNL A   1      50.302  26.114  36.175  1.00  0.00     0.124 S 
ATOM     96  O   UNL A   1      49.978  26.333  37.582  1.00  0.00    -0.237 OA
ATOM     97  O   UNL A   1      50.414  24.717  35.765  1.00  0.00    -0.237 OA
ATOM     98  O   UNL A   1      51.325  27.002  35.626  1.00  0.00    -0.744 OA
ENDBRANCH  94  95
ENDBRANCH  68  89
ENDBRANCH  42  43
ENDBRANCH  34  37
ENDBRANCH  32  33
ENDBRANCH  31  32
ENDBRANCH  30  31
ENDBRANCH   1  30
TORSDOF 21
ENDMDL
MODEL 2
REMARK VINA RESULT:     -10.9      0.508      7.883
REMARK SMILES C[C@@H](C(=O)NCCCCCCNC(=O)c1ccc(-c2c3nc(c(-c4ccc(S(=O)(=O)[O-])cc4)c4ccc([nH]4)c(-c4ccc(S(=O)(=O)[O-])cc4)c4nc(c(-c5ccc(S(=O)(=O)[O-])cc5)c5ccc2[nH]5)C=C4)C=C3)cc1)c1cc(/C=C/S(C)(=O)=O)cc(C(=O)c2ccccc2)c1
REMARK SMILES IDX 8 1 7 2 6 3 5 4 3 5 4 6 2 8 1 9 75 10 76 11 94 12 77 13
REMARK SMILES IDX 85 14 84 15 78 16 79 17 80 18 81 19 82 20 83 21 86 22 87 23
REMARK SMILES IDX 88 24 89 25 93 26 90 27 92 28 91 29 9 30 10 31 11 32 12 33
REMARK SMILES IDX 13 34 14 36 15 37 16 38 74 39 17 40 73 41 18 42 19 43 20 44
REMARK SMILES IDX 67 45 21 46 72 47 66 48 68 49 22 50 71 51 65 52 64 53 23 55
REMARK SMILES IDX 53 56 34 57 52 58 35 59 38 60 51 61 69 62 36 63 37 64 50 66
REMARK SMILES IDX 70 67 39 68 24 69 25 70 33 71 26 72 32 73 27 74 28 75 29 76
REMARK SMILES IDX 30 77 31 78 54 79 55 80 63 81 56 82 62 83 57 84 58 85 59 86
REMARK SMILES IDX 60 87 61 88 40 89 41 90 49 91 42 92 48 93 43 94 44 95 45 96
REMARK SMILES IDX 46 97 47 98
REMARK H PARENT 5 7 12 35 68 54 38 65
REMARK Flexibility Score: inf
ROOT
ATOM      1  C   UNL A   1      31.129  27.414  25.872  1.00  0.00     0.002 C 
ENDROOT
BRANCH   1   2
ATOM      2  C   UNL A   1      30.376  26.514  24.884  1.00  0.00     0.021 C 
BRANCH   2   3
ATOM      3  C   UNL A   1      31.065  25.168  24.645  1.00  0.00     0.116 C 
BRANCH   3   4
ATOM      4  N   UNL A   1      30.287  24.102  25.243  1.00  0.00    -0.356 N 
ATOM      5  C   UNL A   1      30.694  23.095  26.067  1.00  0.00     0.227 C 
ATOM      6  O   UNL A   1      29.891  22.187  26.292  1.00  0.00    -0.274 OA
ATOM      7  H   UNL A   1      29.328  24.106  25.023  1.00  0.00     0.163 HD
BRANCH   5   8
ATOM      8  C   UNL A   1      32.082  23.168  26.716  1.00  0.00     0.105 C 
ATOM      9  C   UNL A   1      32.555  24.616  26.926  1.00  0.00     0.023 C 
BRANCH   8  10
ATOM     10  C   UNL A   1      33.109  22.336  25.951  1.00  0.00    -0.035 A 
ATOM     11  C   UNL A   1      32.924  20.954  25.788  1.00  0.00     0.012 A 
ATOM     12  C   UNL A   1      34.261  22.916  25.417  1.00  0.00     0.016 A 
ATOM     13  C   UNL A   1      33.893  20.149  25.163  1.00  0.00    -0.024 A 
ATOM     14  C   UNL A   1      35.284  22.133  24.883  1.00  0.00     0.023 A 
ATOM     15  C   UNL A   1      35.088  20.755  24.734  1.00  0.00     0.020 A 
BRANCH  13  16
ATOM     16  C   UNL A   1      33.730  18.692  24.985  1.00  0.00     0.020 C 
ATOM     17  C   UNL A   1      34.678  17.851  24.541  1.00  0.00     0.106 C 
BRANCH  17  18
ATOM     18  S   UNL A   1      34.326  16.162  24.329  1.00  0.00     0.168 S 
ATOM     19  C   UNL A   1      32.722  16.046  25.086  1.00  0.00     0.163 C 
ATOM     20  O   UNL A   1      34.145  15.908  22.911  1.00  0.00    -0.225 OA
ATOM     21  O   UNL A   1      35.229  15.346  25.115  1.00  0.00    -0.225 OA
ENDBRANCH  17  18
ENDBRANCH  13  16
BRANCH  14  22
ATOM     22  C   UNL A   1      36.582  22.762  24.494  1.00  0.00     0.193 C 
ATOM     23  O   UNL A   1      36.755  23.186  23.357  1.00  0.00    -0.289 OA
BRANCH  22  24
ATOM     24  C   UNL A   1      37.674  22.896  25.497  1.00  0.00     0.022 A 
ATOM     25  C   UNL A   1      38.552  21.825  25.676  1.00  0.00     0.012 A 
ATOM     26  C   UNL A   1      37.872  24.092  26.202  1.00  0.00     0.012 A 
ATOM     27  C   UNL A   1      39.654  21.967  26.520  1.00  0.00     0.001 A 
ATOM     28  C   UNL A   1      38.980  24.232  27.039  1.00  0.00     0.001 A 
ATOM     29  C   UNL A   1      39.875  23.172  27.190  1.00  0.00     0.000 A 
ENDBRANCH  22  24
ENDBRANCH  14  22
ENDBRANCH   8  10
ENDBRANCH   5   8
ENDBRANCH   3   4
ENDBRANCH   2   3
ENDBRANCH   1   2
BRANCH   1  30
ATOM     30  C   UNL A   1      31.973  28.509  25.214  1.00  0.00     0.002 C 
BRANCH  30  31
ATOM     31  C   UNL A   1      33.458  28.166  25.075  1.00  0.00     0.021 C 
BRANCH  31  32
ATOM     32  C   UNL A   1      34.326  28.692  26.213  1.00  0.00     0.116 C 
BRANCH  32  33
ATOM     33  N   UNL A   1      33.921  30.027  26.622  1.00  0.00    -0.352 N 
ATOM     34  C   UNL A   1      34.417  30.812  27.631  1.00  0.00     0.251 C 
ATOM     35  H   UNL A   1      33.186  30.423  26.101  1.00  0.00     0.163 HD
ATOM     36  O   UNL A   1      33.797  31.809  27.990  1.00  0.00    -0.269 OA
BRANCH  34  37
ATOM     37  C   UNL A   1      35.689  30.447  28.290  1.00  0.00     0.039 A 
ATOM     38  C   UNL A   1      36.877  31.010  27.822  1.00  0.00     0.014 A 
ATOM     39  C   UNL A   1      35.711  29.542  29.357  1.00  0.00     0.014 A 
ATOM     40  C   UNL A   1      38.082  30.703  28.456  1.00  0.00     0.010 A 
ATOM     41  C   UNL A   1      36.901  29.302  30.038  1.00  0.00     0.010 A 
ATOM     42  C   UNL A   1      38.101  29.871  29.589  1.00  0.00    -0.014 A 
BRANCH  42  43
ATOM     43  C   UNL A   1      39.370  29.591  30.308  1.00  0.00     0.031 A 
ATOM     44  C   UNL A   1      40.280  28.485  29.844  1.00  0.00     0.074 A 
ATOM     45  C   UNL A   1      39.688  30.315  31.400  1.00  0.00     0.049 A 
ATOM     46  N   UNL A   1      41.415  28.084  30.355  1.00  0.00    -0.248 NA
ATOM     47  C   UNL A   1      39.849  27.714  28.665  1.00  0.00     0.031 C 
ATOM     48  C   UNL A   1      38.870  31.385  31.975  1.00  0.00     0.029 A 
ATOM     49  N   UNL A   1      40.786  30.263  32.221  1.00  0.00    -0.354 N 
ATOM     50  C   UNL A   1      41.835  27.022  29.562  1.00  0.00     0.074 A 
ATOM     51  C   UNL A   1      40.800  26.794  28.578  1.00  0.00     0.031 C 
ATOM     52  C   UNL A   1      39.509  31.908  33.034  1.00  0.00     0.029 A 
ATOM     53  C   UNL A   1      40.759  31.185  33.242  1.00  0.00     0.049 A 
ATOM     54  H   UNL A   1      41.525  29.625  32.092  1.00  0.00     0.167 HD
ATOM     55  C   UNL A   1      42.991  26.319  29.624  1.00  0.00     0.031 A 
ATOM     56  C   UNL A   1      41.635  31.417  34.238  1.00  0.00     0.031 A 
ATOM     57  C   UNL A   1      44.019  26.544  30.607  1.00  0.00     0.049 A 
ATOM     58  C   UNL A   1      42.897  30.599  34.306  1.00  0.00     0.074 A 
ATOM     59  C   UNL A   1      45.237  25.902  30.739  1.00  0.00     0.029 A 
ATOM     60  N   UNL A   1      43.951  27.486  31.622  1.00  0.00    -0.354 N 
ATOM     61  N   UNL A   1      43.300  29.638  33.509  1.00  0.00    -0.248 NA
ATOM     62  C   UNL A   1      43.829  30.908  35.398  1.00  0.00     0.031 C 
ATOM     63  C   UNL A   1      45.883  26.417  31.868  1.00  0.00     0.029 A 
ATOM     64  C   UNL A   1      45.097  27.428  32.397  1.00  0.00     0.049 A 
ATOM     65  H   UNL A   1      43.200  28.104  31.771  1.00  0.00     0.167 HD
ATOM     66  C   UNL A   1      44.547  29.250  33.988  1.00  0.00     0.074 A 
ATOM     67  C   UNL A   1      44.839  30.095  35.126  1.00  0.00     0.031 C 
ATOM     68  C   UNL A   1      45.375  28.279  33.528  1.00  0.00     0.031 A 
BRANCH  55  69
ATOM     69  C   UNL A   1      43.211  25.243  28.591  1.00  0.00    -0.014 A 
ATOM     70  C   UNL A   1      43.746  25.557  27.328  1.00  0.00     0.010 A 
ATOM     71  C   UNL A   1      42.931  23.900  28.899  1.00  0.00     0.010 A 
ATOM     72  C   UNL A   1      43.964  24.553  26.381  1.00  0.00     0.020 A 
ATOM     73  C   UNL A   1      43.177  22.888  27.965  1.00  0.00     0.020 A 
ATOM     74  C   UNL A   1      43.679  23.224  26.706  1.00  0.00     0.054 A 
BRANCH  74  75
ATOM     75  S   UNL A   1      44.005  21.940  25.468  1.00  0.00     0.124 S 
ATOM     76  O   UNL A   1      43.264  20.804  26.011  1.00  0.00    -0.237 OA
ATOM     77  O   UNL A   1      43.453  22.525  24.249  1.00  0.00    -0.237 OA
ATOM     78  O   UNL A   1      45.458  21.800  25.486  1.00  0.00    -0.744 OA
ENDBRANCH  74  75
ENDBRANCH  55  69
BRANCH  56  79
ATOM     79  C   UNL A   1      41.350  32.467  35.257  1.00  0.00    -0.014 A 
ATOM     80  C   UNL A   1      40.638  32.161  36.431  1.00  0.00     0.010 A 
ATOM     81  C   UNL A   1      41.779  33.790  35.044  1.00  0.00     0.010 A 
ATOM     82  C   UNL A   1      40.327  33.166  37.352  1.00  0.00     0.020 A 
ATOM     83  C   UNL A   1      41.501  34.790  35.980  1.00  0.00     0.020 A 
ATOM     84  C   UNL A   1      40.758  34.475  37.119  1.00  0.00     0.054 A 
BRANCH  84  85
ATOM     85  S   UNL A   1      40.360  35.760  38.336  1.00  0.00     0.124 S 
ATOM     86  O   UNL A   1      41.668  36.041  38.918  1.00  0.00    -0.237 OA
ATOM     87  O   UNL A   1      39.797  36.819  37.501  1.00  0.00    -0.237 OA
ATOM     88  O   UNL A   1      39.405  35.104  39.226  1.00  0.00    -0.744 OA
ENDBRANCH  84  85
ENDBRANCH  56  79
BRANCH  68  89
ATOM     89  C   UNL A   1      46.697  28.107  34.231  1.00  0.00    -0.014 A 
ATOM     90  C   UNL A   1      46.871  27.145  35.241  1.00  0.00     0.010 A 
ATOM     91  C   UNL A   1      47.794  28.901  33.847  1.00  0.00     0.010 A 
ATOM     92  C   UNL A   1      48.105  27.010  35.883  1.00  0.00     0.020 A 
ATOM     93  C   UNL A   1      49.037  28.745  34.461  1.00  0.00     0.020 A 
ATOM     94  C   UNL A   1      49.180  27.812  35.490  1.00  0.00     0.054 A 
BRANCH  94  95
ATOM     95  S   UNL A   1      50.778  27.595  36.319  1.00  0.00     0.124 S 
ATOM     96  O   UNL A   1      50.965  26.149  36.246  1.00  0.00    -0.237 OA
ATOM     97  O   UNL A   1      51.680  28.389  35.489  1.00  0.00    -0.237 OA
ATOM     98  O   UNL A   1      50.547  28.126  37.661  1.00  0.00    -0.744 OA
ENDBRANCH  94  95
ENDBRANCH  68  89
ENDBRANCH  42  43
ENDBRANCH  34  37
ENDBRANCH  32  33
ENDBRANCH  31  32
ENDBRANCH  30  31
ENDBRANCH   1  30
TORSDOF 21
ENDMDL
MODEL 3
REMARK VINA RESULT:     -10.8      3.600      9.956
REMARK SMILES C[C@@H](C(=O)NCCCCCCNC(=O)c1ccc(-c2c3nc(c(-c4ccc(S(=O)(=O)[O-])cc4)c4ccc([nH]4)c(-c4ccc(S(=O)(=O)[O-])cc4)c4nc(c(-c5ccc(S(=O)(=O)[O-])cc5)c5ccc2[nH]5)C=C4)C=C3)cc1)c1cc(/C=C/S(C)(=O)=O)cc(C(=O)c2ccccc2)c1
REMARK SMILES IDX 8 1 7 2 6 3 5 4 3 5 4 6 2 8 1 9 75 10 76 11 94 12 77 13
REMARK SMILES IDX 85 14 84 15 78 16 79 17 80 18 81 19 82 20 83 21 86 22 87 23
REMARK SMILES IDX 88 24 89 25 93 26 90 27 92 28 91 29 9 30 10 31 11 32 12 33
REMARK SMILES IDX 13 34 14 36 15 37 16 38 74 39 17 40 73 41 18 42 19 43 20 44
REMARK SMILES IDX 67 45 21 46 72 47 66 48 68 49 22 50 71 51 65 52 64 53 23 55
REMARK SMILES IDX 53 56 34 57 52 58 35 59 38 60 51 61 69 62 36 63 37 64 50 66
REMARK SMILES IDX 70 67 39 68 24 69 25 70 33 71 26 72 32 73 27 74 28 75 29 76
REMARK SMILES IDX 30 77 31 78 54 79 55 80 63 81 56 82 62 83 57 84 58 85 59 86
REMARK SMILES IDX 60 87 61 88 40 89 41 90 49 91 42 92 48 93 43 94 44 95 45 96
REMARK SMILES IDX 46 97 47 98
REMARK H PARENT 5 7 12 35 68 54 38 65
REMARK Flexibility Score: inf
ROOT
ATOM      1  C   UNL A   1      35.298  22.447  25.478  1.00  0.00     0.002 C 
ENDROOT
BRANCH   1   2
ATOM      2  C   UNL A   1      35.148  21.864  24.068  1.00  0.00     0.021 C 
BRANCH   2   3
ATOM      3  C   UNL A   1      34.164  22.642  23.192  1.00  0.00     0.116 C 
BRANCH   3   4
ATOM      4  N   UNL A   1      32.871  22.710  23.842  1.00  0.00    -0.356 N 
ATOM      5  C   UNL A   1      32.019  23.769  23.960  1.00  0.00     0.227 C 
ATOM      6  O   UNL A   1      31.063  23.644  24.728  1.00  0.00    -0.274 OA
ATOM      7  H   UNL A   1      32.563  21.873  24.256  1.00  0.00     0.163 HD
BRANCH   5   8
ATOM      8  C   UNL A   1      32.248  25.018  23.101  1.00  0.00     0.105 C 
ATOM      9  C   UNL A   1      33.713  25.162  22.654  1.00  0.00     0.023 C 
BRANCH   8  10
ATOM     10  C   UNL A   1      31.734  26.281  23.790  1.00  0.00    -0.035 A 
ATOM     11  C   UNL A   1      30.941  27.201  23.086  1.00  0.00     0.012 A 
ATOM     12  C   UNL A   1      32.056  26.565  25.119  1.00  0.00     0.016 A 
ATOM     13  C   UNL A   1      30.525  28.412  23.668  1.00  0.00    -0.024 A 
ATOM     14  C   UNL A   1      31.745  27.800  25.689  1.00  0.00     0.023 A 
ATOM     15  C   UNL A   1      30.959  28.709  24.972  1.00  0.00     0.020 A 
BRANCH  13  16
ATOM     16  C   UNL A   1      29.697  29.402  22.950  1.00  0.00     0.020 C 
ATOM     17  C   UNL A   1      28.980  30.381  23.525  1.00  0.00     0.106 C 
BRANCH  17  18
ATOM     18  S   UNL A   1      28.005  31.443  22.555  1.00  0.00     0.168 S 
ATOM     19  C   UNL A   1      29.093  32.836  22.368  1.00  0.00     0.163 C 
ATOM     20  O   UNL A   1      27.850  30.847  21.240  1.00  0.00    -0.225 OA
ATOM     21  O   UNL A   1      26.849  31.901  23.298  1.00  0.00    -0.225 OA
ENDBRANCH  17  18
ENDBRANCH  13  16
BRANCH  14  22
ATOM     22  C   UNL A   1      32.266  28.148  27.045  1.00  0.00     0.193 C 
ATOM     23  O   UNL A   1      31.840  27.580  28.044  1.00  0.00    -0.289 OA
BRANCH  22  24
ATOM     24  C   UNL A   1      33.328  29.183  27.191  1.00  0.00     0.022 A 
ATOM     25  C   UNL A   1      32.944  30.510  27.394  1.00  0.00     0.012 A 
ATOM     26  C   UNL A   1      34.687  28.835  27.197  1.00  0.00     0.012 A 
ATOM     27  C   UNL A   1      33.914  31.479  27.654  1.00  0.00     0.001 A 
ATOM     28  C   UNL A   1      35.652  29.807  27.466  1.00  0.00     0.001 A 
ATOM     29  C   UNL A   1      35.264  31.126  27.702  1.00  0.00     0.000 A 
ENDBRANCH  22  24
ENDBRANCH  14  22
ENDBRANCH   8  10
ENDBRANCH   5   8
ENDBRANCH   3   4
ENDBRANCH   2   3
ENDBRANCH   1   2
BRANCH   1  30
ATOM     30  C   UNL A   1      36.268  23.628  25.574  1.00  0.00     0.002 C 
BRANCH  30  31
ATOM     31  C   UNL A   1      37.732  23.230  25.778  1.00  0.00     0.021 C 
BRANCH  31  32
ATOM     32  C   UNL A   1      38.571  24.291  26.483  1.00  0.00     0.116 C 
BRANCH  32  33
ATOM     33  N   UNL A   1      39.983  24.158  26.159  1.00  0.00    -0.352 N 
ATOM     34  C   UNL A   1      41.034  24.960  26.521  1.00  0.00     0.251 C 
ATOM     35  H   UNL A   1      40.217  23.383  25.598  1.00  0.00     0.163 HD
ATOM     36  O   UNL A   1      42.119  24.837  25.959  1.00  0.00    -0.269 OA
BRANCH  34  37
ATOM     37  C   UNL A   1      40.852  25.979  27.577  1.00  0.00     0.039 A 
ATOM     38  C   UNL A   1      39.830  25.806  28.512  1.00  0.00     0.014 A 
ATOM     39  C   UNL A   1      41.679  27.105  27.639  1.00  0.00     0.014 A 
ATOM     40  C   UNL A   1      39.668  26.740  29.537  1.00  0.00     0.010 A 
ATOM     41  C   UNL A   1      41.568  27.990  28.708  1.00  0.00     0.010 A 
ATOM     42  C   UNL A   1      40.555  27.823  29.662  1.00  0.00    -0.014 A 
BRANCH  42  43
ATOM     43  C   UNL A   1      40.428  28.785  30.787  1.00  0.00     0.031 A 
ATOM     44  C   UNL A   1      41.300  28.650  32.007  1.00  0.00     0.074 A 
ATOM     45  C   UNL A   1      39.505  29.765  30.721  1.00  0.00     0.049 A 
ATOM     46  N   UNL A   1      41.318  29.382  33.091  1.00  0.00    -0.248 NA
ATOM     47  C   UNL A   1      42.261  27.534  32.023  1.00  0.00     0.031 C 
ATOM     48  C   UNL A   1      38.571  29.977  29.612  1.00  0.00     0.029 A 
ATOM     49  N   UNL A   1      39.199  30.770  31.604  1.00  0.00    -0.354 N 
ATOM     50  C   UNL A   1      42.290  28.822  33.911  1.00  0.00     0.074 A 
ATOM     51  C   UNL A   1      42.790  27.647  33.232  1.00  0.00     0.031 C 
ATOM     52  C   UNL A   1      37.821  31.061  29.867  1.00  0.00     0.029 A 
ATOM     53  C   UNL A   1      38.187  31.596  31.174  1.00  0.00     0.049 A 
ATOM     54  H   UNL A   1      39.661  30.888  32.466  1.00  0.00     0.167 HD
ATOM     55  C   UNL A   1      42.750  29.260  35.108  1.00  0.00     0.031 A 
ATOM     56  C   UNL A   1      37.611  32.660  31.767  1.00  0.00     0.031 A 
ATOM     57  C   UNL A   1      42.248  30.428  35.784  1.00  0.00     0.049 A 
ATOM     58  C   UNL A   1      38.116  33.108  33.112  1.00  0.00     0.074 A 
ATOM     59  C   UNL A   1      42.663  30.969  36.988  1.00  0.00     0.029 A 
ATOM     60  N   UNL A   1      41.223  31.236  35.315  1.00  0.00    -0.354 N 
ATOM     61  N   UNL A   1      39.078  32.596  33.844  1.00  0.00    -0.248 NA
ATOM     62  C   UNL A   1      37.470  34.287  33.704  1.00  0.00     0.031 C 
ATOM     63  C   UNL A   1      41.853  32.073  37.274  1.00  0.00     0.029 A 
ATOM     64  C   UNL A   1      40.979  32.260  36.215  1.00  0.00     0.049 A 
ATOM     65  H   UNL A   1      40.740  31.101  34.468  1.00  0.00     0.167 HD
ATOM     66  C   UNL A   1      39.170  33.410  34.968  1.00  0.00     0.074 A 
ATOM     67  C   UNL A   1      38.185  34.458  34.807  1.00  0.00     0.031 C 
ATOM     68  C   UNL A   1      39.995  33.298  36.039  1.00  0.00     0.031 A 
BRANCH  55  69
ATOM     69  C   UNL A   1      43.861  28.477  35.759  1.00  0.00    -0.014 A 
ATOM     70  C   UNL A   1      43.584  27.538  36.770  1.00  0.00     0.010 A 
ATOM     71  C   UNL A   1      45.188  28.639  35.324  1.00  0.00     0.010 A 
ATOM     72  C   UNL A   1      44.616  26.803  37.358  1.00  0.00     0.020 A 
ATOM     73  C   UNL A   1      46.221  27.883  35.888  1.00  0.00     0.020 A 
ATOM     74  C   UNL A   1      45.928  26.980  36.912  1.00  0.00     0.054 A 
BRANCH  74  75
ATOM     75  S   UNL A   1      47.242  25.985  37.671  1.00  0.00     0.124 S 
ATOM     76  O   UNL A   1      46.853  25.998  39.079  1.00  0.00    -0.237 OA
ATOM     77  O   UNL A   1      47.100  24.700  36.992  1.00  0.00    -0.237 OA
ATOM     78  O   UNL A   1      48.463  26.722  37.356  1.00  0.00    -0.744 OA
ENDBRANCH  74  75
ENDBRANCH  55  69
BRANCH  56  79
ATOM     79  C   UNL A   1      36.488  33.375  31.097  1.00  0.00    -0.014 A 
ATOM     80  C   UNL A   1      36.663  33.979  29.838  1.00  0.00     0.010 A 
ATOM     81  C   UNL A   1      35.236  33.471  31.731  1.00  0.00     0.010 A 
ATOM     82  C   UNL A   1      35.620  34.696  29.246  1.00  0.00     0.020 A 
ATOM     83  C   UNL A   1      34.180  34.157  31.125  1.00  0.00     0.020 A 
ATOM     84  C   UNL A   1      34.385  34.783  29.895  1.00  0.00     0.054 A 
BRANCH  84  85
ATOM     85  S   UNL A   1      33.038  35.702  29.101  1.00  0.00     0.124 S 
ATOM     86  O   UNL A   1      32.415  34.674  28.275  1.00  0.00    -0.237 OA
ATOM     87  O   UNL A   1      32.253  36.160  30.245  1.00  0.00    -0.237 OA
ATOM     88  O   UNL A   1      33.732  36.759  28.367  1.00  0.00    -0.744 OA
ENDBRANCH  84  85
ENDBRANCH  56  79
BRANCH  68  89
ATOM     89  C   UNL A   1      39.895  34.362  37.102  1.00  0.00    -0.014 A 
ATOM     90  C   UNL A   1      40.441  35.644  36.913  1.00  0.00     0.010 A 
ATOM     91  C   UNL A   1      39.210  34.081  38.300  1.00  0.00     0.010 A 
ATOM     92  C   UNL A   1      40.341  36.610  37.917  1.00  0.00     0.020 A 
ATOM     93  C   UNL A   1      39.078  35.055  39.291  1.00  0.00     0.020 A 
ATOM     94  C   UNL A   1      39.661  36.309  39.100  1.00  0.00     0.054 A 
BRANCH  94  95
ATOM     95  S   UNL A   1      39.521  37.592  40.375  1.00  0.00     0.124 S 
ATOM     96  O   UNL A   1      38.760  38.627  39.682  1.00  0.00    -0.237 OA
ATOM     97  O   UNL A   1      38.811  36.900  41.447  1.00  0.00    -0.237 OA
ATOM     98  O   UNL A   1      40.910  37.936  40.675  1.00  0.00    -0.744 OA
ENDBRANCH  94  95
ENDBRANCH  68  89
ENDBRANCH  42  43
ENDBRANCH  34  37
ENDBRANCH  32  33
ENDBRANCH  31  32
ENDBRANCH  30  31
ENDBRANCH   1  30
TORSDOF 21
ENDMDL
