MODEL 1
REMARK VINA RESULT:     -12.2      0.000      0.000
REMARK SMILES O=C(NCCCCCCNC(=O)c1nn(Cc2ccc(F)cc2)c2c1CN(C(=O)[C@H]1CC1(F)F)CC2)c1ccc(-c2c3nc(c(-c4ccc(S(=O)(=O)[O-])cc4)c4ccc([nH]4)c(-c4ccc(S(=O)(=O)[O-])cc4)c4nc(c(-c5ccc(S(=O)(=O)[O-])cc5)c5ccc2[nH]5)C=C4)C=C3)cc1
REMARK SMILES IDX 6 1 5 2 4 3 3 4 1 5 2 6 37 8 38 9 96 10 39 11 95 12 40 13
REMARK SMILES IDX 41 14 42 15 89 16 43 17 94 18 88 19 90 20 44 21 93 22 87 23
REMARK SMILES IDX 86 24 45 26 75 27 56 28 74 29 57 30 60 31 73 32 91 33 58 34
REMARK SMILES IDX 59 35 72 37 92 38 61 39 46 40 47 41 55 42 48 43 54 44 49 45
REMARK SMILES IDX 50 46 51 47 52 48 53 49 76 50 77 51 85 52 78 53 84 54 79 55
REMARK SMILES IDX 80 56 81 57 82 58 83 59 62 60 63 61 71 62 64 63 70 64 65 65
REMARK SMILES IDX 66 66 67 67 68 68 69 69 7 70 8 71 9 72 10 73 11 74 12 76
REMARK SMILES IDX 13 77 14 78 25 79 15 80 24 81 26 82 36 83 27 84 35 85 16 86
REMARK SMILES IDX 17 87 18 88 23 89 19 90 22 91 20 92 21 93 28 94 29 95 30 96
REMARK SMILES IDX 31 97 32 98 33 99 34 100
REMARK H PARENT 3 7 90 25 60 36 10 75
REMARK Flexibility Score: inf
ROOT
ATOM      1  C   UNL A   1      35.658  32.456  27.671  1.00  0.00     0.002 C 
ENDROOT
BRANCH   1   2
ATOM      2  C   UNL A   1      35.140  33.837  28.099  1.00  0.00     0.021 C 
BRANCH   2   3
ATOM      3  C   UNL A   1      33.822  33.821  28.873  1.00  0.00     0.116 C 
BRANCH   3   4
ATOM      4  N   UNL A   1      33.950  34.160  30.276  1.00  0.00    -0.352 N 
ATOM      5  O   UNL A   1      34.715  34.529  32.312  1.00  0.00    -0.269 OA
ATOM      6  C   UNL A   1      34.891  33.935  31.244  1.00  0.00     0.251 C 
ATOM      7  H   UNL A   1      33.180  34.672  30.611  1.00  0.00     0.163 HD
BRANCH   6   8
ATOM      8  C   UNL A   1      36.037  32.990  31.134  1.00  0.00     0.039 A 
ATOM      9  C   UNL A   1      35.974  31.599  31.223  1.00  0.00     0.014 A 
ATOM     10  C   UNL A   1      37.296  33.590  30.928  1.00  0.00     0.014 A 
ATOM     11  C   UNL A   1      37.145  30.837  31.199  1.00  0.00     0.010 A 
ATOM     12  C   UNL A   1      38.464  32.835  30.895  1.00  0.00     0.010 A 
ATOM     13  C   UNL A   1      38.392  31.458  31.068  1.00  0.00    -0.014 A 
BRANCH  13  14
ATOM     14  C   UNL A   1      39.588  30.624  30.921  1.00  0.00     0.031 A 
ATOM     15  C   UNL A   1      40.327  30.392  32.200  1.00  0.00     0.074 A 
ATOM     16  C   UNL A   1      39.927  29.972  29.787  1.00  0.00     0.049 A 
ATOM     17  N   UNL A   1      41.542  30.725  32.494  1.00  0.00    -0.248 NA
ATOM     18  C   UNL A   1      39.576  29.822  33.333  1.00  0.00     0.031 C 
ATOM     19  C   UNL A   1      39.161  29.860  28.543  1.00  0.00     0.029 A 
ATOM     20  N   UNL A   1      41.006  29.171  29.544  1.00  0.00    -0.354 N 
ATOM     21  C   UNL A   1      41.774  30.246  33.782  1.00  0.00     0.074 A 
ATOM     22  C   UNL A   1      40.497  29.826  34.298  1.00  0.00     0.031 C 
ATOM     23  C   UNL A   1      39.678  28.864  27.782  1.00  0.00     0.029 A 
ATOM     24  C   UNL A   1      40.890  28.366  28.411  1.00  0.00     0.049 A 
ATOM     25  H   UNL A   1      41.802  29.162  30.123  1.00  0.00     0.167 HD
ATOM     26  C   UNL A   1      43.031  30.046  34.270  1.00  0.00     0.031 A 
ATOM     27  C   UNL A   1      41.704  27.339  28.043  1.00  0.00     0.031 A 
ATOM     28  C   UNL A   1      44.024  30.736  33.494  1.00  0.00     0.049 A 
ATOM     29  C   UNL A   1      42.988  27.521  28.760  1.00  0.00     0.074 A 
ATOM     30  C   UNL A   1      44.277  32.063  33.207  1.00  0.00     0.029 A 
ATOM     31  N   UNL A   1      44.705  30.010  32.546  1.00  0.00    -0.354 N 
ATOM     32  N   UNL A   1      43.795  28.520  28.540  1.00  0.00    -0.248 NA
ATOM     33  C   UNL A   1      43.148  26.857  30.043  1.00  0.00     0.031 C 
ATOM     34  C   UNL A   1      44.659  32.071  31.834  1.00  0.00     0.029 A 
ATOM     35  C   UNL A   1      44.699  30.748  31.389  1.00  0.00     0.049 A 
ATOM     36  H   UNL A   1      45.119  29.126  32.673  1.00  0.00     0.167 HD
ATOM     37  C   UNL A   1      44.246  28.891  29.797  1.00  0.00     0.074 A 
ATOM     38  C   UNL A   1      43.875  27.781  30.676  1.00  0.00     0.031 C 
ATOM     39  C   UNL A   1      44.631  30.174  30.061  1.00  0.00     0.031 A 
BRANCH  26  40
ATOM     40  C   UNL A   1      43.383  28.946  35.239  1.00  0.00    -0.014 A 
ATOM     41  C   UNL A   1      43.994  29.270  36.468  1.00  0.00     0.010 A 
ATOM     42  C   UNL A   1      43.375  27.584  34.871  1.00  0.00     0.010 A 
ATOM     43  C   UNL A   1      44.599  28.285  37.263  1.00  0.00     0.020 A 
ATOM     44  C   UNL A   1      43.939  26.590  35.673  1.00  0.00     0.020 A 
ATOM     45  C   UNL A   1      44.573  26.951  36.855  1.00  0.00     0.054 A 
BRANCH  45  46
ATOM     46  S   UNL A   1      45.419  25.698  37.851  1.00  0.00     0.124 S 
ATOM     47  O   UNL A   1      45.351  26.278  39.189  1.00  0.00    -0.237 OA
ATOM     48  O   UNL A   1      44.590  24.516  37.629  1.00  0.00    -0.237 OA
ATOM     49  O   UNL A   1      46.755  25.635  37.262  1.00  0.00    -0.744 OA
ENDBRANCH  45  46
ENDBRANCH  26  40
BRANCH  27  50
ATOM     50  C   UNL A   1      41.340  26.042  27.406  1.00  0.00    -0.014 A 
ATOM     51  C   UNL A   1      42.312  25.215  26.803  1.00  0.00     0.010 A 
ATOM     52  C   UNL A   1      40.077  25.472  27.664  1.00  0.00     0.010 A 
ATOM     53  C   UNL A   1      42.048  23.859  26.527  1.00  0.00     0.020 A 
ATOM     54  C   UNL A   1      39.806  24.124  27.391  1.00  0.00     0.020 A 
ATOM     55  C   UNL A   1      40.800  23.315  26.844  1.00  0.00     0.054 A 
BRANCH  55  56
ATOM     56  S   UNL A   1      40.520  21.526  26.659  1.00  0.00     0.124 S 
ATOM     57  O   UNL A   1      41.512  21.156  25.655  1.00  0.00    -0.237 OA
ATOM     58  O   UNL A   1      40.768  21.023  28.008  1.00  0.00    -0.237 OA
ATOM     59  O   UNL A   1      39.128  21.439  26.218  1.00  0.00    -0.744 OA
ENDBRANCH  55  56
ENDBRANCH  27  50
BRANCH  39  60
ATOM     60  C   UNL A   1      44.791  31.134  28.902  1.00  0.00    -0.014 A 
ATOM     61  C   UNL A   1      43.717  31.782  28.256  1.00  0.00     0.010 A 
ATOM     62  C   UNL A   1      46.101  31.507  28.550  1.00  0.00     0.010 A 
ATOM     63  C   UNL A   1      43.953  32.755  27.269  1.00  0.00     0.020 A 
ATOM     64  C   UNL A   1      46.341  32.485  27.584  1.00  0.00     0.020 A 
ATOM     65  C   UNL A   1      45.267  33.099  26.940  1.00  0.00     0.054 A 
BRANCH  65  66
ATOM     66  S   UNL A   1      45.576  34.383  25.694  1.00  0.00     0.124 S 
ATOM     67  O   UNL A   1      44.693  33.985  24.601  1.00  0.00    -0.237 OA
ATOM     68  O   UNL A   1      45.199  35.611  26.392  1.00  0.00    -0.237 OA
ATOM     69  O   UNL A   1      47.005  34.259  25.411  1.00  0.00    -0.744 OA
ENDBRANCH  65  66
ENDBRANCH  39  60
ENDBRANCH  13  14
ENDBRANCH   6   8
ENDBRANCH   3   4
ENDBRANCH   2   3
ENDBRANCH   1   2
BRANCH   1  70
ATOM     70  C   UNL A   1      34.686  31.280  27.841  1.00  0.00     0.002 C 
BRANCH  70  71
ATOM     71  C   UNL A   1      35.263  29.886  27.566  1.00  0.00     0.021 C 
BRANCH  71  72
ATOM     72  C   UNL A   1      34.286  28.882  26.946  1.00  0.00     0.116 C 
BRANCH  72  73
ATOM     73  N   UNL A   1      33.099  28.711  27.772  1.00  0.00    -0.351 N 
ATOM     74  C   UNL A   1      31.917  28.056  27.490  1.00  0.00     0.272 C 
ATOM     75  H   UNL A   1      33.146  29.123  28.665  1.00  0.00     0.163 HD
ATOM     76  O   UNL A   1      30.951  28.255  28.229  1.00  0.00    -0.267 OA
BRANCH  74  77
ATOM     77  C   UNL A   1      31.810  27.185  26.307  1.00  0.00     0.155 A 
ATOM     78  N   UNL A   1      32.169  25.885  26.317  1.00  0.00    -0.167 NA
ATOM     79  C   UNL A   1      31.277  27.535  25.034  1.00  0.00     0.026 A 
ATOM     80  N   UNL A   1      31.991  25.453  25.052  1.00  0.00    -0.264 N 
ATOM     81  C   UNL A   1      31.495  26.426  24.240  1.00  0.00     0.046 A 
ATOM     82  C   UNL A   1      30.680  28.814  24.541  1.00  0.00     0.159 C 
ATOM     83  C   UNL A   1      31.216  26.366  22.784  1.00  0.00     0.078 C 
ATOM     84  N   UNL A   1      30.247  28.632  23.133  1.00  0.00    -0.337 N 
ATOM     85  C   UNL A   1      31.130  27.819  22.270  1.00  0.00     0.126 C 
BRANCH  80  86
ATOM     86  C   UNL A   1      32.252  24.056  24.725  1.00  0.00     0.180 C 
BRANCH  86  87
ATOM     87  C   UNL A   1      33.729  23.772  24.596  1.00  0.00    -0.026 A 
ATOM     88  C   UNL A   1      34.236  23.227  23.403  1.00  0.00     0.008 A 
ATOM     89  C   UNL A   1      34.612  24.032  25.656  1.00  0.00     0.008 A 
ATOM     90  C   UNL A   1      35.596  22.949  23.270  1.00  0.00     0.039 A 
ATOM     91  C   UNL A   1      35.974  23.756  25.519  1.00  0.00     0.039 A 
ATOM     92  C   UNL A   1      36.452  23.216  24.330  1.00  0.00     0.123 A 
ATOM     93  F   UNL A   1      37.758  22.945  24.210  1.00  0.00    -0.207 F 
ENDBRANCH  86  87
ENDBRANCH  80  86
BRANCH  84  94
ATOM     94  C   UNL A   1      29.073  29.238  22.710  1.00  0.00     0.232 C 
ATOM     95  O   UNL A   1      27.957  28.751  22.873  1.00  0.00    -0.274 OA
BRANCH  94  96
ATOM     96  C   UNL A   1      29.187  30.578  22.098  1.00  0.00     0.154 C 
ATOM     97  C   UNL A   1      28.063  31.151  21.249  1.00  0.00     0.097 C 
ATOM     98  C   UNL A   1      28.364  31.708  22.589  1.00  0.00     0.260 C 
ATOM     99  F   UNL A   1      27.414  31.598  23.575  1.00  0.00    -0.206 F 
ATOM    100  F   UNL A   1      28.893  32.978  22.672  1.00  0.00    -0.206 F 
ENDBRANCH  94  96
ENDBRANCH  84  94
ENDBRANCH  74  77
ENDBRANCH  72  73
ENDBRANCH  71  72
ENDBRANCH  70  71
ENDBRANCH   1  70
TORSDOF 20
ENDMDL
MODEL 2
REMARK VINA RESULT:     -12.0      1.175      4.410
REMARK SMILES O=C(NCCCCCCNC(=O)c1nn(Cc2ccc(F)cc2)c2c1CN(C(=O)[C@H]1CC1(F)F)CC2)c1ccc(-c2c3nc(c(-c4ccc(S(=O)(=O)[O-])cc4)c4ccc([nH]4)c(-c4ccc(S(=O)(=O)[O-])cc4)c4nc(c(-c5ccc(S(=O)(=O)[O-])cc5)c5ccc2[nH]5)C=C4)C=C3)cc1
REMARK SMILES IDX 6 1 5 2 4 3 3 4 1 5 2 6 37 8 38 9 96 10 39 11 95 12 40 13
REMARK SMILES IDX 41 14 42 15 89 16 43 17 94 18 88 19 90 20 44 21 93 22 87 23
REMARK SMILES IDX 86 24 45 26 75 27 56 28 74 29 57 30 60 31 73 32 91 33 58 34
REMARK SMILES IDX 59 35 72 37 92 38 61 39 46 40 47 41 55 42 48 43 54 44 49 45
REMARK SMILES IDX 50 46 51 47 52 48 53 49 76 50 77 51 85 52 78 53 84 54 79 55
REMARK SMILES IDX 80 56 81 57 82 58 83 59 62 60 63 61 71 62 64 63 70 64 65 65
REMARK SMILES IDX 66 66 67 67 68 68 69 69 7 70 8 71 9 72 10 73 11 74 12 76
REMARK SMILES IDX 13 77 14 78 25 79 15 80 24 81 26 82 36 83 27 84 35 85 16 86
REMARK SMILES IDX 17 87 18 88 23 89 19 90 22 91 20 92 21 93 28 94 29 95 30 96
REMARK SMILES IDX 31 97 32 98 33 99 34 100
REMARK H PARENT 3 7 90 25 60 36 10 75
REMARK Flexibility Score: inf
ROOT
ATOM      1  C   UNL A   1      35.768  32.347  27.791  1.00  0.00     0.002 C 
ENDROOT
BRANCH   1   2
ATOM      2  C   UNL A   1      35.462  33.622  28.592  1.00  0.00     0.021 C 
BRANCH   2   3
ATOM      3  C   UNL A   1      34.109  33.630  29.302  1.00  0.00     0.116 C 
BRANCH   3   4
ATOM      4  N   UNL A   1      34.190  33.795  30.739  1.00  0.00    -0.352 N 
ATOM      5  O   UNL A   1      34.886  33.911  32.829  1.00  0.00    -0.269 OA
ATOM      6  C   UNL A   1      35.099  33.452  31.702  1.00  0.00     0.251 C 
ATOM      7  H   UNL A   1      33.408  34.264  31.109  1.00  0.00     0.163 HD
BRANCH   6   8
ATOM      8  C   UNL A   1      36.250  32.525  31.516  1.00  0.00     0.039 A 
ATOM      9  C   UNL A   1      36.206  31.131  31.559  1.00  0.00     0.014 A 
ATOM     10  C   UNL A   1      37.493  33.147  31.283  1.00  0.00     0.014 A 
ATOM     11  C   UNL A   1      37.383  30.385  31.464  1.00  0.00     0.010 A 
ATOM     12  C   UNL A   1      38.667  32.409  31.179  1.00  0.00     0.010 A 
ATOM     13  C   UNL A   1      38.618  31.026  31.307  1.00  0.00    -0.014 A 
BRANCH  13  14
ATOM     14  C   UNL A   1      39.816  30.212  31.085  1.00  0.00     0.031 A 
ATOM     15  C   UNL A   1      40.614  29.958  32.324  1.00  0.00     0.074 A 
ATOM     16  C   UNL A   1      40.111  29.594  29.921  1.00  0.00     0.049 A 
ATOM     17  N   UNL A   1      41.837  30.299  32.572  1.00  0.00    -0.248 NA
ATOM     18  C   UNL A   1      39.922  29.349  33.474  1.00  0.00     0.031 C 
ATOM     19  C   UNL A   1      39.292  29.502  28.709  1.00  0.00     0.029 A 
ATOM     20  N   UNL A   1      41.188  28.814  29.609  1.00  0.00    -0.354 N 
ATOM     21  C   UNL A   1      42.133  29.792  33.836  1.00  0.00     0.074 A 
ATOM     22  C   UNL A   1      40.885  29.341  34.396  1.00  0.00     0.031 C 
ATOM     23  C   UNL A   1      39.786  28.533  27.901  1.00  0.00     0.029 A 
ATOM     24  C   UNL A   1      41.032  28.036  28.463  1.00  0.00     0.049 A 
ATOM     25  H   UNL A   1      42.010  28.801  30.152  1.00  0.00     0.167 HD
ATOM     26  C   UNL A   1      43.413  29.597  34.261  1.00  0.00     0.031 A 
ATOM     27  C   UNL A   1      41.841  27.030  28.032  1.00  0.00     0.031 A 
ATOM     28  C   UNL A   1      44.361  30.319  33.460  1.00  0.00     0.049 A 
ATOM     29  C   UNL A   1      43.154  27.211  28.696  1.00  0.00     0.074 A 
ATOM     30  C   UNL A   1      44.584  31.656  33.197  1.00  0.00     0.029 A 
ATOM     31  N   UNL A   1      45.008  29.626  32.464  1.00  0.00    -0.354 N 
ATOM     32  N   UNL A   1      43.938  28.226  28.466  1.00  0.00    -0.248 NA
ATOM     33  C   UNL A   1      43.379  26.517  29.952  1.00  0.00     0.031 C 
ATOM     34  C   UNL A   1      44.904  31.705  31.808  1.00  0.00     0.029 A 
ATOM     35  C   UNL A   1      44.940  30.394  31.328  1.00  0.00     0.049 A 
ATOM     36  H   UNL A   1      45.438  28.746  32.551  1.00  0.00     0.167 HD
ATOM     37  C   UNL A   1      44.440  28.571  29.711  1.00  0.00     0.074 A 
ATOM     38  C   UNL A   1      44.123  27.434  30.576  1.00  0.00     0.031 C 
ATOM     39  C   UNL A   1      44.821  29.852  29.991  1.00  0.00     0.031 A 
BRANCH  26  40
ATOM     40  C   UNL A   1      43.822  28.477  35.186  1.00  0.00    -0.014 A 
ATOM     41  C   UNL A   1      44.419  28.781  36.426  1.00  0.00     0.010 A 
ATOM     42  C   UNL A   1      43.879  27.132  34.763  1.00  0.00     0.010 A 
ATOM     43  C   UNL A   1      45.074  27.796  37.180  1.00  0.00     0.020 A 
ATOM     44  C   UNL A   1      44.494  26.136  35.524  1.00  0.00     0.020 A 
ATOM     45  C   UNL A   1      45.113  26.480  36.718  1.00  0.00     0.054 A 
BRANCH  45  46
ATOM     46  S   UNL A   1      46.023  25.231  37.662  1.00  0.00     0.124 S 
ATOM     47  O   UNL A   1      45.027  24.807  38.642  1.00  0.00    -0.237 OA
ATOM     48  O   UNL A   1      46.358  24.250  36.633  1.00  0.00    -0.237 OA
ATOM     49  O   UNL A   1      47.160  25.972  38.205  1.00  0.00    -0.744 OA
ENDBRANCH  45  46
ENDBRANCH  26  40
BRANCH  27  50
ATOM     50  C   UNL A   1      41.465  25.744  27.378  1.00  0.00    -0.014 A 
ATOM     51  C   UNL A   1      42.406  24.977  26.659  1.00  0.00     0.010 A 
ATOM     52  C   UNL A   1      40.250  25.119  27.724  1.00  0.00     0.010 A 
ATOM     53  C   UNL A   1      42.164  23.622  26.354  1.00  0.00     0.020 A 
ATOM     54  C   UNL A   1      40.001  23.773  27.423  1.00  0.00     0.020 A 
ATOM     55  C   UNL A   1      40.969  23.022  26.758  1.00  0.00     0.054 A 
BRANCH  55  56
ATOM     56  S   UNL A   1      40.733  21.231  26.528  1.00  0.00     0.124 S 
ATOM     57  O   UNL A   1      41.880  20.869  25.701  1.00  0.00    -0.237 OA
ATOM     58  O   UNL A   1      40.757  20.728  27.898  1.00  0.00    -0.237 OA
ATOM     59  O   UNL A   1      39.434  21.138  25.862  1.00  0.00    -0.744 OA
ENDBRANCH  55  56
ENDBRANCH  27  50
BRANCH  39  60
ATOM     60  C   UNL A   1      44.916  30.843  28.850  1.00  0.00    -0.014 A 
ATOM     61  C   UNL A   1      43.806  31.489  28.267  1.00  0.00     0.010 A 
ATOM     62  C   UNL A   1      46.204  31.246  28.454  1.00  0.00     0.010 A 
ATOM     63  C   UNL A   1      43.985  32.490  27.296  1.00  0.00     0.020 A 
ATOM     64  C   UNL A   1      46.388  32.253  27.504  1.00  0.00     0.020 A 
ATOM     65  C   UNL A   1      45.278  32.864  26.921  1.00  0.00     0.054 A 
BRANCH  65  66
ATOM     66  S   UNL A   1      45.514  34.184  25.697  1.00  0.00     0.124 S 
ATOM     67  O   UNL A   1      46.957  34.155  25.472  1.00  0.00    -0.237 OA
ATOM     68  O   UNL A   1      44.693  33.737  24.573  1.00  0.00    -0.237 OA
ATOM     69  O   UNL A   1      45.018  35.381  26.374  1.00  0.00    -0.744 OA
ENDBRANCH  65  66
ENDBRANCH  39  60
ENDBRANCH  13  14
ENDBRANCH   6   8
ENDBRANCH   3   4
ENDBRANCH   2   3
ENDBRANCH   1   2
BRANCH   1  70
ATOM     70  C   UNL A   1      35.063  31.065  28.255  1.00  0.00     0.002 C 
BRANCH  70  71
ATOM     71  C   UNL A   1      35.502  29.769  27.563  1.00  0.00     0.021 C 
BRANCH  71  72
ATOM     72  C   UNL A   1      34.415  29.057  26.751  1.00  0.00     0.116 C 
BRANCH  72  73
ATOM     73  N   UNL A   1      33.346  28.562  27.608  1.00  0.00    -0.351 N 
ATOM     74  C   UNL A   1      32.180  27.906  27.269  1.00  0.00     0.272 C 
ATOM     75  H   UNL A   1      33.474  28.718  28.571  1.00  0.00     0.163 HD
ATOM     76  O   UNL A   1      31.298  27.809  28.124  1.00  0.00    -0.267 OA
BRANCH  74  77
ATOM     77  C   UNL A   1      31.986  27.385  25.905  1.00  0.00     0.155 A 
ATOM     78  N   UNL A   1      31.275  28.039  24.963  1.00  0.00    -0.167 NA
ATOM     79  C   UNL A   1      32.541  26.193  25.359  1.00  0.00     0.026 A 
ATOM     80  N   UNL A   1      31.270  27.225  23.887  1.00  0.00    -0.264 N 
ATOM     81  C   UNL A   1      31.985  26.087  24.099  1.00  0.00     0.046 A 
ATOM     82  C   UNL A   1      33.453  25.174  25.961  1.00  0.00     0.159 C 
ATOM     83  C   UNL A   1      32.173  24.928  23.191  1.00  0.00     0.078 C 
ATOM     84  N   UNL A   1      33.757  24.137  24.942  1.00  0.00    -0.337 N 
ATOM     85  C   UNL A   1      32.645  23.738  24.054  1.00  0.00     0.126 C 
BRANCH  80  86
ATOM     86  C   UNL A   1      30.612  27.659  22.660  1.00  0.00     0.180 C 
BRANCH  86  87
ATOM     87  C   UNL A   1      29.595  28.744  22.917  1.00  0.00    -0.026 A 
ATOM     88  C   UNL A   1      30.020  30.070  23.112  1.00  0.00     0.008 A 
ATOM     89  C   UNL A   1      28.224  28.453  22.978  1.00  0.00     0.008 A 
ATOM     90  C   UNL A   1      29.096  31.084  23.360  1.00  0.00     0.039 A 
ATOM     91  C   UNL A   1      27.299  29.471  23.223  1.00  0.00     0.039 A 
ATOM     92  C   UNL A   1      27.744  30.775  23.414  1.00  0.00     0.123 A 
ATOM     93  F   UNL A   1      26.853  31.743  23.658  1.00  0.00    -0.207 F 
ENDBRANCH  86  87
ENDBRANCH  80  86
BRANCH  84  94
ATOM     94  C   UNL A   1      35.035  23.601  24.893  1.00  0.00     0.232 C 
ATOM     95  O   UNL A   1      36.026  24.155  25.361  1.00  0.00    -0.274 OA
BRANCH  94  96
ATOM     96  C   UNL A   1      35.178  22.252  24.308  1.00  0.00     0.154 C 
ATOM     97  C   UNL A   1      36.183  21.256  24.869  1.00  0.00     0.097 C 
ATOM     98  C   UNL A   1      34.727  21.051  25.051  1.00  0.00     0.260 C 
ATOM     99  F   UNL A   1      34.214  21.081  26.324  1.00  0.00    -0.206 F 
ATOM    100  F   UNL A   1      34.121  20.004  24.391  1.00  0.00    -0.206 F 
ENDBRANCH  94  96
ENDBRANCH  84  94
ENDBRANCH  74  77
ENDBRANCH  72  73
ENDBRANCH  71  72
ENDBRANCH  70  71
ENDBRANCH   1  70
TORSDOF 20
ENDMDL
MODEL 3
REMARK VINA RESULT:     -11.7      2.631      5.650
REMARK SMILES O=C(NCCCCCCNC(=O)c1nn(Cc2ccc(F)cc2)c2c1CN(C(=O)[C@H]1CC1(F)F)CC2)c1ccc(-c2c3nc(c(-c4ccc(S(=O)(=O)[O-])cc4)c4ccc([nH]4)c(-c4ccc(S(=O)(=O)[O-])cc4)c4nc(c(-c5ccc(S(=O)(=O)[O-])cc5)c5ccc2[nH]5)C=C4)C=C3)cc1
REMARK SMILES IDX 6 1 5 2 4 3 3 4 1 5 2 6 37 8 38 9 96 10 39 11 95 12 40 13
REMARK SMILES IDX 41 14 42 15 89 16 43 17 94 18 88 19 90 20 44 21 93 22 87 23
REMARK SMILES IDX 86 24 45 26 75 27 56 28 74 29 57 30 60 31 73 32 91 33 58 34
REMARK SMILES IDX 59 35 72 37 92 38 61 39 46 40 47 41 55 42 48 43 54 44 49 45
REMARK SMILES IDX 50 46 51 47 52 48 53 49 76 50 77 51 85 52 78 53 84 54 79 55
REMARK SMILES IDX 80 56 81 57 82 58 83 59 62 60 63 61 71 62 64 63 70 64 65 65
REMARK SMILES IDX 66 66 67 67 68 68 69 69 7 70 8 71 9 72 10 73 11 74 12 76
REMARK SMILES IDX 13 77 14 78 25 79 15 80 24 81 26 82 36 83 27 84 35 85 16 86
REMARK SMILES IDX 17 87 18 88 23 89 19 90 22 91 20 92 21 93 28 94 29 95 30 96
REMARK SMILES IDX 31 97 32 98 33 99 34 100
REMARK H PARENT 3 7 90 25 60 36 10 75
REMARK Flexibility Score: inf
ROOT
ATOM      1  C   UNL A   1      33.311  27.143  26.040  1.00  0.00     0.002 C 
ENDROOT
BRANCH   1   2
ATOM      2  C   UNL A   1      32.957  28.635  26.141  1.00  0.00     0.021 C 
BRANCH   2   3
ATOM      3  C   UNL A   1      32.879  29.185  27.565  1.00  0.00     0.116 C 
BRANCH   3   4
ATOM      4  N   UNL A   1      33.234  30.585  27.684  1.00  0.00    -0.352 N 
ATOM      5  O   UNL A   1      34.312  32.510  27.705  1.00  0.00    -0.269 OA
ATOM      6  C   UNL A   1      34.408  31.280  27.775  1.00  0.00     0.251 C 
ATOM      7  H   UNL A   1      32.446  31.173  27.702  1.00  0.00     0.163 HD
BRANCH   6   8
ATOM      8  C   UNL A   1      35.750  30.684  28.027  1.00  0.00     0.039 A 
ATOM      9  C   UNL A   1      36.093  29.337  27.904  1.00  0.00     0.014 A 
ATOM     10  C   UNL A   1      36.747  31.593  28.434  1.00  0.00     0.014 A 
ATOM     11  C   UNL A   1      37.369  28.899  28.267  1.00  0.00     0.010 A 
ATOM     12  C   UNL A   1      38.022  31.163  28.788  1.00  0.00     0.010 A 
ATOM     13  C   UNL A   1      38.323  29.807  28.740  1.00  0.00    -0.014 A 
BRANCH  13  14
ATOM     14  C   UNL A   1      39.688  29.336  28.992  1.00  0.00     0.031 A 
ATOM     15  C   UNL A   1      40.076  29.348  30.436  1.00  0.00     0.074 A 
ATOM     16  C   UNL A   1      40.485  28.778  28.056  1.00  0.00     0.049 A 
ATOM     17  N   UNL A   1      41.031  30.013  31.002  1.00  0.00    -0.248 NA
ATOM     18  C   UNL A   1      39.216  28.618  31.385  1.00  0.00     0.031 C 
ATOM     19  C   UNL A   1      40.152  28.427  26.672  1.00  0.00     0.029 A 
ATOM     20  N   UNL A   1      41.760  28.304  28.182  1.00  0.00    -0.354 N 
ATOM     21  C   UNL A   1      41.014  29.648  32.347  1.00  0.00     0.074 A 
ATOM     22  C   UNL A   1      39.799  28.900  32.551  1.00  0.00     0.031 C 
ATOM     23  C   UNL A   1      41.101  27.598  26.175  1.00  0.00     0.029 A 
ATOM     24  C   UNL A   1      42.177  27.472  27.144  1.00  0.00     0.049 A 
ATOM     25  H   UNL A   1      42.338  28.530  28.946  1.00  0.00     0.167 HD
ATOM     26  C   UNL A   1      42.093  29.818  33.162  1.00  0.00     0.031 A 
ATOM     27  C   UNL A   1      43.300  26.704  27.104  1.00  0.00     0.031 A 
ATOM     28  C   UNL A   1      43.046  30.738  32.607  1.00  0.00     0.049 A 
ATOM     29  C   UNL A   1      44.241  27.253  28.108  1.00  0.00     0.074 A 
ATOM     30  C   UNL A   1      43.012  32.076  32.267  1.00  0.00     0.029 A 
ATOM     31  N   UNL A   1      44.128  30.208  31.946  1.00  0.00    -0.354 N 
ATOM     32  N   UNL A   1      44.787  28.432  28.009  1.00  0.00    -0.248 NA
ATOM     33  C   UNL A   1      44.207  26.690  29.448  1.00  0.00     0.031 C 
ATOM     34  C   UNL A   1      43.743  32.159  31.046  1.00  0.00     0.029 A 
ATOM     35  C   UNL A   1      44.250  30.889  30.760  1.00  0.00     0.049 A 
ATOM     36  H   UNL A   1      44.706  29.478  32.263  1.00  0.00     0.167 HD
ATOM     37  C   UNL A   1      44.758  28.942  29.297  1.00  0.00     0.074 A 
ATOM     38  C   UNL A   1      44.462  27.794  30.154  1.00  0.00     0.031 C 
ATOM     39  C   UNL A   1      44.706  30.288  29.524  1.00  0.00     0.031 A 
BRANCH  26  40
ATOM     40  C   UNL A   1      42.437  28.881  34.294  1.00  0.00    -0.014 A 
ATOM     41  C   UNL A   1      43.013  27.627  34.009  1.00  0.00     0.010 A 
ATOM     42  C   UNL A   1      41.970  29.085  35.610  1.00  0.00     0.010 A 
ATOM     43  C   UNL A   1      43.079  26.618  34.981  1.00  0.00     0.020 A 
ATOM     44  C   UNL A   1      42.067  28.101  36.596  1.00  0.00     0.020 A 
ATOM     45  C   UNL A   1      42.598  26.861  36.268  1.00  0.00     0.054 A 
BRANCH  45  46
ATOM     46  S   UNL A   1      42.621  25.530  37.495  1.00  0.00     0.124 S 
ATOM     47  O   UNL A   1      41.234  25.073  37.472  1.00  0.00    -0.237 OA
ATOM     48  O   UNL A   1      43.603  24.608  36.931  1.00  0.00    -0.237 OA
ATOM     49  O   UNL A   1      43.039  26.202  38.723  1.00  0.00    -0.744 OA
ENDBRANCH  45  46
ENDBRANCH  26  40
BRANCH  27  50
ATOM     50  C   UNL A   1      43.480  25.342  26.525  1.00  0.00    -0.014 A 
ATOM     51  C   UNL A   1      43.445  25.120  25.131  1.00  0.00     0.010 A 
ATOM     52  C   UNL A   1      43.993  24.307  27.332  1.00  0.00     0.010 A 
ATOM     53  C   UNL A   1      43.960  23.935  24.568  1.00  0.00     0.020 A 
ATOM     54  C   UNL A   1      44.504  23.125  26.779  1.00  0.00     0.020 A 
ATOM     55  C   UNL A   1      44.507  22.953  25.396  1.00  0.00     0.054 A 
BRANCH  55  56
ATOM     56  S   UNL A   1      45.337  21.509  24.660  1.00  0.00     0.124 S 
ATOM     57  O   UNL A   1      44.593  21.320  23.418  1.00  0.00    -0.237 OA
ATOM     58  O   UNL A   1      46.713  21.974  24.508  1.00  0.00    -0.237 OA
ATOM     59  O   UNL A   1      45.150  20.457  25.660  1.00  0.00    -0.744 OA
ENDBRANCH  55  56
ENDBRANCH  27  50
BRANCH  39  60
ATOM     60  C   UNL A   1      44.924  31.227  28.357  1.00  0.00    -0.014 A 
ATOM     61  C   UNL A   1      44.007  31.405  27.301  1.00  0.00     0.010 A 
ATOM     62  C   UNL A   1      46.044  32.076  28.415  1.00  0.00     0.010 A 
ATOM     63  C   UNL A   1      44.223  32.386  26.318  1.00  0.00     0.020 A 
ATOM     64  C   UNL A   1      46.254  33.065  27.452  1.00  0.00     0.020 A 
ATOM     65  C   UNL A   1      45.348  33.211  26.401  1.00  0.00     0.054 A 
BRANCH  65  66
ATOM     66  S   UNL A   1      45.610  34.506  25.157  1.00  0.00     0.124 S 
ATOM     67  O   UNL A   1      45.062  35.691  25.811  1.00  0.00    -0.237 OA
ATOM     68  O   UNL A   1      47.061  34.499  24.979  1.00  0.00    -0.237 OA
ATOM     69  O   UNL A   1      44.853  34.035  23.998  1.00  0.00    -0.744 OA
ENDBRANCH  65  66
ENDBRANCH  39  60
ENDBRANCH  13  14
ENDBRANCH   6   8
ENDBRANCH   3   4
ENDBRANCH   2   3
ENDBRANCH   1   2
BRANCH   1  70
ATOM     70  C   UNL A   1      32.196  26.152  26.402  1.00  0.00     0.002 C 
BRANCH  70  71
ATOM     71  C   UNL A   1      32.640  24.708  26.666  1.00  0.00     0.021 C 
BRANCH  71  72
ATOM     72  C   UNL A   1      31.508  23.715  26.951  1.00  0.00     0.116 C 
BRANCH  72  73
ATOM     73  N   UNL A   1      32.023  22.376  27.203  1.00  0.00    -0.351 N 
ATOM     74  C   UNL A   1      32.838  21.585  26.420  1.00  0.00     0.272 C 
ATOM     75  H   UNL A   1      31.749  21.976  28.060  1.00  0.00     0.163 HD
ATOM     76  O   UNL A   1      32.939  20.391  26.706  1.00  0.00    -0.267 OA
BRANCH  74  77
ATOM     77  C   UNL A   1      33.524  22.152  25.246  1.00  0.00     0.155 A 
ATOM     78  N   UNL A   1      32.865  22.656  24.182  1.00  0.00    -0.167 NA
ATOM     79  C   UNL A   1      34.928  22.315  25.073  1.00  0.00     0.026 A 
ATOM     80  N   UNL A   1      33.822  23.011  23.301  1.00  0.00    -0.264 N 
ATOM     81  C   UNL A   1      35.075  22.784  23.782  1.00  0.00     0.046 A 
ATOM     82  C   UNL A   1      36.069  21.996  25.983  1.00  0.00     0.159 C 
ATOM     83  C   UNL A   1      36.379  22.987  23.104  1.00  0.00     0.078 C 
ATOM     84  N   UNL A   1      37.338  22.396  25.325  1.00  0.00    -0.337 N 
ATOM     85  C   UNL A   1      37.431  22.155  23.869  1.00  0.00     0.126 C 
BRANCH  80  86
ATOM     86  C   UNL A   1      33.443  23.638  22.040  1.00  0.00     0.180 C 
BRANCH  86  87
ATOM     87  C   UNL A   1      32.919  25.039  22.240  1.00  0.00    -0.026 A 
ATOM     88  C   UNL A   1      33.816  26.120  22.301  1.00  0.00     0.008 A 
ATOM     89  C   UNL A   1      31.544  25.286  22.379  1.00  0.00     0.008 A 
ATOM     90  C   UNL A   1      33.351  27.420  22.495  1.00  0.00     0.039 A 
ATOM     91  C   UNL A   1      31.080  26.589  22.569  1.00  0.00     0.039 A 
ATOM     92  C   UNL A   1      31.987  27.642  22.628  1.00  0.00     0.123 A 
ATOM     93  F   UNL A   1      31.535  28.888  22.820  1.00  0.00    -0.207 F 
ENDBRANCH  86  87
ENDBRANCH  80  86
BRANCH  84  94
ATOM     94  C   UNL A   1      38.349  22.946  26.098  1.00  0.00     0.232 C 
ATOM     95  O   UNL A   1      38.342  24.103  26.509  1.00  0.00    -0.274 OA
BRANCH  94  96
ATOM     96  C   UNL A   1      39.453  22.050  26.501  1.00  0.00     0.154 C 
ATOM     97  C   UNL A   1      40.876  22.293  26.021  1.00  0.00     0.097 C 
ATOM     98  C   UNL A   1      40.503  22.514  27.438  1.00  0.00     0.260 C 
ATOM     99  F   UNL A   1      40.574  23.789  27.944  1.00  0.00    -0.206 F 
ATOM    100  F   UNL A   1      41.015  21.666  28.396  1.00  0.00    -0.206 F 
ENDBRANCH  94  96
ENDBRANCH  84  94
ENDBRANCH  74  77
ENDBRANCH  72  73
ENDBRANCH  71  72
ENDBRANCH  70  71
ENDBRANCH   1  70
TORSDOF 20
ENDMDL
