MODEL 1
REMARK VINA RESULT:     -10.8      0.000      0.000
REMARK SMILES CC(C)C(=O)Nc1ccc(NC(=O)[C@@H]2[C@@H](C(=O)NCCCCCCNC(=O)c3ccc(-c4c5nc(c(-c6ccc(S(=O)(=O)[O-])cc6)c6ccc([nH]6)c(-c6ccc(S(=O)(=O)[O-])cc6)c6nc(c(-c7ccc(S(=O)(=O)[O-])cc7)c7ccc4[nH]7)C=C6)C=C5)cc3)C2(C)C)cc1Cl
REMARK SMILES IDX 21 1 20 2 19 3 18 4 16 5 17 6 15 8 14 9 88 10 89 11 90 12
REMARK SMILES IDX 12 13 11 14 13 16 10 17 7 18 8 19 92 20 9 21 91 22 93 23
REMARK SMILES IDX 6 24 4 25 5 26 2 28 1 29 3 30 22 31 23 32 24 33 25 34 26 35
REMARK SMILES IDX 27 37 28 38 29 39 87 40 30 41 86 42 31 43 32 44 33 45 80 46
REMARK SMILES IDX 34 47 85 48 79 49 81 50 35 51 84 52 78 53 77 54 36 56 66 57
REMARK SMILES IDX 47 58 65 59 48 60 51 61 64 62 82 63 49 64 50 65 63 67 83 68
REMARK SMILES IDX 52 69 37 70 38 71 46 72 39 73 45 74 40 75 41 76 42 77 43 78
REMARK SMILES IDX 44 79 67 80 68 81 76 82 69 83 75 84 70 85 71 86 72 87 73 88
REMARK SMILES IDX 74 89 53 90 54 91 62 92 55 93 61 94 56 95 57 96 58 97 59 98
REMARK SMILES IDX 60 99
REMARK H PARENT 18 7 11 15 6 27 25 36 81 55 51 66
REMARK Flexibility Score: inf
ROOT
ATOM      1  C   UNL A   1      34.399  29.435  26.968  1.00  0.00     0.002 C 
ENDROOT
BRANCH   1   2
ATOM      2  C   UNL A   1      33.225  28.715  27.630  1.00  0.00     0.021 C 
BRANCH   2   3
ATOM      3  C   UNL A   1      31.906  28.832  26.865  1.00  0.00     0.116 C 
BRANCH   3   4
ATOM      4  N   UNL A   1      32.118  28.800  25.429  1.00  0.00    -0.356 N 
ATOM      5  C   UNL A   1      31.898  27.895  24.427  1.00  0.00     0.224 C 
ATOM      6  O   UNL A   1      32.334  28.190  23.314  1.00  0.00    -0.275 OA
ATOM      7  H   UNL A   1      32.517  29.636  25.094  1.00  0.00     0.163 HD
BRANCH   5   8
ATOM      8  C   UNL A   1      31.170  26.600  24.554  1.00  0.00     0.098 C 
ATOM      9  C   UNL A   1      31.484  25.513  25.540  1.00  0.00     0.098 C 
ATOM     10  C   UNL A   1      31.691  25.273  24.025  1.00  0.00    -0.011 C 
ATOM     11  C   UNL A   1      33.073  25.212  23.410  1.00  0.00     0.013 C 
ATOM     12  C   UNL A   1      30.710  24.360  23.318  1.00  0.00     0.013 C 
BRANCH   9  13
ATOM     13  C   UNL A   1      30.416  24.817  26.300  1.00  0.00     0.228 C 
ATOM     14  N   UNL A   1      30.658  23.589  26.873  1.00  0.00    -0.326 N 
ATOM     15  H   UNL A   1      29.947  23.288  27.483  1.00  0.00     0.169 HD
ATOM     16  O   UNL A   1      29.322  25.359  26.452  1.00  0.00    -0.274 OA
BRANCH  14  17
ATOM     17  C   UNL A   1      31.730  22.682  26.754  1.00  0.00     0.042 A 
ATOM     18  C   UNL A   1      34.051  21.235  26.088  1.00  0.00     0.060 A 
ATOM     19  C   UNL A   1      33.963  21.899  27.305  1.00  0.00     0.030 A 
ATOM     20  C   UNL A   1      32.877  21.065  25.354  1.00  0.00     0.066 A 
ATOM     21  C   UNL A   1      32.797  22.587  27.639  1.00  0.00     0.028 A 
ATOM     22  C   UNL A   1      31.741  21.834  25.645  1.00  0.00     0.048 A 
ATOM     23  Cl  UNL A   1      32.680  19.743  24.257  1.00  0.00    -0.082 Cl
BRANCH  18  24
ATOM     24  N   UNL A   1      35.309  20.727  25.746  1.00  0.00    -0.325 N 
ATOM     25  C   UNL A   1      36.366  21.312  25.112  1.00  0.00     0.226 C 
ATOM     26  O   UNL A   1      37.379  20.611  24.982  1.00  0.00    -0.274 OA
ATOM     27  H   UNL A   1      35.456  19.789  26.006  1.00  0.00     0.169 HD
BRANCH  25  28
ATOM     28  C   UNL A   1      36.443  22.788  24.697  1.00  0.00     0.072 C 
ATOM     29  C   UNL A   1      37.417  23.654  25.472  1.00  0.00     0.018 C 
ATOM     30  C   UNL A   1      36.565  22.999  23.191  1.00  0.00     0.018 C 
ENDBRANCH  25  28
ENDBRANCH  18  24
ENDBRANCH  14  17
ENDBRANCH   9  13
ENDBRANCH   5   8
ENDBRANCH   3   4
ENDBRANCH   2   3
ENDBRANCH   1   2
BRANCH   1  31
ATOM     31  C   UNL A   1      34.816  30.743  27.647  1.00  0.00     0.002 C 
BRANCH  31  32
ATOM     32  C   UNL A   1      33.701  31.781  27.806  1.00  0.00     0.021 C 
BRANCH  32  33
ATOM     33  C   UNL A   1      34.162  33.231  27.706  1.00  0.00     0.116 C 
BRANCH  33  34
ATOM     34  N   UNL A   1      33.343  34.118  28.514  1.00  0.00    -0.352 N 
ATOM     35  C   UNL A   1      33.436  34.410  29.853  1.00  0.00     0.251 C 
ATOM     36  H   UNL A   1      32.616  34.577  28.033  1.00  0.00     0.163 HD
ATOM     37  O   UNL A   1      32.525  35.007  30.417  1.00  0.00    -0.269 OA
BRANCH  35  38
ATOM     38  C   UNL A   1      34.630  33.983  30.610  1.00  0.00     0.039 A 
ATOM     39  C   UNL A   1      34.582  32.793  31.342  1.00  0.00     0.014 A 
ATOM     40  C   UNL A   1      35.798  34.752  30.590  1.00  0.00     0.014 A 
ATOM     41  C   UNL A   1      35.729  32.342  31.998  1.00  0.00     0.010 A 
ATOM     42  C   UNL A   1      36.958  34.262  31.182  1.00  0.00     0.010 A 
ATOM     43  C   UNL A   1      36.937  33.053  31.892  1.00  0.00    -0.014 A 
BRANCH  43  44
ATOM     44  C   UNL A   1      38.190  32.542  32.503  1.00  0.00     0.031 A 
ATOM     45  C   UNL A   1      39.104  31.641  31.717  1.00  0.00     0.074 A 
ATOM     46  C   UNL A   1      38.475  32.841  33.786  1.00  0.00     0.049 A 
ATOM     47  N   UNL A   1      40.208  31.052  32.100  1.00  0.00    -0.248 NA
ATOM     48  C   UNL A   1      38.715  31.346  30.330  1.00  0.00     0.031 C 
ATOM     49  C   UNL A   1      37.657  33.684  34.661  1.00  0.00     0.029 A 
ATOM     50  N   UNL A   1      39.530  32.466  34.581  1.00  0.00    -0.354 N 
ATOM     51  C   UNL A   1      40.640  30.312  31.005  1.00  0.00     0.074 A 
ATOM     52  C   UNL A   1      39.647  30.479  29.965  1.00  0.00     0.031 C 
ATOM     53  C   UNL A   1      38.259  33.791  35.857  1.00  0.00     0.029 A 
ATOM     54  C   UNL A   1      39.475  32.986  35.852  1.00  0.00     0.049 A 
ATOM     55  H   UNL A   1      40.256  31.880  34.269  1.00  0.00     0.167 HD
ATOM     56  C   UNL A   1      41.770  29.578  30.867  1.00  0.00     0.031 A 
ATOM     57  C   UNL A   1      40.307  32.826  36.901  1.00  0.00     0.031 A 
ATOM     58  C   UNL A   1      42.751  29.407  31.907  1.00  0.00     0.049 A 
ATOM     59  C   UNL A   1      41.525  31.958  36.744  1.00  0.00     0.074 A 
ATOM     60  C   UNL A   1      43.948  28.714  31.857  1.00  0.00     0.029 A 
ATOM     61  N   UNL A   1      42.644  29.927  33.190  1.00  0.00    -0.354 N 
ATOM     62  N   UNL A   1      41.948  31.315  35.681  1.00  0.00    -0.248 NA
ATOM     63  C   UNL A   1      42.381  31.798  37.926  1.00  0.00     0.031 C 
ATOM     64  C   UNL A   1      44.534  28.762  33.126  1.00  0.00     0.029 A 
ATOM     65  C   UNL A   1      43.737  29.543  33.948  1.00  0.00     0.049 A 
ATOM     66  H   UNL A   1      41.902  30.487  33.511  1.00  0.00     0.167 HD
ATOM     67  C   UNL A   1      43.134  30.696  36.061  1.00  0.00     0.074 A 
ATOM     68  C   UNL A   1      43.369  31.055  37.444  1.00  0.00     0.031 C 
ATOM     69  C   UNL A   1      43.955  29.902  35.328  1.00  0.00     0.031 A 
BRANCH  56  70
ATOM     70  C   UNL A   1      41.995  28.894  29.543  1.00  0.00    -0.014 A 
ATOM     71  C   UNL A   1      42.593  29.574  28.465  1.00  0.00     0.010 A 
ATOM     72  C   UNL A   1      41.619  27.548  29.374  1.00  0.00     0.010 A 
ATOM     73  C   UNL A   1      42.758  28.942  27.230  1.00  0.00     0.020 A 
ATOM     74  C   UNL A   1      41.814  26.901  28.149  1.00  0.00     0.020 A 
ATOM     75  C   UNL A   1      42.362  27.610  27.079  1.00  0.00     0.054 A 
BRANCH  75  76
ATOM     76  S   UNL A   1      42.584  26.818  25.463  1.00  0.00     0.124 S 
ATOM     77  O   UNL A   1      42.681  27.973  24.573  1.00  0.00    -0.237 OA
ATOM     78  O   UNL A   1      43.820  26.061  25.646  1.00  0.00    -0.237 OA
ATOM     79  O   UNL A   1      41.379  26.008  25.304  1.00  0.00    -0.744 OA
ENDBRANCH  75  76
ENDBRANCH  56  70
BRANCH  57  80
ATOM     80  C   UNL A   1      40.022  33.519  38.188  1.00  0.00    -0.014 A 
ATOM     81  C   UNL A   1      40.546  34.800  38.436  1.00  0.00     0.010 A 
ATOM     82  C   UNL A   1      39.214  32.910  39.166  1.00  0.00     0.010 A 
ATOM     83  C   UNL A   1      40.280  35.453  39.643  1.00  0.00     0.020 A 
ATOM     84  C   UNL A   1      38.920  33.573  40.361  1.00  0.00     0.020 A 
ATOM     85  C   UNL A   1      39.464  34.838  40.595  1.00  0.00     0.054 A 
BRANCH  85  86
ATOM     86  S   UNL A   1      39.085  35.731  42.128  1.00  0.00     0.124 S 
ATOM     87  O   UNL A   1      39.304  37.118  41.734  1.00  0.00    -0.237 OA
ATOM     88  O   UNL A   1      37.696  35.353  42.376  1.00  0.00    -0.237 OA
ATOM     89  O   UNL A   1      40.049  35.191  43.085  1.00  0.00    -0.744 OA
ENDBRANCH  85  86
ENDBRANCH  57  80
BRANCH  69  90
ATOM     90  C   UNL A   1      45.200  29.385  35.999  1.00  0.00    -0.014 A 
ATOM     91  C   UNL A   1      46.394  30.129  35.994  1.00  0.00     0.010 A 
ATOM     92  C   UNL A   1      45.157  28.166  36.701  1.00  0.00     0.010 A 
ATOM     93  C   UNL A   1      47.528  29.651  36.656  1.00  0.00     0.020 A 
ATOM     94  C   UNL A   1      46.279  27.700  37.391  1.00  0.00     0.020 A 
ATOM     95  C   UNL A   1      47.462  28.440  37.354  1.00  0.00     0.054 A 
BRANCH  95  96
ATOM     96  S   UNL A   1      48.931  27.872  38.254  1.00  0.00     0.124 S 
ATOM     97  O   UNL A   1      48.725  26.427  38.291  1.00  0.00    -0.237 OA
ATOM     98  O   UNL A   1      50.024  28.329  37.400  1.00  0.00    -0.237 OA
ATOM     99  O   UNL A   1      48.831  28.549  39.545  1.00  0.00    -0.744 OA
ENDBRANCH  95  96
ENDBRANCH  69  90
ENDBRANCH  43  44
ENDBRANCH  35  38
ENDBRANCH  33  34
ENDBRANCH  32  33
ENDBRANCH  31  32
ENDBRANCH   1  31
TORSDOF 20
ENDMDL
MODEL 2
REMARK VINA RESULT:     -10.7      6.285     11.359
REMARK SMILES CC(C)C(=O)Nc1ccc(NC(=O)[C@@H]2[C@@H](C(=O)NCCCCCCNC(=O)c3ccc(-c4c5nc(c(-c6ccc(S(=O)(=O)[O-])cc6)c6ccc([nH]6)c(-c6ccc(S(=O)(=O)[O-])cc6)c6nc(c(-c7ccc(S(=O)(=O)[O-])cc7)c7ccc4[nH]7)C=C6)C=C5)cc3)C2(C)C)cc1Cl
REMARK SMILES IDX 21 1 20 2 19 3 18 4 16 5 17 6 15 8 14 9 88 10 89 11 90 12
REMARK SMILES IDX 12 13 11 14 13 16 10 17 7 18 8 19 92 20 9 21 91 22 93 23
REMARK SMILES IDX 6 24 4 25 5 26 2 28 1 29 3 30 22 31 23 32 24 33 25 34 26 35
REMARK SMILES IDX 27 37 28 38 29 39 87 40 30 41 86 42 31 43 32 44 33 45 80 46
REMARK SMILES IDX 34 47 85 48 79 49 81 50 35 51 84 52 78 53 77 54 36 56 66 57
REMARK SMILES IDX 47 58 65 59 48 60 51 61 64 62 82 63 49 64 50 65 63 67 83 68
REMARK SMILES IDX 52 69 37 70 38 71 46 72 39 73 45 74 40 75 41 76 42 77 43 78
REMARK SMILES IDX 44 79 67 80 68 81 76 82 69 83 75 84 70 85 71 86 72 87 73 88
REMARK SMILES IDX 74 89 53 90 54 91 62 92 55 93 61 94 56 95 57 96 58 97 59 98
REMARK SMILES IDX 60 99
REMARK H PARENT 18 7 11 15 6 27 25 36 81 55 51 66
REMARK Flexibility Score: inf
ROOT
ATOM      1  C   UNL A   1      38.702  22.574  25.931  1.00  0.00     0.002 C 
ENDROOT
BRANCH   1   2
ATOM      2  C   UNL A   1      37.860  23.850  25.976  1.00  0.00     0.021 C 
BRANCH   2   3
ATOM      3  C   UNL A   1      36.352  23.608  25.919  1.00  0.00     0.116 C 
BRANCH   3   4
ATOM      4  N   UNL A   1      35.761  24.209  24.736  1.00  0.00    -0.356 N 
ATOM      5  C   UNL A   1      34.652  24.966  24.473  1.00  0.00     0.224 C 
ATOM      6  O   UNL A   1      34.410  25.194  23.287  1.00  0.00    -0.275 OA
ATOM      7  H   UNL A   1      36.288  24.028  23.924  1.00  0.00     0.163 HD
BRANCH   5   8
ATOM      8  C   UNL A   1      33.726  25.552  25.483  1.00  0.00     0.098 C 
ATOM      9  C   UNL A   1      32.276  25.872  25.258  1.00  0.00     0.098 C 
ATOM     10  C   UNL A   1      33.295  27.011  25.500  1.00  0.00    -0.011 C 
ATOM     11  C   UNL A   1      33.743  27.929  24.383  1.00  0.00     0.013 C 
ATOM     12  C   UNL A   1      33.252  27.719  26.840  1.00  0.00     0.013 C 
BRANCH   9  13
ATOM     13  C   UNL A   1      31.238  25.529  26.263  1.00  0.00     0.228 C 
ATOM     14  N   UNL A   1      31.202  24.272  26.822  1.00  0.00    -0.326 N 
ATOM     15  H   UNL A   1      30.586  24.194  27.586  1.00  0.00     0.169 HD
ATOM     16  O   UNL A   1      30.432  26.385  26.626  1.00  0.00    -0.274 OA
BRANCH  14  17
ATOM     17  C   UNL A   1      31.880  23.076  26.513  1.00  0.00     0.042 A 
ATOM     18  C   UNL A   1      33.607  21.046  25.607  1.00  0.00     0.060 A 
ATOM     19  C   UNL A   1      33.548  21.366  26.957  1.00  0.00     0.030 A 
ATOM     20  C   UNL A   1      32.600  21.541  24.777  1.00  0.00     0.066 A 
ATOM     21  C   UNL A   1      32.667  22.352  27.400  1.00  0.00     0.028 A 
ATOM     22  C   UNL A   1      31.782  22.596  25.206  1.00  0.00     0.048 A 
ATOM     23  Cl  UNL A   1      32.141  20.720  23.326  1.00  0.00    -0.082 Cl
BRANCH  18  24
ATOM     24  N   UNL A   1      34.638  20.185  25.216  1.00  0.00    -0.325 N 
ATOM     25  C   UNL A   1      34.607  18.893  24.780  1.00  0.00     0.226 C 
ATOM     26  O   UNL A   1      35.697  18.397  24.464  1.00  0.00    -0.274 OA
ATOM     27  H   UNL A   1      35.540  20.578  25.265  1.00  0.00     0.169 HD
BRANCH  25  28
ATOM     28  C   UNL A   1      33.332  18.080  24.512  1.00  0.00     0.072 C 
ATOM     29  C   UNL A   1      33.404  17.069  23.384  1.00  0.00     0.018 C 
ATOM     30  C   UNL A   1      32.703  17.488  25.769  1.00  0.00     0.018 C 
ENDBRANCH  25  28
ENDBRANCH  18  24
ENDBRANCH  14  17
ENDBRANCH   9  13
ENDBRANCH   5   8
ENDBRANCH   3   4
ENDBRANCH   2   3
ENDBRANCH   1   2
BRANCH   1  31
ATOM     31  C   UNL A   1      38.003  21.365  25.304  1.00  0.00     0.002 C 
BRANCH  31  32
ATOM     32  C   UNL A   1      38.836  20.080  25.259  1.00  0.00     0.021 C 
BRANCH  32  33
ATOM     33  C   UNL A   1      39.748  19.872  26.464  1.00  0.00     0.116 C 
BRANCH  33  34
ATOM     34  N   UNL A   1      40.924  19.088  26.126  1.00  0.00    -0.352 N 
ATOM     35  C   UNL A   1      42.209  19.509  25.882  1.00  0.00     0.251 C 
ATOM     36  H   UNL A   1      40.781  18.117  26.063  1.00  0.00     0.163 HD
ATOM     37  O   UNL A   1      43.026  18.737  25.393  1.00  0.00    -0.269 OA
BRANCH  35  38
ATOM     38  C   UNL A   1      42.592  20.901  26.197  1.00  0.00     0.039 A 
ATOM     39  C   UNL A   1      42.774  21.271  27.531  1.00  0.00     0.014 A 
ATOM     40  C   UNL A   1      42.779  21.835  25.173  1.00  0.00     0.014 A 
ATOM     41  C   UNL A   1      43.210  22.562  27.835  1.00  0.00     0.010 A 
ATOM     42  C   UNL A   1      43.284  23.096  25.474  1.00  0.00     0.010 A 
ATOM     43  C   UNL A   1      43.506  23.473  26.807  1.00  0.00    -0.014 A 
BRANCH  43  44
ATOM     44  C   UNL A   1      44.060  24.819  27.103  1.00  0.00     0.031 A 
ATOM     45  C   UNL A   1      43.154  25.925  27.572  1.00  0.00     0.074 A 
ATOM     46  C   UNL A   1      45.369  25.062  26.890  1.00  0.00     0.049 A 
ATOM     47  N   UNL A   1      43.444  27.176  27.824  1.00  0.00    -0.248 NA
ATOM     48  C   UNL A   1      41.736  25.586  27.763  1.00  0.00     0.031 C 
ATOM     49  C   UNL A   1      46.346  24.080  26.412  1.00  0.00     0.029 A 
ATOM     50  N   UNL A   1      46.104  26.211  27.043  1.00  0.00    -0.354 N 
ATOM     51  C   UNL A   1      42.245  27.775  28.194  1.00  0.00     0.074 A 
ATOM     52  C   UNL A   1      41.216  26.764  28.075  1.00  0.00     0.031 C 
ATOM     53  C   UNL A   1      47.556  24.659  26.348  1.00  0.00     0.029 A 
ATOM     54  C   UNL A   1      47.434  26.062  26.728  1.00  0.00     0.049 A 
ATOM     55  H   UNL A   1      45.715  27.061  27.350  1.00  0.00     0.167 HD
ATOM     56  C   UNL A   1      42.023  29.042  28.616  1.00  0.00     0.031 A 
ATOM     57  C   UNL A   1      48.442  26.956  26.736  1.00  0.00     0.031 A 
ATOM     58  C   UNL A   1      43.048  30.047  28.724  1.00  0.00     0.049 A 
ATOM     59  C   UNL A   1      48.160  28.374  27.151  1.00  0.00     0.074 A 
ATOM     60  C   UNL A   1      42.932  31.350  29.176  1.00  0.00     0.029 A 
ATOM     61  N   UNL A   1      44.377  29.864  28.368  1.00  0.00    -0.354 N 
ATOM     62  N   UNL A   1      47.030  28.906  27.555  1.00  0.00    -0.248 NA
ATOM     63  C   UNL A   1      49.289  29.313  27.115  1.00  0.00     0.031 C 
ATOM     64  C   UNL A   1      44.177  31.973  29.033  1.00  0.00     0.029 A 
ATOM     65  C   UNL A   1      45.084  31.039  28.559  1.00  0.00     0.049 A 
ATOM     66  H   UNL A   1      44.760  29.022  28.031  1.00  0.00     0.167 HD
ATOM     67  C   UNL A   1      47.321  30.234  27.847  1.00  0.00     0.074 A 
ATOM     68  C   UNL A   1      48.734  30.419  27.589  1.00  0.00     0.031 C 
ATOM     69  C   UNL A   1      46.491  31.211  28.291  1.00  0.00     0.031 A 
BRANCH  56  70
ATOM     70  C   UNL A   1      40.607  29.413  28.979  1.00  0.00    -0.014 A 
ATOM     71  C   UNL A   1      39.647  29.678  27.984  1.00  0.00     0.010 A 
ATOM     72  C   UNL A   1      40.223  29.483  30.331  1.00  0.00     0.010 A 
ATOM     73  C   UNL A   1      38.349  30.061  28.334  1.00  0.00     0.020 A 
ATOM     74  C   UNL A   1      38.916  29.833  30.685  1.00  0.00     0.020 A 
ATOM     75  C   UNL A   1      37.994  30.142  29.683  1.00  0.00     0.054 A 
BRANCH  75  76
ATOM     76  S   UNL A   1      36.305  30.646  30.107  1.00  0.00     0.124 S 
ATOM     77  O   UNL A   1      35.561  30.230  28.919  1.00  0.00    -0.237 OA
ATOM     78  O   UNL A   1      36.035  29.874  31.317  1.00  0.00    -0.237 OA
ATOM     79  O   UNL A   1      36.410  32.089  30.302  1.00  0.00    -0.744 OA
ENDBRANCH  75  76
ENDBRANCH  56  70
BRANCH  57  80
ATOM     80  C   UNL A   1      49.817  26.531  26.354  1.00  0.00    -0.014 A 
ATOM     81  C   UNL A   1      50.245  26.628  25.019  1.00  0.00     0.010 A 
ATOM     82  C   UNL A   1      50.711  26.040  27.324  1.00  0.00     0.010 A 
ATOM     83  C   UNL A   1      51.536  26.231  24.657  1.00  0.00     0.020 A 
ATOM     84  C   UNL A   1      52.012  25.670  26.972  1.00  0.00     0.020 A 
ATOM     85  C   UNL A   1      52.413  25.760  25.637  1.00  0.00     0.054 A 
BRANCH  85  86
ATOM     86  S   UNL A   1      54.101  25.306  25.153  1.00  0.00     0.124 S 
ATOM     87  O   UNL A   1      53.968  23.876  24.892  1.00  0.00    -0.237 OA
ATOM     88  O   UNL A   1      54.327  26.146  23.979  1.00  0.00    -0.237 OA
ATOM     89  O   UNL A   1      54.899  25.657  26.324  1.00  0.00    -0.744 OA
ENDBRANCH  85  86
ENDBRANCH  57  80
BRANCH  69  90
ATOM     90  C   UNL A   1      47.093  32.568  28.551  1.00  0.00    -0.014 A 
ATOM     91  C   UNL A   1      47.075  33.574  27.568  1.00  0.00     0.010 A 
ATOM     92  C   UNL A   1      47.627  32.859  29.820  1.00  0.00     0.010 A 
ATOM     93  C   UNL A   1      47.603  34.839  27.843  1.00  0.00     0.020 A 
ATOM     94  C   UNL A   1      48.127  34.132  30.107  1.00  0.00     0.020 A 
ATOM     95  C   UNL A   1      48.122  35.111  29.112  1.00  0.00     0.054 A 
BRANCH  95  96
ATOM     96  S   UNL A   1      48.747  36.778  29.459  1.00  0.00     0.124 S 
ATOM     97  O   UNL A   1      49.789  36.513  30.448  1.00  0.00    -0.237 OA
ATOM     98  O   UNL A   1      49.222  37.219  28.149  1.00  0.00    -0.237 OA
ATOM     99  O   UNL A   1      47.576  37.490  29.963  1.00  0.00    -0.744 OA
ENDBRANCH  95  96
ENDBRANCH  69  90
ENDBRANCH  43  44
ENDBRANCH  35  38
ENDBRANCH  33  34
ENDBRANCH  32  33
ENDBRANCH  31  32
ENDBRANCH   1  31
TORSDOF 20
ENDMDL
MODEL 3
REMARK VINA RESULT:     -10.6      5.946      9.908
REMARK SMILES CC(C)C(=O)Nc1ccc(NC(=O)[C@@H]2[C@@H](C(=O)NCCCCCCNC(=O)c3ccc(-c4c5nc(c(-c6ccc(S(=O)(=O)[O-])cc6)c6ccc([nH]6)c(-c6ccc(S(=O)(=O)[O-])cc6)c6nc(c(-c7ccc(S(=O)(=O)[O-])cc7)c7ccc4[nH]7)C=C6)C=C5)cc3)C2(C)C)cc1Cl
REMARK SMILES IDX 21 1 20 2 19 3 18 4 16 5 17 6 15 8 14 9 88 10 89 11 90 12
REMARK SMILES IDX 12 13 11 14 13 16 10 17 7 18 8 19 92 20 9 21 91 22 93 23
REMARK SMILES IDX 6 24 4 25 5 26 2 28 1 29 3 30 22 31 23 32 24 33 25 34 26 35
REMARK SMILES IDX 27 37 28 38 29 39 87 40 30 41 86 42 31 43 32 44 33 45 80 46
REMARK SMILES IDX 34 47 85 48 79 49 81 50 35 51 84 52 78 53 77 54 36 56 66 57
REMARK SMILES IDX 47 58 65 59 48 60 51 61 64 62 82 63 49 64 50 65 63 67 83 68
REMARK SMILES IDX 52 69 37 70 38 71 46 72 39 73 45 74 40 75 41 76 42 77 43 78
REMARK SMILES IDX 44 79 67 80 68 81 76 82 69 83 75 84 70 85 71 86 72 87 73 88
REMARK SMILES IDX 74 89 53 90 54 91 62 92 55 93 61 94 56 95 57 96 58 97 59 98
REMARK SMILES IDX 60 99
REMARK H PARENT 18 7 11 15 6 27 25 36 81 55 51 66
REMARK Flexibility Score: inf
ROOT
ATOM      1  C   UNL A   1      34.904  30.477  27.287  1.00  0.00     0.002 C 
ENDROOT
BRANCH   1   2
ATOM      2  C   UNL A   1      34.089  29.233  27.640  1.00  0.00     0.021 C 
BRANCH   2   3
ATOM      3  C   UNL A   1      32.978  28.908  26.641  1.00  0.00     0.116 C 
BRANCH   3   4
ATOM      4  N   UNL A   1      33.351  29.283  25.289  1.00  0.00    -0.356 N 
ATOM      5  C   UNL A   1      33.077  28.815  24.033  1.00  0.00     0.224 C 
ATOM      6  O   UNL A   1      33.695  29.338  23.104  1.00  0.00    -0.275 OA
ATOM      7  H   UNL A   1      33.947  30.067  25.272  1.00  0.00     0.163 HD
BRANCH   5   8
ATOM      8  C   UNL A   1      32.095  27.749  23.684  1.00  0.00     0.098 C 
ATOM      9  C   UNL A   1      31.833  26.506  24.485  1.00  0.00     0.098 C 
ATOM     10  C   UNL A   1      32.472  26.406  23.079  1.00  0.00    -0.011 C 
ATOM     11  C   UNL A   1      33.935  26.062  22.892  1.00  0.00     0.013 C 
ATOM     12  C   UNL A   1      31.611  25.872  21.952  1.00  0.00     0.013 C 
BRANCH   9  13
ATOM     13  C   UNL A   1      30.453  26.026  24.749  1.00  0.00     0.228 C 
ATOM     14  N   UNL A   1      30.237  24.733  25.168  1.00  0.00    -0.326 N 
ATOM     15  H   UNL A   1      29.315  24.561  25.467  1.00  0.00     0.169 HD
ATOM     16  O   UNL A   1      29.503  26.799  24.632  1.00  0.00    -0.274 OA
BRANCH  14  17
ATOM     17  C   UNL A   1      31.082  23.608  25.251  1.00  0.00     0.042 A 
ATOM     18  C   UNL A   1      33.158  21.711  25.139  1.00  0.00     0.060 A 
ATOM     19  C   UNL A   1      32.777  22.262  26.355  1.00  0.00     0.030 A 
ATOM     20  C   UNL A   1      32.311  21.897  24.046  1.00  0.00     0.066 A 
ATOM     21  C   UNL A   1      31.727  23.178  26.404  1.00  0.00     0.028 A 
ATOM     22  C   UNL A   1      31.318  22.887  24.079  1.00  0.00     0.048 A 
ATOM     23  Cl  UNL A   1      32.261  20.768  22.738  1.00  0.00    -0.082 Cl
BRANCH  18  24
ATOM     24  N   UNL A   1      34.331  20.948  25.142  1.00  0.00    -0.325 N 
ATOM     25  C   UNL A   1      35.625  21.296  24.882  1.00  0.00     0.226 C 
ATOM     26  O   UNL A   1      36.466  20.396  25.004  1.00  0.00    -0.274 OA
ATOM     27  H   UNL A   1      34.201  19.999  25.370  1.00  0.00     0.169 HD
BRANCH  25  28
ATOM     28  C   UNL A   1      36.118  22.723  24.606  1.00  0.00     0.072 C 
ATOM     29  C   UNL A   1      37.057  23.321  25.636  1.00  0.00     0.018 C 
ATOM     30  C   UNL A   1      36.623  22.936  23.182  1.00  0.00     0.018 C 
ENDBRANCH  25  28
ENDBRANCH  18  24
ENDBRANCH  14  17
ENDBRANCH   9  13
ENDBRANCH   5   8
ENDBRANCH   3   4
ENDBRANCH   2   3
ENDBRANCH   1   2
BRANCH   1  31
ATOM     31  C   UNL A   1      34.511  31.743  28.053  1.00  0.00     0.002 C 
BRANCH  31  32
ATOM     32  C   UNL A   1      35.593  32.824  28.126  1.00  0.00     0.021 C 
BRANCH  32  33
ATOM     33  C   UNL A   1      36.307  32.919  29.471  1.00  0.00     0.116 C 
BRANCH  33  34
ATOM     34  N   UNL A   1      35.892  31.866  30.382  1.00  0.00    -0.352 N 
ATOM     35  C   UNL A   1      36.504  30.670  30.667  1.00  0.00     0.251 C 
ATOM     36  H   UNL A   1      35.050  32.033  30.864  1.00  0.00     0.163 HD
ATOM     37  O   UNL A   1      35.902  29.804  31.292  1.00  0.00    -0.269 OA
BRANCH  35  38
ATOM     38  C   UNL A   1      37.886  30.430  30.201  1.00  0.00     0.039 A 
ATOM     39  C   UNL A   1      38.932  30.475  31.125  1.00  0.00     0.014 A 
ATOM     40  C   UNL A   1      38.144  30.152  28.855  1.00  0.00     0.014 A 
ATOM     41  C   UNL A   1      40.231  30.174  30.710  1.00  0.00     0.010 A 
ATOM     42  C   UNL A   1      39.425  29.781  28.460  1.00  0.00     0.010 A 
ATOM     43  C   UNL A   1      40.482  29.787  29.382  1.00  0.00    -0.014 A 
BRANCH  43  44
ATOM     44  C   UNL A   1      41.838  29.372  28.942  1.00  0.00     0.031 A 
ATOM     45  C   UNL A   1      42.959  30.375  28.892  1.00  0.00     0.074 A 
ATOM     46  C   UNL A   1      42.046  28.106  28.529  1.00  0.00     0.049 A 
ATOM     47  N   UNL A   1      44.191  30.214  28.480  1.00  0.00    -0.248 NA
ATOM     48  C   UNL A   1      42.648  31.741  29.341  1.00  0.00     0.031 C 
ATOM     49  C   UNL A   1      41.035  27.046  28.507  1.00  0.00     0.029 A 
ATOM     50  N   UNL A   1      43.176  27.494  28.044  1.00  0.00    -0.354 N 
ATOM     51  C   UNL A   1      44.799  31.458  28.614  1.00  0.00     0.074 A 
ATOM     52  C   UNL A   1      43.783  32.374  29.086  1.00  0.00     0.031 C 
ATOM     53  C   UNL A   1      41.600  25.909  28.068  1.00  0.00     0.029 A 
ATOM     54  C   UNL A   1      42.995  26.169  27.730  1.00  0.00     0.049 A 
ATOM     55  H   UNL A   1      44.034  27.963  27.932  1.00  0.00     0.167 HD
ATOM     56  C   UNL A   1      46.089  31.801  28.386  1.00  0.00     0.031 A 
ATOM     57  C   UNL A   1      43.853  25.264  27.219  1.00  0.00     0.031 A 
ATOM     58  C   UNL A   1      47.093  30.888  27.907  1.00  0.00     0.049 A 
ATOM     59  C   UNL A   1      45.266  25.683  26.918  1.00  0.00     0.074 A 
ATOM     60  C   UNL A   1      48.437  31.128  27.679  1.00  0.00     0.029 A 
ATOM     61  N   UNL A   1      46.863  29.560  27.574  1.00  0.00    -0.354 N 
ATOM     62  N   UNL A   1      45.838  26.849  27.107  1.00  0.00    -0.248 NA
ATOM     63  C   UNL A   1      46.150  24.665  26.337  1.00  0.00     0.031 C 
ATOM     64  C   UNL A   1      49.004  29.964  27.149  1.00  0.00     0.029 A 
ATOM     65  C   UNL A   1      48.031  28.978  27.112  1.00  0.00     0.049 A 
ATOM     66  H   UNL A   1      45.997  29.101  27.656  1.00  0.00     0.167 HD
ATOM     67  C   UNL A   1      47.157  26.694  26.694  1.00  0.00     0.074 A 
ATOM     68  C   UNL A   1      47.301  25.320  26.260  1.00  0.00     0.031 C 
ATOM     69  C   UNL A   1      48.158  27.609  26.677  1.00  0.00     0.031 A 
BRANCH  56  70
ATOM     70  C   UNL A   1      46.479  33.235  28.642  1.00  0.00    -0.014 A 
ATOM     71  C   UNL A   1      46.384  34.207  27.627  1.00  0.00     0.010 A 
ATOM     72  C   UNL A   1      46.932  33.623  29.916  1.00  0.00     0.010 A 
ATOM     73  C   UNL A   1      46.788  35.523  27.865  1.00  0.00     0.020 A 
ATOM     74  C   UNL A   1      47.306  34.948  30.168  1.00  0.00     0.020 A 
ATOM     75  C   UNL A   1      47.252  35.883  29.133  1.00  0.00     0.054 A 
BRANCH  75  76
ATOM     76  S   UNL A   1      47.773  37.598  29.410  1.00  0.00     0.124 S 
ATOM     77  O   UNL A   1      46.649  38.134  30.174  1.00  0.00    -0.237 OA
ATOM     78  O   UNL A   1      49.018  37.436  30.157  1.00  0.00    -0.237 OA
ATOM     79  O   UNL A   1      47.925  38.138  28.062  1.00  0.00    -0.744 OA
ENDBRANCH  75  76
ENDBRANCH  56  70
BRANCH  57  80
ATOM     80  C   UNL A   1      43.403  23.866  26.977  1.00  0.00    -0.014 A 
ATOM     81  C   UNL A   1      43.139  23.006  28.059  1.00  0.00     0.010 A 
ATOM     82  C   UNL A   1      43.220  23.388  25.666  1.00  0.00     0.010 A 
ATOM     83  C   UNL A   1      42.715  21.694  27.834  1.00  0.00     0.020 A 
ATOM     84  C   UNL A   1      42.767  22.086  25.438  1.00  0.00     0.020 A 
ATOM     85  C   UNL A   1      42.526  21.244  26.525  1.00  0.00     0.054 A 
BRANCH  85  86
ATOM     86  S   UNL A   1      41.919  19.555  26.262  1.00  0.00     0.124 S 
ATOM     87  O   UNL A   1      40.475  19.754  26.215  1.00  0.00    -0.237 OA
ATOM     88  O   UNL A   1      42.551  19.188  24.996  1.00  0.00    -0.237 OA
ATOM     89  O   UNL A   1      42.414  18.828  27.429  1.00  0.00    -0.744 OA
ENDBRANCH  85  86
ENDBRANCH  57  80
BRANCH  69  90
ATOM     90  C   UNL A   1      49.510  27.149  26.195  1.00  0.00    -0.014 A 
ATOM     91  C   UNL A   1      49.938  27.395  24.878  1.00  0.00     0.010 A 
ATOM     92  C   UNL A   1      50.390  26.518  27.094  1.00  0.00     0.010 A 
ATOM     93  C   UNL A   1      51.211  26.996  24.463  1.00  0.00     0.020 A 
ATOM     94  C   UNL A   1      51.675  26.146  26.691  1.00  0.00     0.020 A 
ATOM     95  C   UNL A   1      52.073  26.377  25.374  1.00  0.00     0.054 A 
BRANCH  95  96
ATOM     96  S   UNL A   1      53.741  25.922  24.823  1.00  0.00     0.124 S 
ATOM     97  O   UNL A   1      54.382  27.227  24.686  1.00  0.00    -0.237 OA
ATOM     98  O   UNL A   1      54.226  25.097  25.927  1.00  0.00    -0.237 OA
ATOM     99  O   UNL A   1      53.510  25.206  23.571  1.00  0.00    -0.744 OA
ENDBRANCH  95  96
ENDBRANCH  69  90
ENDBRANCH  43  44
ENDBRANCH  35  38
ENDBRANCH  33  34
ENDBRANCH  32  33
ENDBRANCH  31  32
ENDBRANCH   1  31
TORSDOF 20
ENDMDL
