MODEL 1
REMARK VINA RESULT:      -9.4      0.000      0.000
REMARK SMILES COC(=O)C[C@H](NC(=O)N(C)C[C@@H]1CCC[N@H+]1C)C(=O)NCCCCCCNC(=O)c1ccc(-c2c3nc(c(-c4ccc(S(=O)(=O)[O-])cc4)c4ccc([nH]4)c(-c4ccc(S(=O)(=O)[O-])cc4)c4nc(c(-c5ccc(S(=O)(=O)[O-])cc5)c5ccc2[nH]5)C=C4)C=C3)cc1
REMARK SMILES IDX 24 1 23 2 22 3 21 4 19 5 20 6 6 8 5 9 3 10 4 11 2 12 1 13
REMARK SMILES IDX 7 14 8 15 9 17 10 18 11 19 12 20 13 21 14 22 17 23 15 24
REMARK SMILES IDX 16 25 18 26 25 28 26 29 27 30 28 31 29 32 30 34 31 35 32 36
REMARK SMILES IDX 90 37 33 38 89 39 34 40 35 41 36 42 83 43 37 44 88 45 82 46
REMARK SMILES IDX 84 47 38 48 87 49 81 50 80 51 39 53 69 54 50 55 68 56 51 57
REMARK SMILES IDX 54 58 67 59 85 60 52 61 53 62 66 64 86 65 55 66 40 67 41 68
REMARK SMILES IDX 49 69 42 70 48 71 43 72 44 73 45 74 46 75 47 76 70 77 71 78
REMARK SMILES IDX 79 79 72 80 78 81 73 82 74 83 75 84 76 85 77 86 56 87 57 88
REMARK SMILES IDX 65 89 58 90 64 91 59 92 60 93 61 94 62 95 63 96
REMARK H PARENT 21 7 7 16 17 27 28 33 84 52 54 63
REMARK Flexibility Score: inf
ROOT
ATOM      1  C   UNL A   1      35.039  20.434  25.227  1.00  0.00     0.002 C 
ENDROOT
BRANCH   1   2
ATOM      2  C   UNL A   1      33.943  21.014  26.113  1.00  0.00     0.021 C 
BRANCH   2   3
ATOM      3  C   UNL A   1      32.506  20.936  25.637  1.00  0.00     0.116 C 
BRANCH   3   4
ATOM      4  N   UNL A   1      31.625  21.687  26.494  1.00  0.00    -0.354 N 
ATOM      5  C   UNL A   1      31.213  22.974  26.411  1.00  0.00     0.243 C 
ATOM      6  O   UNL A   1      30.432  23.351  27.295  1.00  0.00    -0.273 OA
ATOM      7  H   UNL A   1      31.266  21.185  27.262  1.00  0.00     0.163 HD
BRANCH   5   8
ATOM      8  C   UNL A   1      31.533  23.934  25.236  1.00  0.00     0.184 C 
BRANCH   8   9
ATOM      9  C   UNL A   1      30.236  24.702  24.877  1.00  0.00     0.157 C 
BRANCH   9  10
ATOM     10  C   UNL A   1      30.152  26.105  25.435  1.00  0.00     0.308 C 
ATOM     11  O   UNL A   1      30.332  26.396  26.611  1.00  0.00    -0.252 OA
BRANCH  10  12
ATOM     12  O   UNL A   1      29.839  26.992  24.447  1.00  0.00    -0.469 OA
ATOM     13  C   UNL A   1      28.641  26.689  23.724  1.00  0.00     0.282 C 
ENDBRANCH  10  12
ENDBRANCH   9  10
ENDBRANCH   8   9
BRANCH   8  14
ATOM     14  N   UNL A   1      32.272  23.578  24.020  1.00  0.00    -0.326 N 
ATOM     15  C   UNL A   1      32.471  24.077  22.784  1.00  0.00     0.318 C 
ATOM     16  H   UNL A   1      32.762  22.733  24.142  1.00  0.00     0.166 HD
ATOM     17  O   UNL A   1      32.733  23.253  21.906  1.00  0.00    -0.249 OA
BRANCH  15  18
ATOM     18  N   UNL A   1      32.592  25.421  22.593  1.00  0.00    -0.322 N 
ATOM     19  C   UNL A   1      31.857  26.079  21.523  1.00  0.00     0.149 C 
BRANCH  18  20
ATOM     20  C   UNL A   1      33.873  26.040  22.988  1.00  0.00     0.185 C 
BRANCH  20  21
ATOM     21  C   UNL A   1      33.864  27.281  23.956  1.00  0.00     0.203 C 
ATOM     22  C   UNL A   1      34.071  26.755  25.396  1.00  0.00     0.073 C 
ATOM     23  N   UNL A   1      32.674  28.137  24.125  1.00  0.00    -0.333 N 
ATOM     24  C   UNL A   1      33.352  27.723  26.323  1.00  0.00     0.068 C 
ATOM     25  C   UNL A   1      32.851  28.817  25.415  1.00  0.00     0.262 C 
ATOM     26  C   UNL A   1      32.440  29.155  23.113  1.00  0.00     0.333 C 
ATOM     27  H   UNL A   1      31.864  27.520  24.054  1.00  0.00     0.348 HD
ENDBRANCH  20  21
ENDBRANCH  18  20
ENDBRANCH  15  18
ENDBRANCH   8  14
ENDBRANCH   5   8
ENDBRANCH   3   4
ENDBRANCH   2   3
ENDBRANCH   1   2
BRANCH   1  28
ATOM     28  C   UNL A   1      35.857  21.457  24.441  1.00  0.00     0.002 C 
BRANCH  28  29
ATOM     29  C   UNL A   1      35.677  22.926  24.844  1.00  0.00     0.021 C 
BRANCH  29  30
ATOM     30  C   UNL A   1      36.660  23.466  25.884  1.00  0.00     0.116 C 
BRANCH  30  31
ATOM     31  N   UNL A   1      37.807  22.599  26.076  1.00  0.00    -0.352 N 
ATOM     32  C   UNL A   1      39.084  22.889  26.483  1.00  0.00     0.251 C 
ATOM     33  H   UNL A   1      37.641  21.648  25.882  1.00  0.00     0.163 HD
ATOM     34  O   UNL A   1      39.952  22.022  26.398  1.00  0.00    -0.269 OA
BRANCH  32  35
ATOM     35  C   UNL A   1      39.437  24.232  26.997  1.00  0.00     0.039 A 
ATOM     36  C   UNL A   1      39.116  24.539  28.322  1.00  0.00     0.014 A 
ATOM     37  C   UNL A   1      40.029  25.204  26.185  1.00  0.00     0.014 A 
ATOM     38  C   UNL A   1      39.444  25.790  28.849  1.00  0.00     0.010 A 
ATOM     39  C   UNL A   1      40.413  26.433  26.730  1.00  0.00     0.010 A 
ATOM     40  C   UNL A   1      40.130  26.737  28.071  1.00  0.00    -0.014 A 
BRANCH  40  41
ATOM     41  C   UNL A   1      40.586  28.023  28.668  1.00  0.00     0.031 A 
ATOM     42  C   UNL A   1      41.988  28.180  29.196  1.00  0.00     0.074 A 
ATOM     43  C   UNL A   1      39.713  29.047  28.767  1.00  0.00     0.049 A 
ATOM     44  N   UNL A   1      42.540  29.224  29.761  1.00  0.00    -0.248 NA
ATOM     45  C   UNL A   1      42.881  27.015  29.089  1.00  0.00     0.031 C 
ATOM     46  C   UNL A   1      38.317  29.015  28.323  1.00  0.00     0.029 A 
ATOM     47  N   UNL A   1      39.867  30.315  29.272  1.00  0.00    -0.354 N 
ATOM     48  C   UNL A   1      43.838  28.842  30.085  1.00  0.00     0.074 A 
ATOM     49  C   UNL A   1      43.978  27.457  29.689  1.00  0.00     0.031 C 
ATOM     50  C   UNL A   1      37.752  30.211  28.553  1.00  0.00     0.029 A 
ATOM     51  C   UNL A   1      38.728  31.083  29.201  1.00  0.00     0.049 A 
ATOM     52  H   UNL A   1      40.715  30.645  29.651  1.00  0.00     0.167 HD
ATOM     53  C   UNL A   1      44.823  29.580  30.651  1.00  0.00     0.031 A 
ATOM     54  C   UNL A   1      38.484  32.340  29.620  1.00  0.00     0.031 A 
ATOM     55  C   UNL A   1      44.683  30.961  31.038  1.00  0.00     0.049 A 
ATOM     56  C   UNL A   1      39.591  33.126  30.269  1.00  0.00     0.074 A 
ATOM     57  C   UNL A   1      45.648  31.805  31.561  1.00  0.00     0.029 A 
ATOM     58  N   UNL A   1      43.513  31.698  30.952  1.00  0.00    -0.354 N 
ATOM     59  N   UNL A   1      40.833  32.769  30.493  1.00  0.00    -0.248 NA
ATOM     60  C   UNL A   1      39.268  34.489  30.714  1.00  0.00     0.031 C 
ATOM     61  C   UNL A   1      45.045  33.032  31.855  1.00  0.00     0.029 A 
ATOM     62  C   UNL A   1      43.722  32.975  31.448  1.00  0.00     0.049 A 
ATOM     63  H   UNL A   1      42.660  31.363  30.594  1.00  0.00     0.167 HD
ATOM     64  C   UNL A   1      41.445  33.873  31.077  1.00  0.00     0.074 A 
ATOM     65  C   UNL A   1      40.444  34.916  31.151  1.00  0.00     0.031 C 
ATOM     66  C   UNL A   1      42.720  34.009  31.515  1.00  0.00     0.031 A 
BRANCH  53  67
ATOM     67  C   UNL A   1      46.154  28.917  30.900  1.00  0.00    -0.014 A 
ATOM     68  C   UNL A   1      47.175  28.948  29.935  1.00  0.00     0.010 A 
ATOM     69  C   UNL A   1      46.420  28.343  32.158  1.00  0.00     0.010 A 
ATOM     70  C   UNL A   1      48.432  28.403  30.216  1.00  0.00     0.020 A 
ATOM     71  C   UNL A   1      47.683  27.821  32.453  1.00  0.00     0.020 A 
ATOM     72  C   UNL A   1      48.680  27.848  31.475  1.00  0.00     0.054 A 
BRANCH  72  73
ATOM     73  S   UNL A   1      50.339  27.206  31.832  1.00  0.00     0.124 S 
ATOM     74  O   UNL A   1      50.515  26.219  30.769  1.00  0.00    -0.237 OA
ATOM     75  O   UNL A   1      51.172  28.401  31.722  1.00  0.00    -0.237 OA
ATOM     76  O   UNL A   1      50.218  26.656  33.179  1.00  0.00    -0.744 OA
ENDBRANCH  72  73
ENDBRANCH  53  67
BRANCH  54  77
ATOM     77  C   UNL A   1      37.128  32.938  29.459  1.00  0.00    -0.014 A 
ATOM     78  C   UNL A   1      36.721  33.481  28.227  1.00  0.00     0.010 A 
ATOM     79  C   UNL A   1      36.244  32.993  30.552  1.00  0.00     0.010 A 
ATOM     80  C   UNL A   1      35.474  34.104  28.103  1.00  0.00     0.020 A 
ATOM     81  C   UNL A   1      34.982  33.581  30.423  1.00  0.00     0.020 A 
ATOM     82  C   UNL A   1      34.614  34.151  29.203  1.00  0.00     0.054 A 
BRANCH  82  83
ATOM     83  S   UNL A   1      32.996  34.950  29.018  1.00  0.00     0.124 S 
ATOM     84  O   UNL A   1      32.457  34.859  30.370  1.00  0.00    -0.237 OA
ATOM     85  O   UNL A   1      33.357  36.292  28.567  1.00  0.00    -0.237 OA
ATOM     86  O   UNL A   1      32.321  34.126  28.017  1.00  0.00    -0.744 OA
ENDBRANCH  82  83
ENDBRANCH  54  77
BRANCH  66  87
ATOM     87  C   UNL A   1      43.123  35.346  32.081  1.00  0.00    -0.014 A 
ATOM     88  C   UNL A   1      43.806  36.297  31.302  1.00  0.00     0.010 A 
ATOM     89  C   UNL A   1      42.768  35.675  33.403  1.00  0.00     0.010 A 
ATOM     90  C   UNL A   1      44.158  37.536  31.843  1.00  0.00     0.020 A 
ATOM     91  C   UNL A   1      43.090  36.924  33.939  1.00  0.00     0.020 A 
ATOM     92  C   UNL A   1      43.796  37.842  33.160  1.00  0.00     0.054 A 
BRANCH  92  93
ATOM     93  S   UNL A   1      44.229  39.473  33.825  1.00  0.00     0.124 S 
ATOM     94  O   UNL A   1      42.916  40.088  34.003  1.00  0.00    -0.237 OA
ATOM     95  O   UNL A   1      44.938  39.138  35.057  1.00  0.00    -0.237 OA
ATOM     96  O   UNL A   1      45.058  40.067  32.778  1.00  0.00    -0.744 OA
ENDBRANCH  92  93
ENDBRANCH  66  87
ENDBRANCH  40  41
ENDBRANCH  32  35
ENDBRANCH  30  31
ENDBRANCH  29  30
ENDBRANCH  28  29
ENDBRANCH   1  28
TORSDOF 23
ENDMDL
MODEL 2
REMARK VINA RESULT:      -9.4      3.761      4.714
REMARK SMILES COC(=O)C[C@H](NC(=O)N(C)C[C@@H]1CCC[N@H+]1C)C(=O)NCCCCCCNC(=O)c1ccc(-c2c3nc(c(-c4ccc(S(=O)(=O)[O-])cc4)c4ccc([nH]4)c(-c4ccc(S(=O)(=O)[O-])cc4)c4nc(c(-c5ccc(S(=O)(=O)[O-])cc5)c5ccc2[nH]5)C=C4)C=C3)cc1
REMARK SMILES IDX 24 1 23 2 22 3 21 4 19 5 20 6 6 8 5 9 3 10 4 11 2 12 1 13
REMARK SMILES IDX 7 14 8 15 9 17 10 18 11 19 12 20 13 21 14 22 17 23 15 24
REMARK SMILES IDX 16 25 18 26 25 28 26 29 27 30 28 31 29 32 30 34 31 35 32 36
REMARK SMILES IDX 90 37 33 38 89 39 34 40 35 41 36 42 83 43 37 44 88 45 82 46
REMARK SMILES IDX 84 47 38 48 87 49 81 50 80 51 39 53 69 54 50 55 68 56 51 57
REMARK SMILES IDX 54 58 67 59 85 60 52 61 53 62 66 64 86 65 55 66 40 67 41 68
REMARK SMILES IDX 49 69 42 70 48 71 43 72 44 73 45 74 46 75 47 76 70 77 71 78
REMARK SMILES IDX 79 79 72 80 78 81 73 82 74 83 75 84 76 85 77 86 56 87 57 88
REMARK SMILES IDX 65 89 58 90 64 91 59 92 60 93 61 94 62 95 63 96
REMARK H PARENT 21 7 7 16 17 27 28 33 84 52 54 63
REMARK Flexibility Score: inf
ROOT
ATOM      1  C   UNL A   1      38.820  21.837  25.896  1.00  0.00     0.002 C 
ENDROOT
BRANCH   1   2
ATOM      2  C   UNL A   1      38.180  23.206  26.091  1.00  0.00     0.021 C 
BRANCH   2   3
ATOM      3  C   UNL A   1      36.740  23.403  25.663  1.00  0.00     0.116 C 
BRANCH   3   4
ATOM      4  N   UNL A   1      36.148  22.168  25.217  1.00  0.00    -0.354 N 
ATOM      5  C   UNL A   1      34.935  21.930  24.666  1.00  0.00     0.243 C 
ATOM      6  O   UNL A   1      34.699  20.752  24.363  1.00  0.00    -0.273 OA
ATOM      7  H   UNL A   1      36.716  21.372  25.330  1.00  0.00     0.163 HD
BRANCH   5   8
ATOM      8  C   UNL A   1      33.909  23.024  24.269  1.00  0.00     0.184 C 
BRANCH   8   9
ATOM      9  C   UNL A   1      32.604  22.319  23.822  1.00  0.00     0.157 C 
BRANCH   9  10
ATOM     10  C   UNL A   1      31.708  21.865  24.953  1.00  0.00     0.308 C 
ATOM     11  O   UNL A   1      31.674  20.724  25.395  1.00  0.00    -0.252 OA
BRANCH  10  12
ATOM     12  O   UNL A   1      30.940  22.901  25.397  1.00  0.00    -0.469 OA
ATOM     13  C   UNL A   1      31.108  23.225  26.782  1.00  0.00     0.282 C 
ENDBRANCH  10  12
ENDBRANCH   9  10
ENDBRANCH   8   9
BRANCH   8  14
ATOM     14  N   UNL A   1      34.187  24.182  23.412  1.00  0.00    -0.326 N 
ATOM     15  C   UNL A   1      33.669  25.404  23.178  1.00  0.00     0.318 C 
ATOM     16  H   UNL A   1      34.977  24.020  22.847  1.00  0.00     0.166 HD
ATOM     17  O   UNL A   1      33.868  25.867  22.054  1.00  0.00    -0.249 OA
BRANCH  15  18
ATOM     18  N   UNL A   1      33.160  26.146  24.201  1.00  0.00    -0.322 N 
ATOM     19  C   UNL A   1      33.980  26.454  25.364  1.00  0.00     0.149 C 
BRANCH  18  20
ATOM     20  C   UNL A   1      31.703  26.060  24.429  1.00  0.00     0.185 C 
BRANCH  20  21
ATOM     21  C   UNL A   1      30.829  27.364  24.326  1.00  0.00     0.203 C 
ATOM     22  C   UNL A   1      30.048  27.302  22.991  1.00  0.00     0.073 C 
ATOM     23  N   UNL A   1      31.430  28.710  24.251  1.00  0.00    -0.333 N 
ATOM     24  C   UNL A   1      29.838  28.740  22.541  1.00  0.00     0.068 C 
ATOM     25  C   UNL A   1      30.400  29.576  23.662  1.00  0.00     0.262 C 
ATOM     26  C   UNL A   1      31.859  29.315  25.502  1.00  0.00     0.333 C 
ATOM     27  H   UNL A   1      32.291  28.610  23.711  1.00  0.00     0.348 HD
ENDBRANCH  20  21
ENDBRANCH  18  20
ENDBRANCH  15  18
ENDBRANCH   8  14
ENDBRANCH   5   8
ENDBRANCH   3   4
ENDBRANCH   2   3
ENDBRANCH   1   2
BRANCH   1  28
ATOM     28  C   UNL A   1      40.319  21.766  26.184  1.00  0.00     0.002 C 
BRANCH  28  29
ATOM     29  C   UNL A   1      40.763  22.200  27.586  1.00  0.00     0.021 C 
BRANCH  29  30
ATOM     30  C   UNL A   1      42.029  23.054  27.659  1.00  0.00     0.116 C 
BRANCH  30  31
ATOM     31  N   UNL A   1      42.286  23.784  26.433  1.00  0.00    -0.352 N 
ATOM     32  C   UNL A   1      42.162  25.121  26.149  1.00  0.00     0.251 C 
ATOM     33  H   UNL A   1      42.599  23.230  25.682  1.00  0.00     0.163 HD
ATOM     34  O   UNL A   1      42.257  25.497  24.982  1.00  0.00    -0.269 OA
BRANCH  32  35
ATOM     35  C   UNL A   1      41.894  26.108  27.219  1.00  0.00     0.039 A 
ATOM     36  C   UNL A   1      40.775  25.913  28.033  1.00  0.00     0.014 A 
ATOM     37  C   UNL A   1      42.692  27.243  27.397  1.00  0.00     0.014 A 
ATOM     38  C   UNL A   1      40.495  26.816  29.063  1.00  0.00     0.010 A 
ATOM     39  C   UNL A   1      42.446  28.111  28.465  1.00  0.00     0.010 A 
ATOM     40  C   UNL A   1      41.348  27.903  29.315  1.00  0.00    -0.014 A 
BRANCH  40  41
ATOM     41  C   UNL A   1      41.116  28.794  30.485  1.00  0.00     0.031 A 
ATOM     42  C   UNL A   1      41.940  28.660  31.738  1.00  0.00     0.074 A 
ATOM     43  C   UNL A   1      40.127  29.710  30.427  1.00  0.00     0.049 A 
ATOM     44  N   UNL A   1      41.858  29.343  32.852  1.00  0.00    -0.248 NA
ATOM     45  C   UNL A   1      42.981  27.619  31.750  1.00  0.00     0.031 C 
ATOM     46  C   UNL A   1      39.234  29.921  29.284  1.00  0.00     0.029 A 
ATOM     47  N   UNL A   1      39.703  30.636  31.349  1.00  0.00    -0.354 N 
ATOM     48  C   UNL A   1      42.825  28.812  33.699  1.00  0.00     0.074 A 
ATOM     49  C   UNL A   1      43.456  27.724  32.984  1.00  0.00     0.031 C 
ATOM     50  C   UNL A   1      38.388  30.925  29.563  1.00  0.00     0.029 A 
ATOM     51  C   UNL A   1      38.644  31.402  30.919  1.00  0.00     0.049 A 
ATOM     52  H   UNL A   1      40.117  30.742  32.236  1.00  0.00     0.167 HD
ATOM     53  C   UNL A   1      43.161  29.202  34.952  1.00  0.00     0.031 A 
ATOM     54  C   UNL A   1      37.944  32.369  31.544  1.00  0.00     0.031 A 
ATOM     55  C   UNL A   1      42.537  30.291  35.659  1.00  0.00     0.049 A 
ATOM     56  C   UNL A   1      38.325  32.762  32.946  1.00  0.00     0.074 A 
ATOM     57  C   UNL A   1      42.856  30.796  36.908  1.00  0.00     0.029 A 
ATOM     58  N   UNL A   1      41.467  31.036  35.190  1.00  0.00    -0.354 N 
ATOM     59  N   UNL A   1      39.295  32.298  33.697  1.00  0.00    -0.248 NA
ATOM     60  C   UNL A   1      37.523  33.817  33.582  1.00  0.00     0.031 C 
ATOM     61  C   UNL A   1      41.937  31.802  37.223  1.00  0.00     0.029 A 
ATOM     62  C   UNL A   1      41.091  31.972  36.140  1.00  0.00     0.049 A 
ATOM     63  H   UNL A   1      41.038  30.918  34.312  1.00  0.00     0.167 HD
ATOM     64  C   UNL A   1      39.237  33.026  34.881  1.00  0.00     0.074 A 
ATOM     65  C   UNL A   1      38.153  33.973  34.739  1.00  0.00     0.031 C 
ATOM     66  C   UNL A   1      40.011  32.915  35.988  1.00  0.00     0.031 A 
BRANCH  53  67
ATOM     67  C   UNL A   1      44.258  28.447  35.661  1.00  0.00    -0.014 A 
ATOM     68  C   UNL A   1      45.600  28.854  35.567  1.00  0.00     0.010 A 
ATOM     69  C   UNL A   1      43.926  27.378  36.514  1.00  0.00     0.010 A 
ATOM     70  C   UNL A   1      46.592  28.195  36.300  1.00  0.00     0.020 A 
ATOM     71  C   UNL A   1      44.911  26.733  37.268  1.00  0.00     0.020 A 
ATOM     72  C   UNL A   1      46.241  27.143  37.150  1.00  0.00     0.054 A 
BRANCH  72  73
ATOM     73  S   UNL A   1      47.541  26.349  38.135  1.00  0.00     0.124 S 
ATOM     74  O   UNL A   1      46.901  25.095  38.526  1.00  0.00    -0.237 OA
ATOM     75  O   UNL A   1      48.634  26.222  37.174  1.00  0.00    -0.237 OA
ATOM     76  O   UNL A   1      47.779  27.292  39.224  1.00  0.00    -0.744 OA
ENDBRANCH  72  73
ENDBRANCH  53  67
BRANCH  54  77
ATOM     77  C   UNL A   1      36.794  33.027  30.861  1.00  0.00    -0.014 A 
ATOM     78  C   UNL A   1      37.006  34.041  29.909  1.00  0.00     0.010 A 
ATOM     79  C   UNL A   1      35.475  32.662  31.184  1.00  0.00     0.010 A 
ATOM     80  C   UNL A   1      35.921  34.703  29.325  1.00  0.00     0.020 A 
ATOM     81  C   UNL A   1      34.387  33.295  30.575  1.00  0.00     0.020 A 
ATOM     82  C   UNL A   1      34.619  34.327  29.664  1.00  0.00     0.054 A 
BRANCH  82  83
ATOM     83  S   UNL A   1      33.225  35.188  28.884  1.00  0.00     0.124 S 
ATOM     84  O   UNL A   1      32.444  35.608  30.042  1.00  0.00    -0.237 OA
ATOM     85  O   UNL A   1      33.891  36.259  28.145  1.00  0.00    -0.237 OA
ATOM     86  O   UNL A   1      32.609  34.157  28.052  1.00  0.00    -0.744 OA
ENDBRANCH  82  83
ENDBRANCH  54  77
BRANCH  66  87
ATOM     87  C   UNL A   1      39.742  33.868  37.124  1.00  0.00    -0.014 A 
ATOM     88  C   UNL A   1      38.899  33.514  38.193  1.00  0.00     0.010 A 
ATOM     89  C   UNL A   1      40.383  35.120  37.146  1.00  0.00     0.010 A 
ATOM     90  C   UNL A   1      38.673  34.408  39.243  1.00  0.00     0.020 A 
ATOM     91  C   UNL A   1      40.187  36.005  38.209  1.00  0.00     0.020 A 
ATOM     92  C   UNL A   1      39.321  35.649  39.245  1.00  0.00     0.054 A 
BRANCH  92  93
ATOM     93  S   UNL A   1      39.043  36.774  40.640  1.00  0.00     0.124 S 
ATOM     94  O   UNL A   1      38.288  35.933  41.565  1.00  0.00    -0.237 OA
ATOM     95  O   UNL A   1      40.402  37.106  41.059  1.00  0.00    -0.237 OA
ATOM     96  O   UNL A   1      38.292  37.880  40.050  1.00  0.00    -0.744 OA
ENDBRANCH  92  93
ENDBRANCH  66  87
ENDBRANCH  40  41
ENDBRANCH  32  35
ENDBRANCH  30  31
ENDBRANCH  29  30
ENDBRANCH  28  29
ENDBRANCH   1  28
TORSDOF 23
ENDMDL
MODEL 3
REMARK VINA RESULT:      -9.2      3.800      5.201
REMARK SMILES COC(=O)C[C@H](NC(=O)N(C)C[C@@H]1CCC[N@H+]1C)C(=O)NCCCCCCNC(=O)c1ccc(-c2c3nc(c(-c4ccc(S(=O)(=O)[O-])cc4)c4ccc([nH]4)c(-c4ccc(S(=O)(=O)[O-])cc4)c4nc(c(-c5ccc(S(=O)(=O)[O-])cc5)c5ccc2[nH]5)C=C4)C=C3)cc1
REMARK SMILES IDX 24 1 23 2 22 3 21 4 19 5 20 6 6 8 5 9 3 10 4 11 2 12 1 13
REMARK SMILES IDX 7 14 8 15 9 17 10 18 11 19 12 20 13 21 14 22 17 23 15 24
REMARK SMILES IDX 16 25 18 26 25 28 26 29 27 30 28 31 29 32 30 34 31 35 32 36
REMARK SMILES IDX 90 37 33 38 89 39 34 40 35 41 36 42 83 43 37 44 88 45 82 46
REMARK SMILES IDX 84 47 38 48 87 49 81 50 80 51 39 53 69 54 50 55 68 56 51 57
REMARK SMILES IDX 54 58 67 59 85 60 52 61 53 62 66 64 86 65 55 66 40 67 41 68
REMARK SMILES IDX 49 69 42 70 48 71 43 72 44 73 45 74 46 75 47 76 70 77 71 78
REMARK SMILES IDX 79 79 72 80 78 81 73 82 74 83 75 84 76 85 77 86 56 87 57 88
REMARK SMILES IDX 65 89 58 90 64 91 59 92 60 93 61 94 62 95 63 96
REMARK H PARENT 21 7 7 16 17 27 28 33 84 52 54 63
REMARK Flexibility Score: inf
ROOT
ATOM      1  C   UNL A   1      39.806  22.739  27.107  1.00  0.00     0.002 C 
ENDROOT
BRANCH   1   2
ATOM      2  C   UNL A   1      39.345  21.706  26.087  1.00  0.00     0.021 C 
BRANCH   2   3
ATOM      3  C   UNL A   1      37.889  21.699  25.666  1.00  0.00     0.116 C 
BRANCH   3   4
ATOM      4  N   UNL A   1      37.721  22.232  24.339  1.00  0.00    -0.354 N 
ATOM      5  C   UNL A   1      36.592  22.519  23.649  1.00  0.00     0.243 C 
ATOM      6  O   UNL A   1      36.755  22.988  22.513  1.00  0.00    -0.273 OA
ATOM      7  H   UNL A   1      38.560  22.417  23.857  1.00  0.00     0.163 HD
BRANCH   5   8
ATOM      8  C   UNL A   1      35.154  22.437  24.224  1.00  0.00     0.184 C 
BRANCH   8   9
ATOM      9  C   UNL A   1      34.488  23.825  24.052  1.00  0.00     0.157 C 
BRANCH   9  10
ATOM     10  C   UNL A   1      33.826  24.051  22.711  1.00  0.00     0.308 C 
ATOM     11  O   UNL A   1      33.167  23.211  22.113  1.00  0.00    -0.252 OA
BRANCH  10  12
ATOM     12  O   UNL A   1      34.078  25.315  22.263  1.00  0.00    -0.469 OA
ATOM     13  C   UNL A   1      32.912  26.100  21.987  1.00  0.00     0.282 C 
ENDBRANCH  10  12
ENDBRANCH   9  10
ENDBRANCH   8   9
BRANCH   8  14
ATOM     14  N   UNL A   1      34.785  21.847  25.515  1.00  0.00    -0.326 N 
ATOM     15  C   UNL A   1      33.672  21.654  26.249  1.00  0.00     0.318 C 
ATOM     16  H   UNL A   1      35.578  21.490  25.978  1.00  0.00     0.166 HD
ATOM     17  O   UNL A   1      33.835  21.586  27.468  1.00  0.00    -0.249 OA
BRANCH  15  18
ATOM     18  N   UNL A   1      32.493  21.336  25.644  1.00  0.00    -0.322 N 
ATOM     19  C   UNL A   1      32.487  20.606  24.384  1.00  0.00     0.149 C 
BRANCH  18  20
ATOM     20  C   UNL A   1      31.353  22.244  25.882  1.00  0.00     0.185 C 
BRANCH  20  21
ATOM     21  C   UNL A   1      31.438  23.735  25.384  1.00  0.00     0.203 C 
ATOM     22  C   UNL A   1      31.560  24.641  26.632  1.00  0.00     0.073 C 
ATOM     23  N   UNL A   1      30.331  24.385  24.657  1.00  0.00    -0.333 N 
ATOM     24  C   UNL A   1      30.914  25.971  26.272  1.00  0.00     0.068 C 
ATOM     25  C   UNL A   1      30.541  25.831  24.818  1.00  0.00     0.262 C 
ATOM     26  C   UNL A   1      30.219  24.108  23.233  1.00  0.00     0.333 C 
ATOM     27  H   UNL A   1      29.468  24.013  25.055  1.00  0.00     0.348 HD
ENDBRANCH  20  21
ENDBRANCH  18  20
ENDBRANCH  15  18
ENDBRANCH   8  14
ENDBRANCH   5   8
ENDBRANCH   3   4
ENDBRANCH   2   3
ENDBRANCH   1   2
BRANCH   1  28
ATOM     28  C   UNL A   1      41.101  22.401  27.844  1.00  0.00     0.002 C 
BRANCH  28  29
ATOM     29  C   UNL A   1      42.361  22.269  26.978  1.00  0.00     0.021 C 
BRANCH  29  30
ATOM     30  C   UNL A   1      43.333  23.449  27.016  1.00  0.00     0.116 C 
BRANCH  30  31
ATOM     31  N   UNL A   1      43.159  24.355  25.898  1.00  0.00    -0.352 N 
ATOM     32  C   UNL A   1      42.674  25.638  25.858  1.00  0.00     0.251 C 
ATOM     33  H   UNL A   1      43.433  23.990  25.025  1.00  0.00     0.163 HD
ATOM     34  O   UNL A   1      42.441  26.157  24.768  1.00  0.00    -0.269 OA
BRANCH  32  35
ATOM     35  C   UNL A   1      42.407  26.394  27.102  1.00  0.00     0.039 A 
ATOM     36  C   UNL A   1      43.258  27.453  27.429  1.00  0.00     0.014 A 
ATOM     37  C   UNL A   1      41.369  26.045  27.972  1.00  0.00     0.014 A 
ATOM     38  C   UNL A   1      43.031  28.199  28.589  1.00  0.00     0.010 A 
ATOM     39  C   UNL A   1      41.105  26.830  29.098  1.00  0.00     0.010 A 
ATOM     40  C   UNL A   1      41.930  27.921  29.416  1.00  0.00    -0.014 A 
BRANCH  40  41
ATOM     41  C   UNL A   1      41.619  28.791  30.583  1.00  0.00     0.031 A 
ATOM     42  C   UNL A   1      42.418  28.694  31.857  1.00  0.00     0.074 A 
ATOM     43  C   UNL A   1      40.583  29.652  30.505  1.00  0.00     0.049 A 
ATOM     44  N   UNL A   1      42.270  29.365  32.972  1.00  0.00    -0.248 NA
ATOM     45  C   UNL A   1      43.514  27.712  31.890  1.00  0.00     0.031 C 
ATOM     46  C   UNL A   1      39.710  29.820  29.340  1.00  0.00     0.029 A 
ATOM     47  N   UNL A   1      40.085  30.547  31.421  1.00  0.00    -0.354 N 
ATOM     48  C   UNL A   1      43.242  28.882  33.841  1.00  0.00     0.074 A 
ATOM     49  C   UNL A   1      43.951  27.835  33.137  1.00  0.00     0.031 C 
ATOM     50  C   UNL A   1      38.803  30.775  29.603  1.00  0.00     0.029 A 
ATOM     51  C   UNL A   1      38.997  31.256  30.967  1.00  0.00     0.049 A 
ATOM     52  H   UNL A   1      40.471  30.670  32.319  1.00  0.00     0.167 HD
ATOM     53  C   UNL A   1      43.525  29.282  35.104  1.00  0.00     0.031 A 
ATOM     54  C   UNL A   1      38.229  32.179  31.579  1.00  0.00     0.031 A 
ATOM     55  C   UNL A   1      42.823  30.331  35.800  1.00  0.00     0.049 A 
ATOM     56  C   UNL A   1      38.552  32.583  32.992  1.00  0.00     0.074 A 
ATOM     57  C   UNL A   1      43.083  30.845  37.060  1.00  0.00     0.029 A 
ATOM     58  N   UNL A   1      41.727  31.019  35.307  1.00  0.00    -0.354 N 
ATOM     59  N   UNL A   1      39.527  32.169  33.765  1.00  0.00    -0.248 NA
ATOM     60  C   UNL A   1      37.678  33.589  33.613  1.00  0.00     0.031 C 
ATOM     61  C   UNL A   1      42.102  31.796  37.355  1.00  0.00     0.029 A 
ATOM     62  C   UNL A   1      41.276  31.926  36.252  1.00  0.00     0.049 A 
ATOM     63  H   UNL A   1      41.327  30.883  34.418  1.00  0.00     0.167 HD
ATOM     64  C   UNL A   1      39.399  32.885  34.951  1.00  0.00     0.074 A 
ATOM     65  C   UNL A   1      38.268  33.772  34.786  1.00  0.00     0.031 C 
ATOM     66  C   UNL A   1      40.150  32.810  36.077  1.00  0.00     0.031 A 
BRANCH  53  67
ATOM     67  C   UNL A   1      44.643  28.585  35.837  1.00  0.00    -0.014 A 
ATOM     68  C   UNL A   1      44.378  27.690  36.889  1.00  0.00     0.010 A 
ATOM     69  C   UNL A   1      45.971  28.749  35.398  1.00  0.00     0.010 A 
ATOM     70  C   UNL A   1      45.421  26.987  37.499  1.00  0.00     0.020 A 
ATOM     71  C   UNL A   1      47.013  28.028  35.988  1.00  0.00     0.020 A 
ATOM     72  C   UNL A   1      46.731  27.156  37.041  1.00  0.00     0.054 A 
BRANCH  72  73
ATOM     73  S   UNL A   1      48.054  26.182  37.812  1.00  0.00     0.124 S 
ATOM     74  O   UNL A   1      48.783  27.203  38.561  1.00  0.00    -0.237 OA
ATOM     75  O   UNL A   1      47.310  25.222  38.623  1.00  0.00    -0.237 OA
ATOM     76  O   UNL A   1      48.773  25.611  36.677  1.00  0.00    -0.744 OA
ENDBRANCH  72  73
ENDBRANCH  53  67
BRANCH  54  77
ATOM     77  C   UNL A   1      37.063  32.778  30.869  1.00  0.00    -0.014 A 
ATOM     78  C   UNL A   1      37.236  33.842  29.966  1.00  0.00     0.010 A 
ATOM     79  C   UNL A   1      35.762  32.303  31.119  1.00  0.00     0.010 A 
ATOM     80  C   UNL A   1      36.130  34.445  29.359  1.00  0.00     0.020 A 
ATOM     81  C   UNL A   1      34.657  32.878  30.486  1.00  0.00     0.020 A 
ATOM     82  C   UNL A   1      34.847  33.960  29.625  1.00  0.00     0.054 A 
BRANCH  82  83
ATOM     83  S   UNL A   1      33.427  34.747  28.816  1.00  0.00     0.124 S 
ATOM     84  O   UNL A   1      32.978  33.698  27.906  1.00  0.00    -0.237 OA
ATOM     85  O   UNL A   1      32.541  35.032  29.942  1.00  0.00    -0.237 OA
ATOM     86  O   UNL A   1      34.007  35.925  28.176  1.00  0.00    -0.744 OA
ENDBRANCH  82  83
ENDBRANCH  54  77
BRANCH  66  87
ATOM     87  C   UNL A   1      39.799  33.739  37.211  1.00  0.00    -0.014 A 
ATOM     88  C   UNL A   1      38.915  33.349  38.232  1.00  0.00     0.010 A 
ATOM     89  C   UNL A   1      40.405  35.008  37.280  1.00  0.00     0.010 A 
ATOM     90  C   UNL A   1      38.615  34.221  39.281  1.00  0.00     0.020 A 
ATOM     91  C   UNL A   1      40.133  35.872  38.344  1.00  0.00     0.020 A 
ATOM     92  C   UNL A   1      39.227  35.478  39.330  1.00  0.00     0.054 A 
BRANCH  92  93
ATOM     93  S   UNL A   1      38.852  36.576  40.725  1.00  0.00     0.124 S 
ATOM     94  O   UNL A   1      40.170  36.771  41.323  1.00  0.00    -0.237 OA
ATOM     95  O   UNL A   1      38.282  37.748  40.065  1.00  0.00    -0.237 OA
ATOM     96  O   UNL A   1      37.909  35.803  41.531  1.00  0.00    -0.744 OA
ENDBRANCH  92  93
ENDBRANCH  66  87
ENDBRANCH  40  41
ENDBRANCH  32  35
ENDBRANCH  30  31
ENDBRANCH  29  30
ENDBRANCH  28  29
ENDBRANCH   1  28
TORSDOF 23
ENDMDL
