MODEL 1
REMARK VINA RESULT:     -10.6      0.000      0.000
REMARK SMILES COCC[C@@]1(C(=O)NCCCCCCNC(=O)c2ccc(-c3c4nc(c(-c5ccc(S(=O)(=O)[O-])cc5)c5ccc([nH]5)c(-c5ccc(S(=O)(=O)[O-])cc5)c5nc(c(-c6ccc(S(=O)(=O)[O-])cc6)c6ccc3[nH]6)C=C5)C=C4)cc2)CCCN(C(=O)NCc2ccc(OC)cc2)C1
REMARK SMILES IDX 11 1 10 2 9 3 8 4 6 5 7 6 5 8 78 9 94 10 79 11 81 12 80 13
REMARK SMILES IDX 4 14 3 15 2 16 1 17 82 18 83 19 84 20 85 22 86 23 87 24
REMARK SMILES IDX 93 25 88 26 92 27 89 28 90 29 91 30 12 31 13 32 14 33 15 34
REMARK SMILES IDX 16 35 17 37 18 38 19 39 77 40 20 41 76 42 21 43 22 44 23 45
REMARK SMILES IDX 70 46 24 47 75 48 69 49 71 50 25 51 74 52 68 53 67 54 26 56
REMARK SMILES IDX 56 57 37 58 55 59 38 60 41 61 54 62 72 63 39 64 40 65 53 67
REMARK SMILES IDX 73 68 42 69 27 70 28 71 36 72 29 73 35 74 30 75 31 76 32 77
REMARK SMILES IDX 33 78 34 79 57 80 58 81 66 82 59 83 65 84 60 85 61 86 62 87
REMARK SMILES IDX 63 88 64 89 43 90 44 91 52 92 45 93 51 94 46 95 47 96 48 97
REMARK SMILES IDX 49 98 50 99
REMARK H PARENT 8 7 84 21 15 36 71 55 41 66
REMARK Flexibility Score: inf
ROOT
ATOM      1  C   UNL A   1      32.367  30.646  26.980  1.00  0.00     0.002 C 
ENDROOT
BRANCH   1   2
ATOM      2  C   UNL A   1      32.042  29.562  25.956  1.00  0.00     0.021 C 
BRANCH   2   3
ATOM      3  C   UNL A   1      31.470  28.264  26.506  1.00  0.00     0.116 C 
BRANCH   3   4
ATOM      4  N   UNL A   1      32.399  27.164  26.594  1.00  0.00    -0.356 N 
ATOM      5  C   UNL A   1      33.026  26.469  25.609  1.00  0.00     0.228 C 
ATOM      6  O   UNL A   1      34.148  26.052  25.937  1.00  0.00    -0.274 OA
ATOM      7  H   UNL A   1      32.613  26.870  27.510  1.00  0.00     0.163 HD
BRANCH   5   8
ATOM      8  C   UNL A   1      32.444  26.064  24.218  1.00  0.00     0.069 C 
ATOM      9  C   UNL A   1      31.053  25.405  24.497  1.00  0.00     0.021 C 
ATOM     10  C   UNL A   1      33.214  25.071  23.329  1.00  0.00     0.138 C 
ATOM     11  C   UNL A   1      31.204  23.995  25.096  1.00  0.00     0.023 C 
ATOM     12  N   UNL A   1      33.302  23.715  23.857  1.00  0.00    -0.324 N 
ATOM     13  C   UNL A   1      32.025  23.094  24.179  1.00  0.00     0.121 C 
BRANCH   8  14
ATOM     14  C   UNL A   1      32.262  27.331  23.297  1.00  0.00     0.047 C 
BRANCH  14  15
ATOM     15  C   UNL A   1      31.452  27.247  22.002  1.00  0.00     0.161 C 
BRANCH  15  16
ATOM     16  O   UNL A   1      30.245  28.015  22.079  1.00  0.00    -0.385 OA
ATOM     17  C   UNL A   1      30.413  29.293  22.676  1.00  0.00     0.194 C 
ENDBRANCH  15  16
ENDBRANCH  14  15
ENDBRANCH   8  14
BRANCH  12  18
ATOM     18  C   UNL A   1      34.427  23.018  23.514  1.00  0.00     0.317 C 
ATOM     19  O   UNL A   1      35.265  23.470  22.731  1.00  0.00    -0.249 OA
ATOM     20  N   UNL A   1      34.761  21.892  24.150  1.00  0.00    -0.334 N 
ATOM     21  H   UNL A   1      35.553  21.464  23.749  1.00  0.00     0.165 HD
BRANCH  20  22
ATOM     22  C   UNL A   1      34.254  21.141  25.283  1.00  0.00     0.153 C 
BRANCH  22  23
ATOM     23  C   UNL A   1      34.026  19.723  24.828  1.00  0.00    -0.028 A 
ATOM     24  C   UNL A   1      32.714  19.247  24.672  1.00  0.00     0.009 A 
ATOM     25  C   UNL A   1      35.092  18.832  24.671  1.00  0.00     0.009 A 
ATOM     26  C   UNL A   1      32.473  17.891  24.473  1.00  0.00     0.047 A 
ATOM     27  C   UNL A   1      34.846  17.474  24.438  1.00  0.00     0.047 A 
ATOM     28  C   UNL A   1      33.536  16.995  24.373  1.00  0.00     0.118 A 
BRANCH  28  29
ATOM     29  O   UNL A   1      33.155  15.690  24.244  1.00  0.00    -0.497 OA
ATOM     30  C   UNL A   1      32.733  15.021  25.423  1.00  0.00     0.278 C 
ENDBRANCH  28  29
ENDBRANCH  22  23
ENDBRANCH  20  22
ENDBRANCH  12  18
ENDBRANCH   5   8
ENDBRANCH   3   4
ENDBRANCH   2   3
ENDBRANCH   1   2
BRANCH   1  31
ATOM     31  C   UNL A   1      33.815  30.710  27.480  1.00  0.00     0.002 C 
BRANCH  31  32
ATOM     32  C   UNL A   1      34.246  31.991  28.201  1.00  0.00     0.021 C 
BRANCH  32  33
ATOM     33  C   UNL A   1      35.620  31.972  28.861  1.00  0.00     0.116 C 
BRANCH  33  34
ATOM     34  N   UNL A   1      35.564  31.550  30.247  1.00  0.00    -0.352 N 
ATOM     35  C   UNL A   1      36.409  30.753  30.974  1.00  0.00     0.251 C 
ATOM     36  H   UNL A   1      34.789  31.893  30.750  1.00  0.00     0.163 HD
ATOM     37  O   UNL A   1      36.054  30.383  32.096  1.00  0.00    -0.269 OA
BRANCH  35  38
ATOM     38  C   UNL A   1      37.722  30.316  30.444  1.00  0.00     0.039 A 
ATOM     39  C   UNL A   1      38.664  29.802  31.343  1.00  0.00     0.014 A 
ATOM     40  C   UNL A   1      38.071  30.472  29.099  1.00  0.00     0.014 A 
ATOM     41  C   UNL A   1      39.931  29.415  30.892  1.00  0.00     0.010 A 
ATOM     42  C   UNL A   1      39.311  30.024  28.637  1.00  0.00     0.010 A 
ATOM     43  C   UNL A   1      40.260  29.506  29.531  1.00  0.00    -0.014 A 
BRANCH  43  44
ATOM     44  C   UNL A   1      41.604  29.093  29.042  1.00  0.00     0.031 A 
ATOM     45  C   UNL A   1      42.729  30.093  28.976  1.00  0.00     0.074 A 
ATOM     46  C   UNL A   1      41.807  27.827  28.628  1.00  0.00     0.049 A 
ATOM     47  N   UNL A   1      43.958  29.925  28.554  1.00  0.00    -0.248 NA
ATOM     48  C   UNL A   1      42.431  31.462  29.424  1.00  0.00     0.031 C 
ATOM     49  C   UNL A   1      40.796  26.768  28.609  1.00  0.00     0.029 A 
ATOM     50  N   UNL A   1      42.937  27.214  28.143  1.00  0.00    -0.354 N 
ATOM     51  C   UNL A   1      44.572  31.168  28.671  1.00  0.00     0.074 A 
ATOM     52  C   UNL A   1      43.569  32.089  29.160  1.00  0.00     0.031 C 
ATOM     53  C   UNL A   1      41.355  25.632  28.161  1.00  0.00     0.029 A 
ATOM     54  C   UNL A   1      42.755  25.887  27.831  1.00  0.00     0.049 A 
ATOM     55  H   UNL A   1      43.795  27.682  28.029  1.00  0.00     0.167 HD
ATOM     56  C   UNL A   1      45.858  31.510  28.415  1.00  0.00     0.031 A 
ATOM     57  C   UNL A   1      43.616  24.977  27.336  1.00  0.00     0.031 A 
ATOM     58  C   UNL A   1      46.863  30.594  27.941  1.00  0.00     0.049 A 
ATOM     59  C   UNL A   1      45.040  25.379  27.064  1.00  0.00     0.074 A 
ATOM     60  C   UNL A   1      48.201  30.840  27.686  1.00  0.00     0.029 A 
ATOM     61  N   UNL A   1      46.641  29.257  27.655  1.00  0.00    -0.354 N 
ATOM     62  N   UNL A   1      45.612  26.549  27.226  1.00  0.00    -0.248 NA
ATOM     63  C   UNL A   1      45.939  24.333  26.558  1.00  0.00     0.031 C 
ATOM     64  C   UNL A   1      48.781  29.657  27.212  1.00  0.00     0.029 A 
ATOM     65  C   UNL A   1      47.814  28.665  27.219  1.00  0.00     0.049 A 
ATOM     66  H   UNL A   1      45.776  28.795  27.749  1.00  0.00     0.167 HD
ATOM     67  C   UNL A   1      46.944  26.370  26.870  1.00  0.00     0.074 A 
ATOM     68  C   UNL A   1      47.096  24.979  26.497  1.00  0.00     0.031 C 
ATOM     69  C   UNL A   1      47.952  27.277  26.855  1.00  0.00     0.031 A 
BRANCH  56  70
ATOM     70  C   UNL A   1      46.252  32.946  28.647  1.00  0.00    -0.014 A 
ATOM     71  C   UNL A   1      46.090  33.913  27.638  1.00  0.00     0.010 A 
ATOM     72  C   UNL A   1      46.763  33.341  29.897  1.00  0.00     0.010 A 
ATOM     73  C   UNL A   1      46.475  35.238  27.857  1.00  0.00     0.020 A 
ATOM     74  C   UNL A   1      47.124  34.672  30.129  1.00  0.00     0.020 A 
ATOM     75  C   UNL A   1      46.996  35.608  29.101  1.00  0.00     0.054 A 
BRANCH  75  76
ATOM     76  S   UNL A   1      47.478  37.337  29.364  1.00  0.00     0.124 S 
ATOM     77  O   UNL A   1      48.933  37.262  29.262  1.00  0.00    -0.237 OA
ATOM     78  O   UNL A   1      46.808  38.029  28.264  1.00  0.00    -0.237 OA
ATOM     79  O   UNL A   1      46.960  37.643  30.695  1.00  0.00    -0.744 OA
ENDBRANCH  75  76
ENDBRANCH  56  70
BRANCH  57  80
ATOM     80  C   UNL A   1      43.160  23.583  27.085  1.00  0.00    -0.014 A 
ATOM     81  C   UNL A   1      43.319  22.593  28.071  1.00  0.00     0.010 A 
ATOM     82  C   UNL A   1      42.560  23.239  25.861  1.00  0.00     0.010 A 
ATOM     83  C   UNL A   1      42.909  21.278  27.829  1.00  0.00     0.020 A 
ATOM     84  C   UNL A   1      42.126  21.932  25.624  1.00  0.00     0.020 A 
ATOM     85  C   UNL A   1      42.316  20.956  26.604  1.00  0.00     0.054 A 
BRANCH  85  86
ATOM     86  S   UNL A   1      41.751  19.254  26.322  1.00  0.00     0.124 S 
ATOM     87  O   UNL A   1      40.444  19.467  25.710  1.00  0.00    -0.237 OA
ATOM     88  O   UNL A   1      42.785  18.718  25.439  1.00  0.00    -0.237 OA
ATOM     89  O   UNL A   1      41.729  18.677  27.664  1.00  0.00    -0.744 OA
ENDBRANCH  85  86
ENDBRANCH  57  80
BRANCH  69  90
ATOM     90  C   UNL A   1      49.320  26.784  26.466  1.00  0.00    -0.014 A 
ATOM     91  C   UNL A   1      50.193  26.227  27.417  1.00  0.00     0.010 A 
ATOM     92  C   UNL A   1      49.720  26.847  25.119  1.00  0.00     0.010 A 
ATOM     93  C   UNL A   1      51.460  25.777  27.033  1.00  0.00     0.020 A 
ATOM     94  C   UNL A   1      50.976  26.375  24.728  1.00  0.00     0.020 A 
ATOM     95  C   UNL A   1      51.844  25.858  25.690  1.00  0.00     0.054 A 
BRANCH  95  96
ATOM     96  S   UNL A   1      53.482  25.242  25.209  1.00  0.00     0.124 S 
ATOM     97  O   UNL A   1      53.624  25.780  23.860  1.00  0.00    -0.237 OA
ATOM     98  O   UNL A   1      54.359  25.832  26.218  1.00  0.00    -0.237 OA
ATOM     99  O   UNL A   1      53.341  23.789  25.290  1.00  0.00    -0.744 OA
ENDBRANCH  95  96
ENDBRANCH  69  90
ENDBRANCH  43  44
ENDBRANCH  35  38
ENDBRANCH  33  34
ENDBRANCH  32  33
ENDBRANCH  31  32
ENDBRANCH   1  31
TORSDOF 23
ENDMDL
MODEL 2
REMARK VINA RESULT:      -9.9      5.775      9.868
REMARK SMILES COCC[C@@]1(C(=O)NCCCCCCNC(=O)c2ccc(-c3c4nc(c(-c5ccc(S(=O)(=O)[O-])cc5)c5ccc([nH]5)c(-c5ccc(S(=O)(=O)[O-])cc5)c5nc(c(-c6ccc(S(=O)(=O)[O-])cc6)c6ccc3[nH]6)C=C5)C=C4)cc2)CCCN(C(=O)NCc2ccc(OC)cc2)C1
REMARK SMILES IDX 11 1 10 2 9 3 8 4 6 5 7 6 5 8 78 9 94 10 79 11 81 12 80 13
REMARK SMILES IDX 4 14 3 15 2 16 1 17 82 18 83 19 84 20 85 22 86 23 87 24
REMARK SMILES IDX 93 25 88 26 92 27 89 28 90 29 91 30 12 31 13 32 14 33 15 34
REMARK SMILES IDX 16 35 17 37 18 38 19 39 77 40 20 41 76 42 21 43 22 44 23 45
REMARK SMILES IDX 70 46 24 47 75 48 69 49 71 50 25 51 74 52 68 53 67 54 26 56
REMARK SMILES IDX 56 57 37 58 55 59 38 60 41 61 54 62 72 63 39 64 40 65 53 67
REMARK SMILES IDX 73 68 42 69 27 70 28 71 36 72 29 73 35 74 30 75 31 76 32 77
REMARK SMILES IDX 33 78 34 79 57 80 58 81 66 82 59 83 65 84 60 85 61 86 62 87
REMARK SMILES IDX 63 88 64 89 43 90 44 91 52 92 45 93 51 94 46 95 47 96 48 97
REMARK SMILES IDX 49 98 50 99
REMARK H PARENT 8 7 84 21 15 36 71 55 41 66
REMARK Flexibility Score: inf
ROOT
ATOM      1  C   UNL A   1      32.564  30.113  25.762  1.00  0.00     0.002 C 
ENDROOT
BRANCH   1   2
ATOM      2  C   UNL A   1      33.324  28.839  25.407  1.00  0.00     0.021 C 
BRANCH   2   3
ATOM      3  C   UNL A   1      32.807  27.549  26.025  1.00  0.00     0.116 C 
BRANCH   3   4
ATOM      4  N   UNL A   1      33.444  26.339  25.565  1.00  0.00    -0.356 N 
ATOM      5  C   UNL A   1      33.050  25.454  24.612  1.00  0.00     0.228 C 
ATOM      6  O   UNL A   1      33.998  24.913  24.020  1.00  0.00    -0.274 OA
ATOM      7  H   UNL A   1      34.296  26.122  26.008  1.00  0.00     0.163 HD
BRANCH   5   8
ATOM      8  C   UNL A   1      31.594  24.987  24.297  1.00  0.00     0.069 C 
ATOM      9  C   UNL A   1      30.853  24.896  25.671  1.00  0.00     0.021 C 
ATOM     10  C   UNL A   1      31.362  23.635  23.598  1.00  0.00     0.138 C 
ATOM     11  C   UNL A   1      31.310  23.670  26.482  1.00  0.00     0.023 C 
ATOM     12  N   UNL A   1      31.728  22.466  24.387  1.00  0.00    -0.324 N 
ATOM     13  C   UNL A   1      31.096  22.380  25.695  1.00  0.00     0.121 C 
BRANCH   8  14
ATOM     14  C   UNL A   1      30.864  26.026  23.361  1.00  0.00     0.047 C 
BRANCH  14  15
ATOM     15  C   UNL A   1      29.833  27.002  23.932  1.00  0.00     0.161 C 
BRANCH  15  16
ATOM     16  O   UNL A   1      29.836  28.249  23.227  1.00  0.00    -0.385 OA
ATOM     17  C   UNL A   1      31.064  28.540  22.576  1.00  0.00     0.194 C 
ENDBRANCH  15  16
ENDBRANCH  14  15
ENDBRANCH   8  14
BRANCH  12  18
ATOM     18  C   UNL A   1      32.158  21.382  23.673  1.00  0.00     0.317 C 
ATOM     19  O   UNL A   1      32.052  21.320  22.446  1.00  0.00    -0.249 OA
ATOM     20  N   UNL A   1      32.877  20.416  24.252  1.00  0.00    -0.334 N 
ATOM     21  H   UNL A   1      33.054  19.669  23.635  1.00  0.00     0.165 HD
BRANCH  20  22
ATOM     22  C   UNL A   1      33.466  20.191  25.559  1.00  0.00     0.153 C 
BRANCH  22  23
ATOM     23  C   UNL A   1      34.686  21.068  25.668  1.00  0.00    -0.028 A 
ATOM     24  C   UNL A   1      34.635  22.233  26.450  1.00  0.00     0.009 A 
ATOM     25  C   UNL A   1      35.833  20.811  24.911  1.00  0.00     0.009 A 
ATOM     26  C   UNL A   1      35.662  23.171  26.389  1.00  0.00     0.047 A 
ATOM     27  C   UNL A   1      36.879  21.741  24.879  1.00  0.00     0.047 A 
ATOM     28  C   UNL A   1      36.780  22.939  25.590  1.00  0.00     0.118 A 
BRANCH  28  29
ATOM     29  O   UNL A   1      37.678  23.967  25.575  1.00  0.00    -0.497 OA
ATOM     30  C   UNL A   1      38.803  23.854  26.434  1.00  0.00     0.278 C 
ENDBRANCH  28  29
ENDBRANCH  22  23
ENDBRANCH  20  22
ENDBRANCH  12  18
ENDBRANCH   5   8
ENDBRANCH   3   4
ENDBRANCH   2   3
ENDBRANCH   1   2
BRANCH   1  31
ATOM     31  C   UNL A   1      32.447  30.452  27.253  1.00  0.00     0.002 C 
BRANCH  31  32
ATOM     32  C   UNL A   1      33.601  31.244  27.878  1.00  0.00     0.021 C 
BRANCH  32  33
ATOM     33  C   UNL A   1      33.855  32.637  27.312  1.00  0.00     0.116 C 
BRANCH  33  34
ATOM     34  N   UNL A   1      33.249  33.681  28.116  1.00  0.00    -0.352 N 
ATOM     35  C   UNL A   1      33.525  34.102  29.390  1.00  0.00     0.251 C 
ATOM     36  H   UNL A   1      32.517  34.168  27.672  1.00  0.00     0.163 HD
ATOM     37  O   UNL A   1      32.749  34.891  29.934  1.00  0.00    -0.269 OA
BRANCH  35  38
ATOM     38  C   UNL A   1      34.718  33.625  30.131  1.00  0.00     0.039 A 
ATOM     39  C   UNL A   1      35.954  34.220  29.854  1.00  0.00     0.014 A 
ATOM     40  C   UNL A   1      34.656  32.558  31.032  1.00  0.00     0.014 A 
ATOM     41  C   UNL A   1      37.111  33.774  30.501  1.00  0.00     0.010 A 
ATOM     42  C   UNL A   1      35.799  32.157  31.727  1.00  0.00     0.010 A 
ATOM     43  C   UNL A   1      37.043  32.749  31.457  1.00  0.00    -0.014 A 
BRANCH  43  44
ATOM     44  C   UNL A   1      38.268  32.271  32.153  1.00  0.00     0.031 A 
ATOM     45  C   UNL A   1      39.250  31.379  31.437  1.00  0.00     0.074 A 
ATOM     46  C   UNL A   1      38.487  32.613  33.438  1.00  0.00     0.049 A 
ATOM     47  N   UNL A   1      40.356  30.843  31.886  1.00  0.00    -0.248 NA
ATOM     48  C   UNL A   1      38.938  31.030  30.042  1.00  0.00     0.031 C 
ATOM     49  C   UNL A   1      37.602  33.443  34.257  1.00  0.00     0.029 A 
ATOM     50  N   UNL A   1      39.525  32.302  34.282  1.00  0.00    -0.354 N 
ATOM     51  C   UNL A   1      40.863  30.082  30.837  1.00  0.00     0.074 A 
ATOM     52  C   UNL A   1      39.920  30.190  29.746  1.00  0.00     0.031 C 
ATOM     53  C   UNL A   1      38.146  33.597  35.475  1.00  0.00     0.029 A 
ATOM     54  C   UNL A   1      39.401  32.852  35.536  1.00  0.00     0.049 A 
ATOM     55  H   UNL A   1      40.286  31.739  34.014  1.00  0.00     0.167 HD
ATOM     56  C   UNL A   1      42.017  29.374  30.778  1.00  0.00     0.031 A 
ATOM     57  C   UNL A   1      40.204  32.768  36.615  1.00  0.00     0.031 A 
ATOM     58  C   UNL A   1      42.964  29.274  31.857  1.00  0.00     0.049 A 
ATOM     59  C   UNL A   1      41.482  31.980  36.523  1.00  0.00     0.074 A 
ATOM     60  C   UNL A   1      44.178  28.609  31.879  1.00  0.00     0.029 A 
ATOM     61  N   UNL A   1      42.807  29.860  33.103  1.00  0.00    -0.354 N 
ATOM     62  N   UNL A   1      41.964  31.306  35.505  1.00  0.00    -0.248 NA
ATOM     63  C   UNL A   1      42.332  31.954  37.721  1.00  0.00     0.031 C 
ATOM     64  C   UNL A   1      44.740  28.764  33.152  1.00  0.00     0.029 A 
ATOM     65  C   UNL A   1      43.897  29.566  33.905  1.00  0.00     0.049 A 
ATOM     66  H   UNL A   1      42.035  30.406  33.378  1.00  0.00     0.167 HD
ATOM     67  C   UNL A   1      43.188  30.802  35.932  1.00  0.00     0.074 A 
ATOM     68  C   UNL A   1      43.378  31.259  37.294  1.00  0.00     0.031 C 
ATOM     69  C   UNL A   1      44.076  30.032  35.257  1.00  0.00     0.031 A 
BRANCH  56  70
ATOM     70  C   UNL A   1      42.318  28.648  29.492  1.00  0.00    -0.014 A 
ATOM     71  C   UNL A   1      41.832  27.347  29.265  1.00  0.00     0.010 A 
ATOM     72  C   UNL A   1      43.071  29.282  28.487  1.00  0.00     0.010 A 
ATOM     73  C   UNL A   1      42.133  26.675  28.077  1.00  0.00     0.020 A 
ATOM     74  C   UNL A   1      43.351  28.623  27.286  1.00  0.00     0.020 A 
ATOM     75  C   UNL A   1      42.896  27.317  27.097  1.00  0.00     0.054 A 
BRANCH  75  76
ATOM     76  S   UNL A   1      43.262  26.427  25.558  1.00  0.00     0.124 S 
ATOM     77  O   UNL A   1      43.980  27.442  24.789  1.00  0.00    -0.237 OA
ATOM     78  O   UNL A   1      44.073  25.303  26.021  1.00  0.00    -0.237 OA
ATOM     79  O   UNL A   1      41.944  26.070  25.041  1.00  0.00    -0.744 OA
ENDBRANCH  75  76
ENDBRANCH  56  70
BRANCH  57  80
ATOM     80  C   UNL A   1      39.834  33.470  37.873  1.00  0.00    -0.014 A 
ATOM     81  C   UNL A   1      39.088  32.809  38.865  1.00  0.00     0.010 A 
ATOM     82  C   UNL A   1      40.229  34.802  38.088  1.00  0.00     0.010 A 
ATOM     83  C   UNL A   1      38.723  33.475  40.040  1.00  0.00     0.020 A 
ATOM     84  C   UNL A   1      39.888  35.464  39.271  1.00  0.00     0.020 A 
ATOM     85  C   UNL A   1      39.124  34.800  40.233  1.00  0.00     0.054 A 
BRANCH  85  86
ATOM     86  S   UNL A   1      38.678  35.636  41.781  1.00  0.00     0.124 S 
ATOM     87  O   UNL A   1      37.298  35.204  41.972  1.00  0.00    -0.237 OA
ATOM     88  O   UNL A   1      39.649  35.093  42.728  1.00  0.00    -0.237 OA
ATOM     89  O   UNL A   1      38.853  37.052  41.465  1.00  0.00    -0.744 OA
ENDBRANCH  85  86
ENDBRANCH  57  80
BRANCH  69  90
ATOM     90  C   UNL A   1      45.356  29.672  35.963  1.00  0.00    -0.014 A 
ATOM     91  C   UNL A   1      46.473  30.525  35.930  1.00  0.00     0.010 A 
ATOM     92  C   UNL A   1      45.426  28.476  36.700  1.00  0.00     0.010 A 
ATOM     93  C   UNL A   1      47.652  30.169  36.592  1.00  0.00     0.020 A 
ATOM     94  C   UNL A   1      46.594  28.129  37.383  1.00  0.00     0.020 A 
ATOM     95  C   UNL A   1      47.706  28.970  37.310  1.00  0.00     0.054 A 
BRANCH  95  96
ATOM     96  S   UNL A   1      49.237  28.542  38.185  1.00  0.00     0.124 S 
ATOM     97  O   UNL A   1      49.312  27.099  37.977  1.00  0.00    -0.237 OA
ATOM     98  O   UNL A   1      50.244  29.333  37.481  1.00  0.00    -0.237 OA
ATOM     99  O   UNL A   1      48.977  28.961  39.561  1.00  0.00    -0.744 OA
ENDBRANCH  95  96
ENDBRANCH  69  90
ENDBRANCH  43  44
ENDBRANCH  35  38
ENDBRANCH  33  34
ENDBRANCH  32  33
ENDBRANCH  31  32
ENDBRANCH   1  31
TORSDOF 23
ENDMDL
MODEL 3
REMARK VINA RESULT:      -9.9      2.160      3.104
REMARK SMILES COCC[C@@]1(C(=O)NCCCCCCNC(=O)c2ccc(-c3c4nc(c(-c5ccc(S(=O)(=O)[O-])cc5)c5ccc([nH]5)c(-c5ccc(S(=O)(=O)[O-])cc5)c5nc(c(-c6ccc(S(=O)(=O)[O-])cc6)c6ccc3[nH]6)C=C5)C=C4)cc2)CCCN(C(=O)NCc2ccc(OC)cc2)C1
REMARK SMILES IDX 11 1 10 2 9 3 8 4 6 5 7 6 5 8 78 9 94 10 79 11 81 12 80 13
REMARK SMILES IDX 4 14 3 15 2 16 1 17 82 18 83 19 84 20 85 22 86 23 87 24
REMARK SMILES IDX 93 25 88 26 92 27 89 28 90 29 91 30 12 31 13 32 14 33 15 34
REMARK SMILES IDX 16 35 17 37 18 38 19 39 77 40 20 41 76 42 21 43 22 44 23 45
REMARK SMILES IDX 70 46 24 47 75 48 69 49 71 50 25 51 74 52 68 53 67 54 26 56
REMARK SMILES IDX 56 57 37 58 55 59 38 60 41 61 54 62 72 63 39 64 40 65 53 67
REMARK SMILES IDX 73 68 42 69 27 70 28 71 36 72 29 73 35 74 30 75 31 76 32 77
REMARK SMILES IDX 33 78 34 79 57 80 58 81 66 82 59 83 65 84 60 85 61 86 62 87
REMARK SMILES IDX 63 88 64 89 43 90 44 91 52 92 45 93 51 94 46 95 47 96 48 97
REMARK SMILES IDX 49 98 50 99
REMARK H PARENT 8 7 84 21 15 36 71 55 41 66
REMARK Flexibility Score: inf
ROOT
ATOM      1  C   UNL A   1      32.139  32.423  26.922  1.00  0.00     0.002 C 
ENDROOT
BRANCH   1   2
ATOM      2  C   UNL A   1      32.083  30.906  26.768  1.00  0.00     0.021 C 
BRANCH   2   3
ATOM      3  C   UNL A   1      31.519  30.380  25.457  1.00  0.00     0.116 C 
BRANCH   3   4
ATOM      4  N   UNL A   1      32.433  29.605  24.654  1.00  0.00    -0.356 N 
ATOM      5  C   UNL A   1      32.204  28.509  23.884  1.00  0.00     0.228 C 
ATOM      6  O   UNL A   1      32.947  28.439  22.892  1.00  0.00    -0.274 OA
ATOM      7  H   UNL A   1      33.366  29.919  24.663  1.00  0.00     0.163 HD
BRANCH   5   8
ATOM      8  C   UNL A   1      31.228  27.328  24.184  1.00  0.00     0.069 C 
ATOM      9  C   UNL A   1      31.298  27.079  25.727  1.00  0.00     0.021 C 
ATOM     10  C   UNL A   1      31.462  25.958  23.522  1.00  0.00     0.138 C 
ATOM     11  C   UNL A   1      32.614  26.390  26.131  1.00  0.00     0.023 C 
ATOM     12  N   UNL A   1      32.672  25.267  23.951  1.00  0.00    -0.324 N 
ATOM     13  C   UNL A   1      32.793  25.069  25.388  1.00  0.00     0.121 C 
BRANCH   8  14
ATOM     14  C   UNL A   1      29.754  27.701  23.767  1.00  0.00     0.047 C 
BRANCH  14  15
ATOM     15  C   UNL A   1      29.490  28.655  22.600  1.00  0.00     0.161 C 
BRANCH  15  16
ATOM     16  O   UNL A   1      28.929  29.896  23.046  1.00  0.00    -0.385 OA
ATOM     17  C   UNL A   1      28.232  30.609  22.034  1.00  0.00     0.194 C 
ENDBRANCH  15  16
ENDBRANCH  14  15
ENDBRANCH   8  14
BRANCH  12  18
ATOM     18  C   UNL A   1      33.255  24.459  23.016  1.00  0.00     0.317 C 
ATOM     19  O   UNL A   1      34.307  24.764  22.449  1.00  0.00    -0.249 OA
ATOM     20  N   UNL A   1      32.809  23.218  22.801  1.00  0.00    -0.334 N 
ATOM     21  H   UNL A   1      33.278  22.783  22.052  1.00  0.00     0.165 HD
BRANCH  20  22
ATOM     22  C   UNL A   1      31.810  22.349  23.395  1.00  0.00     0.153 C 
BRANCH  22  23
ATOM     23  C   UNL A   1      32.505  21.086  23.832  1.00  0.00    -0.028 A 
ATOM     24  C   UNL A   1      33.627  21.167  24.673  1.00  0.00     0.009 A 
ATOM     25  C   UNL A   1      32.130  19.839  23.324  1.00  0.00     0.009 A 
ATOM     26  C   UNL A   1      34.416  20.045  24.909  1.00  0.00     0.047 A 
ATOM     27  C   UNL A   1      32.909  18.706  23.590  1.00  0.00     0.047 A 
ATOM     28  C   UNL A   1      34.073  18.814  24.354  1.00  0.00     0.118 A 
BRANCH  28  29
ATOM     29  O   UNL A   1      34.967  17.816  24.612  1.00  0.00    -0.497 OA
ATOM     30  C   UNL A   1      34.500  16.481  24.487  1.00  0.00     0.278 C 
ENDBRANCH  28  29
ENDBRANCH  22  23
ENDBRANCH  20  22
ENDBRANCH  12  18
ENDBRANCH   5   8
ENDBRANCH   3   4
ENDBRANCH   2   3
ENDBRANCH   1   2
BRANCH   1  31
ATOM     31  C   UNL A   1      32.862  32.963  28.162  1.00  0.00     0.002 C 
BRANCH  31  32
ATOM     32  C   UNL A   1      33.832  34.130  27.947  1.00  0.00     0.021 C 
BRANCH  32  33
ATOM     33  C   UNL A   1      34.446  34.744  29.200  1.00  0.00     0.116 C 
BRANCH  33  34
ATOM     34  N   UNL A   1      34.052  34.046  30.409  1.00  0.00    -0.352 N 
ATOM     35  C   UNL A   1      34.700  33.082  31.135  1.00  0.00     0.251 C 
ATOM     36  H   UNL A   1      33.174  34.310  30.768  1.00  0.00     0.163 HD
ATOM     37  O   UNL A   1      34.082  32.502  32.032  1.00  0.00    -0.269 OA
BRANCH  35  38
ATOM     38  C   UNL A   1      36.109  32.709  30.862  1.00  0.00     0.039 A 
ATOM     39  C   UNL A   1      36.528  32.627  29.529  1.00  0.00     0.014 A 
ATOM     40  C   UNL A   1      36.999  32.367  31.884  1.00  0.00     0.014 A 
ATOM     41  C   UNL A   1      37.837  32.241  29.224  1.00  0.00     0.010 A 
ATOM     42  C   UNL A   1      38.325  32.046  31.583  1.00  0.00     0.010 A 
ATOM     43  C   UNL A   1      38.754  31.964  30.250  1.00  0.00    -0.014 A 
BRANCH  43  44
ATOM     44  C   UNL A   1      40.151  31.555  29.935  1.00  0.00     0.031 A 
ATOM     45  C   UNL A   1      41.284  32.534  30.102  1.00  0.00     0.074 A 
ATOM     46  C   UNL A   1      40.399  30.315  29.472  1.00  0.00     0.049 A 
ATOM     47  N   UNL A   1      42.559  32.369  29.854  1.00  0.00    -0.248 NA
ATOM     48  C   UNL A   1      40.939  33.877  30.593  1.00  0.00     0.031 C 
ATOM     49  C   UNL A   1      39.390  29.280  29.234  1.00  0.00     0.029 A 
ATOM     50  N   UNL A   1      41.581  29.712  29.117  1.00  0.00    -0.354 N 
ATOM     51  C   UNL A   1      43.164  33.589  30.143  1.00  0.00     0.074 A 
ATOM     52  C   UNL A   1      42.110  34.496  30.541  1.00  0.00     0.031 C 
ATOM     53  C   UNL A   1      39.997  28.165  28.798  1.00  0.00     0.029 A 
ATOM     54  C   UNL A   1      41.433  28.412  28.694  1.00  0.00     0.049 A 
ATOM     55  H   UNL A   1      42.452  30.168  29.162  1.00  0.00     0.167 HD
ATOM     56  C   UNL A   1      44.477  33.921  30.101  1.00  0.00     0.031 A 
ATOM     57  C   UNL A   1      42.348  27.519  28.270  1.00  0.00     0.031 A 
ATOM     58  C   UNL A   1      45.530  33.017  29.719  1.00  0.00     0.049 A 
ATOM     59  C   UNL A   1      43.801  27.908  28.237  1.00  0.00     0.074 A 
ATOM     60  C   UNL A   1      46.894  33.251  29.678  1.00  0.00     0.029 A 
ATOM     61  N   UNL A   1      45.338  31.706  29.314  1.00  0.00    -0.354 N 
ATOM     62  N   UNL A   1      44.355  29.053  28.559  1.00  0.00    -0.248 NA
ATOM     63  C   UNL A   1      44.753  26.879  27.798  1.00  0.00     0.031 C 
ATOM     64  C   UNL A   1      47.525  32.090  29.216  1.00  0.00     0.029 A 
ATOM     65  C   UNL A   1      46.556  31.119  29.015  1.00  0.00     0.049 A 
ATOM     66  H   UNL A   1      44.464  31.257  29.249  1.00  0.00     0.167 HD
ATOM     67  C   UNL A   1      45.723  28.871  28.390  1.00  0.00     0.074 A 
ATOM     68  C   UNL A   1      45.912  27.504  27.951  1.00  0.00     0.031 C 
ATOM     69  C   UNL A   1      46.732  29.756  28.584  1.00  0.00     0.031 A 
BRANCH  56  70
ATOM     70  C   UNL A   1      44.847  35.330  30.484  1.00  0.00    -0.014 A 
ATOM     71  C   UNL A   1      44.945  36.342  29.511  1.00  0.00     0.010 A 
ATOM     72  C   UNL A   1      45.073  35.655  31.834  1.00  0.00     0.010 A 
ATOM     73  C   UNL A   1      45.307  37.642  29.874  1.00  0.00     0.020 A 
ATOM     74  C   UNL A   1      45.409  36.961  32.205  1.00  0.00     0.020 A 
ATOM     75  C   UNL A   1      45.543  37.941  31.219  1.00  0.00     0.054 A 
BRANCH  75  76
ATOM     76  S   UNL A   1      46.001  39.639  31.667  1.00  0.00     0.124 S 
ATOM     77  O   UNL A   1      45.187  39.865  32.859  1.00  0.00    -0.237 OA
ATOM     78  O   UNL A   1      47.440  39.534  31.901  1.00  0.00    -0.237 OA
ATOM     79  O   UNL A   1      45.619  40.421  30.494  1.00  0.00    -0.744 OA
ENDBRANCH  75  76
ENDBRANCH  56  70
BRANCH  57  80
ATOM     80  C   UNL A   1      41.919  26.153  27.862  1.00  0.00    -0.014 A 
ATOM     81  C   UNL A   1      42.105  25.060  28.727  1.00  0.00     0.010 A 
ATOM     82  C   UNL A   1      41.318  25.940  26.609  1.00  0.00     0.010 A 
ATOM     83  C   UNL A   1      41.720  23.773  28.336  1.00  0.00     0.020 A 
ATOM     84  C   UNL A   1      40.909  24.660  26.225  1.00  0.00     0.020 A 
ATOM     85  C   UNL A   1      41.125  23.582  27.085  1.00  0.00     0.054 A 
BRANCH  85  86
ATOM     86  S   UNL A   1      40.593  21.913  26.611  1.00  0.00     0.124 S 
ATOM     87  O   UNL A   1      40.654  21.202  27.885  1.00  0.00    -0.237 OA
ATOM     88  O   UNL A   1      39.254  22.145  26.078  1.00  0.00    -0.237 OA
ATOM     89  O   UNL A   1      41.589  21.508  25.620  1.00  0.00    -0.744 OA
ENDBRANCH  85  86
ENDBRANCH  57  80
BRANCH  69  90
ATOM     90  C   UNL A   1      48.136  29.261  28.366  1.00  0.00    -0.014 A 
ATOM     91  C   UNL A   1      48.842  28.595  29.384  1.00  0.00     0.010 A 
ATOM     92  C   UNL A   1      48.744  29.433  27.109  1.00  0.00     0.010 A 
ATOM     93  C   UNL A   1      50.147  28.146  29.160  1.00  0.00     0.020 A 
ATOM     94  C   UNL A   1      50.038  28.963  26.874  1.00  0.00     0.020 A 
ATOM     95  C   UNL A   1      50.738  28.337  27.907  1.00  0.00     0.054 A 
BRANCH  95  96
ATOM     96  S   UNL A   1      52.421  27.720  27.629  1.00  0.00     0.124 S 
ATOM     97  O   UNL A   1      52.389  27.377  26.211  1.00  0.00    -0.237 OA
ATOM     98  O   UNL A   1      53.250  28.871  27.980  1.00  0.00    -0.237 OA
ATOM     99  O   UNL A   1      52.528  26.584  28.543  1.00  0.00    -0.744 OA
ENDBRANCH  95  96
ENDBRANCH  69  90
ENDBRANCH  43  44
ENDBRANCH  35  38
ENDBRANCH  33  34
ENDBRANCH  32  33
ENDBRANCH  31  32
ENDBRANCH   1  31
TORSDOF 23
ENDMDL
