MODEL 1
REMARK VINA RESULT:      -9.9      0.000      0.000
REMARK SMILES CC[C@H]1CC[C@](CC(C)(C)O)(C(=O)NCCCCCCNC(=O)c2ccc(-c3c4nc(c(-c5ccc(S(=O)(=O)[O-])cc5)c5ccc([nH]5)c(-c5ccc(S(=O)(=O)[O-])cc5)c5nc(c(-c6ccc(S(=O)(=O)[O-])cc6)c6ccc3[nH]6)C=C5)C=C4)cc2)C1
REMARK SMILES IDX 17 1 16 2 15 3 14 4 12 5 13 6 6 8 3 9 4 10 84 11 5 12 2 13
REMARK SMILES IDX 1 14 7 15 8 16 9 17 10 18 11 19 18 21 19 22 20 23 21 24
REMARK SMILES IDX 22 25 23 27 24 28 25 29 83 30 26 31 82 32 27 33 28 34 29 35
REMARK SMILES IDX 76 36 30 37 81 38 75 39 77 40 31 41 80 42 74 43 73 44 32 46
REMARK SMILES IDX 62 47 43 48 61 49 44 50 47 51 60 52 78 53 45 54 46 55 59 57
REMARK SMILES IDX 79 58 48 59 33 60 34 61 42 62 35 63 41 64 36 65 37 66 38 67
REMARK SMILES IDX 39 68 40 69 63 70 64 71 72 72 65 73 71 74 66 75 67 76 68 77
REMARK SMILES IDX 69 78 70 79 49 80 50 81 58 82 51 83 57 84 52 85 53 86 54 87
REMARK SMILES IDX 55 88 56 89
REMARK H PARENT 14 7 11 20 21 26 77 45 47 56
REMARK Flexibility Score: inf
ROOT
ATOM      1  C   UNL A   1      38.140  22.752  25.536  1.00  0.00     0.002 C 
ENDROOT
BRANCH   1   2
ATOM      2  C   UNL A   1      37.597  21.326  25.399  1.00  0.00     0.021 C 
BRANCH   2   3
ATOM      3  C   UNL A   1      36.101  21.294  25.096  1.00  0.00     0.116 C 
BRANCH   3   4
ATOM      4  N   UNL A   1      35.833  22.055  23.893  1.00  0.00    -0.356 N 
ATOM      5  C   UNL A   1      34.930  23.037  23.627  1.00  0.00     0.226 C 
ATOM      6  O   UNL A   1      34.861  23.419  22.454  1.00  0.00    -0.274 OA
ATOM      7  H   UNL A   1      36.408  21.819  23.130  1.00  0.00     0.163 HD
BRANCH   5   8
ATOM      8  C   UNL A   1      34.090  23.686  24.749  1.00  0.00     0.052 C 
ATOM      9  C   UNL A   1      32.919  25.876  24.993  1.00  0.00    -0.010 C 
ATOM     10  C   UNL A   1      34.386  26.094  25.323  1.00  0.00     0.005 C 
ATOM     11  C   UNL A   1      32.982  24.602  24.153  1.00  0.00     0.020 C 
ATOM     12  C   UNL A   1      34.942  24.693  25.585  1.00  0.00     0.017 C 
BRANCH   9  13
ATOM     13  C   UNL A   1      32.013  25.705  26.224  1.00  0.00     0.000 C 
ATOM     14  C   UNL A   1      31.364  27.008  26.657  1.00  0.00     0.004 C 
ENDBRANCH   9  13
BRANCH   8  15
ATOM     15  C   UNL A   1      33.486  22.575  25.671  1.00  0.00     0.051 C 
BRANCH  15  16
ATOM     16  C   UNL A   1      32.434  21.592  25.086  1.00  0.00     0.060 C 
ATOM     17  C   UNL A   1      32.602  20.140  25.535  1.00  0.00     0.042 C 
ATOM     18  C   UNL A   1      31.031  22.076  25.476  1.00  0.00     0.042 C 
BRANCH  16  19
ATOM     19  O   UNL A   1      32.490  21.657  23.660  1.00  0.00    -0.390 OA
ATOM     20  H   UNL A   1      32.092  22.489  23.358  1.00  0.00     0.211 HD
ENDBRANCH  16  19
ENDBRANCH  15  16
ENDBRANCH   8  15
ENDBRANCH   5   8
ENDBRANCH   3   4
ENDBRANCH   2   3
ENDBRANCH   1   2
BRANCH   1  21
ATOM     21  C   UNL A   1      38.925  23.003  26.829  1.00  0.00     0.002 C 
BRANCH  21  22
ATOM     22  C   UNL A   1      40.295  22.323  26.883  1.00  0.00     0.021 C 
BRANCH  22  23
ATOM     23  C   UNL A   1      41.449  23.276  27.173  1.00  0.00     0.116 C 
BRANCH  23  24
ATOM     24  N   UNL A   1      41.719  24.146  26.037  1.00  0.00    -0.352 N 
ATOM     25  C   UNL A   1      41.638  25.513  25.959  1.00  0.00     0.251 C 
ATOM     26  H   UNL A   1      41.998  23.690  25.210  1.00  0.00     0.163 HD
ATOM     27  O   UNL A   1      41.659  26.072  24.866  1.00  0.00    -0.269 OA
BRANCH  25  28
ATOM     28  C   UNL A   1      41.513  26.302  27.200  1.00  0.00     0.039 A 
ATOM     29  C   UNL A   1      42.534  27.187  27.549  1.00  0.00     0.014 A 
ATOM     30  C   UNL A   1      40.379  26.172  28.009  1.00  0.00     0.014 A 
ATOM     31  C   UNL A   1      42.390  27.990  28.682  1.00  0.00     0.010 A 
ATOM     32  C   UNL A   1      40.205  27.025  29.093  1.00  0.00     0.010 A 
ATOM     33  C   UNL A   1      41.209  27.941  29.441  1.00  0.00    -0.014 A 
BRANCH  33  34
ATOM     34  C   UNL A   1      40.997  28.856  30.591  1.00  0.00     0.031 A 
ATOM     35  C   UNL A   1      41.816  28.705  31.843  1.00  0.00     0.074 A 
ATOM     36  C   UNL A   1      40.013  29.775  30.532  1.00  0.00     0.049 A 
ATOM     37  N   UNL A   1      41.736  29.374  32.965  1.00  0.00    -0.248 NA
ATOM     38  C   UNL A   1      42.842  27.650  31.845  1.00  0.00     0.031 C 
ATOM     39  C   UNL A   1      39.119  29.985  29.390  1.00  0.00     0.029 A 
ATOM     40  N   UNL A   1      39.592  30.698  31.457  1.00  0.00    -0.354 N 
ATOM     41  C   UNL A   1      42.683  28.810  33.811  1.00  0.00     0.074 A 
ATOM     42  C   UNL A   1      43.293  27.713  33.089  1.00  0.00     0.031 C 
ATOM     43  C   UNL A   1      38.273  30.988  29.673  1.00  0.00     0.029 A 
ATOM     44  C   UNL A   1      38.529  31.459  31.031  1.00  0.00     0.049 A 
ATOM     45  H   UNL A   1      40.010  30.804  32.341  1.00  0.00     0.167 HD
ATOM     46  C   UNL A   1      43.024  29.178  35.068  1.00  0.00     0.031 A 
ATOM     47  C   UNL A   1      37.827  32.420  31.663  1.00  0.00     0.031 A 
ATOM     48  C   UNL A   1      42.411  30.271  35.778  1.00  0.00     0.049 A 
ATOM     49  C   UNL A   1      38.214  32.806  33.064  1.00  0.00     0.074 A 
ATOM     50  C   UNL A   1      42.732  30.770  37.029  1.00  0.00     0.029 A 
ATOM     51  N   UNL A   1      41.344  31.024  35.310  1.00  0.00    -0.354 N 
ATOM     52  N   UNL A   1      39.172  32.319  33.817  1.00  0.00    -0.248 NA
ATOM     53  C   UNL A   1      37.434  33.877  33.698  1.00  0.00     0.031 C 
ATOM     54  C   UNL A   1      41.814  31.777  37.345  1.00  0.00     0.029 A 
ATOM     55  C   UNL A   1      40.969  31.957  36.262  1.00  0.00     0.049 A 
ATOM     56  H   UNL A   1      40.917  30.912  34.429  1.00  0.00     0.167 HD
ATOM     57  C   UNL A   1      39.122  33.038  35.006  1.00  0.00     0.074 A 
ATOM     58  C   UNL A   1      38.052  34.005  34.863  1.00  0.00     0.031 C 
ATOM     59  C   UNL A   1      39.893  32.907  36.113  1.00  0.00     0.031 A 
BRANCH  46  60
ATOM     60  C   UNL A   1      44.092  28.377  35.766  1.00  0.00    -0.014 A 
ATOM     61  C   UNL A   1      45.453  28.719  35.659  1.00  0.00     0.010 A 
ATOM     62  C   UNL A   1      43.727  27.280  36.569  1.00  0.00     0.010 A 
ATOM     63  C   UNL A   1      46.431  27.950  36.298  1.00  0.00     0.020 A 
ATOM     64  C   UNL A   1      44.699  26.529  37.237  1.00  0.00     0.020 A 
ATOM     65  C   UNL A   1      46.047  26.857  37.080  1.00  0.00     0.054 A 
BRANCH  65  66
ATOM     66  S   UNL A   1      47.335  25.883  37.905  1.00  0.00     0.124 S 
ATOM     67  O   UNL A   1      48.166  26.926  38.501  1.00  0.00    -0.237 OA
ATOM     68  O   UNL A   1      46.568  25.075  38.850  1.00  0.00    -0.237 OA
ATOM     69  O   UNL A   1      47.959  25.136  36.815  1.00  0.00    -0.744 OA
ENDBRANCH  65  66
ENDBRANCH  46  60
BRANCH  47  70
ATOM     70  C   UNL A   1      36.688  33.078  30.966  1.00  0.00    -0.014 A 
ATOM     71  C   UNL A   1      35.384  32.992  31.483  1.00  0.00     0.010 A 
ATOM     72  C   UNL A   1      36.912  33.833  29.799  1.00  0.00     0.010 A 
ATOM     73  C   UNL A   1      34.324  33.643  30.844  1.00  0.00     0.020 A 
ATOM     74  C   UNL A   1      35.860  34.509  29.175  1.00  0.00     0.020 A 
ATOM     75  C   UNL A   1      34.571  34.403  29.697  1.00  0.00     0.054 A 
BRANCH  75  76
ATOM     76  S   UNL A   1      33.193  35.300  28.929  1.00  0.00     0.124 S 
ATOM     77  O   UNL A   1      32.411  35.708  30.091  1.00  0.00    -0.237 OA
ATOM     78  O   UNL A   1      33.877  36.375  28.215  1.00  0.00    -0.237 OA
ATOM     79  O   UNL A   1      32.567  34.295  28.073  1.00  0.00    -0.744 OA
ENDBRANCH  75  76
ENDBRANCH  47  70
BRANCH  59  80
ATOM     80  C   UNL A   1      39.627  33.847  37.260  1.00  0.00    -0.014 A 
ATOM     81  C   UNL A   1      38.843  33.453  38.360  1.00  0.00     0.010 A 
ATOM     82  C   UNL A   1      40.226  35.120  37.268  1.00  0.00     0.010 A 
ATOM     83  C   UNL A   1      38.641  34.325  39.433  1.00  0.00     0.020 A 
ATOM     84  C   UNL A   1      40.053  35.983  38.353  1.00  0.00     0.020 A 
ATOM     85  C   UNL A   1      39.252  35.584  39.424  1.00  0.00     0.054 A 
BRANCH  85  86
ATOM     86  S   UNL A   1      39.019  36.674  40.855  1.00  0.00     0.124 S 
ATOM     87  O   UNL A   1      40.387  36.844  41.336  1.00  0.00    -0.237 OA
ATOM     88  O   UNL A   1      38.411  37.860  40.256  1.00  0.00    -0.237 OA
ATOM     89  O   UNL A   1      38.140  35.909  41.735  1.00  0.00    -0.744 OA
ENDBRANCH  85  86
ENDBRANCH  59  80
ENDBRANCH  33  34
ENDBRANCH  25  28
ENDBRANCH  23  24
ENDBRANCH  22  23
ENDBRANCH  21  22
ENDBRANCH   1  21
TORSDOF 20
ENDMDL
MODEL 2
REMARK VINA RESULT:      -9.8      6.595     11.995
REMARK SMILES CC[C@H]1CC[C@](CC(C)(C)O)(C(=O)NCCCCCCNC(=O)c2ccc(-c3c4nc(c(-c5ccc(S(=O)(=O)[O-])cc5)c5ccc([nH]5)c(-c5ccc(S(=O)(=O)[O-])cc5)c5nc(c(-c6ccc(S(=O)(=O)[O-])cc6)c6ccc3[nH]6)C=C5)C=C4)cc2)C1
REMARK SMILES IDX 17 1 16 2 15 3 14 4 12 5 13 6 6 8 3 9 4 10 84 11 5 12 2 13
REMARK SMILES IDX 1 14 7 15 8 16 9 17 10 18 11 19 18 21 19 22 20 23 21 24
REMARK SMILES IDX 22 25 23 27 24 28 25 29 83 30 26 31 82 32 27 33 28 34 29 35
REMARK SMILES IDX 76 36 30 37 81 38 75 39 77 40 31 41 80 42 74 43 73 44 32 46
REMARK SMILES IDX 62 47 43 48 61 49 44 50 47 51 60 52 78 53 45 54 46 55 59 57
REMARK SMILES IDX 79 58 48 59 33 60 34 61 42 62 35 63 41 64 36 65 37 66 38 67
REMARK SMILES IDX 39 68 40 69 63 70 64 71 72 72 65 73 71 74 66 75 67 76 68 77
REMARK SMILES IDX 69 78 70 79 49 80 50 81 58 82 51 83 57 84 52 85 53 86 54 87
REMARK SMILES IDX 55 88 56 89
REMARK H PARENT 14 7 11 20 21 26 77 45 47 56
REMARK Flexibility Score: inf
ROOT
ATOM      1  C   UNL A   1      34.792  30.913  27.581  1.00  0.00     0.002 C 
ENDROOT
BRANCH   1   2
ATOM      2  C   UNL A   1      33.399  30.534  27.066  1.00  0.00     0.021 C 
BRANCH   2   3
ATOM      3  C   UNL A   1      33.372  29.157  26.407  1.00  0.00     0.116 C 
BRANCH   3   4
ATOM      4  N   UNL A   1      33.723  29.282  25.007  1.00  0.00    -0.356 N 
ATOM      5  C   UNL A   1      33.038  28.975  23.873  1.00  0.00     0.226 C 
ATOM      6  O   UNL A   1      33.656  29.088  22.808  1.00  0.00    -0.274 OA
ATOM      7  H   UNL A   1      34.619  29.659  24.848  1.00  0.00     0.163 HD
BRANCH   5   8
ATOM      8  C   UNL A   1      31.547  28.575  23.914  1.00  0.00     0.052 C 
ATOM      9  C   UNL A   1      29.555  29.160  22.529  1.00  0.00    -0.010 C 
ATOM     10  C   UNL A   1      29.767  30.278  23.535  1.00  0.00     0.005 C 
ATOM     11  C   UNL A   1      30.945  28.528  22.479  1.00  0.00     0.020 C 
ATOM     12  C   UNL A   1      30.683  29.679  24.602  1.00  0.00     0.017 C 
BRANCH   9  13
ATOM     13  C   UNL A   1      28.478  28.140  22.935  1.00  0.00     0.000 C 
ATOM     14  C   UNL A   1      27.139  28.793  23.234  1.00  0.00     0.004 C 
ENDBRANCH   9  13
BRANCH   8  15
ATOM     15  C   UNL A   1      31.384  27.205  24.653  1.00  0.00     0.051 C 
BRANCH  15  16
ATOM     16  C   UNL A   1      31.875  25.905  23.957  1.00  0.00     0.060 C 
ATOM     17  C   UNL A   1      33.380  25.654  24.068  1.00  0.00     0.042 C 
ATOM     18  C   UNL A   1      31.124  24.708  24.556  1.00  0.00     0.042 C 
BRANCH  16  19
ATOM     19  O   UNL A   1      31.503  25.953  22.580  1.00  0.00    -0.390 OA
ATOM     20  H   UNL A   1      30.600  25.613  22.476  1.00  0.00     0.211 HD
ENDBRANCH  16  19
ENDBRANCH  15  16
ENDBRANCH   8  15
ENDBRANCH   5   8
ENDBRANCH   3   4
ENDBRANCH   2   3
ENDBRANCH   1   2
BRANCH   1  21
ATOM     21  C   UNL A   1      34.801  32.106  28.543  1.00  0.00     0.002 C 
BRANCH  21  22
ATOM     22  C   UNL A   1      36.115  32.892  28.569  1.00  0.00     0.021 C 
BRANCH  22  23
ATOM     23  C   UNL A   1      36.778  32.945  29.941  1.00  0.00     0.116 C 
BRANCH  23  24
ATOM     24  N   UNL A   1      36.381  31.815  30.768  1.00  0.00    -0.352 N 
ATOM     25  C   UNL A   1      36.961  30.576  30.871  1.00  0.00     0.251 C 
ATOM     26  H   UNL A   1      35.587  31.959  31.332  1.00  0.00     0.163 HD
ATOM     27  O   UNL A   1      36.363  29.657  31.424  1.00  0.00    -0.269 OA
BRANCH  25  28
ATOM     28  C   UNL A   1      38.303  30.356  30.298  1.00  0.00     0.039 A 
ATOM     29  C   UNL A   1      39.409  30.324  31.149  1.00  0.00     0.014 A 
ATOM     30  C   UNL A   1      38.462  30.169  28.921  1.00  0.00     0.014 A 
ATOM     31  C   UNL A   1      40.672  30.044  30.623  1.00  0.00     0.010 A 
ATOM     32  C   UNL A   1      39.707  29.817  28.412  1.00  0.00     0.010 A 
ATOM     33  C   UNL A   1      40.825  29.752  29.258  1.00  0.00    -0.014 A 
BRANCH  33  34
ATOM     34  C   UNL A   1      42.142  29.357  28.699  1.00  0.00     0.031 A 
ATOM     35  C   UNL A   1      42.382  27.942  28.249  1.00  0.00     0.074 A 
ATOM     36  C   UNL A   1      43.145  30.257  28.668  1.00  0.00     0.049 A 
ATOM     37  N   UNL A   1      43.480  27.401  27.786  1.00  0.00    -0.248 NA
ATOM     38  C   UNL A   1      41.250  27.008  28.353  1.00  0.00     0.031 C 
ATOM     39  C   UNL A   1      43.047  31.647  29.122  1.00  0.00     0.029 A 
ATOM     40  N   UNL A   1      44.445  30.136  28.246  1.00  0.00    -0.354 N 
ATOM     41  C   UNL A   1      43.178  26.062  27.565  1.00  0.00     0.074 A 
ATOM     42  C   UNL A   1      41.809  25.864  27.988  1.00  0.00     0.031 C 
ATOM     43  C   UNL A   1      44.229  32.255  28.933  1.00  0.00     0.029 A 
ATOM     44  C   UNL A   1      45.180  31.289  28.390  1.00  0.00     0.049 A 
ATOM     45  H   UNL A   1      44.816  29.304  27.876  1.00  0.00     0.167 HD
ATOM     46  C   UNL A   1      43.965  25.091  27.044  1.00  0.00     0.031 A 
ATOM     47  C   UNL A   1      46.478  31.541  28.130  1.00  0.00     0.031 A 
ATOM     48  C   UNL A   1      45.327  25.299  26.626  1.00  0.00     0.049 A 
ATOM     49  C   UNL A   1      47.337  30.445  27.565  1.00  0.00     0.074 A 
ATOM     50  C   UNL A   1      46.186  24.397  26.021  1.00  0.00     0.029 A 
ATOM     51  N   UNL A   1      46.033  26.482  26.779  1.00  0.00    -0.354 N 
ATOM     52  N   UNL A   1      47.009  29.207  27.280  1.00  0.00    -0.248 NA
ATOM     53  C   UNL A   1      48.737  30.781  27.275  1.00  0.00     0.031 C 
ATOM     54  C   UNL A   1      47.432  25.015  25.875  1.00  0.00     0.029 A 
ATOM     55  C   UNL A   1      47.329  26.324  26.319  1.00  0.00     0.049 A 
ATOM     56  H   UNL A   1      45.667  27.314  27.160  1.00  0.00     0.167 HD
ATOM     57  C   UNL A   1      48.157  28.621  26.759  1.00  0.00     0.074 A 
ATOM     58  C   UNL A   1      49.181  29.647  26.751  1.00  0.00     0.031 C 
ATOM     59  C   UNL A   1      48.344  27.349  26.327  1.00  0.00     0.031 A 
BRANCH  46  60
ATOM     60  C   UNL A   1      43.378  23.708  26.921  1.00  0.00    -0.014 A 
ATOM     61  C   UNL A   1      43.439  22.788  27.984  1.00  0.00     0.010 A 
ATOM     62  C   UNL A   1      42.728  23.331  25.731  1.00  0.00     0.010 A 
ATOM     63  C   UNL A   1      42.906  21.503  27.842  1.00  0.00     0.020 A 
ATOM     64  C   UNL A   1      42.165  22.059  25.597  1.00  0.00     0.020 A 
ATOM     65  C   UNL A   1      42.276  21.146  26.647  1.00  0.00     0.054 A 
BRANCH  65  66
ATOM     66  S   UNL A   1      41.587  19.475  26.493  1.00  0.00     0.124 S 
ATOM     67  O   UNL A   1      40.228  19.752  26.033  1.00  0.00    -0.237 OA
ATOM     68  O   UNL A   1      42.469  18.857  25.506  1.00  0.00    -0.237 OA
ATOM     69  O   UNL A   1      41.688  18.930  27.844  1.00  0.00    -0.744 OA
ENDBRANCH  65  66
ENDBRANCH  46  60
BRANCH  47  70
ATOM     70  C   UNL A   1      47.034  32.895  28.407  1.00  0.00    -0.014 A 
ATOM     71  C   UNL A   1      47.649  33.180  29.638  1.00  0.00     0.010 A 
ATOM     72  C   UNL A   1      46.987  33.896  27.418  1.00  0.00     0.010 A 
ATOM     73  C   UNL A   1      48.202  34.442  29.878  1.00  0.00     0.020 A 
ATOM     74  C   UNL A   1      47.565  35.148  27.644  1.00  0.00     0.020 A 
ATOM     75  C   UNL A   1      48.162  35.415  28.876  1.00  0.00     0.054 A 
BRANCH  75  76
ATOM     76  S   UNL A   1      48.953  37.020  29.183  1.00  0.00     0.124 S 
ATOM     77  O   UNL A   1      48.494  37.808  28.044  1.00  0.00    -0.237 OA
ATOM     78  O   UNL A   1      48.399  37.399  30.481  1.00  0.00    -0.237 OA
ATOM     79  O   UNL A   1      50.379  36.702  29.192  1.00  0.00    -0.744 OA
ENDBRANCH  75  76
ENDBRANCH  47  70
BRANCH  59  80
ATOM     80  C   UNL A   1      49.704  26.992  25.786  1.00  0.00    -0.014 A 
ATOM     81  C   UNL A   1      50.065  27.295  24.460  1.00  0.00     0.010 A 
ATOM     82  C   UNL A   1      50.658  26.406  26.638  1.00  0.00     0.010 A 
ATOM     83  C   UNL A   1      51.345  26.993  23.989  1.00  0.00     0.020 A 
ATOM     84  C   UNL A   1      51.949  26.131  26.180  1.00  0.00     0.020 A 
ATOM     85  C   UNL A   1      52.281  26.416  24.855  1.00  0.00     0.054 A 
BRANCH  85  86
ATOM     86  S   UNL A   1      53.953  26.085  24.233  1.00  0.00     0.124 S 
ATOM     87  O   UNL A   1      53.750  26.103  22.788  1.00  0.00    -0.237 OA
ATOM     88  O   UNL A   1      54.721  27.204  24.774  1.00  0.00    -0.237 OA
ATOM     89  O   UNL A   1      54.282  24.780  24.800  1.00  0.00    -0.744 OA
ENDBRANCH  85  86
ENDBRANCH  59  80
ENDBRANCH  33  34
ENDBRANCH  25  28
ENDBRANCH  23  24
ENDBRANCH  22  23
ENDBRANCH  21  22
ENDBRANCH   1  21
TORSDOF 20
ENDMDL
MODEL 3
REMARK VINA RESULT:      -9.6      6.470     11.762
REMARK SMILES CC[C@H]1CC[C@](CC(C)(C)O)(C(=O)NCCCCCCNC(=O)c2ccc(-c3c4nc(c(-c5ccc(S(=O)(=O)[O-])cc5)c5ccc([nH]5)c(-c5ccc(S(=O)(=O)[O-])cc5)c5nc(c(-c6ccc(S(=O)(=O)[O-])cc6)c6ccc3[nH]6)C=C5)C=C4)cc2)C1
REMARK SMILES IDX 17 1 16 2 15 3 14 4 12 5 13 6 6 8 3 9 4 10 84 11 5 12 2 13
REMARK SMILES IDX 1 14 7 15 8 16 9 17 10 18 11 19 18 21 19 22 20 23 21 24
REMARK SMILES IDX 22 25 23 27 24 28 25 29 83 30 26 31 82 32 27 33 28 34 29 35
REMARK SMILES IDX 76 36 30 37 81 38 75 39 77 40 31 41 80 42 74 43 73 44 32 46
REMARK SMILES IDX 62 47 43 48 61 49 44 50 47 51 60 52 78 53 45 54 46 55 59 57
REMARK SMILES IDX 79 58 48 59 33 60 34 61 42 62 35 63 41 64 36 65 37 66 38 67
REMARK SMILES IDX 39 68 40 69 63 70 64 71 72 72 65 73 71 74 66 75 67 76 68 77
REMARK SMILES IDX 69 78 70 79 49 80 50 81 58 82 51 83 57 84 52 85 53 86 54 87
REMARK SMILES IDX 55 88 56 89
REMARK H PARENT 14 7 11 20 21 26 77 45 47 56
REMARK Flexibility Score: inf
ROOT
ATOM      1  C   UNL A   1      34.278  30.797  27.329  1.00  0.00     0.002 C 
ENDROOT
BRANCH   1   2
ATOM      2  C   UNL A   1      32.836  30.392  27.003  1.00  0.00     0.021 C 
BRANCH   2   3
ATOM      3  C   UNL A   1      32.762  29.275  25.965  1.00  0.00     0.116 C 
BRANCH   3   4
ATOM      4  N   UNL A   1      31.864  28.239  26.431  1.00  0.00    -0.356 N 
ATOM      5  C   UNL A   1      31.643  26.970  25.993  1.00  0.00     0.226 C 
ATOM      6  O   UNL A   1      30.715  26.355  26.530  1.00  0.00    -0.274 OA
ATOM      7  H   UNL A   1      31.315  28.499  27.206  1.00  0.00     0.163 HD
BRANCH   5   8
ATOM      8  C   UNL A   1      32.551  26.313  24.930  1.00  0.00     0.052 C 
ATOM      9  C   UNL A   1      33.588  24.056  24.689  1.00  0.00    -0.010 C 
ATOM     10  C   UNL A   1      34.469  24.876  25.615  1.00  0.00     0.005 C 
ATOM     11  C   UNL A   1      32.254  24.791  24.810  1.00  0.00     0.020 C 
ATOM     12  C   UNL A   1      34.048  26.327  25.377  1.00  0.00     0.017 C 
BRANCH   9  13
ATOM     13  C   UNL A   1      34.080  24.001  23.233  1.00  0.00     0.000 C 
ATOM     14  C   UNL A   1      33.168  23.177  22.340  1.00  0.00     0.004 C 
ENDBRANCH   9  13
BRANCH   8  15
ATOM     15  C   UNL A   1      32.378  27.045  23.558  1.00  0.00     0.051 C 
BRANCH  15  16
ATOM     16  C   UNL A   1      31.049  26.876  22.769  1.00  0.00     0.060 C 
ATOM     17  C   UNL A   1      30.268  25.605  23.106  1.00  0.00     0.042 C 
ATOM     18  C   UNL A   1      30.156  28.096  23.034  1.00  0.00     0.042 C 
BRANCH  16  19
ATOM     19  O   UNL A   1      31.341  26.898  21.372  1.00  0.00    -0.390 OA
ATOM     20  H   UNL A   1      30.946  27.689  20.971  1.00  0.00     0.211 HD
ENDBRANCH  16  19
ENDBRANCH  15  16
ENDBRANCH   8  15
ENDBRANCH   5   8
ENDBRANCH   3   4
ENDBRANCH   2   3
ENDBRANCH   1   2
BRANCH   1  21
ATOM     21  C   UNL A   1      34.394  31.954  28.329  1.00  0.00     0.002 C 
BRANCH  21  22
ATOM     22  C   UNL A   1      35.731  32.696  28.290  1.00  0.00     0.021 C 
BRANCH  22  23
ATOM     23  C   UNL A   1      36.439  32.768  29.638  1.00  0.00     0.116 C 
BRANCH  23  24
ATOM     24  N   UNL A   1      36.066  31.651  30.495  1.00  0.00    -0.352 N 
ATOM     25  C   UNL A   1      36.697  30.446  30.665  1.00  0.00     0.251 C 
ATOM     26  H   UNL A   1      35.247  31.780  31.027  1.00  0.00     0.163 HD
ATOM     27  O   UNL A   1      36.122  29.522  31.234  1.00  0.00    -0.269 OA
BRANCH  25  28
ATOM     28  C   UNL A   1      38.067  30.267  30.147  1.00  0.00     0.039 A 
ATOM     29  C   UNL A   1      39.143  30.318  31.035  1.00  0.00     0.014 A 
ATOM     30  C   UNL A   1      38.283  30.039  28.784  1.00  0.00     0.014 A 
ATOM     31  C   UNL A   1      40.435  30.077  30.563  1.00  0.00     0.010 A 
ATOM     32  C   UNL A   1      39.560  29.726  28.331  1.00  0.00     0.010 A 
ATOM     33  C   UNL A   1      40.649  29.744  29.215  1.00  0.00    -0.014 A 
BRANCH  33  34
ATOM     34  C   UNL A   1      42.001  29.389  28.717  1.00  0.00     0.031 A 
ATOM     35  C   UNL A   1      42.300  27.987  28.263  1.00  0.00     0.074 A 
ATOM     36  C   UNL A   1      42.980  30.316  28.743  1.00  0.00     0.049 A 
ATOM     37  N   UNL A   1      43.433  27.480  27.848  1.00  0.00    -0.248 NA
ATOM     38  C   UNL A   1      41.189  27.023  28.302  1.00  0.00     0.031 C 
ATOM     39  C   UNL A   1      42.824  31.698  29.208  1.00  0.00     0.029 A 
ATOM     40  N   UNL A   1      44.301  30.234  28.383  1.00  0.00    -0.354 N 
ATOM     41  C   UNL A   1      43.178  26.137  27.598  1.00  0.00     0.074 A 
ATOM     42  C   UNL A   1      41.795  25.898  27.952  1.00  0.00     0.031 C 
ATOM     43  C   UNL A   1      43.997  32.338  29.082  1.00  0.00     0.029 A 
ATOM     44  C   UNL A   1      44.998  31.404  28.575  1.00  0.00     0.049 A 
ATOM     45  H   UNL A   1      44.712  29.416  28.022  1.00  0.00     0.167 HD
ATOM     46  C   UNL A   1      44.014  25.193  27.105  1.00  0.00     0.031 A 
ATOM     47  C   UNL A   1      46.300  31.693  28.381  1.00  0.00     0.031 A 
ATOM     48  C   UNL A   1      45.388  25.442  26.755  1.00  0.00     0.049 A 
ATOM     49  C   UNL A   1      47.214  30.627  27.846  1.00  0.00     0.074 A 
ATOM     50  C   UNL A   1      46.300  24.570  26.183  1.00  0.00     0.029 A 
ATOM     51  N   UNL A   1      46.055  26.641  26.955  1.00  0.00    -0.354 N 
ATOM     52  N   UNL A   1      46.933  29.384  27.532  1.00  0.00    -0.248 NA
ATOM     53  C   UNL A   1      48.617  31.002  27.627  1.00  0.00     0.031 C 
ATOM     54  C   UNL A   1      47.534  25.222  26.103  1.00  0.00     0.029 A 
ATOM     55  C   UNL A   1      47.375  26.522  26.556  1.00  0.00     0.049 A 
ATOM     56  H   UNL A   1      45.648  27.458  27.327  1.00  0.00     0.167 HD
ATOM     57  C   UNL A   1      48.120  28.835  27.061  1.00  0.00     0.074 A 
ATOM     58  C   UNL A   1      49.115  29.887  27.113  1.00  0.00     0.031 C 
ATOM     59  C   UNL A   1      48.361  27.573  26.624  1.00  0.00     0.031 A 
BRANCH  46  60
ATOM     60  C   UNL A   1      43.471  23.797  26.939  1.00  0.00    -0.014 A 
ATOM     61  C   UNL A   1      43.469  22.879  28.005  1.00  0.00     0.010 A 
ATOM     62  C   UNL A   1      42.925  23.406  25.702  1.00  0.00     0.010 A 
ATOM     63  C   UNL A   1      42.979  21.582  27.824  1.00  0.00     0.020 A 
ATOM     64  C   UNL A   1      42.404  22.121  25.526  1.00  0.00     0.020 A 
ATOM     65  C   UNL A   1      42.453  21.210  26.583  1.00  0.00     0.054 A 
BRANCH  65  66
ATOM     66  S   UNL A   1      41.817  19.524  26.378  1.00  0.00     0.124 S 
ATOM     67  O   UNL A   1      42.223  18.895  27.633  1.00  0.00    -0.237 OA
ATOM     68  O   UNL A   1      40.381  19.742  26.222  1.00  0.00    -0.237 OA
ATOM     69  O   UNL A   1      42.504  19.035  25.186  1.00  0.00    -0.744 OA
ENDBRANCH  65  66
ENDBRANCH  46  60
BRANCH  47  70
ATOM     70  C   UNL A   1      46.806  33.057  28.699  1.00  0.00    -0.014 A 
ATOM     71  C   UNL A   1      47.336  33.348  29.967  1.00  0.00     0.010 A 
ATOM     72  C   UNL A   1      46.797  34.064  27.714  1.00  0.00     0.010 A 
ATOM     73  C   UNL A   1      47.843  34.621  30.248  1.00  0.00     0.020 A 
ATOM     74  C   UNL A   1      47.330  35.327  27.982  1.00  0.00     0.020 A 
ATOM     75  C   UNL A   1      47.843  35.600  29.250  1.00  0.00     0.054 A 
BRANCH  75  76
ATOM     76  S   UNL A   1      48.575  37.220  29.615  1.00  0.00     0.124 S 
ATOM     77  O   UNL A   1      48.307  37.361  31.042  1.00  0.00    -0.237 OA
ATOM     78  O   UNL A   1      49.976  37.022  29.249  1.00  0.00    -0.237 OA
ATOM     79  O   UNL A   1      47.836  38.132  28.745  1.00  0.00    -0.744 OA
ENDBRANCH  75  76
ENDBRANCH  47  70
BRANCH  59  80
ATOM     80  C   UNL A   1      49.754  27.258  26.145  1.00  0.00    -0.014 A 
ATOM     81  C   UNL A   1      50.114  27.413  24.794  1.00  0.00     0.010 A 
ATOM     82  C   UNL A   1      50.736  26.867  27.074  1.00  0.00     0.010 A 
ATOM     83  C   UNL A   1      51.422  27.156  24.377  1.00  0.00     0.020 A 
ATOM     84  C   UNL A   1      52.052  26.639  26.667  1.00  0.00     0.020 A 
ATOM     85  C   UNL A   1      52.385  26.774  25.318  1.00  0.00     0.054 A 
BRANCH  85  86
ATOM     86  S   UNL A   1      54.089  26.499  24.758  1.00  0.00     0.124 S 
ATOM     87  O   UNL A   1      54.033  25.122  24.278  1.00  0.00    -0.237 OA
ATOM     88  O   UNL A   1      54.253  27.519  23.726  1.00  0.00    -0.237 OA
ATOM     89  O   UNL A   1      54.887  26.707  25.964  1.00  0.00    -0.744 OA
ENDBRANCH  85  86
ENDBRANCH  59  80
ENDBRANCH  33  34
ENDBRANCH  25  28
ENDBRANCH  23  24
ENDBRANCH  22  23
ENDBRANCH  21  22
ENDBRANCH   1  21
TORSDOF 20
ENDMDL
