MODEL 1
REMARK VINA RESULT:     -13.0      0.000      0.000
REMARK SMILES Cc1c(CC(=O)NCCCCCCNC(=O)c2ccc(-c3c4nc(c(-c5ccc(S(=O)(=O)[O-])cc5)c5ccc([nH]5)c(-c5ccc(S(=O)(=O)[O-])cc5)c5nc(c(-c6ccc(S(=O)(=O)[O-])cc6)c6ccc3[nH]6)C=C5)C=C4)cc2)cccc1-c1ccn(C(F)F)c(=O)c1
REMARK SMILES IDX 10 1 9 2 8 3 7 4 5 5 6 6 4 8 3 9 1 10 2 11 80 12 77 13 79 14
REMARK SMILES IDX 78 15 81 16 82 17 90 18 83 19 88 20 84 21 89 22 85 23 86 24
REMARK SMILES IDX 87 25 11 26 12 27 13 28 14 29 15 30 16 32 17 33 18 34 76 35
REMARK SMILES IDX 19 36 75 37 20 38 21 39 22 40 69 41 23 42 74 43 68 44 70 45
REMARK SMILES IDX 24 46 73 47 67 48 66 49 25 51 55 52 36 53 54 54 37 55 40 56
REMARK SMILES IDX 53 57 71 58 38 59 39 60 52 62 72 63 41 64 26 65 27 66 35 67
REMARK SMILES IDX 28 68 34 69 29 70 30 71 31 72 32 73 33 74 56 75 57 76 65 77
REMARK SMILES IDX 58 78 64 79 59 80 60 81 61 82 62 83 63 84 42 85 43 86 51 87
REMARK SMILES IDX 44 88 50 89 45 90 46 91 47 92 48 93 49 94
REMARK H PARENT 7 7 14 31 70 50 40 61
REMARK Flexibility Score: inf
ROOT
ATOM      1  C   UNL A   1      34.073  26.720  25.060  1.00  0.00     0.002 C 
ENDROOT
BRANCH   1   2
ATOM      2  C   UNL A   1      34.394  25.257  25.395  1.00  0.00     0.021 C 
BRANCH   2   3
ATOM      3  C   UNL A   1      33.356  24.551  26.266  1.00  0.00     0.116 C 
BRANCH   3   4
ATOM      4  N   UNL A   1      33.202  23.148  25.929  1.00  0.00    -0.356 N 
ATOM      5  C   UNL A   1      32.165  22.521  25.299  1.00  0.00     0.224 C 
ATOM      6  O   UNL A   1      32.247  21.308  25.087  1.00  0.00    -0.275 OA
ATOM      7  H   UNL A   1      33.951  22.565  26.193  1.00  0.00     0.163 HD
BRANCH   5   8
ATOM      8  C   UNL A   1      30.956  23.315  24.816  1.00  0.00     0.135 C 
BRANCH   8   9
ATOM      9  C   UNL A   1      31.288  24.445  23.857  1.00  0.00    -0.035 A 
ATOM     10  C   UNL A   1      30.062  26.167  25.278  1.00  0.00     0.045 C 
ATOM     11  C   UNL A   1      30.821  25.775  24.030  1.00  0.00    -0.040 A 
ATOM     12  C   UNL A   1      31.115  26.740  23.032  1.00  0.00    -0.015 A 
ATOM     13  C   UNL A   1      32.095  24.135  22.744  1.00  0.00     0.004 A 
ATOM     14  C   UNL A   1      31.909  26.390  21.927  1.00  0.00     0.009 A 
ATOM     15  C   UNL A   1      32.405  25.099  21.790  1.00  0.00     0.001 A 
BRANCH  12  16
ATOM     16  C   UNL A   1      30.557  28.108  23.071  1.00  0.00    -0.011 A 
ATOM     17  C   UNL A   1      30.879  29.075  24.103  1.00  0.00     0.027 A 
ATOM     18  C   UNL A   1      29.646  28.428  22.134  1.00  0.00     0.080 A 
ATOM     19  C   UNL A   1      30.227  30.241  24.164  1.00  0.00     0.095 A 
ATOM     20  C   UNL A   1      28.933  29.732  22.172  1.00  0.00     0.255 A 
ATOM     21  N   UNL A   1      29.257  30.565  23.233  1.00  0.00    -0.258 N 
ATOM     22  O   UNL A   1      28.097  29.969  21.307  1.00  0.00    -0.269 OA
BRANCH  21  23
ATOM     23  C   UNL A   1      28.530  31.804  23.330  1.00  0.00     0.451 C 
ATOM     24  F   UNL A   1      27.363  31.644  23.995  1.00  0.00    -0.185 F 
ATOM     25  F   UNL A   1      29.260  32.748  23.975  1.00  0.00    -0.185 F 
ENDBRANCH  21  23
ENDBRANCH  12  16
ENDBRANCH   8   9
ENDBRANCH   5   8
ENDBRANCH   3   4
ENDBRANCH   2   3
ENDBRANCH   1   2
BRANCH   1  26
ATOM     26  C   UNL A   1      33.541  27.589  26.212  1.00  0.00     0.002 C 
BRANCH  26  27
ATOM     27  C   UNL A   1      34.289  28.898  26.480  1.00  0.00     0.021 C 
BRANCH  27  28
ATOM     28  C   UNL A   1      34.269  29.325  27.944  1.00  0.00     0.116 C 
BRANCH  28  29
ATOM     29  N   UNL A   1      34.924  30.609  28.167  1.00  0.00    -0.352 N 
ATOM     30  C   UNL A   1      36.228  30.834  28.555  1.00  0.00     0.251 C 
ATOM     31  H   UNL A   1      34.370  31.409  28.026  1.00  0.00     0.163 HD
ATOM     32  O   UNL A   1      36.640  31.937  28.905  1.00  0.00    -0.269 OA
BRANCH  30  33
ATOM     33  C   UNL A   1      37.179  29.724  28.370  1.00  0.00     0.039 A 
ATOM     34  C   UNL A   1      37.417  28.912  29.485  1.00  0.00     0.014 A 
ATOM     35  C   UNL A   1      38.008  29.681  27.250  1.00  0.00     0.014 A 
ATOM     36  C   UNL A   1      38.597  28.182  29.552  1.00  0.00     0.010 A 
ATOM     37  C   UNL A   1      39.218  29.022  27.353  1.00  0.00     0.010 A 
ATOM     38  C   UNL A   1      39.534  28.325  28.526  1.00  0.00    -0.014 A 
BRANCH  38  39
ATOM     39  C   UNL A   1      40.904  27.844  28.662  1.00  0.00     0.031 A 
ATOM     40  C   UNL A   1      41.237  26.468  28.240  1.00  0.00     0.074 A 
ATOM     41  C   UNL A   1      41.846  28.631  29.227  1.00  0.00     0.049 A 
ATOM     42  N   UNL A   1      42.152  25.734  28.784  1.00  0.00    -0.248 NA
ATOM     43  C   UNL A   1      40.483  25.783  27.197  1.00  0.00     0.031 C 
ATOM     44  C   UNL A   1      43.280  28.366  29.292  1.00  0.00     0.029 A 
ATOM     45  N   UNL A   1      41.658  29.719  30.086  1.00  0.00    -0.354 N 
ATOM     46  C   UNL A   1      42.286  24.606  28.003  1.00  0.00     0.074 A 
ATOM     47  C   UNL A   1      41.173  24.646  27.083  1.00  0.00     0.031 C 
ATOM     48  C   UNL A   1      43.783  29.025  30.348  1.00  0.00     0.029 A 
ATOM     49  C   UNL A   1      42.665  29.630  31.057  1.00  0.00     0.049 A 
ATOM     50  H   UNL A   1      40.959  30.409  30.020  1.00  0.00     0.167 HD
ATOM     51  C   UNL A   1      43.401  23.826  28.104  1.00  0.00     0.031 A 
ATOM     52  C   UNL A   1      42.430  29.527  32.396  1.00  0.00     0.031 A 
ATOM     53  C   UNL A   1      44.300  24.296  29.154  1.00  0.00     0.049 A 
ATOM     54  C   UNL A   1      43.060  28.294  33.005  1.00  0.00     0.074 A 
ATOM     55  C   UNL A   1      45.426  25.103  29.127  1.00  0.00     0.029 A 
ATOM     56  N   UNL A   1      43.914  24.202  30.488  1.00  0.00    -0.354 N 
ATOM     57  N   UNL A   1      43.455  27.261  32.311  1.00  0.00    -0.248 NA
ATOM     58  C   UNL A   1      43.257  28.111  34.441  1.00  0.00     0.031 C 
ATOM     59  C   UNL A   1      45.657  25.576  30.443  1.00  0.00     0.029 A 
ATOM     60  C   UNL A   1      44.698  25.026  31.275  1.00  0.00     0.049 A 
ATOM     61  H   UNL A   1      43.186  23.630  30.823  1.00  0.00     0.167 HD
ATOM     62  C   UNL A   1      43.962  26.310  33.158  1.00  0.00     0.074 A 
ATOM     63  C   UNL A   1      43.819  26.891  34.482  1.00  0.00     0.031 C 
ATOM     64  C   UNL A   1      44.466  25.124  32.709  1.00  0.00     0.031 A 
BRANCH  51  65
ATOM     65  C   UNL A   1      43.805  22.871  27.001  1.00  0.00    -0.014 A 
ATOM     66  C   UNL A   1      42.953  21.803  26.655  1.00  0.00     0.010 A 
ATOM     67  C   UNL A   1      45.047  22.915  26.339  1.00  0.00     0.010 A 
ATOM     68  C   UNL A   1      43.371  20.763  25.810  1.00  0.00     0.020 A 
ATOM     69  C   UNL A   1      45.499  21.859  25.531  1.00  0.00     0.020 A 
ATOM     70  C   UNL A   1      44.662  20.776  25.286  1.00  0.00     0.054 A 
BRANCH  70  71
ATOM     71  S   UNL A   1      45.239  19.354  24.321  1.00  0.00     0.124 S 
ATOM     72  O   UNL A   1      44.767  18.219  25.110  1.00  0.00    -0.237 OA
ATOM     73  O   UNL A   1      44.567  19.554  23.040  1.00  0.00    -0.237 OA
ATOM     74  O   UNL A   1      46.691  19.519  24.294  1.00  0.00    -0.744 OA
ENDBRANCH  70  71
ENDBRANCH  51  65
BRANCH  52  75
ATOM     75  C   UNL A   1      41.184  30.175  32.881  1.00  0.00    -0.014 A 
ATOM     76  C   UNL A   1      41.217  31.564  33.128  1.00  0.00     0.010 A 
ATOM     77  C   UNL A   1      39.937  29.541  32.752  1.00  0.00     0.010 A 
ATOM     78  C   UNL A   1      40.043  32.322  33.118  1.00  0.00     0.020 A 
ATOM     79  C   UNL A   1      38.756  30.301  32.735  1.00  0.00     0.020 A 
ATOM     80  C   UNL A   1      38.825  31.692  32.861  1.00  0.00     0.054 A 
BRANCH  80  81
ATOM     81  S   UNL A   1      37.355  32.729  32.600  1.00  0.00     0.124 S 
ATOM     82  O   UNL A   1      36.321  31.743  32.295  1.00  0.00    -0.237 OA
ATOM     83  O   UNL A   1      37.217  33.397  33.894  1.00  0.00    -0.237 OA
ATOM     84  O   UNL A   1      37.744  33.588  31.487  1.00  0.00    -0.744 OA
ENDBRANCH  80  81
ENDBRANCH  52  75
BRANCH  64  85
ATOM     85  C   UNL A   1      44.890  23.974  33.585  1.00  0.00    -0.014 A 
ATOM     86  C   UNL A   1      44.077  22.862  33.859  1.00  0.00     0.010 A 
ATOM     87  C   UNL A   1      46.223  23.931  34.057  1.00  0.00     0.010 A 
ATOM     88  C   UNL A   1      44.553  21.785  34.620  1.00  0.00     0.020 A 
ATOM     89  C   UNL A   1      46.720  22.845  34.781  1.00  0.00     0.020 A 
ATOM     90  C   UNL A   1      45.872  21.785  35.079  1.00  0.00     0.054 A 
BRANCH  90  91
ATOM     91  S   UNL A   1      46.510  20.357  35.994  1.00  0.00     0.124 S 
ATOM     92  O   UNL A   1      47.800  20.137  35.347  1.00  0.00    -0.237 OA
ATOM     93  O   UNL A   1      46.575  20.847  37.370  1.00  0.00    -0.237 OA
ATOM     94  O   UNL A   1      45.503  19.326  35.756  1.00  0.00    -0.744 OA
ENDBRANCH  90  91
ENDBRANCH  64  85
ENDBRANCH  38  39
ENDBRANCH  30  33
ENDBRANCH  28  29
ENDBRANCH  27  28
ENDBRANCH  26  27
ENDBRANCH   1  26
TORSDOF 19
ENDMDL
MODEL 2
REMARK VINA RESULT:     -12.8      4.258     10.722
REMARK SMILES Cc1c(CC(=O)NCCCCCCNC(=O)c2ccc(-c3c4nc(c(-c5ccc(S(=O)(=O)[O-])cc5)c5ccc([nH]5)c(-c5ccc(S(=O)(=O)[O-])cc5)c5nc(c(-c6ccc(S(=O)(=O)[O-])cc6)c6ccc3[nH]6)C=C5)C=C4)cc2)cccc1-c1ccn(C(F)F)c(=O)c1
REMARK SMILES IDX 10 1 9 2 8 3 7 4 5 5 6 6 4 8 3 9 1 10 2 11 80 12 77 13 79 14
REMARK SMILES IDX 78 15 81 16 82 17 90 18 83 19 88 20 84 21 89 22 85 23 86 24
REMARK SMILES IDX 87 25 11 26 12 27 13 28 14 29 15 30 16 32 17 33 18 34 76 35
REMARK SMILES IDX 19 36 75 37 20 38 21 39 22 40 69 41 23 42 74 43 68 44 70 45
REMARK SMILES IDX 24 46 73 47 67 48 66 49 25 51 55 52 36 53 54 54 37 55 40 56
REMARK SMILES IDX 53 57 71 58 38 59 39 60 52 62 72 63 41 64 26 65 27 66 35 67
REMARK SMILES IDX 28 68 34 69 29 70 30 71 31 72 32 73 33 74 56 75 57 76 65 77
REMARK SMILES IDX 58 78 64 79 59 80 60 81 61 82 62 83 63 84 42 85 43 86 51 87
REMARK SMILES IDX 44 88 50 89 45 90 46 91 47 92 48 93 49 94
REMARK H PARENT 7 7 14 31 70 50 40 61
REMARK Flexibility Score: inf
ROOT
ATOM      1  C   UNL A   1      35.065  21.318  25.665  1.00  0.00     0.002 C 
ENDROOT
BRANCH   1   2
ATOM      2  C   UNL A   1      34.053  21.147  24.524  1.00  0.00     0.021 C 
BRANCH   2   3
ATOM      3  C   UNL A   1      32.601  20.974  24.970  1.00  0.00     0.116 C 
BRANCH   3   4
ATOM      4  N   UNL A   1      32.307  21.669  26.209  1.00  0.00    -0.356 N 
ATOM      5  C   UNL A   1      31.599  22.819  26.406  1.00  0.00     0.224 C 
ATOM      6  O   UNL A   1      31.446  23.231  27.559  1.00  0.00    -0.275 OA
ATOM      7  H   UNL A   1      32.671  21.251  27.024  1.00  0.00     0.163 HD
BRANCH   5   8
ATOM      8  C   UNL A   1      30.960  23.548  25.228  1.00  0.00     0.135 C 
BRANCH   8   9
ATOM      9  C   UNL A   1      31.636  24.857  24.857  1.00  0.00    -0.035 A 
ATOM     10  C   UNL A   1      29.448  26.155  24.977  1.00  0.00     0.045 C 
ATOM     11  C   UNL A   1      30.928  26.074  24.674  1.00  0.00    -0.040 A 
ATOM     12  C   UNL A   1      31.640  27.223  24.244  1.00  0.00    -0.015 A 
ATOM     13  C   UNL A   1      33.034  24.839  24.684  1.00  0.00     0.004 A 
ATOM     14  C   UNL A   1      33.031  27.163  24.065  1.00  0.00     0.009 A 
ATOM     15  C   UNL A   1      33.725  25.981  24.295  1.00  0.00     0.001 A 
BRANCH  12  16
ATOM     16  C   UNL A   1      30.957  28.490  23.904  1.00  0.00    -0.011 A 
ATOM     17  C   UNL A   1      31.002  29.673  24.742  1.00  0.00     0.027 A 
ATOM     18  C   UNL A   1      30.200  28.502  22.793  1.00  0.00     0.080 A 
ATOM     19  C   UNL A   1      30.242  30.735  24.453  1.00  0.00     0.095 A 
ATOM     20  C   UNL A   1      29.372  29.687  22.442  1.00  0.00     0.255 A 
ATOM     21  N   UNL A   1      29.425  30.745  23.337  1.00  0.00    -0.258 N 
ATOM     22  O   UNL A   1      28.683  29.641  21.429  1.00  0.00    -0.269 OA
BRANCH  21  23
ATOM     23  C   UNL A   1      28.580  31.875  23.054  1.00  0.00     0.451 C 
ATOM     24  F   UNL A   1      27.356  31.731  23.612  1.00  0.00    -0.185 F 
ATOM     25  F   UNL A   1      29.128  33.023  23.525  1.00  0.00    -0.185 F 
ENDBRANCH  21  23
ENDBRANCH  12  16
ENDBRANCH   8   9
ENDBRANCH   5   8
ENDBRANCH   3   4
ENDBRANCH   2   3
ENDBRANCH   1   2
BRANCH   1  26
ATOM     26  C   UNL A   1      36.424  21.936  25.294  1.00  0.00     0.002 C 
BRANCH  26  27
ATOM     27  C   UNL A   1      36.848  23.176  26.085  1.00  0.00     0.021 C 
BRANCH  27  28
ATOM     28  C   UNL A   1      38.110  23.843  25.548  1.00  0.00     0.116 C 
BRANCH  28  29
ATOM     29  N   UNL A   1      39.315  23.425  26.255  1.00  0.00    -0.352 N 
ATOM     30  C   UNL A   1      40.200  24.217  26.955  1.00  0.00     0.251 C 
ATOM     31  H   UNL A   1      39.522  22.464  26.228  1.00  0.00     0.163 HD
ATOM     32  O   UNL A   1      41.288  23.811  27.355  1.00  0.00    -0.269 OA
BRANCH  30  33
ATOM     33  C   UNL A   1      39.721  25.547  27.369  1.00  0.00     0.039 A 
ATOM     34  C   UNL A   1      40.291  26.648  26.718  1.00  0.00     0.014 A 
ATOM     35  C   UNL A   1      38.977  25.700  28.538  1.00  0.00     0.014 A 
ATOM     36  C   UNL A   1      40.268  27.889  27.341  1.00  0.00     0.010 A 
ATOM     37  C   UNL A   1      39.027  26.914  29.195  1.00  0.00     0.010 A 
ATOM     38  C   UNL A   1      39.722  27.986  28.623  1.00  0.00    -0.014 A 
BRANCH  38  39
ATOM     39  C   UNL A   1      39.929  29.163  29.460  1.00  0.00     0.031 A 
ATOM     40  C   UNL A   1      38.893  30.216  29.505  1.00  0.00     0.074 A 
ATOM     41  C   UNL A   1      41.086  29.317  30.140  1.00  0.00     0.049 A 
ATOM     42  N   UNL A   1      39.131  31.473  29.686  1.00  0.00    -0.248 NA
ATOM     43  C   UNL A   1      37.486  29.916  29.263  1.00  0.00     0.031 C 
ATOM     44  C   UNL A   1      41.385  30.342  31.134  1.00  0.00     0.029 A 
ATOM     45  N   UNL A   1      42.325  28.720  29.880  1.00  0.00    -0.354 N 
ATOM     46  C   UNL A   1      37.913  32.098  29.850  1.00  0.00     0.074 A 
ATOM     47  C   UNL A   1      36.925  31.105  29.495  1.00  0.00     0.031 C 
ATOM     48  C   UNL A   1      42.715  30.524  31.166  1.00  0.00     0.029 A 
ATOM     49  C   UNL A   1      43.292  29.708  30.108  1.00  0.00     0.049 A 
ATOM     50  H   UNL A   1      42.485  27.792  29.594  1.00  0.00     0.167 HD
ATOM     51  C   UNL A   1      37.845  33.339  30.412  1.00  0.00     0.031 A 
ATOM     52  C   UNL A   1      44.178  30.145  29.169  1.00  0.00     0.031 A 
ATOM     53  C   UNL A   1      39.170  33.882  30.694  1.00  0.00     0.049 A 
ATOM     54  C   UNL A   1      44.090  31.636  28.933  1.00  0.00     0.074 A 
ATOM     55  C   UNL A   1      39.944  33.906  31.844  1.00  0.00     0.029 A 
ATOM     56  N   UNL A   1      40.015  34.224  29.643  1.00  0.00    -0.354 N 
ATOM     57  N   UNL A   1      43.068  32.369  29.283  1.00  0.00    -0.248 NA
ATOM     58  C   UNL A   1      45.125  32.409  28.251  1.00  0.00     0.031 C 
ATOM     59  C   UNL A   1      41.284  34.169  31.463  1.00  0.00     0.029 A 
ATOM     60  C   UNL A   1      41.318  34.343  30.091  1.00  0.00     0.049 A 
ATOM     61  H   UNL A   1      39.726  34.363  28.711  1.00  0.00     0.167 HD
ATOM     62  C   UNL A   1      43.292  33.669  28.914  1.00  0.00     0.074 A 
ATOM     63  C   UNL A   1      44.596  33.645  28.273  1.00  0.00     0.031 C 
ATOM     64  C   UNL A   1      42.396  34.667  29.167  1.00  0.00     0.031 A 
BRANCH  51  65
ATOM     65  C   UNL A   1      36.561  33.869  31.015  1.00  0.00    -0.014 A 
ATOM     66  C   UNL A   1      35.385  33.897  30.240  1.00  0.00     0.010 A 
ATOM     67  C   UNL A   1      36.473  34.439  32.300  1.00  0.00     0.010 A 
ATOM     68  C   UNL A   1      34.233  34.581  30.662  1.00  0.00     0.020 A 
ATOM     69  C   UNL A   1      35.348  35.168  32.717  1.00  0.00     0.020 A 
ATOM     70  C   UNL A   1      34.238  35.251  31.884  1.00  0.00     0.054 A 
BRANCH  70  71
ATOM     71  S   UNL A   1      32.800  36.254  32.347  1.00  0.00     0.124 S 
ATOM     72  O   UNL A   1      32.604  37.095  31.170  1.00  0.00    -0.237 OA
ATOM     73  O   UNL A   1      31.774  35.241  32.575  1.00  0.00    -0.237 OA
ATOM     74  O   UNL A   1      33.246  36.967  33.542  1.00  0.00    -0.744 OA
ENDBRANCH  70  71
ENDBRANCH  51  65
BRANCH  52  75
ATOM     75  C   UNL A   1      44.575  29.142  28.146  1.00  0.00    -0.014 A 
ATOM     76  C   UNL A   1      45.253  27.986  28.586  1.00  0.00     0.010 A 
ATOM     77  C   UNL A   1      43.995  29.140  26.867  1.00  0.00     0.010 A 
ATOM     78  C   UNL A   1      45.242  26.815  27.823  1.00  0.00     0.020 A 
ATOM     79  C   UNL A   1      43.976  27.964  26.101  1.00  0.00     0.020 A 
ATOM     80  C   UNL A   1      44.550  26.795  26.611  1.00  0.00     0.054 A 
BRANCH  80  81
ATOM     81  S   UNL A   1      44.336  25.200  25.766  1.00  0.00     0.124 S 
ATOM     82  O   UNL A   1      45.482  25.164  24.861  1.00  0.00    -0.237 OA
ATOM     83  O   UNL A   1      44.390  24.253  26.880  1.00  0.00    -0.237 OA
ATOM     84  O   UNL A   1      43.035  25.336  25.119  1.00  0.00    -0.744 OA
ENDBRANCH  80  81
ENDBRANCH  52  75
BRANCH  64  85
ATOM     85  C   UNL A   1      42.501  36.079  28.654  1.00  0.00    -0.014 A 
ATOM     86  C   UNL A   1      43.140  37.117  29.350  1.00  0.00     0.010 A 
ATOM     87  C   UNL A   1      42.052  36.363  27.342  1.00  0.00     0.010 A 
ATOM     88  C   UNL A   1      43.273  38.395  28.789  1.00  0.00     0.020 A 
ATOM     89  C   UNL A   1      42.216  37.621  26.757  1.00  0.00     0.020 A 
ATOM     90  C   UNL A   1      42.807  38.640  27.496  1.00  0.00     0.054 A 
BRANCH  90  91
ATOM     91  S   UNL A   1      43.049  40.268  26.741  1.00  0.00     0.124 S 
ATOM     92  O   UNL A   1      43.392  41.089  27.899  1.00  0.00    -0.237 OA
ATOM     93  O   UNL A   1      44.138  40.037  25.794  1.00  0.00    -0.237 OA
ATOM     94  O   UNL A   1      41.754  40.554  26.130  1.00  0.00    -0.744 OA
ENDBRANCH  90  91
ENDBRANCH  64  85
ENDBRANCH  38  39
ENDBRANCH  30  33
ENDBRANCH  28  29
ENDBRANCH  27  28
ENDBRANCH  26  27
ENDBRANCH   1  26
TORSDOF 19
ENDMDL
MODEL 3
REMARK VINA RESULT:     -12.7      2.514      4.215
REMARK SMILES Cc1c(CC(=O)NCCCCCCNC(=O)c2ccc(-c3c4nc(c(-c5ccc(S(=O)(=O)[O-])cc5)c5ccc([nH]5)c(-c5ccc(S(=O)(=O)[O-])cc5)c5nc(c(-c6ccc(S(=O)(=O)[O-])cc6)c6ccc3[nH]6)C=C5)C=C4)cc2)cccc1-c1ccn(C(F)F)c(=O)c1
REMARK SMILES IDX 10 1 9 2 8 3 7 4 5 5 6 6 4 8 3 9 1 10 2 11 80 12 77 13 79 14
REMARK SMILES IDX 78 15 81 16 82 17 90 18 83 19 88 20 84 21 89 22 85 23 86 24
REMARK SMILES IDX 87 25 11 26 12 27 13 28 14 29 15 30 16 32 17 33 18 34 76 35
REMARK SMILES IDX 19 36 75 37 20 38 21 39 22 40 69 41 23 42 74 43 68 44 70 45
REMARK SMILES IDX 24 46 73 47 67 48 66 49 25 51 55 52 36 53 54 54 37 55 40 56
REMARK SMILES IDX 53 57 71 58 38 59 39 60 52 62 72 63 41 64 26 65 27 66 35 67
REMARK SMILES IDX 28 68 34 69 29 70 30 71 31 72 32 73 33 74 56 75 57 76 65 77
REMARK SMILES IDX 58 78 64 79 59 80 60 81 61 82 62 83 63 84 42 85 43 86 51 87
REMARK SMILES IDX 44 88 50 89 45 90 46 91 47 92 48 93 49 94
REMARK H PARENT 7 7 14 31 70 50 40 61
REMARK Flexibility Score: inf
ROOT
ATOM      1  C   UNL A   1      33.064  29.312  24.303  1.00  0.00     0.002 C 
ENDROOT
BRANCH   1   2
ATOM      2  C   UNL A   1      33.538  28.616  23.021  1.00  0.00     0.021 C 
BRANCH   2   3
ATOM      3  C   UNL A   1      32.513  28.579  21.888  1.00  0.00     0.116 C 
BRANCH   3   4
ATOM      4  N   UNL A   1      31.195  29.016  22.309  1.00  0.00    -0.356 N 
ATOM      5  C   UNL A   1      30.135  28.270  22.737  1.00  0.00     0.224 C 
ATOM      6  O   UNL A   1      29.100  28.851  23.075  1.00  0.00    -0.275 OA
ATOM      7  H   UNL A   1      31.044  29.990  22.282  1.00  0.00     0.163 HD
BRANCH   5   8
ATOM      8  C   UNL A   1      30.249  26.754  22.851  1.00  0.00     0.135 C 
BRANCH   8   9
ATOM      9  C   UNL A   1      31.073  26.271  24.031  1.00  0.00    -0.035 A 
ATOM     10  C   UNL A   1      32.715  25.033  22.527  1.00  0.00     0.045 C 
ATOM     11  C   UNL A   1      32.195  25.411  23.896  1.00  0.00    -0.040 A 
ATOM     12  C   UNL A   1      32.848  24.948  25.068  1.00  0.00    -0.015 A 
ATOM     13  C   UNL A   1      30.684  26.703  25.314  1.00  0.00     0.004 A 
ATOM     14  C   UNL A   1      32.422  25.387  26.332  1.00  0.00     0.009 A 
ATOM     15  C   UNL A   1      31.354  26.268  26.453  1.00  0.00     0.001 A 
BRANCH  12  16
ATOM     16  C   UNL A   1      33.938  23.949  25.019  1.00  0.00    -0.011 A 
ATOM     17  C   UNL A   1      33.726  22.548  24.713  1.00  0.00     0.027 A 
ATOM     18  C   UNL A   1      35.171  24.369  25.352  1.00  0.00     0.080 A 
ATOM     19  C   UNL A   1      34.730  21.671  24.831  1.00  0.00     0.095 A 
ATOM     20  C   UNL A   1      36.304  23.411  25.460  1.00  0.00     0.255 A 
ATOM     21  N   UNL A   1      35.994  22.082  25.215  1.00  0.00    -0.258 N 
ATOM     22  O   UNL A   1      37.405  23.840  25.787  1.00  0.00    -0.269 OA
BRANCH  21  23
ATOM     23  C   UNL A   1      37.058  21.127  25.381  1.00  0.00     0.451 C 
ATOM     24  F   UNL A   1      36.665  19.880  25.032  1.00  0.00    -0.185 F 
ATOM     25  F   UNL A   1      38.134  21.460  24.624  1.00  0.00    -0.185 F 
ENDBRANCH  21  23
ENDBRANCH  12  16
ENDBRANCH   8   9
ENDBRANCH   5   8
ENDBRANCH   3   4
ENDBRANCH   2   3
ENDBRANCH   1   2
BRANCH   1  26
ATOM     26  C   UNL A   1      33.805  28.947  25.600  1.00  0.00     0.002 C 
BRANCH  26  27
ATOM     27  C   UNL A   1      33.365  29.686  26.867  1.00  0.00     0.021 C 
BRANCH  27  28
ATOM     28  C   UNL A   1      34.305  29.483  28.051  1.00  0.00     0.116 C 
BRANCH  28  29
ATOM     29  N   UNL A   1      34.979  30.712  28.454  1.00  0.00    -0.352 N 
ATOM     30  C   UNL A   1      36.253  30.847  28.965  1.00  0.00     0.251 C 
ATOM     31  H   UNL A   1      34.464  31.543  28.350  1.00  0.00     0.163 HD
ATOM     32  O   UNL A   1      36.668  31.893  29.457  1.00  0.00    -0.269 OA
BRANCH  30  33
ATOM     33  C   UNL A   1      37.181  29.724  28.745  1.00  0.00     0.039 A 
ATOM     34  C   UNL A   1      37.428  28.893  29.844  1.00  0.00     0.014 A 
ATOM     35  C   UNL A   1      37.986  29.683  27.608  1.00  0.00     0.014 A 
ATOM     36  C   UNL A   1      38.597  28.143  29.877  1.00  0.00     0.010 A 
ATOM     37  C   UNL A   1      39.187  29.004  27.677  1.00  0.00     0.010 A 
ATOM     38  C   UNL A   1      39.515  28.285  28.833  1.00  0.00    -0.014 A 
BRANCH  38  39
ATOM     39  C   UNL A   1      40.879  27.780  28.935  1.00  0.00     0.031 A 
ATOM     40  C   UNL A   1      41.182  26.406  28.483  1.00  0.00     0.074 A 
ATOM     41  C   UNL A   1      41.845  28.541  29.495  1.00  0.00     0.049 A 
ATOM     42  N   UNL A   1      42.094  25.648  28.995  1.00  0.00    -0.248 NA
ATOM     43  C   UNL A   1      40.397  25.752  27.442  1.00  0.00     0.031 C 
ATOM     44  C   UNL A   1      43.275  28.252  29.528  1.00  0.00     0.029 A 
ATOM     45  N   UNL A   1      41.691  29.617  30.376  1.00  0.00    -0.354 N 
ATOM     46  C   UNL A   1      42.196  24.532  28.193  1.00  0.00     0.074 A 
ATOM     47  C   UNL A   1      41.066  24.606  27.295  1.00  0.00     0.031 C 
ATOM     48  C   UNL A   1      43.808  28.884  30.585  1.00  0.00     0.029 A 
ATOM     49  C   UNL A   1      42.714  29.495  31.326  1.00  0.00     0.049 A 
ATOM     50  H   UNL A   1      41.003  30.319  30.336  1.00  0.00     0.167 HD
ATOM     51  C   UNL A   1      43.299  23.733  28.258  1.00  0.00     0.031 A 
ATOM     52  C   UNL A   1      42.504  29.371  32.667  1.00  0.00     0.031 A 
ATOM     53  C   UNL A   1      44.225  24.170  29.299  1.00  0.00     0.049 A 
ATOM     54  C   UNL A   1      43.124  28.118  33.242  1.00  0.00     0.074 A 
ATOM     55  C   UNL A   1      45.364  24.959  29.264  1.00  0.00     0.029 A 
ATOM     56  N   UNL A   1      43.864  24.058  30.638  1.00  0.00    -0.354 N 
ATOM     57  N   UNL A   1      43.489  27.091  32.523  1.00  0.00    -0.248 NA
ATOM     58  C   UNL A   1      43.346  27.906  34.671  1.00  0.00     0.031 C 
ATOM     59  C   UNL A   1      45.628  25.405  30.584  1.00  0.00     0.029 A 
ATOM     60  C   UNL A   1      44.676  24.855  31.424  1.00  0.00     0.049 A 
ATOM     61  H   UNL A   1      43.133  23.492  30.977  1.00  0.00     0.167 HD
ATOM     62  C   UNL A   1      43.997  26.118  33.343  1.00  0.00     0.074 A 
ATOM     63  C   UNL A   1      43.888  26.676  34.680  1.00  0.00     0.031 C 
ATOM     64  C   UNL A   1      44.473  24.932  32.864  1.00  0.00     0.031 A 
BRANCH  51  65
ATOM     65  C   UNL A   1      43.667  22.791  27.131  1.00  0.00    -0.014 A 
ATOM     66  C   UNL A   1      42.818  21.710  26.820  1.00  0.00     0.010 A 
ATOM     67  C   UNL A   1      44.874  22.862  26.409  1.00  0.00     0.010 A 
ATOM     68  C   UNL A   1      43.214  20.682  25.950  1.00  0.00     0.020 A 
ATOM     69  C   UNL A   1      45.305  21.819  25.574  1.00  0.00     0.020 A 
ATOM     70  C   UNL A   1      44.478  20.722  25.364  1.00  0.00     0.054 A 
BRANCH  70  71
ATOM     71  S   UNL A   1      45.033  19.316  24.363  1.00  0.00     0.124 S 
ATOM     72  O   UNL A   1      44.291  18.198  24.942  1.00  0.00    -0.237 OA
ATOM     73  O   UNL A   1      44.628  19.712  23.017  1.00  0.00    -0.237 OA
ATOM     74  O   UNL A   1      46.476  19.276  24.591  1.00  0.00    -0.744 OA
ENDBRANCH  70  71
ENDBRANCH  51  65
BRANCH  52  75
ATOM     75  C   UNL A   1      41.278  30.030  33.188  1.00  0.00    -0.014 A 
ATOM     76  C   UNL A   1      41.327  31.420  33.424  1.00  0.00     0.010 A 
ATOM     77  C   UNL A   1      40.023  29.404  33.102  1.00  0.00     0.010 A 
ATOM     78  C   UNL A   1      40.159  32.186  33.447  1.00  0.00     0.020 A 
ATOM     79  C   UNL A   1      38.847  30.171  33.118  1.00  0.00     0.020 A 
ATOM     80  C   UNL A   1      38.929  31.562  33.233  1.00  0.00     0.054 A 
BRANCH  80  81
ATOM     81  S   UNL A   1      37.458  32.608  33.013  1.00  0.00     0.124 S 
ATOM     82  O   UNL A   1      36.419  31.631  32.694  1.00  0.00    -0.237 OA
ATOM     83  O   UNL A   1      37.334  33.244  34.324  1.00  0.00    -0.237 OA
ATOM     84  O   UNL A   1      37.837  33.493  31.917  1.00  0.00    -0.744 OA
ENDBRANCH  80  81
ENDBRANCH  52  75
BRANCH  64  85
ATOM     85  C   UNL A   1      44.894  23.759  33.711  1.00  0.00    -0.014 A 
ATOM     86  C   UNL A   1      44.045  22.692  34.043  1.00  0.00     0.010 A 
ATOM     87  C   UNL A   1      46.253  23.645  34.090  1.00  0.00     0.010 A 
ATOM     88  C   UNL A   1      44.514  21.590  34.772  1.00  0.00     0.020 A 
ATOM     89  C   UNL A   1      46.740  22.533  34.781  1.00  0.00     0.020 A 
ATOM     90  C   UNL A   1      45.860  21.519  35.139  1.00  0.00     0.054 A 
BRANCH  90  91
ATOM     91  S   UNL A   1      46.482  20.059  36.011  1.00  0.00     0.124 S 
ATOM     92  O   UNL A   1      45.756  20.131  37.276  1.00  0.00    -0.237 OA
ATOM     93  O   UNL A   1      46.097  18.957  35.131  1.00  0.00    -0.237 OA
ATOM     94  O   UNL A   1      47.920  20.303  36.096  1.00  0.00    -0.744 OA
ENDBRANCH  90  91
ENDBRANCH  64  85
ENDBRANCH  38  39
ENDBRANCH  30  33
ENDBRANCH  28  29
ENDBRANCH  27  28
ENDBRANCH  26  27
ENDBRANCH   1  26
TORSDOF 19
ENDMDL
