MODEL 1
REMARK VINA RESULT:     -11.5      0.000      0.000
REMARK SMILES O=C(/C=C/c1ccc(NC(=O)[C@H]2COc3ccccc3C2)cc1)NCCCCCCNC(=O)c1ccc(-c2c3nc(c(-c4ccc(S(=O)(=O)[O-])cc4)c4ccc([nH]4)c(-c4ccc(S(=O)(=O)[O-])cc4)c4nc(c(-c5ccc(S(=O)(=O)[O-])cc5)c5ccc2[nH]5)C=C4)C=C3)cc1
REMARK SMILES IDX 27 1 26 2 25 3 24 4 1 5 2 6 3 8 4 9 5 10 6 11 23 12 7 13
REMARK SMILES IDX 22 14 8 15 9 16 10 17 11 19 12 20 13 21 21 22 14 23 20 24
REMARK SMILES IDX 15 25 19 26 16 27 18 28 17 29 28 30 29 31 30 32 31 33 32 34
REMARK SMILES IDX 33 36 34 37 35 38 93 39 36 40 92 41 37 42 38 43 39 44 86 45
REMARK SMILES IDX 40 46 91 47 85 48 87 49 41 50 90 51 84 52 83 53 42 55 72 56
REMARK SMILES IDX 53 57 71 58 54 59 57 60 70 61 88 62 55 63 56 64 69 66 89 67
REMARK SMILES IDX 58 68 43 69 44 70 52 71 45 72 51 73 46 74 47 75 48 76 49 77
REMARK SMILES IDX 50 78 73 79 74 80 82 81 75 82 81 83 76 84 77 85 78 86 79 87
REMARK SMILES IDX 80 88 59 89 60 90 68 91 61 92 67 93 62 94 63 95 64 96 65 97
REMARK SMILES IDX 66 98
REMARK H PARENT 24 7 9 18 31 35 87 54 57 65
REMARK Flexibility Score: inf
ROOT
ATOM      1  C   UNL A   1      39.533  20.687  25.844  1.00  0.00     0.002 C 
ENDROOT
BRANCH   1   2
ATOM      2  C   UNL A   1      38.423  21.749  25.817  1.00  0.00     0.021 C 
BRANCH   2   3
ATOM      3  C   UNL A   1      37.105  21.310  25.173  1.00  0.00     0.116 C 
BRANCH   3   4
ATOM      4  N   UNL A   1      36.142  22.388  25.120  1.00  0.00    -0.353 N 
ATOM      5  O   UNL A   1      36.191  22.750  22.845  1.00  0.00    -0.270 OA
ATOM      6  C   UNL A   1      35.813  23.059  23.968  1.00  0.00     0.243 C 
ATOM      7  H   UNL A   1      35.696  22.655  25.956  1.00  0.00     0.163 HD
BRANCH   6   8
ATOM      8  C   UNL A   1      34.909  24.230  24.147  1.00  0.00     0.072 C 
ATOM      9  C   UNL A   1      34.524  24.981  23.107  1.00  0.00     0.014 C 
BRANCH   9  10
ATOM     10  C   UNL A   1      33.573  26.095  23.100  1.00  0.00    -0.025 A 
ATOM     11  C   UNL A   1      34.125  27.356  22.841  1.00  0.00     0.010 A 
ATOM     12  C   UNL A   1      32.208  25.995  23.394  1.00  0.00     0.010 A 
ATOM     13  C   UNL A   1      33.329  28.490  22.833  1.00  0.00     0.027 A 
ATOM     14  C   UNL A   1      31.407  27.146  23.419  1.00  0.00     0.027 A 
ATOM     15  C   UNL A   1      31.968  28.383  23.102  1.00  0.00     0.041 A 
BRANCH  15  16
ATOM     16  N   UNL A   1      31.172  29.533  23.067  1.00  0.00    -0.326 N 
ATOM     17  C   UNL A   1      30.500  30.042  24.150  1.00  0.00     0.231 C 
ATOM     18  H   UNL A   1      31.089  30.007  22.209  1.00  0.00     0.169 HD
ATOM     19  O   UNL A   1      29.341  30.441  24.033  1.00  0.00    -0.274 OA
BRANCH  17  20
ATOM     20  C   UNL A   1      31.317  30.366  25.395  1.00  0.00     0.121 C 
ATOM     21  C   UNL A   1      31.111  31.685  26.139  1.00  0.00     0.243 C 
ATOM     22  C   UNL A   1      31.466  29.293  26.470  1.00  0.00     0.056 C 
ATOM     23  O   UNL A   1      32.131  31.941  27.157  1.00  0.00    -0.492 OA
ATOM     24  C   UNL A   1      32.818  29.617  27.017  1.00  0.00    -0.005 A 
ATOM     25  C   UNL A   1      33.081  30.958  27.325  1.00  0.00     0.122 A 
ATOM     26  C   UNL A   1      33.849  28.678  26.953  1.00  0.00     0.007 A 
ATOM     27  C   UNL A   1      34.373  31.342  27.659  1.00  0.00     0.047 A 
ATOM     28  C   UNL A   1      35.153  29.087  27.194  1.00  0.00     0.001 A 
ATOM     29  C   UNL A   1      35.413  30.409  27.567  1.00  0.00     0.004 A 
ENDBRANCH  17  20
ENDBRANCH  15  16
ENDBRANCH   9  10
ENDBRANCH   6   8
ENDBRANCH   3   4
ENDBRANCH   2   3
ENDBRANCH   1   2
BRANCH   1  30
ATOM     30  C   UNL A   1      40.895  21.147  26.375  1.00  0.00     0.002 C 
BRANCH  30  31
ATOM     31  C   UNL A   1      40.892  21.718  27.794  1.00  0.00     0.021 C 
BRANCH  31  32
ATOM     32  C   UNL A   1      41.180  23.212  27.897  1.00  0.00     0.116 C 
BRANCH  32  33
ATOM     33  N   UNL A   1      41.511  23.811  26.614  1.00  0.00    -0.352 N 
ATOM     34  C   UNL A   1      41.482  25.134  26.229  1.00  0.00     0.251 C 
ATOM     35  H   UNL A   1      41.797  23.178  25.916  1.00  0.00     0.163 HD
ATOM     36  O   UNL A   1      41.641  25.433  25.054  1.00  0.00    -0.269 OA
BRANCH  34  37
ATOM     37  C   UNL A   1      41.232  26.190  27.239  1.00  0.00     0.039 A 
ATOM     38  C   UNL A   1      40.189  26.015  28.153  1.00  0.00     0.014 A 
ATOM     39  C   UNL A   1      42.021  27.342  27.290  1.00  0.00     0.014 A 
ATOM     40  C   UNL A   1      39.991  26.958  29.167  1.00  0.00     0.010 A 
ATOM     41  C   UNL A   1      41.870  28.240  28.344  1.00  0.00     0.010 A 
ATOM     42  C   UNL A   1      40.858  28.055  29.299  1.00  0.00    -0.014 A 
BRANCH  42  43
ATOM     43  C   UNL A   1      40.741  29.000  30.441  1.00  0.00     0.031 A 
ATOM     44  C   UNL A   1      41.608  28.834  31.661  1.00  0.00     0.074 A 
ATOM     45  C   UNL A   1      39.799  29.965  30.413  1.00  0.00     0.049 A 
ATOM     46  N   UNL A   1      41.600  29.517  32.776  1.00  0.00    -0.248 NA
ATOM     47  C   UNL A   1      42.597  27.745  31.631  1.00  0.00     0.031 C 
ATOM     48  C   UNL A   1      38.865  30.203  29.310  1.00  0.00     0.029 A 
ATOM     49  N   UNL A   1      39.461  30.916  31.344  1.00  0.00    -0.354 N 
ATOM     50  C   UNL A   1      42.568  28.934  33.586  1.00  0.00     0.074 A 
ATOM     51  C   UNL A   1      43.107  27.810  32.851  1.00  0.00     0.031 C 
ATOM     52  C   UNL A   1      38.075  31.244  29.619  1.00  0.00     0.029 A 
ATOM     53  C   UNL A   1      38.410  31.717  30.959  1.00  0.00     0.049 A 
ATOM     54  H   UNL A   1      39.926  31.016  32.207  1.00  0.00     0.167 HD
ATOM     55  C   UNL A   1      42.983  29.308  34.821  1.00  0.00     0.031 A 
ATOM     56  C   UNL A   1      37.775  32.710  31.612  1.00  0.00     0.031 A 
ATOM     57  C   UNL A   1      42.440  30.424  35.550  1.00  0.00     0.049 A 
ATOM     58  C   UNL A   1      38.235  33.094  32.992  1.00  0.00     0.074 A 
ATOM     59  C   UNL A   1      42.830  30.917  36.783  1.00  0.00     0.029 A 
ATOM     60  N   UNL A   1      41.384  31.216  35.120  1.00  0.00    -0.354 N 
ATOM     61  N   UNL A   1      39.205  32.578  33.709  1.00  0.00    -0.248 NA
ATOM     62  C   UNL A   1      37.524  34.200  33.646  1.00  0.00     0.031 C 
ATOM     63  C   UNL A   1      41.969  31.965  37.127  1.00  0.00     0.029 A 
ATOM     64  C   UNL A   1      41.088  32.172  36.078  1.00  0.00     0.049 A 
ATOM     65  H   UNL A   1      40.914  31.113  34.261  1.00  0.00     0.167 HD
ATOM     66  C   UNL A   1      39.236  33.312  34.889  1.00  0.00     0.074 A 
ATOM     67  C   UNL A   1      38.200  34.319  34.782  1.00  0.00     0.031 C 
ATOM     68  C   UNL A   1      40.049  33.166  35.964  1.00  0.00     0.031 A 
BRANCH  55  69
ATOM     69  C   UNL A   1      44.069  28.487  35.470  1.00  0.00    -0.014 A 
ATOM     70  C   UNL A   1      43.760  27.375  36.274  1.00  0.00     0.010 A 
ATOM     71  C   UNL A   1      45.419  28.814  35.247  1.00  0.00     0.010 A 
ATOM     72  C   UNL A   1      44.778  26.637  36.885  1.00  0.00     0.020 A 
ATOM     73  C   UNL A   1      46.441  28.058  35.828  1.00  0.00     0.020 A 
ATOM     74  C   UNL A   1      46.113  26.986  36.661  1.00  0.00     0.054 A 
BRANCH  74  75
ATOM     75  S   UNL A   1      47.412  26.005  37.460  1.00  0.00     0.124 S 
ATOM     76  O   UNL A   1      47.386  26.527  38.825  1.00  0.00    -0.237 OA
ATOM     77  O   UNL A   1      46.925  24.638  37.301  1.00  0.00    -0.237 OA
ATOM     78  O   UNL A   1      48.614  26.329  36.695  1.00  0.00    -0.744 OA
ENDBRANCH  74  75
ENDBRANCH  55  69
BRANCH  56  79
ATOM     79  C   UNL A   1      36.629  33.406  30.964  1.00  0.00    -0.014 A 
ATOM     80  C   UNL A   1      35.383  33.495  31.609  1.00  0.00     0.010 A 
ATOM     81  C   UNL A   1      36.788  34.010  29.703  1.00  0.00     0.010 A 
ATOM     82  C   UNL A   1      34.315  34.161  31.000  1.00  0.00     0.020 A 
ATOM     83  C   UNL A   1      35.732  34.703  29.104  1.00  0.00     0.020 A 
ATOM     84  C   UNL A   1      34.498  34.767  29.753  1.00  0.00     0.054 A 
BRANCH  84  85
ATOM     85  S   UNL A   1      33.117  35.681  29.012  1.00  0.00     0.124 S 
ATOM     86  O   UNL A   1      33.808  36.747  28.295  1.00  0.00    -0.237 OA
ATOM     87  O   UNL A   1      32.480  34.665  28.178  1.00  0.00    -0.237 OA
ATOM     88  O   UNL A   1      32.332  36.108  30.168  1.00  0.00    -0.744 OA
ENDBRANCH  84  85
ENDBRANCH  56  79
BRANCH  68  89
ATOM     89  C   UNL A   1      39.877  34.133  37.107  1.00  0.00    -0.014 A 
ATOM     90  C   UNL A   1      40.384  35.443  37.039  1.00  0.00     0.010 A 
ATOM     91  C   UNL A   1      39.140  33.743  38.241  1.00  0.00     0.010 A 
ATOM     92  C   UNL A   1      40.178  36.336  38.095  1.00  0.00     0.020 A 
ATOM     93  C   UNL A   1      38.907  34.641  39.285  1.00  0.00     0.020 A 
ATOM     94  C   UNL A   1      39.437  35.930  39.210  1.00  0.00     0.054 A 
BRANCH  94  95
ATOM     95  S   UNL A   1      39.140  37.126  40.541  1.00  0.00     0.124 S 
ATOM     96  O   UNL A   1      38.641  36.270  41.613  1.00  0.00    -0.237 OA
ATOM     97  O   UNL A   1      40.467  37.697  40.759  1.00  0.00    -0.237 OA
ATOM     98  O   UNL A   1      38.158  38.044  39.969  1.00  0.00    -0.744 OA
ENDBRANCH  94  95
ENDBRANCH  68  89
ENDBRANCH  42  43
ENDBRANCH  34  37
ENDBRANCH  32  33
ENDBRANCH  31  32
ENDBRANCH  30  31
ENDBRANCH   1  30
TORSDOF 19
ENDMDL
MODEL 2
REMARK VINA RESULT:     -11.4      0.489      7.880
REMARK SMILES O=C(/C=C/c1ccc(NC(=O)[C@H]2COc3ccccc3C2)cc1)NCCCCCCNC(=O)c1ccc(-c2c3nc(c(-c4ccc(S(=O)(=O)[O-])cc4)c4ccc([nH]4)c(-c4ccc(S(=O)(=O)[O-])cc4)c4nc(c(-c5ccc(S(=O)(=O)[O-])cc5)c5ccc2[nH]5)C=C4)C=C3)cc1
REMARK SMILES IDX 27 1 26 2 25 3 24 4 1 5 2 6 3 8 4 9 5 10 6 11 23 12 7 13
REMARK SMILES IDX 22 14 8 15 9 16 10 17 11 19 12 20 13 21 21 22 14 23 20 24
REMARK SMILES IDX 15 25 19 26 16 27 18 28 17 29 28 30 29 31 30 32 31 33 32 34
REMARK SMILES IDX 33 36 34 37 35 38 93 39 36 40 92 41 37 42 38 43 39 44 86 45
REMARK SMILES IDX 40 46 91 47 85 48 87 49 41 50 90 51 84 52 83 53 42 55 72 56
REMARK SMILES IDX 53 57 71 58 54 59 57 60 70 61 88 62 55 63 56 64 69 66 89 67
REMARK SMILES IDX 58 68 43 69 44 70 52 71 45 72 51 73 46 74 47 75 48 76 49 77
REMARK SMILES IDX 50 78 73 79 74 80 82 81 75 82 81 83 76 84 77 85 78 86 79 87
REMARK SMILES IDX 80 88 59 89 60 90 68 91 61 92 67 93 62 94 63 95 64 96 65 97
REMARK SMILES IDX 66 98
REMARK H PARENT 24 7 9 18 31 35 87 54 57 65
REMARK Flexibility Score: inf
ROOT
ATOM      1  C   UNL A   1      39.613  20.840  25.865  1.00  0.00     0.002 C 
ENDROOT
BRANCH   1   2
ATOM      2  C   UNL A   1      38.547  21.943  25.776  1.00  0.00     0.021 C 
BRANCH   2   3
ATOM      3  C   UNL A   1      37.108  21.456  25.585  1.00  0.00     0.116 C 
BRANCH   3   4
ATOM      4  N   UNL A   1      36.178  22.554  25.436  1.00  0.00    -0.353 N 
ATOM      5  O   UNL A   1      36.224  22.701  23.137  1.00  0.00    -0.270 OA
ATOM      6  C   UNL A   1      35.864  23.125  24.228  1.00  0.00     0.243 C 
ATOM      7  H   UNL A   1      35.747  22.911  26.245  1.00  0.00     0.163 HD
BRANCH   6   8
ATOM      8  C   UNL A   1      34.997  24.336  24.301  1.00  0.00     0.072 C 
ATOM      9  C   UNL A   1      34.465  24.881  23.199  1.00  0.00     0.014 C 
BRANCH   9  10
ATOM     10  C   UNL A   1      33.527  26.002  23.109  1.00  0.00    -0.025 A 
ATOM     11  C   UNL A   1      34.110  27.270  23.002  1.00  0.00     0.010 A 
ATOM     12  C   UNL A   1      32.133  25.896  23.190  1.00  0.00     0.010 A 
ATOM     13  C   UNL A   1      33.324  28.409  22.934  1.00  0.00     0.027 A 
ATOM     14  C   UNL A   1      31.336  27.051  23.156  1.00  0.00     0.027 A 
ATOM     15  C   UNL A   1      31.938  28.298  22.991  1.00  0.00     0.041 A 
BRANCH  15  16
ATOM     16  N   UNL A   1      31.157  29.455  22.898  1.00  0.00    -0.326 N 
ATOM     17  C   UNL A   1      30.433  29.985  23.936  1.00  0.00     0.231 C 
ATOM     18  H   UNL A   1      31.124  29.918  22.030  1.00  0.00     0.169 HD
ATOM     19  O   UNL A   1      29.285  30.392  23.753  1.00  0.00    -0.274 OA
BRANCH  17  20
ATOM     20  C   UNL A   1      31.186  30.320  25.219  1.00  0.00     0.121 C 
ATOM     21  C   UNL A   1      30.876  31.602  25.990  1.00  0.00     0.243 C 
ATOM     22  C   UNL A   1      31.362  29.226  26.268  1.00  0.00     0.056 C 
ATOM     23  O   UNL A   1      31.843  31.888  27.051  1.00  0.00    -0.492 OA
ATOM     24  C   UNL A   1      32.672  29.613  26.873  1.00  0.00    -0.005 A 
ATOM     25  C   UNL A   1      32.844  30.957  27.226  1.00  0.00     0.122 A 
ATOM     26  C   UNL A   1      33.759  28.739  26.820  1.00  0.00     0.007 A 
ATOM     27  C   UNL A   1      34.099  31.407  27.617  1.00  0.00     0.047 A 
ATOM     28  C   UNL A   1      35.028  29.216  27.119  1.00  0.00     0.001 A 
ATOM     29  C   UNL A   1      35.195  30.540  27.537  1.00  0.00     0.004 A 
ENDBRANCH  17  20
ENDBRANCH  15  16
ENDBRANCH   9  10
ENDBRANCH   6   8
ENDBRANCH   3   4
ENDBRANCH   2   3
ENDBRANCH   1   2
BRANCH   1  30
ATOM     30  C   UNL A   1      40.985  21.270  26.396  1.00  0.00     0.002 C 
BRANCH  30  31
ATOM     31  C   UNL A   1      40.996  21.837  27.817  1.00  0.00     0.021 C 
BRANCH  31  32
ATOM     32  C   UNL A   1      41.371  23.312  27.928  1.00  0.00     0.116 C 
BRANCH  32  33
ATOM     33  N   UNL A   1      41.385  23.987  26.639  1.00  0.00    -0.352 N 
ATOM     34  C   UNL A   1      41.082  25.295  26.331  1.00  0.00     0.251 C 
ATOM     35  H   UNL A   1      41.650  23.427  25.875  1.00  0.00     0.163 HD
ATOM     36  O   UNL A   1      40.995  25.643  25.162  1.00  0.00    -0.269 OA
BRANCH  34  37
ATOM     37  C   UNL A   1      40.834  26.271  27.419  1.00  0.00     0.039 A 
ATOM     38  C   UNL A   1      39.793  26.027  28.320  1.00  0.00     0.014 A 
ATOM     39  C   UNL A   1      41.624  27.415  27.556  1.00  0.00     0.014 A 
ATOM     40  C   UNL A   1      39.599  26.889  29.403  1.00  0.00     0.010 A 
ATOM     41  C   UNL A   1      41.476  28.230  28.676  1.00  0.00     0.010 A 
ATOM     42  C   UNL A   1      40.466  27.973  29.616  1.00  0.00    -0.014 A 
BRANCH  42  43
ATOM     43  C   UNL A   1      40.353  28.828  30.828  1.00  0.00     0.031 A 
ATOM     44  C   UNL A   1      39.349  29.949  30.880  1.00  0.00     0.074 A 
ATOM     45  C   UNL A   1      41.208  28.644  31.855  1.00  0.00     0.049 A 
ATOM     46  N   UNL A   1      39.154  30.837  31.821  1.00  0.00    -0.248 NA
ATOM     47  C   UNL A   1      38.466  30.106  29.714  1.00  0.00     0.031 C 
ATOM     48  C   UNL A   1      42.256  27.623  31.909  1.00  0.00     0.029 A 
ATOM     49  N   UNL A   1      41.341  29.318  33.044  1.00  0.00    -0.354 N 
ATOM     50  C   UNL A   1      38.139  31.665  31.356  1.00  0.00     0.074 A 
ATOM     51  C   UNL A   1      37.796  31.204  30.029  1.00  0.00     0.031 C 
ATOM     52  C   UNL A   1      42.910  27.725  33.078  1.00  0.00     0.029 A 
ATOM     53  C   UNL A   1      42.364  28.847  33.835  1.00  0.00     0.049 A 
ATOM     54  H   UNL A   1      40.759  30.068  33.306  1.00  0.00     0.167 HD
ATOM     55  C   UNL A   1      37.536  32.705  31.983  1.00  0.00     0.031 A 
ATOM     56  C   UNL A   1      42.823  29.275  35.027  1.00  0.00     0.031 A 
ATOM     57  C   UNL A   1      37.884  33.163  33.303  1.00  0.00     0.049 A 
ATOM     58  C   UNL A   1      42.155  30.445  35.694  1.00  0.00     0.074 A 
ATOM     59  C   UNL A   1      37.294  34.172  34.045  1.00  0.00     0.029 A 
ATOM     60  N   UNL A   1      38.918  32.652  34.074  1.00  0.00    -0.354 N 
ATOM     61  N   UNL A   1      41.145  31.167  35.271  1.00  0.00    -0.248 NA
ATOM     62  C   UNL A   1      42.680  30.853  37.005  1.00  0.00     0.031 C 
ATOM     63  C   UNL A   1      38.013  34.313  35.238  1.00  0.00     0.029 A 
ATOM     64  C   UNL A   1      39.006  33.347  35.269  1.00  0.00     0.049 A 
ATOM     65  H   UNL A   1      39.504  31.906  33.810  1.00  0.00     0.167 HD
ATOM     66  C   UNL A   1      40.898  32.099  36.273  1.00  0.00     0.074 A 
ATOM     67  C   UNL A   1      41.853  31.837  37.330  1.00  0.00     0.031 C 
ATOM     68  C   UNL A   1      39.965  33.082  36.313  1.00  0.00     0.031 A 
BRANCH  55  69
ATOM     69  C   UNL A   1      36.445  33.430  31.236  1.00  0.00    -0.014 A 
ATOM     70  C   UNL A   1      35.215  33.729  31.850  1.00  0.00     0.010 A 
ATOM     71  C   UNL A   1      36.664  33.848  29.910  1.00  0.00     0.010 A 
ATOM     72  C   UNL A   1      34.206  34.384  31.138  1.00  0.00     0.020 A 
ATOM     73  C   UNL A   1      35.671  34.533  29.205  1.00  0.00     0.020 A 
ATOM     74  C   UNL A   1      34.440  34.778  29.817  1.00  0.00     0.054 A 
BRANCH  74  75
ATOM     75  S   UNL A   1      33.115  35.634  28.920  1.00  0.00     0.124 S 
ATOM     76  O   UNL A   1      33.860  36.654  28.187  1.00  0.00    -0.237 OA
ATOM     77  O   UNL A   1      32.541  34.568  28.105  1.00  0.00    -0.237 OA
ATOM     78  O   UNL A   1      32.248  36.141  29.981  1.00  0.00    -0.744 OA
ENDBRANCH  74  75
ENDBRANCH  55  69
BRANCH  56  79
ATOM     79  C   UNL A   1      43.983  28.590  35.661  1.00  0.00    -0.014 A 
ATOM     80  C   UNL A   1      45.287  29.096  35.513  1.00  0.00     0.010 A 
ATOM     81  C   UNL A   1      43.784  27.436  36.442  1.00  0.00     0.010 A 
ATOM     82  C   UNL A   1      46.370  28.454  36.122  1.00  0.00     0.020 A 
ATOM     83  C   UNL A   1      44.861  26.810  37.078  1.00  0.00     0.020 A 
ATOM     84  C   UNL A   1      46.149  27.318  36.906  1.00  0.00     0.054 A 
BRANCH  84  85
ATOM     85  S   UNL A   1      47.561  26.540  37.739  1.00  0.00     0.124 S 
ATOM     86  O   UNL A   1      48.507  27.647  37.830  1.00  0.00    -0.237 OA
ATOM     87  O   UNL A   1      46.977  26.100  39.003  1.00  0.00    -0.237 OA
ATOM     88  O   UNL A   1      47.942  25.462  36.829  1.00  0.00    -0.744 OA
ENDBRANCH  84  85
ENDBRANCH  56  79
BRANCH  68  89
ATOM     89  C   UNL A   1      39.905  33.937  37.552  1.00  0.00    -0.014 A 
ATOM     90  C   UNL A   1      40.717  35.076  37.695  1.00  0.00     0.010 A 
ATOM     91  C   UNL A   1      38.974  33.629  38.564  1.00  0.00     0.010 A 
ATOM     92  C   UNL A   1      40.617  35.877  38.838  1.00  0.00     0.020 A 
ATOM     93  C   UNL A   1      38.850  34.443  39.692  1.00  0.00     0.020 A 
ATOM     94  C   UNL A   1      39.681  35.557  39.827  1.00  0.00     0.054 A 
BRANCH  94  95
ATOM     95  S   UNL A   1      39.536  36.643  41.272  1.00  0.00     0.124 S 
ATOM     96  O   UNL A   1      40.921  36.738  41.722  1.00  0.00    -0.237 OA
ATOM     97  O   UNL A   1      38.974  37.864  40.699  1.00  0.00    -0.237 OA
ATOM     98  O   UNL A   1      38.640  35.912  42.166  1.00  0.00    -0.744 OA
ENDBRANCH  94  95
ENDBRANCH  68  89
ENDBRANCH  42  43
ENDBRANCH  34  37
ENDBRANCH  32  33
ENDBRANCH  31  32
ENDBRANCH  30  31
ENDBRANCH   1  30
TORSDOF 19
ENDMDL
MODEL 3
REMARK VINA RESULT:     -10.8      1.720      8.487
REMARK SMILES O=C(/C=C/c1ccc(NC(=O)[C@H]2COc3ccccc3C2)cc1)NCCCCCCNC(=O)c1ccc(-c2c3nc(c(-c4ccc(S(=O)(=O)[O-])cc4)c4ccc([nH]4)c(-c4ccc(S(=O)(=O)[O-])cc4)c4nc(c(-c5ccc(S(=O)(=O)[O-])cc5)c5ccc2[nH]5)C=C4)C=C3)cc1
REMARK SMILES IDX 27 1 26 2 25 3 24 4 1 5 2 6 3 8 4 9 5 10 6 11 23 12 7 13
REMARK SMILES IDX 22 14 8 15 9 16 10 17 11 19 12 20 13 21 21 22 14 23 20 24
REMARK SMILES IDX 15 25 19 26 16 27 18 28 17 29 28 30 29 31 30 32 31 33 32 34
REMARK SMILES IDX 33 36 34 37 35 38 93 39 36 40 92 41 37 42 38 43 39 44 86 45
REMARK SMILES IDX 40 46 91 47 85 48 87 49 41 50 90 51 84 52 83 53 42 55 72 56
REMARK SMILES IDX 53 57 71 58 54 59 57 60 70 61 88 62 55 63 56 64 69 66 89 67
REMARK SMILES IDX 58 68 43 69 44 70 52 71 45 72 51 73 46 74 47 75 48 76 49 77
REMARK SMILES IDX 50 78 73 79 74 80 82 81 75 82 81 83 76 84 77 85 78 86 79 87
REMARK SMILES IDX 80 88 59 89 60 90 68 91 61 92 67 93 62 94 63 95 64 96 65 97
REMARK SMILES IDX 66 98
REMARK H PARENT 24 7 9 18 31 35 87 54 57 65
REMARK Flexibility Score: inf
ROOT
ATOM      1  C   UNL A   1      45.435  22.128  25.446  1.00  0.00     0.002 C 
ENDROOT
BRANCH   1   2
ATOM      2  C   UNL A   1      44.003  21.661  25.145  1.00  0.00     0.021 C 
BRANCH   2   3
ATOM      3  C   UNL A   1      42.980  21.907  26.257  1.00  0.00     0.116 C 
BRANCH   3   4
ATOM      4  N   UNL A   1      41.625  21.939  25.752  1.00  0.00    -0.353 N 
ATOM      5  O   UNL A   1      40.527  21.813  27.773  1.00  0.00    -0.270 OA
ATOM      6  C   UNL A   1      40.513  21.825  26.549  1.00  0.00     0.243 C 
ATOM      7  H   UNL A   1      41.492  22.048  24.783  1.00  0.00     0.163 HD
BRANCH   6   8
ATOM      8  C   UNL A   1      39.214  21.736  25.824  1.00  0.00     0.072 C 
ATOM      9  C   UNL A   1      38.264  22.669  25.975  1.00  0.00     0.014 C 
BRANCH   9  10
ATOM     10  C   UNL A   1      36.985  22.778  25.271  1.00  0.00    -0.025 A 
ATOM     11  C   UNL A   1      35.865  22.329  25.981  1.00  0.00     0.010 A 
ATOM     12  C   UNL A   1      36.823  23.222  23.953  1.00  0.00     0.010 A 
ATOM     13  C   UNL A   1      34.604  22.360  25.410  1.00  0.00     0.027 A 
ATOM     14  C   UNL A   1      35.552  23.222  23.360  1.00  0.00     0.027 A 
ATOM     15  C   UNL A   1      34.444  22.824  24.108  1.00  0.00     0.041 A 
BRANCH  15  16
ATOM     16  N   UNL A   1      33.161  22.871  23.553  1.00  0.00    -0.326 N 
ATOM     17  C   UNL A   1      32.128  23.625  24.052  1.00  0.00     0.231 C 
ATOM     18  H   UNL A   1      32.988  22.327  22.751  1.00  0.00     0.169 HD
ATOM     19  O   UNL A   1      30.995  23.152  24.137  1.00  0.00    -0.274 OA
BRANCH  17  20
ATOM     20  C   UNL A   1      32.365  25.123  24.212  1.00  0.00     0.121 C 
ATOM     21  C   UNL A   1      33.228  25.884  23.206  1.00  0.00     0.243 C 
ATOM     22  C   UNL A   1      31.171  26.023  24.512  1.00  0.00     0.056 C 
ATOM     23  O   UNL A   1      33.549  27.246  23.634  1.00  0.00    -0.492 OA
ATOM     24  C   UNL A   1      31.814  27.097  25.326  1.00  0.00    -0.005 A 
ATOM     25  C   UNL A   1      33.003  27.651  24.832  1.00  0.00     0.122 A 
ATOM     26  C   UNL A   1      31.406  27.328  26.641  1.00  0.00     0.007 A 
ATOM     27  C   UNL A   1      33.739  28.515  25.633  1.00  0.00     0.047 A 
ATOM     28  C   UNL A   1      32.195  28.116  27.467  1.00  0.00     0.001 A 
ATOM     29  C   UNL A   1      33.346  28.725  26.960  1.00  0.00     0.004 A 
ENDBRANCH  17  20
ENDBRANCH  15  16
ENDBRANCH   9  10
ENDBRANCH   6   8
ENDBRANCH   3   4
ENDBRANCH   2   3
ENDBRANCH   1   2
BRANCH   1  30
ATOM     30  C   UNL A   1      45.667  23.642  25.432  1.00  0.00     0.002 C 
BRANCH  30  31
ATOM     31  C   UNL A   1      45.747  24.311  26.806  1.00  0.00     0.021 C 
BRANCH  31  32
ATOM     32  C   UNL A   1      44.631  25.304  27.114  1.00  0.00     0.116 C 
BRANCH  32  33
ATOM     33  N   UNL A   1      43.724  25.497  25.993  1.00  0.00    -0.352 N 
ATOM     34  C   UNL A   1      42.532  26.186  25.936  1.00  0.00     0.251 C 
ATOM     35  H   UNL A   1      44.002  25.070  25.150  1.00  0.00     0.163 HD
ATOM     36  O   UNL A   1      41.824  26.103  24.943  1.00  0.00    -0.269 OA
BRANCH  34  37
ATOM     37  C   UNL A   1      42.100  27.006  27.093  1.00  0.00     0.039 A 
ATOM     38  C   UNL A   1      41.201  26.455  28.012  1.00  0.00     0.014 A 
ATOM     39  C   UNL A   1      42.579  28.306  27.276  1.00  0.00     0.014 A 
ATOM     40  C   UNL A   1      40.849  27.180  29.155  1.00  0.00     0.010 A 
ATOM     41  C   UNL A   1      42.285  28.994  28.451  1.00  0.00     0.010 A 
ATOM     42  C   UNL A   1      41.422  28.437  29.407  1.00  0.00    -0.014 A 
BRANCH  42  43
ATOM     43  C   UNL A   1      41.156  29.168  30.675  1.00  0.00     0.031 A 
ATOM     44  C   UNL A   1      40.017  30.148  30.765  1.00  0.00     0.074 A 
ATOM     45  C   UNL A   1      41.988  29.007  31.723  1.00  0.00     0.049 A 
ATOM     46  N   UNL A   1      39.675  30.924  31.762  1.00  0.00    -0.248 NA
ATOM     47  C   UNL A   1      39.165  30.291  29.574  1.00  0.00     0.031 C 
ATOM     48  C   UNL A   1      43.155  28.121  31.749  1.00  0.00     0.029 A 
ATOM     49  N   UNL A   1      41.989  29.591  32.966  1.00  0.00    -0.354 N 
ATOM     50  C   UNL A   1      38.581  31.657  31.315  1.00  0.00     0.074 A 
ATOM     51  C   UNL A   1      38.349  31.268  29.941  1.00  0.00     0.031 C 
ATOM     52  C   UNL A   1      43.746  28.206  32.951  1.00  0.00     0.029 A 
ATOM     53  C   UNL A   1      43.034  29.185  33.766  1.00  0.00     0.049 A 
ATOM     54  H   UNL A   1      41.308  30.239  33.257  1.00  0.00     0.167 HD
ATOM     55  C   UNL A   1      37.828  32.558  31.991  1.00  0.00     0.031 A 
ATOM     56  C   UNL A   1      43.390  29.567  35.008  1.00  0.00     0.031 A 
ATOM     57  C   UNL A   1      38.065  32.945  33.357  1.00  0.00     0.049 A 
ATOM     58  C   UNL A   1      42.554  30.587  35.732  1.00  0.00     0.074 A 
ATOM     59  C   UNL A   1      37.326  33.808  34.147  1.00  0.00     0.029 A 
ATOM     60  N   UNL A   1      39.127  32.504  34.135  1.00  0.00    -0.354 N 
ATOM     61  N   UNL A   1      41.477  31.211  35.318  1.00  0.00    -0.248 NA
ATOM     62  C   UNL A   1      42.974  30.946  37.093  1.00  0.00     0.031 C 
ATOM     63  C   UNL A   1      37.975  33.938  35.379  1.00  0.00     0.029 A 
ATOM     64  C   UNL A   1      39.080  33.102  35.383  1.00  0.00     0.049 A 
ATOM     65  H   UNL A   1      39.812  31.860  33.842  1.00  0.00     0.167 HD
ATOM     66  C   UNL A   1      41.077  32.019  36.376  1.00  0.00     0.074 A 
ATOM     67  C   UNL A   1      42.017  31.791  37.454  1.00  0.00     0.031 C 
ATOM     68  C   UNL A   1      40.025  32.873  36.448  1.00  0.00     0.031 A 
BRANCH  55  69
ATOM     69  C   UNL A   1      36.682  33.203  31.252  1.00  0.00    -0.014 A 
ATOM     70  C   UNL A   1      36.887  33.875  30.033  1.00  0.00     0.010 A 
ATOM     71  C   UNL A   1      35.376  33.108  31.767  1.00  0.00     0.010 A 
ATOM     72  C   UNL A   1      35.818  34.485  29.371  1.00  0.00     0.020 A 
ATOM     73  C   UNL A   1      34.299  33.687  31.090  1.00  0.00     0.020 A 
ATOM     74  C   UNL A   1      34.531  34.390  29.906  1.00  0.00     0.054 A 
BRANCH  74  75
ATOM     75  S   UNL A   1      33.162  35.184  29.020  1.00  0.00     0.124 S 
ATOM     76  O   UNL A   1      32.722  34.116  28.126  1.00  0.00    -0.237 OA
ATOM     77  O   UNL A   1      32.236  35.522  30.098  1.00  0.00    -0.237 OA
ATOM     78  O   UNL A   1      33.790  36.327  28.360  1.00  0.00    -0.744 OA
ENDBRANCH  74  75
ENDBRANCH  55  69
BRANCH  56  79
ATOM     79  C   UNL A   1      44.603  28.980  35.642  1.00  0.00    -0.014 A 
ATOM     80  C   UNL A   1      44.500  27.877  36.508  1.00  0.00     0.010 A 
ATOM     81  C   UNL A   1      45.877  29.509  35.360  1.00  0.00     0.010 A 
ATOM     82  C   UNL A   1      45.645  27.323  37.089  1.00  0.00     0.020 A 
ATOM     83  C   UNL A   1      47.026  28.938  35.914  1.00  0.00     0.020 A 
ATOM     84  C   UNL A   1      46.902  27.854  36.784  1.00  0.00     0.054 A 
BRANCH  84  85
ATOM     85  S   UNL A   1      48.378  27.078  37.499  1.00  0.00     0.124 S 
ATOM     86  O   UNL A   1      49.426  28.023  37.132  1.00  0.00    -0.237 OA
ATOM     87  O   UNL A   1      48.045  27.020  38.920  1.00  0.00    -0.237 OA
ATOM     88  O   UNL A   1      48.439  25.780  36.830  1.00  0.00    -0.744 OA
ENDBRANCH  84  85
ENDBRANCH  56  79
BRANCH  68  89
ATOM     89  C   UNL A   1      39.811  33.608  37.745  1.00  0.00    -0.014 A 
ATOM     90  C   UNL A   1      40.461  34.826  38.012  1.00  0.00     0.010 A 
ATOM     91  C   UNL A   1      38.896  33.101  38.687  1.00  0.00     0.010 A 
ATOM     92  C   UNL A   1      40.217  35.511  39.207  1.00  0.00     0.020 A 
ATOM     93  C   UNL A   1      38.627  33.797  39.868  1.00  0.00     0.020 A 
ATOM     94  C   UNL A   1      39.299  34.993  40.126  1.00  0.00     0.054 A 
BRANCH  94  95
ATOM     95  S   UNL A   1      38.962  35.929  41.643  1.00  0.00     0.124 S 
ATOM     96  O   UNL A   1      38.913  37.302  41.149  1.00  0.00    -0.237 OA
ATOM     97  O   UNL A   1      37.686  35.373  42.084  1.00  0.00    -0.237 OA
ATOM     98  O   UNL A   1      40.102  35.618  42.502  1.00  0.00    -0.744 OA
ENDBRANCH  94  95
ENDBRANCH  68  89
ENDBRANCH  42  43
ENDBRANCH  34  37
ENDBRANCH  32  33
ENDBRANCH  31  32
ENDBRANCH  30  31
ENDBRANCH   1  30
TORSDOF 19
ENDMDL
