MODEL 1
REMARK VINA RESULT:     -12.1      0.000      0.000
REMARK SMILES Cc1ccc2[nH]cc([C@@H](C(=O)NCCCCCCNC(=O)c3ccc(-c4c5nc(c(-c6ccc(S(=O)(=O)[O-])cc6)c6ccc([nH]6)c(-c6ccc(S(=O)(=O)[O-])cc6)c6nc(c(-c7ccc(S(=O)(=O)[O-])cc7)c7ccc4[nH]7)C=C6)C=C5)cc3)[NH+]3CCN(c4ccc(F)cc4)CC3)c2c1
REMARK SMILES IDX 16 1 15 2 14 3 13 4 12 5 10 6 11 7 9 9 8 10 1 11 2 12 3 13
REMARK SMILES IDX 96 14 4 15 95 16 5 17 6 18 7 19 82 21 83 22 94 23 84 25
REMARK SMILES IDX 93 26 85 27 86 28 87 29 92 30 88 31 91 32 89 33 90 34 17 35
REMARK SMILES IDX 18 36 19 37 20 38 21 40 22 41 23 42 81 43 24 44 80 45 25 46
REMARK SMILES IDX 26 47 27 48 74 49 28 50 79 51 73 52 75 53 29 54 78 55 72 56
REMARK SMILES IDX 71 57 30 59 60 60 41 61 59 62 42 63 45 64 58 65 76 66 43 67
REMARK SMILES IDX 44 68 57 70 77 71 46 72 31 73 32 74 40 75 33 76 39 77 34 78
REMARK SMILES IDX 35 79 36 80 37 81 38 82 61 83 62 84 70 85 63 86 69 87 64 88
REMARK SMILES IDX 65 89 66 90 67 91 68 92 47 93 48 94 56 95 49 96 55 97 50 98
REMARK SMILES IDX 51 99 52 100 53 101 54 102
REMARK H PARENT 12 8 6 20 82 24 19 39 75 58 45 69
REMARK Flexibility Score: inf
ROOT
ATOM      1  C   UNL A   1      37.407  21.247  24.554  1.00  0.00     0.002 C 
ENDROOT
BRANCH   1   2
ATOM      2  C   UNL A   1      36.497  21.843  25.630  1.00  0.00     0.002 C 
BRANCH   2   3
ATOM      3  C   UNL A   1      35.298  22.620  25.081  1.00  0.00     0.021 C 
BRANCH   3   4
ATOM      4  C   UNL A   1      35.068  23.959  25.781  1.00  0.00     0.116 C 
BRANCH   4   5
ATOM      5  N   UNL A   1      33.937  23.880  26.679  1.00  0.00    -0.351 N 
ATOM      6  C   UNL A   1      32.631  24.232  26.448  1.00  0.00     0.283 C 
ATOM      7  O   UNL A   1      31.883  24.184  27.430  1.00  0.00    -0.268 OA
ATOM      8  H   UNL A   1      34.130  23.527  27.578  1.00  0.00     0.163 HD
BRANCH   6   9
ATOM      9  C   UNL A   1      32.168  24.575  24.992  1.00  0.00     0.307 C 
BRANCH   9  10
ATOM     10  C   UNL A   1      31.666  25.993  24.834  1.00  0.00     0.044 A 
ATOM     11  C   UNL A   1      35.076  28.979  27.254  1.00  0.00     0.044 C 
ATOM     12  C   UNL A   1      33.891  28.744  26.361  1.00  0.00    -0.050 A 
ATOM     13  C   UNL A   1      33.102  29.813  25.928  1.00  0.00     0.005 A 
ATOM     14  C   UNL A   1      33.538  27.431  26.002  1.00  0.00     0.014 A 
ATOM     15  C   UNL A   1      31.934  29.602  25.190  1.00  0.00     0.027 A 
ATOM     16  C   UNL A   1      32.344  27.186  25.286  1.00  0.00     0.009 A 
ATOM     17  C   UNL A   1      31.563  28.281  24.921  1.00  0.00     0.046 A 
ATOM     18  N   UNL A   1      30.436  27.789  24.310  1.00  0.00    -0.361 N 
ATOM     19  C   UNL A   1      30.448  26.421  24.331  1.00  0.00     0.094 A 
ATOM     20  H   UNL A   1      29.723  28.340  23.916  1.00  0.00     0.166 HD
ENDBRANCH   9  10
BRANCH   9  21
ATOM     21  N   UNL A   1      31.250  23.549  24.439  1.00  0.00    -0.318 N 
ATOM     22  C   UNL A   1      31.509  23.037  23.085  1.00  0.00     0.284 C 
ATOM     23  C   UNL A   1      30.932  22.441  25.355  1.00  0.00     0.284 C 
ATOM     24  H   UNL A   1      30.422  24.135  24.334  1.00  0.00     0.349 HD
ATOM     25  C   UNL A   1      32.423  21.802  22.949  1.00  0.00     0.178 C 
ATOM     26  C   UNL A   1      31.887  21.226  25.326  1.00  0.00     0.178 C 
ATOM     27  N   UNL A   1      32.131  20.772  23.948  1.00  0.00    -0.360 N 
BRANCH  27  28
ATOM     28  C   UNL A   1      32.823  19.570  23.827  1.00  0.00     0.037 A 
ATOM     29  C   UNL A   1      32.393  18.523  22.997  1.00  0.00     0.029 A 
ATOM     30  C   UNL A   1      33.988  19.388  24.583  1.00  0.00     0.029 A 
ATOM     31  C   UNL A   1      33.081  17.309  22.962  1.00  0.00     0.041 A 
ATOM     32  C   UNL A   1      34.676  18.174  24.557  1.00  0.00     0.041 A 
ATOM     33  C   UNL A   1      34.210  17.143  23.753  1.00  0.00     0.123 A 
ATOM     34  F   UNL A   1      34.856  15.969  23.744  1.00  0.00    -0.207 F 
ENDBRANCH  27  28
ENDBRANCH   9  21
ENDBRANCH   6   9
ENDBRANCH   4   5
ENDBRANCH   3   4
ENDBRANCH   2   3
ENDBRANCH   1   2
BRANCH   1  35
ATOM     35  C   UNL A   1      38.267  20.076  25.035  1.00  0.00     0.021 C 
BRANCH  35  36
ATOM     36  C   UNL A   1      39.264  20.449  26.126  1.00  0.00     0.116 C 
BRANCH  36  37
ATOM     37  N   UNL A   1      40.409  19.552  26.128  1.00  0.00    -0.352 N 
ATOM     38  C   UNL A   1      41.746  19.860  26.133  1.00  0.00     0.251 C 
ATOM     39  H   UNL A   1      40.195  18.591  26.124  1.00  0.00     0.163 HD
ATOM     40  O   UNL A   1      42.579  18.999  25.874  1.00  0.00    -0.269 OA
BRANCH  38  41
ATOM     41  C   UNL A   1      42.167  21.240  26.447  1.00  0.00     0.039 A 
ATOM     42  C   UNL A   1      42.444  21.582  27.771  1.00  0.00     0.014 A 
ATOM     43  C   UNL A   1      42.288  22.191  25.430  1.00  0.00     0.014 A 
ATOM     44  C   UNL A   1      42.893  22.871  28.069  1.00  0.00     0.010 A 
ATOM     45  C   UNL A   1      42.811  23.447  25.717  1.00  0.00     0.010 A 
ATOM     46  C   UNL A   1      43.109  23.803  27.040  1.00  0.00    -0.014 A 
BRANCH  46  47
ATOM     47  C   UNL A   1      43.639  25.159  27.329  1.00  0.00     0.031 A 
ATOM     48  C   UNL A   1      45.095  25.465  27.100  1.00  0.00     0.074 A 
ATOM     49  C   UNL A   1      42.822  26.096  27.850  1.00  0.00     0.049 A 
ATOM     50  N   UNL A   1      45.751  26.571  27.335  1.00  0.00    -0.248 NA
ATOM     51  C   UNL A   1      45.926  24.378  26.557  1.00  0.00     0.031 C 
ATOM     52  C   UNL A   1      41.400  25.910  28.148  1.00  0.00     0.029 A 
ATOM     53  N   UNL A   1      43.072  27.393  28.222  1.00  0.00    -0.354 N 
ATOM     54  C   UNL A   1      47.069  26.312  26.981  1.00  0.00     0.074 A 
ATOM     55  C   UNL A   1      47.132  24.926  26.572  1.00  0.00     0.031 C 
ATOM     56  C   UNL A   1      40.896  27.061  28.622  1.00  0.00     0.029 A 
ATOM     57  C   UNL A   1      41.965  28.050  28.707  1.00  0.00     0.049 A 
ATOM     58  H   UNL A   1      43.958  27.814  28.147  1.00  0.00     0.167 HD
ATOM     59  C   UNL A   1      48.130  27.156  26.973  1.00  0.00     0.031 A 
ATOM     60  C   UNL A   1      41.828  29.306  29.174  1.00  0.00     0.031 A 
ATOM     61  C   UNL A   1      48.061  28.534  27.383  1.00  0.00     0.049 A 
ATOM     62  C   UNL A   1      43.027  30.215  29.191  1.00  0.00     0.074 A 
ATOM     63  C   UNL A   1      49.066  29.485  27.373  1.00  0.00     0.029 A 
ATOM     64  N   UNL A   1      46.925  29.158  27.878  1.00  0.00    -0.354 N 
ATOM     65  N   UNL A   1      44.254  29.969  28.794  1.00  0.00    -0.248 NA
ATOM     66  C   UNL A   1      42.821  31.574  29.709  1.00  0.00     0.031 C 
ATOM     67  C   UNL A   1      48.555  30.666  27.920  1.00  0.00     0.029 A 
ATOM     68  C   UNL A   1      47.212  30.473  28.204  1.00  0.00     0.049 A 
ATOM     69  H   UNL A   1      46.046  28.729  27.982  1.00  0.00     0.167 HD
ATOM     70  C   UNL A   1      44.957  31.153  28.984  1.00  0.00     0.074 A 
ATOM     71  C   UNL A   1      44.016  32.117  29.517  1.00  0.00     0.031 C 
ATOM     72  C   UNL A   1      46.264  31.420  28.737  1.00  0.00     0.031 A 
BRANCH  59  73
ATOM     73  C   UNL A   1      49.456  26.602  26.517  1.00  0.00    -0.014 A 
ATOM     74  C   UNL A   1      49.858  26.691  25.171  1.00  0.00     0.010 A 
ATOM     75  C   UNL A   1      50.325  26.009  27.451  1.00  0.00     0.010 A 
ATOM     76  C   UNL A   1      51.079  26.152  24.759  1.00  0.00     0.020 A 
ATOM     77  C   UNL A   1      51.562  25.498  27.047  1.00  0.00     0.020 A 
ATOM     78  C   UNL A   1      51.921  25.554  25.699  1.00  0.00     0.054 A 
BRANCH  78  79
ATOM     79  S   UNL A   1      53.504  24.870  25.136  1.00  0.00     0.124 S 
ATOM     80  O   UNL A   1      53.682  25.542  23.853  1.00  0.00    -0.237 OA
ATOM     81  O   UNL A   1      54.424  25.282  26.194  1.00  0.00    -0.237 OA
ATOM     82  O   UNL A   1      53.252  23.433  25.056  1.00  0.00    -0.744 OA
ENDBRANCH  78  79
ENDBRANCH  59  73
BRANCH  60  83
ATOM     83  C   UNL A   1      40.500  29.784  29.647  1.00  0.00    -0.014 A 
ATOM     84  C   UNL A   1      39.484  30.093  28.726  1.00  0.00     0.010 A 
ATOM     85  C   UNL A   1      40.239  29.923  31.022  1.00  0.00     0.010 A 
ATOM     86  C   UNL A   1      38.239  30.551  29.169  1.00  0.00     0.020 A 
ATOM     87  C   UNL A   1      38.986  30.351  31.471  1.00  0.00     0.020 A 
ATOM     88  C   UNL A   1      37.997  30.674  30.540  1.00  0.00     0.054 A 
BRANCH  88  89
ATOM     89  S   UNL A   1      36.360  31.225  31.093  1.00  0.00     0.124 S 
ATOM     90  O   UNL A   1      35.964  30.147  31.993  1.00  0.00    -0.237 OA
ATOM     91  O   UNL A   1      36.659  32.505  31.729  1.00  0.00    -0.237 OA
ATOM     92  O   UNL A   1      35.594  31.320  29.852  1.00  0.00    -0.744 OA
ENDBRANCH  88  89
ENDBRANCH  60  83
BRANCH  72  93
ATOM     93  C   UNL A   1      46.748  32.822  29.001  1.00  0.00    -0.014 A 
ATOM     94  C   UNL A   1      47.413  33.155  30.195  1.00  0.00     0.010 A 
ATOM     95  C   UNL A   1      46.582  33.809  28.013  1.00  0.00     0.010 A 
ATOM     96  C   UNL A   1      47.873  34.457  30.408  1.00  0.00     0.020 A 
ATOM     97  C   UNL A   1      47.069  35.103  28.207  1.00  0.00     0.020 A 
ATOM     98  C   UNL A   1      47.700  35.422  29.411  1.00  0.00     0.054 A 
BRANCH  98  99
ATOM     99  S   UNL A   1      48.347  37.093  29.694  1.00  0.00     0.124 S 
ATOM    100  O   UNL A   1      47.402  37.623  30.673  1.00  0.00    -0.237 OA
ATOM    101  O   UNL A   1      49.694  36.832  30.197  1.00  0.00    -0.237 OA
ATOM    102  O   UNL A   1      48.291  37.715  28.373  1.00  0.00    -0.744 OA
ENDBRANCH  98  99
ENDBRANCH  72  93
ENDBRANCH  46  47
ENDBRANCH  38  41
ENDBRANCH  36  37
ENDBRANCH  35  36
ENDBRANCH   1  35
TORSDOF 19
ENDMDL
MODEL 2
REMARK VINA RESULT:     -11.8      5.664     10.021
REMARK SMILES Cc1ccc2[nH]cc([C@@H](C(=O)NCCCCCCNC(=O)c3ccc(-c4c5nc(c(-c6ccc(S(=O)(=O)[O-])cc6)c6ccc([nH]6)c(-c6ccc(S(=O)(=O)[O-])cc6)c6nc(c(-c7ccc(S(=O)(=O)[O-])cc7)c7ccc4[nH]7)C=C6)C=C5)cc3)[NH+]3CCN(c4ccc(F)cc4)CC3)c2c1
REMARK SMILES IDX 16 1 15 2 14 3 13 4 12 5 10 6 11 7 9 9 8 10 1 11 2 12 3 13
REMARK SMILES IDX 96 14 4 15 95 16 5 17 6 18 7 19 82 21 83 22 94 23 84 25
REMARK SMILES IDX 93 26 85 27 86 28 87 29 92 30 88 31 91 32 89 33 90 34 17 35
REMARK SMILES IDX 18 36 19 37 20 38 21 40 22 41 23 42 81 43 24 44 80 45 25 46
REMARK SMILES IDX 26 47 27 48 74 49 28 50 79 51 73 52 75 53 29 54 78 55 72 56
REMARK SMILES IDX 71 57 30 59 60 60 41 61 59 62 42 63 45 64 58 65 76 66 43 67
REMARK SMILES IDX 44 68 57 70 77 71 46 72 31 73 32 74 40 75 33 76 39 77 34 78
REMARK SMILES IDX 35 79 36 80 37 81 38 82 61 83 62 84 70 85 63 86 69 87 64 88
REMARK SMILES IDX 65 89 66 90 67 91 68 92 47 93 48 94 56 95 49 96 55 97 50 98
REMARK SMILES IDX 51 99 52 100 53 101 54 102
REMARK H PARENT 12 8 6 20 82 24 19 39 75 58 45 69
REMARK Flexibility Score: inf
ROOT
ATOM      1  C   UNL A   1      37.558  22.683  25.916  1.00  0.00     0.002 C 
ENDROOT
BRANCH   1   2
ATOM      2  C   UNL A   1      37.151  24.157  25.858  1.00  0.00     0.002 C 
BRANCH   2   3
ATOM      3  C   UNL A   1      35.689  24.392  25.472  1.00  0.00     0.021 C 
BRANCH   3   4
ATOM      4  C   UNL A   1      34.789  23.186  25.737  1.00  0.00     0.116 C 
BRANCH   4   5
ATOM      5  N   UNL A   1      33.744  23.521  26.679  1.00  0.00    -0.351 N 
ATOM      6  C   UNL A   1      32.602  24.252  26.471  1.00  0.00     0.283 C 
ATOM      7  O   UNL A   1      31.936  24.500  27.481  1.00  0.00    -0.268 OA
ATOM      8  H   UNL A   1      33.869  23.179  27.594  1.00  0.00     0.163 HD
BRANCH   6   9
ATOM      9  C   UNL A   1      32.185  24.637  25.012  1.00  0.00     0.307 C 
BRANCH   9  10
ATOM     10  C   UNL A   1      31.703  26.064  24.876  1.00  0.00     0.044 A 
ATOM     11  C   UNL A   1      35.153  28.963  27.344  1.00  0.00     0.044 C 
ATOM     12  C   UNL A   1      33.965  28.759  26.448  1.00  0.00    -0.050 A 
ATOM     13  C   UNL A   1      33.192  29.846  26.032  1.00  0.00     0.005 A 
ATOM     14  C   UNL A   1      33.594  27.457  26.068  1.00  0.00     0.014 A 
ATOM     15  C   UNL A   1      32.021  29.664  25.290  1.00  0.00     0.027 A 
ATOM     16  C   UNL A   1      32.397  27.240  25.347  1.00  0.00     0.009 A 
ATOM     17  C   UNL A   1      31.633  28.352  24.999  1.00  0.00     0.046 A 
ATOM     18  N   UNL A   1      30.499  27.885  24.381  1.00  0.00    -0.361 N 
ATOM     19  C   UNL A   1      30.492  26.517  24.380  1.00  0.00     0.094 A 
ATOM     20  H   UNL A   1      29.794  28.453  23.995  1.00  0.00     0.166 HD
ENDBRANCH   9  10
BRANCH   9  21
ATOM     21  N   UNL A   1      31.272  23.636  24.407  1.00  0.00    -0.318 N 
ATOM     22  C   UNL A   1      31.593  23.116  23.069  1.00  0.00     0.284 C 
ATOM     23  C   UNL A   1      30.872  22.538  25.303  1.00  0.00     0.284 C 
ATOM     24  H   UNL A   1      30.468  24.245  24.256  1.00  0.00     0.349 HD
ATOM     25  C   UNL A   1      32.479  21.856  22.984  1.00  0.00     0.178 C 
ATOM     26  C   UNL A   1      31.794  21.297  25.327  1.00  0.00     0.178 C 
ATOM     27  N   UNL A   1      32.103  20.836  23.965  1.00  0.00    -0.360 N 
BRANCH  27  28
ATOM     28  C   UNL A   1      32.768  19.615  23.883  1.00  0.00     0.037 A 
ATOM     29  C   UNL A   1      33.917  19.321  24.634  1.00  0.00     0.029 A 
ATOM     30  C   UNL A   1      32.284  18.646  22.996  1.00  0.00     0.029 A 
ATOM     31  C   UNL A   1      34.591  18.111  24.466  1.00  0.00     0.041 A 
ATOM     32  C   UNL A   1      32.957  17.437  22.819  1.00  0.00     0.041 A 
ATOM     33  C   UNL A   1      34.110  17.185  23.549  1.00  0.00     0.123 A 
ATOM     34  F   UNL A   1      34.771  16.034  23.364  1.00  0.00    -0.207 F 
ENDBRANCH  27  28
ENDBRANCH   9  21
ENDBRANCH   6   9
ENDBRANCH   4   5
ENDBRANCH   3   4
ENDBRANCH   2   3
ENDBRANCH   1   2
BRANCH   1  35
ATOM     35  C   UNL A   1      39.011  22.446  26.335  1.00  0.00     0.021 C 
BRANCH  35  36
ATOM     36  C   UNL A   1      39.683  23.668  26.948  1.00  0.00     0.116 C 
BRANCH  36  37
ATOM     37  N   UNL A   1      40.693  24.221  26.058  1.00  0.00    -0.352 N 
ATOM     38  C   UNL A   1      41.225  25.485  26.037  1.00  0.00     0.251 C 
ATOM     39  H   UNL A   1      41.040  23.603  25.376  1.00  0.00     0.163 HD
ATOM     40  O   UNL A   1      41.872  25.866  25.069  1.00  0.00    -0.269 OA
BRANCH  38  41
ATOM     41  C   UNL A   1      41.004  26.380  27.191  1.00  0.00     0.039 A 
ATOM     42  C   UNL A   1      40.036  26.043  28.137  1.00  0.00     0.014 A 
ATOM     43  C   UNL A   1      41.758  27.550  27.333  1.00  0.00     0.014 A 
ATOM     44  C   UNL A   1      39.858  26.859  29.257  1.00  0.00     0.010 A 
ATOM     45  C   UNL A   1      41.634  28.315  28.487  1.00  0.00     0.010 A 
ATOM     46  C   UNL A   1      40.676  27.983  29.456  1.00  0.00    -0.014 A 
BRANCH  46  47
ATOM     47  C   UNL A   1      40.540  28.830  30.667  1.00  0.00     0.031 A 
ATOM     48  C   UNL A   1      39.507  29.923  30.712  1.00  0.00     0.074 A 
ATOM     49  C   UNL A   1      41.382  28.649  31.704  1.00  0.00     0.049 A 
ATOM     50  N   UNL A   1      39.268  30.792  31.659  1.00  0.00    -0.248 NA
ATOM     51  C   UNL A   1      38.646  30.074  29.528  1.00  0.00     0.031 C 
ATOM     52  C   UNL A   1      42.446  27.644  31.766  1.00  0.00     0.029 A 
ATOM     53  N   UNL A   1      41.477  29.306  32.905  1.00  0.00    -0.354 N 
ATOM     54  C   UNL A   1      38.241  31.598  31.183  1.00  0.00     0.074 A 
ATOM     55  C   UNL A   1      37.943  31.153  29.839  1.00  0.00     0.031 C 
ATOM     56  C   UNL A   1      43.061  27.728  32.957  1.00  0.00     0.029 A 
ATOM     57  C   UNL A   1      42.471  28.821  33.722  1.00  0.00     0.049 A 
ATOM     58  H   UNL A   1      40.889  30.054  33.157  1.00  0.00     0.167 HD
ATOM     59  C   UNL A   1      37.587  32.604  31.814  1.00  0.00     0.031 A 
ATOM     60  C   UNL A   1      42.865  29.215  34.949  1.00  0.00     0.031 A 
ATOM     61  C   UNL A   1      37.889  33.043  33.151  1.00  0.00     0.049 A 
ATOM     62  C   UNL A   1      42.148  30.357  35.615  1.00  0.00     0.074 A 
ATOM     63  C   UNL A   1      37.259  34.023  33.896  1.00  0.00     0.029 A 
ATOM     64  N   UNL A   1      38.909  32.533  33.941  1.00  0.00    -0.354 N 
ATOM     65  N   UNL A   1      41.138  31.068  35.172  1.00  0.00    -0.248 NA
ATOM     66  C   UNL A   1      42.619  30.744  36.952  1.00  0.00     0.031 C 
ATOM     67  C   UNL A   1      37.936  34.149  35.113  1.00  0.00     0.029 A 
ATOM     68  C   UNL A   1      38.944  33.198  35.155  1.00  0.00     0.049 A 
ATOM     69  H   UNL A   1      39.517  31.806  33.677  1.00  0.00     0.167 HD
ATOM     70  C   UNL A   1      40.831  31.964  36.190  1.00  0.00     0.074 A 
ATOM     71  C   UNL A   1      41.753  31.696  37.275  1.00  0.00     0.031 C 
ATOM     72  C   UNL A   1      39.870  32.921  36.225  1.00  0.00     0.031 A 
BRANCH  59  73
ATOM     73  C   UNL A   1      36.487  33.302  31.054  1.00  0.00    -0.014 A 
ATOM     74  C   UNL A   1      36.771  34.101  29.932  1.00  0.00     0.010 A 
ATOM     75  C   UNL A   1      35.148  33.134  31.451  1.00  0.00     0.010 A 
ATOM     76  C   UNL A   1      35.745  34.762  29.253  1.00  0.00     0.020 A 
ATOM     77  C   UNL A   1      34.114  33.767  30.754  1.00  0.00     0.020 A 
ATOM     78  C   UNL A   1      34.422  34.594  29.671  1.00  0.00     0.054 A 
BRANCH  78  79
ATOM     79  S   UNL A   1      33.109  35.457  28.766  1.00  0.00     0.124 S 
ATOM     80  O   UNL A   1      32.371  36.101  29.849  1.00  0.00    -0.237 OA
ATOM     81  O   UNL A   1      33.861  36.359  27.896  1.00  0.00    -0.237 OA
ATOM     82  O   UNL A   1      32.395  34.383  28.080  1.00  0.00    -0.744 OA
ENDBRANCH  78  79
ENDBRANCH  59  73
BRANCH  60  83
ATOM     83  C   UNL A   1      43.984  28.510  35.633  1.00  0.00    -0.014 A 
ATOM     84  C   UNL A   1      45.311  28.942  35.458  1.00  0.00     0.010 A 
ATOM     85  C   UNL A   1      43.729  27.411  36.473  1.00  0.00     0.010 A 
ATOM     86  C   UNL A   1      46.364  28.276  36.093  1.00  0.00     0.020 A 
ATOM     87  C   UNL A   1      44.776  26.761  37.134  1.00  0.00     0.020 A 
ATOM     88  C   UNL A   1      46.088  27.191  36.930  1.00  0.00     0.054 A 
BRANCH  88  89
ATOM     89  S   UNL A   1      47.466  26.370  37.779  1.00  0.00     0.124 S 
ATOM     90  O   UNL A   1      47.010  24.985  37.829  1.00  0.00    -0.237 OA
ATOM     91  O   UNL A   1      48.589  26.638  36.885  1.00  0.00    -0.237 OA
ATOM     92  O   UNL A   1      47.529  27.056  39.069  1.00  0.00    -0.744 OA
ENDBRANCH  88  89
ENDBRANCH  60  83
BRANCH  72  93
ATOM     93  C   UNL A   1      39.738  33.725  37.492  1.00  0.00    -0.014 A 
ATOM     94  C   UNL A   1      40.393  34.960  37.648  1.00  0.00     0.010 A 
ATOM     95  C   UNL A   1      38.898  33.261  38.521  1.00  0.00     0.010 A 
ATOM     96  C   UNL A   1      40.236  35.699  38.824  1.00  0.00     0.020 A 
ATOM     97  C   UNL A   1      38.713  34.011  39.684  1.00  0.00     0.020 A 
ATOM     98  C   UNL A   1      39.395  35.220  39.834  1.00  0.00     0.054 A 
BRANCH  98  99
ATOM     99  S   UNL A   1      39.173  36.221  41.330  1.00  0.00     0.124 S 
ATOM    100  O   UNL A   1      39.008  37.562  40.777  1.00  0.00    -0.237 OA
ATOM    101  O   UNL A   1      37.976  35.636  41.929  1.00  0.00    -0.237 OA
ATOM    102  O   UNL A   1      40.407  36.004  42.080  1.00  0.00    -0.744 OA
ENDBRANCH  98  99
ENDBRANCH  72  93
ENDBRANCH  46  47
ENDBRANCH  38  41
ENDBRANCH  36  37
ENDBRANCH  35  36
ENDBRANCH   1  35
TORSDOF 19
ENDMDL
MODEL 3
REMARK VINA RESULT:     -11.8      2.732      9.189
REMARK SMILES Cc1ccc2[nH]cc([C@@H](C(=O)NCCCCCCNC(=O)c3ccc(-c4c5nc(c(-c6ccc(S(=O)(=O)[O-])cc6)c6ccc([nH]6)c(-c6ccc(S(=O)(=O)[O-])cc6)c6nc(c(-c7ccc(S(=O)(=O)[O-])cc7)c7ccc4[nH]7)C=C6)C=C5)cc3)[NH+]3CCN(c4ccc(F)cc4)CC3)c2c1
REMARK SMILES IDX 16 1 15 2 14 3 13 4 12 5 10 6 11 7 9 9 8 10 1 11 2 12 3 13
REMARK SMILES IDX 96 14 4 15 95 16 5 17 6 18 7 19 82 21 83 22 94 23 84 25
REMARK SMILES IDX 93 26 85 27 86 28 87 29 92 30 88 31 91 32 89 33 90 34 17 35
REMARK SMILES IDX 18 36 19 37 20 38 21 40 22 41 23 42 81 43 24 44 80 45 25 46
REMARK SMILES IDX 26 47 27 48 74 49 28 50 79 51 73 52 75 53 29 54 78 55 72 56
REMARK SMILES IDX 71 57 30 59 60 60 41 61 59 62 42 63 45 64 58 65 76 66 43 67
REMARK SMILES IDX 44 68 57 70 77 71 46 72 31 73 32 74 40 75 33 76 39 77 34 78
REMARK SMILES IDX 35 79 36 80 37 81 38 82 61 83 62 84 70 85 63 86 69 87 64 88
REMARK SMILES IDX 65 89 66 90 67 91 68 92 47 93 48 94 56 95 49 96 55 97 50 98
REMARK SMILES IDX 51 99 52 100 53 101 54 102
REMARK H PARENT 12 8 6 20 82 24 19 39 75 58 45 69
REMARK Flexibility Score: inf
ROOT
ATOM      1  C   UNL A   1      33.242  30.807  27.244  1.00  0.00     0.002 C 
ENDROOT
BRANCH   1   2
ATOM      2  C   UNL A   1      32.976  29.321  26.988  1.00  0.00     0.002 C 
BRANCH   2   3
ATOM      3  C   UNL A   1      33.613  28.780  25.705  1.00  0.00     0.021 C 
BRANCH   3   4
ATOM      4  C   UNL A   1      33.665  27.253  25.651  1.00  0.00     0.116 C 
BRANCH   4   5
ATOM      5  N   UNL A   1      33.861  26.795  24.293  1.00  0.00    -0.351 N 
ATOM      6  C   UNL A   1      33.750  25.522  23.792  1.00  0.00     0.283 C 
ATOM      7  O   UNL A   1      34.095  25.380  22.615  1.00  0.00    -0.268 OA
ATOM      8  H   UNL A   1      34.106  27.489  23.640  1.00  0.00     0.163 HD
BRANCH   6   9
ATOM      9  C   UNL A   1      33.136  24.390  24.683  1.00  0.00     0.307 C 
BRANCH   9  10
ATOM     10  C   UNL A   1      33.919  23.097  24.645  1.00  0.00     0.044 A 
ATOM     11  C   UNL A   1      38.661  24.267  26.240  1.00  0.00     0.044 C 
ATOM     12  C   UNL A   1      37.571  23.307  25.857  1.00  0.00    -0.050 A 
ATOM     13  C   UNL A   1      37.841  21.944  25.712  1.00  0.00     0.005 A 
ATOM     14  C   UNL A   1      36.279  23.791  25.586  1.00  0.00     0.014 A 
ATOM     15  C   UNL A   1      36.867  21.055  25.250  1.00  0.00     0.027 A 
ATOM     16  C   UNL A   1      35.284  22.921  25.084  1.00  0.00     0.009 A 
ATOM     17  C   UNL A   1      35.616  21.579  24.908  1.00  0.00     0.046 A 
ATOM     18  N   UNL A   1      34.525  20.963  24.348  1.00  0.00    -0.361 N 
ATOM     19  C   UNL A   1      33.538  21.879  24.108  1.00  0.00     0.094 A 
ATOM     20  H   UNL A   1      34.462  20.001  24.148  1.00  0.00     0.166 HD
ENDBRANCH   9  10
BRANCH   9  21
ATOM     21  N   UNL A   1      31.681  24.218  24.445  1.00  0.00    -0.318 N 
ATOM     22  C   UNL A   1      30.742  24.772  25.432  1.00  0.00     0.284 C 
ATOM     23  C   UNL A   1      31.233  24.530  23.078  1.00  0.00     0.284 C 
ATOM     24  H   UNL A   1      31.629  23.209  24.585  1.00  0.00     0.349 HD
ATOM     25  C   UNL A   1      30.258  26.221  25.225  1.00  0.00     0.178 C 
ATOM     26  C   UNL A   1      30.839  25.998  22.800  1.00  0.00     0.178 C 
ATOM     27  N   UNL A   1      29.921  26.509  23.829  1.00  0.00    -0.360 N 
BRANCH  27  28
ATOM     28  C   UNL A   1      29.359  27.755  23.566  1.00  0.00     0.037 A 
ATOM     29  C   UNL A   1      30.100  28.947  23.599  1.00  0.00     0.029 A 
ATOM     30  C   UNL A   1      27.991  27.827  23.277  1.00  0.00     0.029 A 
ATOM     31  C   UNL A   1      29.479  30.181  23.398  1.00  0.00     0.041 A 
ATOM     32  C   UNL A   1      27.363  29.058  23.082  1.00  0.00     0.041 A 
ATOM     33  C   UNL A   1      28.112  30.224  23.154  1.00  0.00     0.123 A 
ATOM     34  F   UNL A   1      27.508  31.408  22.990  1.00  0.00    -0.207 F 
ENDBRANCH  27  28
ENDBRANCH   9  21
ENDBRANCH   6   9
ENDBRANCH   4   5
ENDBRANCH   3   4
ENDBRANCH   2   3
ENDBRANCH   1   2
BRANCH   1  35
ATOM     35  C   UNL A   1      34.694  31.135  27.598  1.00  0.00     0.021 C 
BRANCH  35  36
ATOM     36  C   UNL A   1      35.275  30.255  28.699  1.00  0.00     0.116 C 
BRANCH  36  37
ATOM     37  N   UNL A   1      35.420  30.992  29.945  1.00  0.00    -0.352 N 
ATOM     38  C   UNL A   1      36.488  31.028  30.806  1.00  0.00     0.251 C 
ATOM     39  H   UNL A   1      34.646  31.539  30.207  1.00  0.00     0.163 HD
ATOM     40  O   UNL A   1      36.357  31.489  31.933  1.00  0.00    -0.269 OA
BRANCH  38  41
ATOM     41  C   UNL A   1      37.792  30.499  30.360  1.00  0.00     0.039 A 
ATOM     42  C   UNL A   1      38.202  30.718  29.044  1.00  0.00     0.014 A 
ATOM     43  C   UNL A   1      38.608  29.787  31.246  1.00  0.00     0.014 A 
ATOM     44  C   UNL A   1      39.457  30.265  28.630  1.00  0.00     0.010 A 
ATOM     45  C   UNL A   1      39.887  29.409  30.856  1.00  0.00     0.010 A 
ATOM     46  C   UNL A   1      40.321  29.635  29.541  1.00  0.00    -0.014 A 
BRANCH  46  47
ATOM     47  C   UNL A   1      41.680  29.197  29.136  1.00  0.00     0.031 A 
ATOM     48  C   UNL A   1      42.822  30.176  29.145  1.00  0.00     0.074 A 
ATOM     49  C   UNL A   1      41.872  27.934  28.708  1.00  0.00     0.049 A 
ATOM     50  N   UNL A   1      44.066  29.995  28.784  1.00  0.00    -0.248 NA
ATOM     51  C   UNL A   1      42.523  31.545  29.599  1.00  0.00     0.031 C 
ATOM     52  C   UNL A   1      40.837  26.901  28.621  1.00  0.00     0.029 A 
ATOM     53  N   UNL A   1      43.007  27.303  28.262  1.00  0.00    -0.354 N 
ATOM     54  C   UNL A   1      44.692  31.224  28.954  1.00  0.00     0.074 A 
ATOM     55  C   UNL A   1      43.679  32.157  29.394  1.00  0.00     0.031 C 
ATOM     56  C   UNL A   1      41.392  25.758  28.187  1.00  0.00     0.029 A 
ATOM     57  C   UNL A   1      42.808  25.986  27.919  1.00  0.00     0.049 A 
ATOM     58  H   UNL A   1      43.881  27.751  28.196  1.00  0.00     0.167 HD
ATOM     59  C   UNL A   1      45.998  31.543  28.783  1.00  0.00     0.031 A 
ATOM     60  C   UNL A   1      43.667  25.069  27.436  1.00  0.00     0.031 A 
ATOM     61  C   UNL A   1      47.002  30.610  28.343  1.00  0.00     0.049 A 
ATOM     62  C   UNL A   1      45.105  25.456  27.219  1.00  0.00     0.074 A 
ATOM     63  C   UNL A   1      48.359  30.821  28.179  1.00  0.00     0.029 A 
ATOM     64  N   UNL A   1      46.757  29.289  27.996  1.00  0.00    -0.354 N 
ATOM     65  N   UNL A   1      45.691  26.607  27.444  1.00  0.00    -0.248 NA
ATOM     66  C   UNL A   1      45.998  24.415  26.693  1.00  0.00     0.031 C 
ATOM     67  C   UNL A   1      48.925  29.647  27.673  1.00  0.00     0.029 A 
ATOM     68  C   UNL A   1      47.934  28.682  27.590  1.00  0.00     0.049 A 
ATOM     69  H   UNL A   1      45.878  28.850  28.032  1.00  0.00     0.167 HD
ATOM     70  C   UNL A   1      47.030  26.420  27.118  1.00  0.00     0.074 A 
ATOM     71  C   UNL A   1      47.168  25.041  26.694  1.00  0.00     0.031 C 
ATOM     72  C   UNL A   1      48.055  27.308  27.168  1.00  0.00     0.031 A 
BRANCH  59  73
ATOM     73  C   UNL A   1      46.408  32.967  29.063  1.00  0.00    -0.014 A 
ATOM     74  C   UNL A   1      46.838  33.363  30.343  1.00  0.00     0.010 A 
ATOM     75  C   UNL A   1      46.390  33.917  28.026  1.00  0.00     0.010 A 
ATOM     76  C   UNL A   1      47.191  34.691  30.594  1.00  0.00     0.020 A 
ATOM     77  C   UNL A   1      46.774  35.240  28.265  1.00  0.00     0.020 A 
ATOM     78  C   UNL A   1      47.153  35.622  29.553  1.00  0.00     0.054 A 
BRANCH  78  79
ATOM     79  S   UNL A   1      47.624  37.338  29.906  1.00  0.00     0.124 S 
ATOM     80  O   UNL A   1      46.582  38.086  29.208  1.00  0.00    -0.237 OA
ATOM     81  O   UNL A   1      47.565  37.391  31.365  1.00  0.00    -0.237 OA
ATOM     82  O   UNL A   1      48.963  37.455  29.334  1.00  0.00    -0.744 OA
ENDBRANCH  78  79
ENDBRANCH  59  73
BRANCH  60  83
ATOM     83  C   UNL A   1      43.194  23.688  27.142  1.00  0.00    -0.014 A 
ATOM     84  C   UNL A   1      42.661  23.371  25.880  1.00  0.00     0.010 A 
ATOM     85  C   UNL A   1      43.285  22.678  28.117  1.00  0.00     0.010 A 
ATOM     86  C   UNL A   1      42.208  22.076  25.606  1.00  0.00     0.020 A 
ATOM     87  C   UNL A   1      42.862  21.376  27.838  1.00  0.00     0.020 A 
ATOM     88  C   UNL A   1      42.314  21.086  26.586  1.00  0.00     0.054 A 
BRANCH  88  89
ATOM     89  S   UNL A   1      41.763  19.403  26.192  1.00  0.00     0.124 S 
ATOM     90  O   UNL A   1      40.353  19.612  25.876  1.00  0.00    -0.237 OA
ATOM     91  O   UNL A   1      42.620  19.048  25.065  1.00  0.00    -0.237 OA
ATOM     92  O   UNL A   1      42.026  18.660  27.423  1.00  0.00    -0.744 OA
ENDBRANCH  88  89
ENDBRANCH  60  83
BRANCH  72  93
ATOM     93  C   UNL A   1      49.425  26.809  26.792  1.00  0.00    -0.014 A 
ATOM     94  C   UNL A   1      50.307  26.291  27.757  1.00  0.00     0.010 A 
ATOM     95  C   UNL A   1      49.813  26.808  25.439  1.00  0.00     0.010 A 
ATOM     96  C   UNL A   1      51.565  25.812  27.380  1.00  0.00     0.020 A 
ATOM     97  C   UNL A   1      51.056  26.301  25.054  1.00  0.00     0.020 A 
ATOM     98  C   UNL A   1      51.930  25.818  26.030  1.00  0.00     0.054 A 
BRANCH  98  99
ATOM     99  S   UNL A   1      53.550  25.149  25.563  1.00  0.00     0.124 S 
ATOM    100  O   UNL A   1      53.872  25.936  24.376  1.00  0.00    -0.237 OA
ATOM    101  O   UNL A   1      54.363  25.429  26.744  1.00  0.00    -0.237 OA
ATOM    102  O   UNL A   1      53.283  23.734  25.318  1.00  0.00    -0.744 OA
ENDBRANCH  98  99
ENDBRANCH  72  93
ENDBRANCH  46  47
ENDBRANCH  38  41
ENDBRANCH  36  37
ENDBRANCH  35  36
ENDBRANCH   1  35
TORSDOF 19
ENDMDL
