MODEL 1
REMARK VINA RESULT:     -10.9      0.000      0.000
REMARK SMILES C[C@@H](C(=O)NCCCCCCNC(=O)c1ccc(-c2c3nc(c(-c4ccc(S(=O)(=O)[O-])cc4)c4ccc([nH]4)c(-c4ccc(S(=O)(=O)[O-])cc4)c4nc(c(-c5ccc(S(=O)(=O)[O-])cc5)c5ccc2[nH]5)C=C4)C=C3)cc1)c1ccc(N[C@H]2CCC[C@@H]2O)cc1F
REMARK SMILES IDX 8 1 7 2 6 3 5 4 3 5 4 6 2 8 1 9 75 10 76 11 87 12 77 13
REMARK SMILES IDX 86 14 88 15 78 16 79 17 80 19 81 20 84 21 82 22 83 23 85 24
REMARK SMILES IDX 9 26 10 27 11 28 12 29 13 30 14 32 15 33 16 34 74 35 17 36
REMARK SMILES IDX 73 37 18 38 19 39 20 40 67 41 21 42 72 43 66 44 68 45 22 46
REMARK SMILES IDX 71 47 65 48 64 49 23 51 53 52 34 53 52 54 35 55 38 56 51 57
REMARK SMILES IDX 69 58 36 59 37 60 50 62 70 63 39 64 24 65 25 66 33 67 26 68
REMARK SMILES IDX 32 69 27 70 28 71 29 72 30 73 31 74 54 75 55 76 63 77 56 78
REMARK SMILES IDX 62 79 57 80 58 81 59 82 60 83 61 84 40 85 41 86 49 87 42 88
REMARK SMILES IDX 48 89 43 90 44 91 45 92 46 93 47 94
REMARK H PARENT 5 7 79 18 85 25 12 31 68 50 38 61
REMARK Flexibility Score: inf
ROOT
ATOM      1  C   UNL A   1      30.719  27.878  24.618  1.00  0.00     0.002 C 
ENDROOT
BRANCH   1   2
ATOM      2  C   UNL A   1      31.365  27.358  23.326  1.00  0.00     0.021 C 
BRANCH   2   3
ATOM      3  C   UNL A   1      30.744  26.059  22.812  1.00  0.00     0.116 C 
BRANCH   3   4
ATOM      4  N   UNL A   1      31.722  25.300  22.062  1.00  0.00    -0.356 N 
ATOM      5  C   UNL A   1      32.869  24.698  22.487  1.00  0.00     0.227 C 
ATOM      6  O   UNL A   1      33.600  24.219  21.617  1.00  0.00    -0.274 OA
ATOM      7  H   UNL A   1      31.529  25.204  21.102  1.00  0.00     0.163 HD
BRANCH   5   8
ATOM      8  C   UNL A   1      33.145  24.570  23.993  1.00  0.00     0.108 C 
ATOM      9  C   UNL A   1      34.457  25.223  24.442  1.00  0.00     0.023 C 
BRANCH   8  10
ATOM     10  C   UNL A   1      33.085  23.123  24.447  1.00  0.00     0.000 A 
ATOM     11  C   UNL A   1      31.914  22.614  25.015  1.00  0.00     0.009 A 
ATOM     12  C   UNL A   1      34.169  22.255  24.303  1.00  0.00     0.129 A 
ATOM     13  C   UNL A   1      31.856  21.286  25.452  1.00  0.00     0.026 A 
ATOM     14  C   UNL A   1      34.105  20.935  24.739  1.00  0.00     0.065 A 
ATOM     15  F   UNL A   1      35.312  22.685  23.750  1.00  0.00    -0.207 F 
ATOM     16  C   UNL A   1      32.942  20.417  25.321  1.00  0.00     0.037 A 
BRANCH  16  17
ATOM     17  N   UNL A   1      32.959  19.113  25.767  1.00  0.00    -0.380 N 
ATOM     18  H   UNL A   1      32.966  19.003  26.745  1.00  0.00     0.160 HD
BRANCH  17  19
ATOM     19  C   UNL A   1      32.964  17.871  25.002  1.00  0.00     0.107 C 
ATOM     20  C   UNL A   1      32.283  17.975  23.633  1.00  0.00     0.027 C 
ATOM     21  C   UNL A   1      34.369  17.295  24.753  1.00  0.00     0.136 C 
ATOM     22  C   UNL A   1      33.231  17.299  22.641  1.00  0.00     0.005 C 
ATOM     23  C   UNL A   1      34.182  16.467  23.490  1.00  0.00     0.034 C 
BRANCH  21  24
ATOM     24  O   UNL A   1      34.798  16.468  25.829  1.00  0.00    -0.391 OA
ATOM     25  H   UNL A   1      35.299  15.714  25.479  1.00  0.00     0.211 HD
ENDBRANCH  21  24
ENDBRANCH  17  19
ENDBRANCH  16  17
ENDBRANCH   8  10
ENDBRANCH   5   8
ENDBRANCH   3   4
ENDBRANCH   2   3
ENDBRANCH   1   2
BRANCH   1  26
ATOM     26  C   UNL A   1      31.610  27.794  25.860  1.00  0.00     0.002 C 
BRANCH  26  27
ATOM     27  C   UNL A   1      33.085  28.115  25.611  1.00  0.00     0.021 C 
BRANCH  27  28
ATOM     28  C   UNL A   1      33.882  28.418  26.875  1.00  0.00     0.116 C 
BRANCH  28  29
ATOM     29  N   UNL A   1      33.705  29.795  27.308  1.00  0.00    -0.352 N 
ATOM     30  C   UNL A   1      34.528  30.569  28.081  1.00  0.00     0.251 C 
ATOM     31  H   UNL A   1      32.877  30.231  27.001  1.00  0.00     0.163 HD
ATOM     32  O   UNL A   1      34.118  31.639  28.533  1.00  0.00    -0.269 OA
BRANCH  30  33
ATOM     33  C   UNL A   1      35.901  30.113  28.382  1.00  0.00     0.039 A 
ATOM     34  C   UNL A   1      36.873  30.184  27.381  1.00  0.00     0.014 A 
ATOM     35  C   UNL A   1      36.225  29.603  29.642  1.00  0.00     0.014 A 
ATOM     36  C   UNL A   1      38.181  29.782  27.659  1.00  0.00     0.010 A 
ATOM     37  C   UNL A   1      37.545  29.277  29.940  1.00  0.00     0.010 A 
ATOM     38  C   UNL A   1      38.534  29.348  28.948  1.00  0.00    -0.014 A 
BRANCH  38  39
ATOM     39  C   UNL A   1      39.928  28.948  29.268  1.00  0.00     0.031 A 
ATOM     40  C   UNL A   1      40.848  29.911  29.970  1.00  0.00     0.074 A 
ATOM     41  C   UNL A   1      40.380  27.737  28.885  1.00  0.00     0.049 A 
ATOM     42  N   UNL A   1      42.101  29.753  30.313  1.00  0.00    -0.248 NA
ATOM     43  C   UNL A   1      40.296  31.233  30.309  1.00  0.00     0.031 C 
ATOM     44  C   UNL A   1      39.597  26.729  28.167  1.00  0.00     0.029 A 
ATOM     45  N   UNL A   1      41.608  27.147  29.050  1.00  0.00    -0.354 N 
ATOM     46  C   UNL A   1      42.490  30.957  30.892  1.00  0.00     0.074 A 
ATOM     47  C   UNL A   1      41.358  31.852  30.802  1.00  0.00     0.031 C 
ATOM     48  C   UNL A   1      40.351  25.632  27.989  1.00  0.00     0.029 A 
ATOM     49  C   UNL A   1      41.680  25.873  28.540  1.00  0.00     0.049 A 
ATOM     50  H   UNL A   1      42.364  27.595  29.492  1.00  0.00     0.167 HD
ATOM     51  C   UNL A   1      43.674  31.281  31.463  1.00  0.00     0.031 A 
ATOM     52  C   UNL A   1      42.702  24.996  28.520  1.00  0.00     0.031 A 
ATOM     53  C   UNL A   1      44.795  30.383  31.557  1.00  0.00     0.049 A 
ATOM     54  C   UNL A   1      44.014  25.384  29.148  1.00  0.00     0.074 A 
ATOM     55  C   UNL A   1      46.018  30.595  32.166  1.00  0.00     0.029 A 
ATOM     56  N   UNL A   1      44.829  29.104  31.023  1.00  0.00    -0.354 N 
ATOM     57  N   UNL A   1      44.340  26.502  29.750  1.00  0.00    -0.248 NA
ATOM     58  C   UNL A   1      45.089  24.384  29.104  1.00  0.00     0.031 C 
ATOM     59  C   UNL A   1      46.815  29.465  31.951  1.00  0.00     0.029 A 
ATOM     60  C   UNL A   1      46.064  28.524  31.265  1.00  0.00     0.049 A 
ATOM     61  H   UNL A   1      44.087  28.671  30.542  1.00  0.00     0.167 HD
ATOM     62  C   UNL A   1      45.649  26.329  30.187  1.00  0.00     0.074 A 
ATOM     63  C   UNL A   1      46.047  24.993  29.790  1.00  0.00     0.031 C 
ATOM     64  C   UNL A   1      46.447  27.194  30.860  1.00  0.00     0.031 A 
BRANCH  51  65
ATOM     65  C   UNL A   1      43.818  32.675  32.020  1.00  0.00    -0.014 A 
ATOM     66  C   UNL A   1      44.022  33.782  31.175  1.00  0.00     0.010 A 
ATOM     67  C   UNL A   1      43.727  32.885  33.408  1.00  0.00     0.010 A 
ATOM     68  C   UNL A   1      44.186  35.062  31.710  1.00  0.00     0.020 A 
ATOM     69  C   UNL A   1      43.857  34.169  33.946  1.00  0.00     0.020 A 
ATOM     70  C   UNL A   1      44.108  35.246  33.094  1.00  0.00     0.054 A 
BRANCH  70  71
ATOM     71  S   UNL A   1      44.319  36.920  33.762  1.00  0.00     0.124 S 
ATOM     72  O   UNL A   1      44.073  36.708  35.186  1.00  0.00    -0.237 OA
ATOM     73  O   UNL A   1      45.700  37.235  33.404  1.00  0.00    -0.237 OA
ATOM     74  O   UNL A   1      43.303  37.703  33.063  1.00  0.00    -0.744 OA
ENDBRANCH  70  71
ENDBRANCH  51  65
BRANCH  52  75
ATOM     75  C   UNL A   1      42.516  23.650  27.910  1.00  0.00    -0.014 A 
ATOM     76  C   UNL A   1      42.846  23.429  26.561  1.00  0.00     0.010 A 
ATOM     77  C   UNL A   1      42.020  22.580  28.676  1.00  0.00     0.010 A 
ATOM     78  C   UNL A   1      42.665  22.168  25.984  1.00  0.00     0.020 A 
ATOM     79  C   UNL A   1      41.864  21.311  28.110  1.00  0.00     0.020 A 
ATOM     80  C   UNL A   1      42.177  21.116  26.764  1.00  0.00     0.054 A 
BRANCH  80  81
ATOM     81  S   UNL A   1      41.998  19.478  26.006  1.00  0.00     0.124 S 
ATOM     82  O   UNL A   1      42.504  18.601  27.058  1.00  0.00    -0.237 OA
ATOM     83  O   UNL A   1      40.562  19.402  25.754  1.00  0.00    -0.237 OA
ATOM     84  O   UNL A   1      42.829  19.562  24.808  1.00  0.00    -0.744 OA
ENDBRANCH  80  81
ENDBRANCH  52  75
BRANCH  64  85
ATOM     85  C   UNL A   1      47.820  26.710  31.247  1.00  0.00    -0.014 A 
ATOM     86  C   UNL A   1      48.074  26.155  32.514  1.00  0.00     0.010 A 
ATOM     87  C   UNL A   1      48.865  26.775  30.307  1.00  0.00     0.010 A 
ATOM     88  C   UNL A   1      49.356  25.709  32.846  1.00  0.00     0.020 A 
ATOM     89  C   UNL A   1      50.141  26.302  30.624  1.00  0.00     0.020 A 
ATOM     90  C   UNL A   1      50.382  25.787  31.899  1.00  0.00     0.054 A 
BRANCH  90  91
ATOM     91  S   UNL A   1      52.028  25.170  32.343  1.00  0.00     0.124 S 
ATOM     92  O   UNL A   1      52.146  25.597  33.736  1.00  0.00    -0.237 OA
ATOM     93  O   UNL A   1      51.899  23.731  32.135  1.00  0.00    -0.237 OA
ATOM     94  O   UNL A   1      52.919  25.853  31.407  1.00  0.00    -0.744 OA
ENDBRANCH  90  91
ENDBRANCH  64  85
ENDBRANCH  38  39
ENDBRANCH  30  33
ENDBRANCH  28  29
ENDBRANCH  27  28
ENDBRANCH  26  27
ENDBRANCH   1  26
TORSDOF 20
ENDMDL
MODEL 2
REMARK VINA RESULT:     -10.8      3.025      5.199
REMARK SMILES C[C@@H](C(=O)NCCCCCCNC(=O)c1ccc(-c2c3nc(c(-c4ccc(S(=O)(=O)[O-])cc4)c4ccc([nH]4)c(-c4ccc(S(=O)(=O)[O-])cc4)c4nc(c(-c5ccc(S(=O)(=O)[O-])cc5)c5ccc2[nH]5)C=C4)C=C3)cc1)c1ccc(N[C@H]2CCC[C@@H]2O)cc1F
REMARK SMILES IDX 8 1 7 2 6 3 5 4 3 5 4 6 2 8 1 9 75 10 76 11 87 12 77 13
REMARK SMILES IDX 86 14 88 15 78 16 79 17 80 19 81 20 84 21 82 22 83 23 85 24
REMARK SMILES IDX 9 26 10 27 11 28 12 29 13 30 14 32 15 33 16 34 74 35 17 36
REMARK SMILES IDX 73 37 18 38 19 39 20 40 67 41 21 42 72 43 66 44 68 45 22 46
REMARK SMILES IDX 71 47 65 48 64 49 23 51 53 52 34 53 52 54 35 55 38 56 51 57
REMARK SMILES IDX 69 58 36 59 37 60 50 62 70 63 39 64 24 65 25 66 33 67 26 68
REMARK SMILES IDX 32 69 27 70 28 71 29 72 30 73 31 74 54 75 55 76 63 77 56 78
REMARK SMILES IDX 62 79 57 80 58 81 59 82 60 83 61 84 40 85 41 86 49 87 42 88
REMARK SMILES IDX 48 89 43 90 44 91 45 92 46 93 47 94
REMARK H PARENT 5 7 79 18 85 25 12 31 68 50 38 61
REMARK Flexibility Score: inf
ROOT
ATOM      1  C   UNL A   1      31.675  26.720  26.413  1.00  0.00     0.002 C 
ENDROOT
BRANCH   1   2
ATOM      2  C   UNL A   1      32.979  25.915  26.495  1.00  0.00     0.021 C 
BRANCH   2   3
ATOM      3  C   UNL A   1      32.800  24.428  26.189  1.00  0.00     0.116 C 
BRANCH   3   4
ATOM      4  N   UNL A   1      33.832  23.977  25.279  1.00  0.00    -0.356 N 
ATOM      5  C   UNL A   1      33.718  23.310  24.095  1.00  0.00     0.227 C 
ATOM      6  O   UNL A   1      34.766  22.925  23.572  1.00  0.00    -0.274 OA
ATOM      7  H   UNL A   1      34.754  24.183  25.557  1.00  0.00     0.163 HD
BRANCH   5   8
ATOM      8  C   UNL A   1      32.336  23.153  23.444  1.00  0.00     0.108 C 
ATOM      9  C   UNL A   1      32.345  22.321  22.158  1.00  0.00     0.023 C 
BRANCH   8  10
ATOM     10  C   UNL A   1      31.680  24.502  23.204  1.00  0.00     0.000 A 
ATOM     11  C   UNL A   1      30.409  24.765  23.721  1.00  0.00     0.009 A 
ATOM     12  C   UNL A   1      32.313  25.517  22.486  1.00  0.00     0.129 A 
ATOM     13  C   UNL A   1      29.790  25.999  23.490  1.00  0.00     0.026 A 
ATOM     14  C   UNL A   1      31.693  26.742  22.259  1.00  0.00     0.065 A 
ATOM     15  F   UNL A   1      33.540  25.325  21.981  1.00  0.00    -0.207 F 
ATOM     16  C   UNL A   1      30.415  27.014  22.761  1.00  0.00     0.037 A 
BRANCH  16  17
ATOM     17  N   UNL A   1      29.842  28.232  22.468  1.00  0.00    -0.380 N 
ATOM     18  H   UNL A   1      29.986  28.554  21.549  1.00  0.00     0.160 HD
BRANCH  17  19
ATOM     19  C   UNL A   1      29.052  29.114  23.319  1.00  0.00     0.107 C 
ATOM     20  C   UNL A   1      29.809  30.349  23.818  1.00  0.00     0.027 C 
ATOM     21  C   UNL A   1      27.758  29.626  22.661  1.00  0.00     0.136 C 
ATOM     22  C   UNL A   1      28.868  31.534  23.600  1.00  0.00     0.005 C 
ATOM     23  C   UNL A   1      27.487  30.926  23.404  1.00  0.00     0.034 C 
BRANCH  21  24
ATOM     24  O   UNL A   1      26.679  28.717  22.843  1.00  0.00    -0.391 OA
ATOM     25  H   UNL A   1      25.967  29.153  23.338  1.00  0.00     0.211 HD
ENDBRANCH  21  24
ENDBRANCH  17  19
ENDBRANCH  16  17
ENDBRANCH   8  10
ENDBRANCH   5   8
ENDBRANCH   3   4
ENDBRANCH   2   3
ENDBRANCH   1   2
BRANCH   1  26
ATOM     26  C   UNL A   1      31.860  28.215  26.139  1.00  0.00     0.002 C 
BRANCH  26  27
ATOM     27  C   UNL A   1      33.055  28.559  25.249  1.00  0.00     0.021 C 
BRANCH  27  28
ATOM     28  C   UNL A   1      34.206  29.240  25.981  1.00  0.00     0.116 C 
BRANCH  28  29
ATOM     29  N   UNL A   1      33.814  30.532  26.520  1.00  0.00    -0.352 N 
ATOM     30  C   UNL A   1      34.316  31.203  27.603  1.00  0.00     0.251 C 
ATOM     31  H   UNL A   1      33.085  30.987  26.039  1.00  0.00     0.163 HD
ATOM     32  O   UNL A   1      33.717  32.183  28.049  1.00  0.00    -0.269 OA
BRANCH  30  33
ATOM     33  C   UNL A   1      35.566  30.743  28.242  1.00  0.00     0.039 A 
ATOM     34  C   UNL A   1      36.761  31.401  27.943  1.00  0.00     0.014 A 
ATOM     35  C   UNL A   1      35.562  29.656  29.121  1.00  0.00     0.014 A 
ATOM     36  C   UNL A   1      37.946  30.995  28.560  1.00  0.00     0.010 A 
ATOM     37  C   UNL A   1      36.729  29.304  29.794  1.00  0.00     0.010 A 
ATOM     38  C   UNL A   1      37.936  29.959  29.508  1.00  0.00    -0.014 A 
BRANCH  38  39
ATOM     39  C   UNL A   1      39.182  29.537  30.197  1.00  0.00     0.031 A 
ATOM     40  C   UNL A   1      39.619  30.230  31.460  1.00  0.00     0.074 A 
ATOM     41  C   UNL A   1      39.945  28.563  29.661  1.00  0.00     0.049 A 
ATOM     42  N   UNL A   1      40.685  30.019  32.190  1.00  0.00    -0.248 NA
ATOM     43  C   UNL A   1      38.760  31.318  31.955  1.00  0.00     0.031 C 
ATOM     44  C   UNL A   1      39.648  27.840  28.422  1.00  0.00     0.029 A 
ATOM     45  N   UNL A   1      41.125  28.012  30.092  1.00  0.00    -0.354 N 
ATOM     46  C   UNL A   1      40.632  30.956  33.217  1.00  0.00     0.074 A 
ATOM     47  C   UNL A   1      39.460  31.771  32.984  1.00  0.00     0.031 C 
ATOM     48  C   UNL A   1      40.599  26.915  28.215  1.00  0.00     0.029 A 
ATOM     49  C   UNL A   1      41.592  27.007  29.279  1.00  0.00     0.049 A 
ATOM     50  H   UNL A   1      41.592  28.308  30.906  1.00  0.00     0.167 HD
ATOM     51  C   UNL A   1      41.470  31.111  34.270  1.00  0.00     0.031 A 
ATOM     52  C   UNL A   1      42.697  26.242  29.381  1.00  0.00     0.031 A 
ATOM     53  C   UNL A   1      42.630  30.292  34.502  1.00  0.00     0.049 A 
ATOM     54  C   UNL A   1      43.623  26.443  30.551  1.00  0.00     0.074 A 
ATOM     55  C   UNL A   1      43.512  30.331  35.567  1.00  0.00     0.029 A 
ATOM     56  N   UNL A   1      43.072  29.289  33.652  1.00  0.00    -0.354 N 
ATOM     57  N   UNL A   1      43.519  27.289  31.548  1.00  0.00    -0.248 NA
ATOM     58  C   UNL A   1      44.806  25.576  30.614  1.00  0.00     0.031 C 
ATOM     59  C   UNL A   1      44.520  29.389  35.334  1.00  0.00     0.029 A 
ATOM     60  C   UNL A   1      44.230  28.719  34.156  1.00  0.00     0.049 A 
ATOM     61  H   UNL A   1      42.629  29.020  32.815  1.00  0.00     0.167 HD
ATOM     62  C   UNL A   1      44.607  27.033  32.376  1.00  0.00     0.074 A 
ATOM     63  C   UNL A   1      45.347  25.945  31.768  1.00  0.00     0.031 C 
ATOM     64  C   UNL A   1      44.958  27.639  33.537  1.00  0.00     0.031 A 
BRANCH  51  65
ATOM     65  C   UNL A   1      41.165  32.222  35.243  1.00  0.00    -0.014 A 
ATOM     66  C   UNL A   1      40.293  32.023  36.329  1.00  0.00     0.010 A 
ATOM     67  C   UNL A   1      41.778  33.478  35.082  1.00  0.00     0.010 A 
ATOM     68  C   UNL A   1      39.997  33.072  37.203  1.00  0.00     0.020 A 
ATOM     69  C   UNL A   1      41.510  34.522  35.973  1.00  0.00     0.020 A 
ATOM     70  C   UNL A   1      40.604  34.318  37.015  1.00  0.00     0.054 A 
BRANCH  70  71
ATOM     71  S   UNL A   1      40.206  35.662  38.167  1.00  0.00     0.124 S 
ATOM     72  O   UNL A   1      39.132  35.068  38.961  1.00  0.00    -0.237 OA
ATOM     73  O   UNL A   1      41.469  35.863  38.872  1.00  0.00    -0.237 OA
ATOM     74  O   UNL A   1      39.801  36.759  37.294  1.00  0.00    -0.744 OA
ENDBRANCH  70  71
ENDBRANCH  51  65
BRANCH  52  75
ATOM     75  C   UNL A   1      42.974  25.193  28.360  1.00  0.00    -0.014 A 
ATOM     76  C   UNL A   1      43.737  25.497  27.218  1.00  0.00     0.010 A 
ATOM     77  C   UNL A   1      42.486  23.885  28.529  1.00  0.00     0.010 A 
ATOM     78  C   UNL A   1      43.991  24.515  26.255  1.00  0.00     0.020 A 
ATOM     79  C   UNL A   1      42.762  22.894  27.582  1.00  0.00     0.020 A 
ATOM     80  C   UNL A   1      43.504  23.220  26.445  1.00  0.00     0.054 A 
BRANCH  80  81
ATOM     81  S   UNL A   1      43.888  21.951  25.205  1.00  0.00     0.124 S 
ATOM     82  O   UNL A   1      43.789  22.705  23.959  1.00  0.00    -0.237 OA
ATOM     83  O   UNL A   1      45.234  21.534  25.589  1.00  0.00    -0.237 OA
ATOM     84  O   UNL A   1      42.850  20.945  25.413  1.00  0.00    -0.744 OA
ENDBRANCH  80  81
ENDBRANCH  52  75
BRANCH  64  85
ATOM     85  C   UNL A   1      46.177  27.114  34.250  1.00  0.00    -0.014 A 
ATOM     86  C   UNL A   1      47.456  27.643  34.004  1.00  0.00     0.010 A 
ATOM     87  C   UNL A   1      46.029  26.101  35.215  1.00  0.00     0.010 A 
ATOM     88  C   UNL A   1      48.570  27.142  34.683  1.00  0.00     0.020 A 
ATOM     89  C   UNL A   1      47.135  25.618  35.919  1.00  0.00     0.020 A 
ATOM     90  C   UNL A   1      48.402  26.132  35.635  1.00  0.00     0.054 A 
BRANCH  90  91
ATOM     91  S   UNL A   1      49.859  25.522  36.527  1.00  0.00     0.124 S 
ATOM     92  O   UNL A   1      49.688  24.074  36.434  1.00  0.00    -0.237 OA
ATOM     93  O   UNL A   1      50.965  26.076  35.750  1.00  0.00    -0.237 OA
ATOM     94  O   UNL A   1      49.705  26.082  37.868  1.00  0.00    -0.744 OA
ENDBRANCH  90  91
ENDBRANCH  64  85
ENDBRANCH  38  39
ENDBRANCH  30  33
ENDBRANCH  28  29
ENDBRANCH  27  28
ENDBRANCH  26  27
ENDBRANCH   1  26
TORSDOF 20
ENDMDL
MODEL 3
REMARK VINA RESULT:     -10.5      1.660      4.228
REMARK SMILES C[C@@H](C(=O)NCCCCCCNC(=O)c1ccc(-c2c3nc(c(-c4ccc(S(=O)(=O)[O-])cc4)c4ccc([nH]4)c(-c4ccc(S(=O)(=O)[O-])cc4)c4nc(c(-c5ccc(S(=O)(=O)[O-])cc5)c5ccc2[nH]5)C=C4)C=C3)cc1)c1ccc(N[C@H]2CCC[C@@H]2O)cc1F
REMARK SMILES IDX 8 1 7 2 6 3 5 4 3 5 4 6 2 8 1 9 75 10 76 11 87 12 77 13
REMARK SMILES IDX 86 14 88 15 78 16 79 17 80 19 81 20 84 21 82 22 83 23 85 24
REMARK SMILES IDX 9 26 10 27 11 28 12 29 13 30 14 32 15 33 16 34 74 35 17 36
REMARK SMILES IDX 73 37 18 38 19 39 20 40 67 41 21 42 72 43 66 44 68 45 22 46
REMARK SMILES IDX 71 47 65 48 64 49 23 51 53 52 34 53 52 54 35 55 38 56 51 57
REMARK SMILES IDX 69 58 36 59 37 60 50 62 70 63 39 64 24 65 25 66 33 67 26 68
REMARK SMILES IDX 32 69 27 70 28 71 29 72 30 73 31 74 54 75 55 76 63 77 56 78
REMARK SMILES IDX 62 79 57 80 58 81 59 82 60 83 61 84 40 85 41 86 49 87 42 88
REMARK SMILES IDX 48 89 43 90 44 91 45 92 46 93 47 94
REMARK H PARENT 5 7 79 18 85 25 12 31 68 50 38 61
REMARK Flexibility Score: inf
ROOT
ATOM      1  C   UNL A   1      33.186  25.437  26.232  1.00  0.00     0.002 C 
ENDROOT
BRANCH   1   2
ATOM      2  C   UNL A   1      32.091  24.519  26.792  1.00  0.00     0.021 C 
BRANCH   2   3
ATOM      3  C   UNL A   1      32.361  23.033  26.557  1.00  0.00     0.116 C 
BRANCH   3   4
ATOM      4  N   UNL A   1      33.439  22.865  25.605  1.00  0.00    -0.356 N 
ATOM      5  C   UNL A   1      33.388  22.536  24.283  1.00  0.00     0.227 C 
ATOM      6  O   UNL A   1      34.466  22.327  23.721  1.00  0.00    -0.274 OA
ATOM      7  H   UNL A   1      34.343  23.010  25.967  1.00  0.00     0.163 HD
BRANCH   5   8
ATOM      8  C   UNL A   1      32.036  22.527  23.555  1.00  0.00     0.108 C 
ATOM      9  C   UNL A   1      32.015  21.662  22.290  1.00  0.00     0.023 C 
BRANCH   8  10
ATOM     10  C   UNL A   1      31.563  23.936  23.247  1.00  0.00     0.000 A 
ATOM     11  C   UNL A   1      30.377  24.416  23.807  1.00  0.00     0.009 A 
ATOM     12  C   UNL A   1      32.287  24.796  22.420  1.00  0.00     0.129 A 
ATOM     13  C   UNL A   1      29.926  25.708  23.514  1.00  0.00     0.026 A 
ATOM     14  C   UNL A   1      31.833  26.081  22.132  1.00  0.00     0.065 A 
ATOM     15  F   UNL A   1      33.441  24.394  21.868  1.00  0.00    -0.207 F 
ATOM     16  C   UNL A   1      30.641  26.569  22.678  1.00  0.00     0.037 A 
BRANCH  16  17
ATOM     17  N   UNL A   1      30.228  27.835  22.321  1.00  0.00    -0.380 N 
ATOM     18  H   UNL A   1      30.540  28.147  21.441  1.00  0.00     0.160 HD
BRANCH  17  19
ATOM     19  C   UNL A   1      29.396  28.780  23.057  1.00  0.00     0.107 C 
ATOM     20  C   UNL A   1      29.791  30.248  22.863  1.00  0.00     0.027 C 
ATOM     21  C   UNL A   1      27.896  28.681  22.730  1.00  0.00     0.136 C 
ATOM     22  C   UNL A   1      28.487  31.002  22.599  1.00  0.00     0.005 C 
ATOM     23  C   UNL A   1      27.378  30.071  23.068  1.00  0.00     0.034 C 
BRANCH  21  24
ATOM     24  O   UNL A   1      27.246  27.701  23.532  1.00  0.00    -0.391 OA
ATOM     25  H   UNL A   1      27.223  28.000  24.455  1.00  0.00     0.211 HD
ENDBRANCH  21  24
ENDBRANCH  17  19
ENDBRANCH  16  17
ENDBRANCH   8  10
ENDBRANCH   5   8
ENDBRANCH   3   4
ENDBRANCH   2   3
ENDBRANCH   1   2
BRANCH   1  26
ATOM     26  C   UNL A   1      32.677  26.750  25.630  1.00  0.00     0.002 C 
BRANCH  26  27
ATOM     27  C   UNL A   1      33.652  27.924  25.741  1.00  0.00     0.021 C 
BRANCH  27  28
ATOM     28  C   UNL A   1      34.061  28.266  27.169  1.00  0.00     0.116 C 
BRANCH  28  29
ATOM     29  N   UNL A   1      33.810  29.664  27.482  1.00  0.00    -0.352 N 
ATOM     30  C   UNL A   1      34.606  30.555  28.150  1.00  0.00     0.251 C 
ATOM     31  H   UNL A   1      32.945  30.018  27.170  1.00  0.00     0.163 HD
ATOM     32  O   UNL A   1      34.143  31.635  28.520  1.00  0.00    -0.269 OA
BRANCH  30  33
ATOM     33  C   UNL A   1      36.014  30.214  28.438  1.00  0.00     0.039 A 
ATOM     34  C   UNL A   1      36.352  29.750  29.711  1.00  0.00     0.014 A 
ATOM     35  C   UNL A   1      37.001  30.364  27.459  1.00  0.00     0.014 A 
ATOM     36  C   UNL A   1      37.675  29.397  29.990  1.00  0.00     0.010 A 
ATOM     37  C   UNL A   1      38.302  29.939  27.715  1.00  0.00     0.010 A 
ATOM     38  C   UNL A   1      38.656  29.466  28.987  1.00  0.00    -0.014 A 
BRANCH  38  39
ATOM     39  C   UNL A   1      40.059  29.063  29.258  1.00  0.00     0.031 A 
ATOM     40  C   UNL A   1      41.011  30.032  29.909  1.00  0.00     0.074 A 
ATOM     41  C   UNL A   1      40.490  27.844  28.877  1.00  0.00     0.049 A 
ATOM     42  N   UNL A   1      42.275  29.872  30.206  1.00  0.00    -0.248 NA
ATOM     43  C   UNL A   1      40.479  31.362  30.250  1.00  0.00     0.031 C 
ATOM     44  C   UNL A   1      39.675  26.830  28.204  1.00  0.00     0.029 A 
ATOM     45  N   UNL A   1      41.721  27.251  29.003  1.00  0.00    -0.354 N 
ATOM     46  C   UNL A   1      42.692  31.082  30.751  1.00  0.00     0.074 A 
ATOM     47  C   UNL A   1      41.562  31.982  30.692  1.00  0.00     0.031 C 
ATOM     48  C   UNL A   1      40.417  25.727  28.014  1.00  0.00     0.029 A 
ATOM     49  C   UNL A   1      41.767  25.969  28.509  1.00  0.00     0.049 A 
ATOM     50  H   UNL A   1      42.496  27.701  29.408  1.00  0.00     0.167 HD
ATOM     51  C   UNL A   1      43.899  31.408  31.271  1.00  0.00     0.031 A 
ATOM     52  C   UNL A   1      42.784  25.085  28.463  1.00  0.00     0.031 A 
ATOM     53  C   UNL A   1      45.019  30.506  31.335  1.00  0.00     0.049 A 
ATOM     54  C   UNL A   1      44.120  25.476  29.033  1.00  0.00     0.074 A 
ATOM     55  C   UNL A   1      46.266  30.720  31.893  1.00  0.00     0.029 A 
ATOM     56  N   UNL A   1      45.026  29.218  30.819  1.00  0.00    -0.354 N 
ATOM     57  N   UNL A   1      44.476  26.601  29.606  1.00  0.00    -0.248 NA
ATOM     58  C   UNL A   1      45.188  24.470  28.962  1.00  0.00     0.031 C 
ATOM     59  C   UNL A   1      47.048  29.582  31.664  1.00  0.00     0.029 A 
ATOM     60  C   UNL A   1      46.267  28.635  31.022  1.00  0.00     0.049 A 
ATOM     61  H   UNL A   1      44.264  28.782  30.374  1.00  0.00     0.167 HD
ATOM     62  C   UNL A   1      45.800  26.427  29.993  1.00  0.00     0.074 A 
ATOM     63  C   UNL A   1      46.176  25.083  29.601  1.00  0.00     0.031 C 
ATOM     64  C   UNL A   1      46.627  27.297  30.622  1.00  0.00     0.031 A 
BRANCH  51  65
ATOM     65  C   UNL A   1      44.072  32.809  31.801  1.00  0.00    -0.014 A 
ATOM     66  C   UNL A   1      43.786  33.124  33.142  1.00  0.00     0.010 A 
ATOM     67  C   UNL A   1      44.549  33.823  30.949  1.00  0.00     0.010 A 
ATOM     68  C   UNL A   1      43.921  34.435  33.608  1.00  0.00     0.020 A 
ATOM     69  C   UNL A   1      44.717  35.130  31.420  1.00  0.00     0.020 A 
ATOM     70  C   UNL A   1      44.381  35.431  32.741  1.00  0.00     0.054 A 
BRANCH  70  71
ATOM     71  S   UNL A   1      44.552  37.123  33.373  1.00  0.00     0.124 S 
ATOM     72  O   UNL A   1      44.179  36.958  34.776  1.00  0.00    -0.237 OA
ATOM     73  O   UNL A   1      45.963  37.414  33.130  1.00  0.00    -0.237 OA
ATOM     74  O   UNL A   1      43.611  37.892  32.563  1.00  0.00    -0.744 OA
ENDBRANCH  70  71
ENDBRANCH  51  65
BRANCH  52  75
ATOM     75  C   UNL A   1      42.567  23.731  27.880  1.00  0.00    -0.014 A 
ATOM     76  C   UNL A   1      42.791  23.503  26.511  1.00  0.00     0.010 A 
ATOM     77  C   UNL A   1      42.148  22.662  28.693  1.00  0.00     0.010 A 
ATOM     78  C   UNL A   1      42.581  22.234  25.961  1.00  0.00     0.020 A 
ATOM     79  C   UNL A   1      41.965  21.386  28.152  1.00  0.00     0.020 A 
ATOM     80  C   UNL A   1      42.172  21.184  26.786  1.00  0.00     0.054 A 
BRANCH  80  81
ATOM     81  S   UNL A   1      41.955  19.536  26.059  1.00  0.00     0.124 S 
ATOM     82  O   UNL A   1      42.390  18.665  27.146  1.00  0.00    -0.237 OA
ATOM     83  O   UNL A   1      40.526  19.510  25.758  1.00  0.00    -0.237 OA
ATOM     84  O   UNL A   1      42.830  19.561  24.888  1.00  0.00    -0.744 OA
ENDBRANCH  80  81
ENDBRANCH  52  75
BRANCH  64  85
ATOM     85  C   UNL A   1      48.012  26.812  30.963  1.00  0.00    -0.014 A 
ATOM     86  C   UNL A   1      49.105  27.054  30.113  1.00  0.00     0.010 A 
ATOM     87  C   UNL A   1      48.227  26.138  32.180  1.00  0.00     0.010 A 
ATOM     88  C   UNL A   1      50.381  26.598  30.455  1.00  0.00     0.020 A 
ATOM     89  C   UNL A   1      49.506  25.708  32.540  1.00  0.00     0.020 A 
ATOM     90  C   UNL A   1      50.573  25.926  31.666  1.00  0.00     0.054 A 
BRANCH  90  91
ATOM     91  S   UNL A   1      52.245  25.374  32.102  1.00  0.00     0.124 S 
ATOM     92  O   UNL A   1      52.994  25.687  30.888  1.00  0.00    -0.237 OA
ATOM     93  O   UNL A   1      52.560  26.197  33.267  1.00  0.00    -0.237 OA
ATOM     94  O   UNL A   1      52.078  23.949  32.380  1.00  0.00    -0.744 OA
ENDBRANCH  90  91
ENDBRANCH  64  85
ENDBRANCH  38  39
ENDBRANCH  30  33
ENDBRANCH  28  29
ENDBRANCH  27  28
ENDBRANCH  26  27
ENDBRANCH   1  26
TORSDOF 20
ENDMDL
