MODEL 1
REMARK VINA RESULT:     -11.4      0.000      0.000
REMARK SMILES CCc1n[nH]c2cc(CCC(=O)NCCCCCCNC(=O)c3ccc(-c4c5nc(c(-c6ccc(S(=O)(=O)[O-])cc6)c6ccc([nH]6)c(-c6ccc(S(=O)(=O)[O-])cc6)c6nc(c(-c7ccc(S(=O)(=O)[O-])cc7)c7ccc4[nH]7)C=C6)C=C5)cc3)ccc12
REMARK SMILES IDX 16 1 15 2 14 3 13 4 11 5 12 6 10 8 9 9 8 10 3 11 4 12 85 13
REMARK SMILES IDX 5 14 6 15 84 16 7 18 83 19 2 20 1 21 17 22 18 23 19 24 20 25
REMARK SMILES IDX 21 26 22 28 23 29 24 30 82 31 25 32 81 33 26 34 27 35 28 36
REMARK SMILES IDX 75 37 29 38 80 39 74 40 76 41 30 42 79 43 73 44 72 45 31 47
REMARK SMILES IDX 61 48 42 49 60 50 43 51 46 52 59 53 77 54 44 55 45 56 58 58
REMARK SMILES IDX 78 59 47 60 32 61 33 62 41 63 34 64 40 65 35 66 36 67 37 68
REMARK SMILES IDX 38 69 39 70 62 71 63 72 71 73 64 74 70 75 65 76 66 77 67 78
REMARK SMILES IDX 68 79 69 80 48 81 49 82 57 83 50 84 56 85 51 86 52 87 53 88
REMARK SMILES IDX 54 89 55 90
REMARK H PARENT 13 7 5 17 20 27 76 46 46 57
REMARK Flexibility Score: inf
ROOT
ATOM      1  C   UNL A   1      32.803  29.152  27.232  1.00  0.00     0.002 C 
ENDROOT
BRANCH   1   2
ATOM      2  C   UNL A   1      32.293  28.184  26.163  1.00  0.00     0.021 C 
BRANCH   2   3
ATOM      3  C   UNL A   1      32.518  26.696  26.432  1.00  0.00     0.116 C 
BRANCH   3   4
ATOM      4  N   UNL A   1      33.657  26.217  25.665  1.00  0.00    -0.356 N 
ATOM      5  C   UNL A   1      33.772  25.110  24.877  1.00  0.00     0.220 C 
ATOM      6  O   UNL A   1      34.904  24.752  24.539  1.00  0.00    -0.275 OA
ATOM      7  H   UNL A   1      34.466  26.775  25.724  1.00  0.00     0.163 HD
BRANCH   5   8
ATOM      8  C   UNL A   1      32.547  24.364  24.382  1.00  0.00     0.105 C 
BRANCH   8   9
ATOM      9  C   UNL A   1      32.051  24.837  23.011  1.00  0.00     0.045 C 
BRANCH   9  10
ATOM     10  C   UNL A   1      31.224  26.101  23.083  1.00  0.00    -0.045 A 
ATOM     11  C   UNL A   1      28.927  29.566  22.562  1.00  0.00     0.070 A 
ATOM     12  N   UNL A   1      29.771  30.310  21.830  1.00  0.00    -0.180 NA
ATOM     13  C   UNL A   1      29.517  28.328  22.943  1.00  0.00     0.023 A 
ATOM     14  N   UNL A   1      30.895  29.576  21.789  1.00  0.00    -0.278 N 
ATOM     15  C   UNL A   1      30.797  28.359  22.407  1.00  0.00     0.066 A 
ATOM     16  C   UNL A   1      29.108  27.189  23.654  1.00  0.00     0.012 A 
ATOM     17  H   UNL A   1      31.721  29.889  21.351  1.00  0.00     0.190 HD
ATOM     18  C   UNL A   1      31.690  27.282  22.484  1.00  0.00     0.032 A 
ATOM     19  C   UNL A   1      29.967  26.082  23.707  1.00  0.00     0.004 A 
BRANCH  11  20
ATOM     20  C   UNL A   1      27.553  30.062  22.876  1.00  0.00     0.055 C 
ATOM     21  C   UNL A   1      27.532  31.391  23.619  1.00  0.00     0.011 C 
ENDBRANCH  11  20
ENDBRANCH   9  10
ENDBRANCH   8   9
ENDBRANCH   5   8
ENDBRANCH   3   4
ENDBRANCH   2   3
ENDBRANCH   1   2
BRANCH   1  22
ATOM     22  C   UNL A   1      33.274  30.518  26.712  1.00  0.00     0.002 C 
BRANCH  22  23
ATOM     23  C   UNL A   1      34.242  31.300  27.616  1.00  0.00     0.021 C 
BRANCH  23  24
ATOM     24  C   UNL A   1      35.485  30.535  28.077  1.00  0.00     0.116 C 
BRANCH  24  25
ATOM     25  N   UNL A   1      35.488  30.259  29.502  1.00  0.00    -0.352 N 
ATOM     26  C   UNL A   1      36.483  29.774  30.322  1.00  0.00     0.251 C 
ATOM     27  H   UNL A   1      34.636  30.448  29.960  1.00  0.00     0.163 HD
ATOM     28  O   UNL A   1      36.207  29.515  31.492  1.00  0.00    -0.269 OA
BRANCH  26  29
ATOM     29  C   UNL A   1      37.864  29.511  29.833  1.00  0.00     0.039 A 
ATOM     30  C   UNL A   1      38.864  29.277  30.784  1.00  0.00     0.014 A 
ATOM     31  C   UNL A   1      38.218  29.560  28.483  1.00  0.00     0.014 A 
ATOM     32  C   UNL A   1      40.185  29.025  30.386  1.00  0.00     0.010 A 
ATOM     33  C   UNL A   1      39.529  29.254  28.084  1.00  0.00     0.010 A 
ATOM     34  C   UNL A   1      40.531  28.967  29.027  1.00  0.00    -0.014 A 
BRANCH  34  35
ATOM     35  C   UNL A   1      41.914  28.596  28.594  1.00  0.00     0.031 A 
ATOM     36  C   UNL A   1      43.012  29.632  28.520  1.00  0.00     0.074 A 
ATOM     37  C   UNL A   1      42.195  27.326  28.227  1.00  0.00     0.049 A 
ATOM     38  N   UNL A   1      44.256  29.490  28.130  1.00  0.00    -0.248 NA
ATOM     39  C   UNL A   1      42.665  31.004  28.921  1.00  0.00     0.031 C 
ATOM     40  C   UNL A   1      41.243  26.214  28.224  1.00  0.00     0.029 A 
ATOM     41  N   UNL A   1      43.366  26.754  27.780  1.00  0.00    -0.354 N 
ATOM     42  C   UNL A   1      44.835  30.753  28.226  1.00  0.00     0.074 A 
ATOM     43  C   UNL A   1      43.791  31.655  28.666  1.00  0.00     0.031 C 
ATOM     44  C   UNL A   1      41.870  25.096  27.826  1.00  0.00     0.029 A 
ATOM     45  C   UNL A   1      43.257  25.411  27.495  1.00  0.00     0.049 A 
ATOM     46  H   UNL A   1      44.204  27.260  27.674  1.00  0.00     0.167 HD
ATOM     47  C   UNL A   1      46.115  31.131  27.989  1.00  0.00     0.031 A 
ATOM     48  C   UNL A   1      44.156  24.528  27.014  1.00  0.00     0.031 A 
ATOM     49  C   UNL A   1      47.165  30.242  27.557  1.00  0.00     0.049 A 
ATOM     50  C   UNL A   1      45.564  24.978  26.720  1.00  0.00     0.074 A 
ATOM     51  C   UNL A   1      48.501  30.535  27.338  1.00  0.00     0.029 A 
ATOM     52  N   UNL A   1      47.003  28.895  27.273  1.00  0.00    -0.354 N 
ATOM     53  N   UNL A   1      46.098  26.166  26.871  1.00  0.00    -0.248 NA
ATOM     54  C   UNL A   1      46.494  23.964  26.200  1.00  0.00     0.031 C 
ATOM     55  C   UNL A   1      49.132  29.383  26.861  1.00  0.00     0.029 A 
ATOM     56  C   UNL A   1      48.207  28.352  26.855  1.00  0.00     0.049 A 
ATOM     57  H   UNL A   1      46.157  28.398  27.355  1.00  0.00     0.167 HD
ATOM     58  C   UNL A   1      47.434  26.030  26.504  1.00  0.00     0.074 A 
ATOM     59  C   UNL A   1      47.629  24.647  26.127  1.00  0.00     0.031 C 
ATOM     60  C   UNL A   1      48.409  26.971  26.492  1.00  0.00     0.031 A 
BRANCH  47  61
ATOM     61  C   UNL A   1      46.463  32.586  28.180  1.00  0.00    -0.014 A 
ATOM     62  C   UNL A   1      46.366  33.505  27.119  1.00  0.00     0.010 A 
ATOM     63  C   UNL A   1      46.837  33.054  29.454  1.00  0.00     0.010 A 
ATOM     64  C   UNL A   1      46.683  34.852  27.316  1.00  0.00     0.020 A 
ATOM     65  C   UNL A   1      47.123  34.407  29.663  1.00  0.00     0.020 A 
ATOM     66  C   UNL A   1      47.062  35.294  28.587  1.00  0.00     0.054 A 
BRANCH  66  67
ATOM     67  S   UNL A   1      47.452  37.050  28.816  1.00  0.00     0.124 S 
ATOM     68  O   UNL A   1      47.844  37.450  27.467  1.00  0.00    -0.237 OA
ATOM     69  O   UNL A   1      46.184  37.601  29.290  1.00  0.00    -0.237 OA
ATOM     70  O   UNL A   1      48.531  37.043  29.800  1.00  0.00    -0.744 OA
ENDBRANCH  66  67
ENDBRANCH  47  61
BRANCH  48  71
ATOM     71  C   UNL A   1      43.756  23.112  26.776  1.00  0.00    -0.014 A 
ATOM     72  C   UNL A   1      44.159  22.436  25.611  1.00  0.00     0.010 A 
ATOM     73  C   UNL A   1      42.961  22.430  27.717  1.00  0.00     0.010 A 
ATOM     74  C   UNL A   1      43.761  21.115  25.381  1.00  0.00     0.020 A 
ATOM     75  C   UNL A   1      42.587  21.100  27.506  1.00  0.00     0.020 A 
ATOM     76  C   UNL A   1      42.979  20.455  26.332  1.00  0.00     0.054 A 
BRANCH  76  77
ATOM     77  S   UNL A   1      42.513  18.726  26.037  1.00  0.00     0.124 S 
ATOM     78  O   UNL A   1      43.410  18.351  24.949  1.00  0.00    -0.237 OA
ATOM     79  O   UNL A   1      42.788  18.101  27.329  1.00  0.00    -0.237 OA
ATOM     80  O   UNL A   1      41.098  18.809  25.682  1.00  0.00    -0.744 OA
ENDBRANCH  76  77
ENDBRANCH  48  71
BRANCH  60  81
ATOM     81  C   UNL A   1      49.805  26.543  26.113  1.00  0.00    -0.014 A 
ATOM     82  C   UNL A   1      50.345  26.818  24.844  1.00  0.00     0.010 A 
ATOM     83  C   UNL A   1      50.618  25.919  27.079  1.00  0.00     0.010 A 
ATOM     84  C   UNL A   1      51.664  26.462  24.544  1.00  0.00     0.020 A 
ATOM     85  C   UNL A   1      51.946  25.588  26.793  1.00  0.00     0.020 A 
ATOM     86  C   UNL A   1      52.458  25.853  25.523  1.00  0.00     0.054 A 
BRANCH  86  87
ATOM     87  S   UNL A   1      54.186  25.463  25.129  1.00  0.00     0.124 S 
ATOM     88  O   UNL A   1      54.176  24.002  25.128  1.00  0.00    -0.237 OA
ATOM     89  O   UNL A   1      54.367  26.090  23.823  1.00  0.00    -0.237 OA
ATOM     90  O   UNL A   1      54.938  26.078  26.220  1.00  0.00    -0.744 OA
ENDBRANCH  86  87
ENDBRANCH  60  81
ENDBRANCH  34  35
ENDBRANCH  26  29
ENDBRANCH  24  25
ENDBRANCH  23  24
ENDBRANCH  22  23
ENDBRANCH   1  22
TORSDOF 19
ENDMDL
MODEL 2
REMARK VINA RESULT:     -11.0      3.033      9.154
REMARK SMILES CCc1n[nH]c2cc(CCC(=O)NCCCCCCNC(=O)c3ccc(-c4c5nc(c(-c6ccc(S(=O)(=O)[O-])cc6)c6ccc([nH]6)c(-c6ccc(S(=O)(=O)[O-])cc6)c6nc(c(-c7ccc(S(=O)(=O)[O-])cc7)c7ccc4[nH]7)C=C6)C=C5)cc3)ccc12
REMARK SMILES IDX 16 1 15 2 14 3 13 4 11 5 12 6 10 8 9 9 8 10 3 11 4 12 85 13
REMARK SMILES IDX 5 14 6 15 84 16 7 18 83 19 2 20 1 21 17 22 18 23 19 24 20 25
REMARK SMILES IDX 21 26 22 28 23 29 24 30 82 31 25 32 81 33 26 34 27 35 28 36
REMARK SMILES IDX 75 37 29 38 80 39 74 40 76 41 30 42 79 43 73 44 72 45 31 47
REMARK SMILES IDX 61 48 42 49 60 50 43 51 46 52 59 53 77 54 44 55 45 56 58 58
REMARK SMILES IDX 78 59 47 60 32 61 33 62 41 63 34 64 40 65 35 66 36 67 37 68
REMARK SMILES IDX 38 69 39 70 62 71 63 72 71 73 64 74 70 75 65 76 66 77 67 78
REMARK SMILES IDX 68 79 69 80 48 81 49 82 57 83 50 84 56 85 51 86 52 87 53 88
REMARK SMILES IDX 54 89 55 90
REMARK H PARENT 13 7 5 17 20 27 76 46 46 57
REMARK Flexibility Score: inf
ROOT
ATOM      1  C   UNL A   1      34.354  22.147  23.828  1.00  0.00     0.002 C 
ENDROOT
BRANCH   1   2
ATOM      2  C   UNL A   1      34.039  21.060  24.856  1.00  0.00     0.021 C 
BRANCH   2   3
ATOM      3  C   UNL A   1      32.577  20.931  25.282  1.00  0.00     0.116 C 
BRANCH   3   4
ATOM      4  N   UNL A   1      32.271  21.906  26.317  1.00  0.00    -0.356 N 
ATOM      5  C   UNL A   1      31.623  23.101  26.222  1.00  0.00     0.220 C 
ATOM      6  O   UNL A   1      31.712  23.887  27.170  1.00  0.00    -0.275 OA
ATOM      7  H   UNL A   1      32.578  21.666  27.222  1.00  0.00     0.163 HD
BRANCH   5   8
ATOM      8  C   UNL A   1      30.774  23.444  25.013  1.00  0.00     0.105 C 
BRANCH   8   9
ATOM      9  C   UNL A   1      31.491  24.330  23.989  1.00  0.00     0.045 C 
BRANCH   9  10
ATOM     10  C   UNL A   1      30.813  25.666  23.780  1.00  0.00    -0.045 A 
ATOM     11  C   UNL A   1      28.977  29.207  22.501  1.00  0.00     0.070 A 
ATOM     12  N   UNL A   1      29.953  29.727  21.740  1.00  0.00    -0.180 NA
ATOM     13  C   UNL A   1      29.390  27.998  23.128  1.00  0.00     0.023 A 
ATOM     14  N   UNL A   1      30.985  28.887  21.921  1.00  0.00    -0.278 N 
ATOM     15  C   UNL A   1      30.702  27.808  22.715  1.00  0.00     0.066 A 
ATOM     16  C   UNL A   1      28.800  27.044  23.972  1.00  0.00     0.012 A 
ATOM     17  H   UNL A   1      31.872  29.035  21.518  1.00  0.00     0.190 HD
ATOM     18  C   UNL A   1      31.455  26.675  23.046  1.00  0.00     0.032 A 
ATOM     19  C   UNL A   1      29.519  25.880  24.280  1.00  0.00     0.004 A 
BRANCH  11  20
ATOM     20  C   UNL A   1      27.650  29.887  22.602  1.00  0.00     0.055 C 
ATOM     21  C   UNL A   1      27.742  31.381  22.876  1.00  0.00     0.011 C 
ENDBRANCH  11  20
ENDBRANCH   9  10
ENDBRANCH   8   9
ENDBRANCH   5   8
ENDBRANCH   3   4
ENDBRANCH   2   3
ENDBRANCH   1   2
BRANCH   1  22
ATOM     22  C   UNL A   1      35.790  22.690  23.862  1.00  0.00     0.002 C 
BRANCH  22  23
ATOM     23  C   UNL A   1      36.063  23.849  24.835  1.00  0.00     0.021 C 
BRANCH  23  24
ATOM     24  C   UNL A   1      36.632  23.452  26.199  1.00  0.00     0.116 C 
BRANCH  24  25
ATOM     25  N   UNL A   1      37.629  22.399  26.117  1.00  0.00    -0.352 N 
ATOM     26  C   UNL A   1      38.989  22.430  26.329  1.00  0.00     0.251 C 
ATOM     27  H   UNL A   1      37.273  21.515  25.867  1.00  0.00     0.163 HD
ATOM     28  O   UNL A   1      39.645  21.419  26.085  1.00  0.00    -0.269 OA
BRANCH  26  29
ATOM     29  C   UNL A   1      39.697  23.653  26.797  1.00  0.00     0.039 A 
ATOM     30  C   UNL A   1      39.811  24.728  25.907  1.00  0.00     0.014 A 
ATOM     31  C   UNL A   1      40.311  23.747  28.048  1.00  0.00     0.014 A 
ATOM     32  C   UNL A   1      40.468  25.906  26.290  1.00  0.00     0.010 A 
ATOM     33  C   UNL A   1      40.921  24.948  28.447  1.00  0.00     0.010 A 
ATOM     34  C   UNL A   1      40.997  26.051  27.582  1.00  0.00    -0.014 A 
BRANCH  34  35
ATOM     35  C   UNL A   1      41.607  27.342  28.030  1.00  0.00     0.031 A 
ATOM     36  C   UNL A   1      43.101  27.562  27.968  1.00  0.00     0.074 A 
ATOM     37  C   UNL A   1      40.827  28.325  28.532  1.00  0.00     0.049 A 
ATOM     38  N   UNL A   1      43.799  28.605  28.349  1.00  0.00    -0.248 NA
ATOM     39  C   UNL A   1      43.915  26.466  27.421  1.00  0.00     0.031 C 
ATOM     40  C   UNL A   1      39.372  28.262  28.676  1.00  0.00     0.029 A 
ATOM     41  N   UNL A   1      41.149  29.572  29.020  1.00  0.00    -0.354 N 
ATOM     42  C   UNL A   1      45.131  28.287  28.102  1.00  0.00     0.074 A 
ATOM     43  C   UNL A   1      45.144  26.935  27.581  1.00  0.00     0.031 C 
ATOM     44  C   UNL A   1      38.927  29.422  29.186  1.00  0.00     0.029 A 
ATOM     45  C   UNL A   1      40.063  30.298  29.456  1.00  0.00     0.049 A 
ATOM     46  H   UNL A   1      42.073  29.913  29.054  1.00  0.00     0.167 HD
ATOM     47  C   UNL A   1      46.241  29.046  28.273  1.00  0.00     0.031 A 
ATOM     48  C   UNL A   1      39.979  31.522  30.017  1.00  0.00     0.031 A 
ATOM     49  C   UNL A   1      46.240  30.394  28.784  1.00  0.00     0.049 A 
ATOM     50  C   UNL A   1      41.230  32.334  30.235  1.00  0.00     0.074 A 
ATOM     51  C   UNL A   1      47.317  31.250  28.946  1.00  0.00     0.029 A 
ATOM     52  N   UNL A   1      45.118  31.081  29.220  1.00  0.00    -0.354 N 
ATOM     53  N   UNL A   1      42.471  32.030  29.942  1.00  0.00    -0.248 NA
ATOM     54  C   UNL A   1      41.066  33.661  30.850  1.00  0.00     0.031 C 
ATOM     55  C   UNL A   1      46.857  32.430  29.538  1.00  0.00     0.029 A 
ATOM     56  C   UNL A   1      45.482  32.338  29.676  1.00  0.00     0.049 A 
ATOM     57  H   UNL A   1      44.200  30.727  29.209  1.00  0.00     0.167 HD
ATOM     58  C   UNL A   1      43.228  33.142  30.299  1.00  0.00     0.074 A 
ATOM     59  C   UNL A   1      42.308  34.127  30.826  1.00  0.00     0.031 C 
ATOM     60  C   UNL A   1      44.566  33.328  30.189  1.00  0.00     0.031 A 
BRANCH  47  61
ATOM     61  C   UNL A   1      47.571  28.432  27.914  1.00  0.00    -0.014 A 
ATOM     62  C   UNL A   1      48.248  27.582  28.807  1.00  0.00     0.010 A 
ATOM     63  C   UNL A   1      48.127  28.664  26.641  1.00  0.00     0.010 A 
ATOM     64  C   UNL A   1      49.476  27.014  28.454  1.00  0.00     0.020 A 
ATOM     65  C   UNL A   1      49.339  28.072  26.271  1.00  0.00     0.020 A 
ATOM     66  C   UNL A   1      50.015  27.265  27.188  1.00  0.00     0.054 A 
BRANCH  66  67
ATOM     67  S   UNL A   1      51.601  26.503  26.753  1.00  0.00     0.124 S 
ATOM     68  O   UNL A   1      51.662  26.733  25.312  1.00  0.00    -0.237 OA
ATOM     69  O   UNL A   1      52.555  27.269  27.552  1.00  0.00    -0.237 OA
ATOM     70  O   UNL A   1      51.439  25.107  27.152  1.00  0.00    -0.744 OA
ENDBRANCH  66  67
ENDBRANCH  47  61
BRANCH  48  71
ATOM     71  C   UNL A   1      38.651  32.067  30.420  1.00  0.00    -0.014 A 
ATOM     72  C   UNL A   1      37.931  32.916  29.562  1.00  0.00     0.010 A 
ATOM     73  C   UNL A   1      38.101  31.741  31.675  1.00  0.00     0.010 A 
ATOM     74  C   UNL A   1      36.697  33.444  29.955  1.00  0.00     0.020 A 
ATOM     75  C   UNL A   1      36.853  32.242  32.058  1.00  0.00     0.020 A 
ATOM     76  C   UNL A   1      36.164  33.100  31.200  1.00  0.00     0.054 A 
BRANCH  76  77
ATOM     77  S   UNL A   1      34.540  33.758  31.671  1.00  0.00     0.124 S 
ATOM     78  O   UNL A   1      33.995  32.672  32.479  1.00  0.00    -0.237 OA
ATOM     79  O   UNL A   1      34.891  34.975  32.398  1.00  0.00    -0.237 OA
ATOM     80  O   UNL A   1      33.876  33.977  30.388  1.00  0.00    -0.744 OA
ENDBRANCH  76  77
ENDBRANCH  48  71
BRANCH  60  81
ATOM     81  C   UNL A   1      45.133  34.667  30.588  1.00  0.00    -0.014 A 
ATOM     82  C   UNL A   1      45.226  35.733  29.677  1.00  0.00     0.010 A 
ATOM     83  C   UNL A   1      45.509  34.881  31.929  1.00  0.00     0.010 A 
ATOM     84  C   UNL A   1      45.699  36.982  30.094  1.00  0.00     0.020 A 
ATOM     85  C   UNL A   1      45.955  36.135  32.356  1.00  0.00     0.020 A 
ATOM     86  C   UNL A   1      46.057  37.176  31.433  1.00  0.00     0.054 A 
BRANCH  86  87
ATOM     87  S   UNL A   1      46.604  38.824  31.962  1.00  0.00     0.124 S 
ATOM     88  O   UNL A   1      45.647  39.695  31.284  1.00  0.00    -0.237 OA
ATOM     89  O   UNL A   1      46.470  38.755  33.415  1.00  0.00    -0.237 OA
ATOM     90  O   UNL A   1      47.977  38.908  31.471  1.00  0.00    -0.744 OA
ENDBRANCH  86  87
ENDBRANCH  60  81
ENDBRANCH  34  35
ENDBRANCH  26  29
ENDBRANCH  24  25
ENDBRANCH  23  24
ENDBRANCH  22  23
ENDBRANCH   1  22
TORSDOF 19
ENDMDL
MODEL 3
REMARK VINA RESULT:     -11.0      3.656      5.401
REMARK SMILES CCc1n[nH]c2cc(CCC(=O)NCCCCCCNC(=O)c3ccc(-c4c5nc(c(-c6ccc(S(=O)(=O)[O-])cc6)c6ccc([nH]6)c(-c6ccc(S(=O)(=O)[O-])cc6)c6nc(c(-c7ccc(S(=O)(=O)[O-])cc7)c7ccc4[nH]7)C=C6)C=C5)cc3)ccc12
REMARK SMILES IDX 16 1 15 2 14 3 13 4 11 5 12 6 10 8 9 9 8 10 3 11 4 12 85 13
REMARK SMILES IDX 5 14 6 15 84 16 7 18 83 19 2 20 1 21 17 22 18 23 19 24 20 25
REMARK SMILES IDX 21 26 22 28 23 29 24 30 82 31 25 32 81 33 26 34 27 35 28 36
REMARK SMILES IDX 75 37 29 38 80 39 74 40 76 41 30 42 79 43 73 44 72 45 31 47
REMARK SMILES IDX 61 48 42 49 60 50 43 51 46 52 59 53 77 54 44 55 45 56 58 58
REMARK SMILES IDX 78 59 47 60 32 61 33 62 41 63 34 64 40 65 35 66 36 67 37 68
REMARK SMILES IDX 38 69 39 70 62 71 63 72 71 73 64 74 70 75 65 76 66 77 67 78
REMARK SMILES IDX 68 79 69 80 48 81 49 82 57 83 50 84 56 85 51 86 52 87 53 88
REMARK SMILES IDX 54 89 55 90
REMARK H PARENT 13 7 5 17 20 27 76 46 46 57
REMARK Flexibility Score: inf
ROOT
ATOM      1  C   UNL A   1      31.436  29.149  24.969  1.00  0.00     0.002 C 
ENDROOT
BRANCH   1   2
ATOM      2  C   UNL A   1      31.589  28.799  23.489  1.00  0.00     0.021 C 
BRANCH   2   3
ATOM      3  C   UNL A   1      33.019  28.700  22.958  1.00  0.00     0.116 C 
BRANCH   3   4
ATOM      4  N   UNL A   1      33.086  27.723  21.883  1.00  0.00    -0.356 N 
ATOM      5  C   UNL A   1      32.985  26.365  21.934  1.00  0.00     0.220 C 
ATOM      6  O   UNL A   1      33.341  25.717  20.945  1.00  0.00    -0.275 OA
ATOM      7  H   UNL A   1      33.226  28.099  20.983  1.00  0.00     0.163 HD
BRANCH   5   8
ATOM      8  C   UNL A   1      32.407  25.662  23.148  1.00  0.00     0.105 C 
BRANCH   8   9
ATOM      9  C   UNL A   1      33.466  25.020  24.050  1.00  0.00     0.045 C 
BRANCH   9  10
ATOM     10  C   UNL A   1      33.390  23.509  24.072  1.00  0.00    -0.045 A 
ATOM     11  C   UNL A   1      32.632  19.422  24.591  1.00  0.00     0.070 A 
ATOM     12  N   UNL A   1      32.820  19.305  25.915  1.00  0.00    -0.180 NA
ATOM     13  C   UNL A   1      32.907  20.743  24.138  1.00  0.00     0.023 A 
ATOM     14  N   UNL A   1      33.254  20.520  26.287  1.00  0.00    -0.278 N 
ATOM     15  C   UNL A   1      33.295  21.440  25.274  1.00  0.00     0.066 A 
ATOM     16  C   UNL A   1      32.852  21.424  22.911  1.00  0.00     0.012 A 
ATOM     17  H   UNL A   1      33.522  20.732  27.212  1.00  0.00     0.190 HD
ATOM     18  C   UNL A   1      33.576  22.812  25.276  1.00  0.00     0.032 A 
ATOM     19  C   UNL A   1      33.085  22.806  22.896  1.00  0.00     0.004 A 
BRANCH  11  20
ATOM     20  C   UNL A   1      32.179  18.250  23.781  1.00  0.00     0.055 C 
ATOM     21  C   UNL A   1      33.315  17.475  23.129  1.00  0.00     0.011 C 
ENDBRANCH  11  20
ENDBRANCH   9  10
ENDBRANCH   8   9
ENDBRANCH   5   8
ENDBRANCH   3   4
ENDBRANCH   2   3
ENDBRANCH   1   2
BRANCH   1  22
ATOM     22  C   UNL A   1      31.390  27.950  25.928  1.00  0.00     0.002 C 
BRANCH  22  23
ATOM     23  C   UNL A   1      32.659  27.683  26.754  1.00  0.00     0.021 C 
BRANCH  23  24
ATOM     24  C   UNL A   1      33.848  28.602  26.464  1.00  0.00     0.116 C 
BRANCH  24  25
ATOM     25  N   UNL A   1      33.698  29.928  27.038  1.00  0.00    -0.352 N 
ATOM     26  C   UNL A   1      34.531  30.649  27.864  1.00  0.00     0.251 C 
ATOM     27  H   UNL A   1      32.861  30.388  26.797  1.00  0.00     0.163 HD
ATOM     28  O   UNL A   1      34.129  31.720  28.315  1.00  0.00    -0.269 OA
BRANCH  26  29
ATOM     29  C   UNL A   1      35.877  30.159  28.266  1.00  0.00     0.039 A 
ATOM     30  C   UNL A   1      36.914  30.242  27.328  1.00  0.00     0.014 A 
ATOM     31  C   UNL A   1      36.134  29.559  29.501  1.00  0.00     0.014 A 
ATOM     32  C   UNL A   1      38.204  29.795  27.647  1.00  0.00     0.010 A 
ATOM     33  C   UNL A   1      37.439  29.163  29.837  1.00  0.00     0.010 A 
ATOM     34  C   UNL A   1      38.498  29.287  28.922  1.00  0.00    -0.014 A 
BRANCH  34  35
ATOM     35  C   UNL A   1      39.895  28.907  29.302  1.00  0.00     0.031 A 
ATOM     36  C   UNL A   1      40.788  29.868  30.051  1.00  0.00     0.074 A 
ATOM     37  C   UNL A   1      40.392  27.701  28.948  1.00  0.00     0.049 A 
ATOM     38  N   UNL A   1      42.035  29.715  30.426  1.00  0.00    -0.248 NA
ATOM     39  C   UNL A   1      40.212  31.172  30.413  1.00  0.00     0.031 C 
ATOM     40  C   UNL A   1      39.665  26.668  28.208  1.00  0.00     0.029 A 
ATOM     41  N   UNL A   1      41.631  27.139  29.160  1.00  0.00    -0.354 N 
ATOM     42  C   UNL A   1      42.397  30.904  31.053  1.00  0.00     0.074 A 
ATOM     43  C   UNL A   1      41.250  31.784  30.966  1.00  0.00     0.031 C 
ATOM     44  C   UNL A   1      40.456  25.595  28.053  1.00  0.00     0.029 A 
ATOM     45  C   UNL A   1      41.766  25.872  28.636  1.00  0.00     0.049 A 
ATOM     46  H   UNL A   1      42.355  27.601  29.643  1.00  0.00     0.167 HD
ATOM     47  C   UNL A   1      43.563  31.233  31.662  1.00  0.00     0.031 A 
ATOM     48  C   UNL A   1      42.817  25.027  28.611  1.00  0.00     0.031 A 
ATOM     49  C   UNL A   1      44.708  30.365  31.762  1.00  0.00     0.049 A 
ATOM     50  C   UNL A   1      44.118  25.429  29.259  1.00  0.00     0.074 A 
ATOM     51  C   UNL A   1      45.914  30.605  32.401  1.00  0.00     0.029 A 
ATOM     52  N   UNL A   1      44.800  29.098  31.207  1.00  0.00    -0.354 N 
ATOM     53  N   UNL A   1      44.413  26.538  29.892  1.00  0.00    -0.248 NA
ATOM     54  C   UNL A   1      45.222  24.460  29.198  1.00  0.00     0.031 C 
ATOM     55  C   UNL A   1      46.756  29.511  32.180  1.00  0.00     0.029 A 
ATOM     56  C   UNL A   1      46.049  28.557  31.467  1.00  0.00     0.049 A 
ATOM     57  H   UNL A   1      44.084  28.650  30.702  1.00  0.00     0.167 HD
ATOM     58  C   UNL A   1      45.722  26.381  30.339  1.00  0.00     0.074 A 
ATOM     59  C   UNL A   1      46.161  25.071  29.907  1.00  0.00     0.031 C 
ATOM     60  C   UNL A   1      46.485  27.247  31.051  1.00  0.00     0.031 A 
BRANCH  47  61
ATOM     61  C   UNL A   1      43.672  32.611  32.267  1.00  0.00    -0.014 A 
ATOM     62  C   UNL A   1      43.339  32.845  33.613  1.00  0.00     0.010 A 
ATOM     63  C   UNL A   1      44.167  33.678  31.492  1.00  0.00     0.010 A 
ATOM     64  C   UNL A   1      43.455  34.126  34.161  1.00  0.00     0.020 A 
ATOM     65  C   UNL A   1      44.315  34.954  32.045  1.00  0.00     0.020 A 
ATOM     66  C   UNL A   1      43.940  35.174  33.371  1.00  0.00     0.054 A 
BRANCH  66  67
ATOM     67  S   UNL A   1      44.093  36.821  34.113  1.00  0.00     0.124 S 
ATOM     68  O   UNL A   1      42.707  37.281  34.115  1.00  0.00    -0.237 OA
ATOM     69  O   UNL A   1      44.660  36.530  35.427  1.00  0.00    -0.237 OA
ATOM     70  O   UNL A   1      44.982  37.534  33.198  1.00  0.00    -0.744 OA
ENDBRANCH  66  67
ENDBRANCH  47  61
BRANCH  48  71
ATOM     71  C   UNL A   1      42.691  23.699  27.945  1.00  0.00    -0.014 A 
ATOM     72  C   UNL A   1      42.203  22.584  28.649  1.00  0.00     0.010 A 
ATOM     73  C   UNL A   1      43.063  23.543  26.596  1.00  0.00     0.010 A 
ATOM     74  C   UNL A   1      42.110  21.335  28.025  1.00  0.00     0.020 A 
ATOM     75  C   UNL A   1      42.941  22.304  25.960  1.00  0.00     0.020 A 
ATOM     76  C   UNL A   1      42.477  21.205  26.683  1.00  0.00     0.054 A 
BRANCH  76  77
ATOM     77  S   UNL A   1      42.301  19.587  25.881  1.00  0.00     0.124 S 
ATOM     78  O   UNL A   1      40.896  19.593  25.489  1.00  0.00    -0.237 OA
ATOM     79  O   UNL A   1      43.264  19.673  24.785  1.00  0.00    -0.237 OA
ATOM     80  O   UNL A   1      42.654  18.641  26.937  1.00  0.00    -0.744 OA
ENDBRANCH  76  77
ENDBRANCH  48  71
BRANCH  60  81
ATOM     81  C   UNL A   1      47.863  26.800  31.472  1.00  0.00    -0.014 A 
ATOM     82  C   UNL A   1      48.098  26.210  32.726  1.00  0.00     0.010 A 
ATOM     83  C   UNL A   1      48.928  26.905  30.557  1.00  0.00     0.010 A 
ATOM     84  C   UNL A   1      49.376  25.750  33.063  1.00  0.00     0.020 A 
ATOM     85  C   UNL A   1      50.199  26.420  30.879  1.00  0.00     0.020 A 
ATOM     86  C   UNL A   1      50.417  25.854  32.135  1.00  0.00     0.054 A 
BRANCH  86  87
ATOM     87  S   UNL A   1      52.048  25.188  32.572  1.00  0.00     0.124 S 
ATOM     88  O   UNL A   1      51.916  23.784  32.192  1.00  0.00    -0.237 OA
ATOM     89  O   UNL A   1      52.951  25.981  31.741  1.00  0.00    -0.237 OA
ATOM     90  O   UNL A   1      52.152  25.437  34.007  1.00  0.00    -0.744 OA
ENDBRANCH  86  87
ENDBRANCH  60  81
ENDBRANCH  34  35
ENDBRANCH  26  29
ENDBRANCH  24  25
ENDBRANCH  23  24
ENDBRANCH  22  23
ENDBRANCH   1  22
TORSDOF 19
ENDMDL
