MODEL 1
REMARK VINA RESULT:     -11.8      0.000      0.000
REMARK SMILES Cc1ncccc1C(=O)Nc1ccccc1C(=O)NCCCCCCNC(=O)c1ccc(-c2c3nc(c(-c4ccc(S(=O)(=O)[O-])cc4)c4ccc([nH]4)c(-c4ccc(S(=O)(=O)[O-])cc4)c4nc(c(-c5ccc(S(=O)(=O)[O-])cc5)c5ccc2[nH]5)C=C4)C=C3)cc1
REMARK SMILES IDX 23 1 22 2 21 3 20 4 19 5 17 6 18 7 16 9 11 10 12 11 13 12
REMARK SMILES IDX 15 13 14 14 10 15 8 16 9 17 7 19 1 20 2 21 3 22 4 23 6 24
REMARK SMILES IDX 5 25 24 26 25 27 26 28 27 29 28 31 29 32 30 33 88 34 31 35
REMARK SMILES IDX 87 36 32 37 33 38 34 39 81 40 35 41 86 42 80 43 82 44 36 45
REMARK SMILES IDX 85 46 79 47 78 48 37 50 67 51 48 52 66 53 49 54 52 55 65 56
REMARK SMILES IDX 83 57 50 58 51 59 64 61 84 62 53 63 38 64 39 65 47 66 40 67
REMARK SMILES IDX 46 68 41 69 42 70 43 71 44 72 45 73 68 74 69 75 77 76 70 77
REMARK SMILES IDX 76 78 71 79 72 80 73 81 74 82 75 83 54 84 55 85 63 86 56 87
REMARK SMILES IDX 62 88 57 89 58 90 59 91 60 92 61 93
REMARK H PARENT 19 8 10 18 26 30 82 49 52 60
REMARK Flexibility Score: inf
ROOT
ATOM      1  C   UNL A   1      33.123  28.788  26.607  1.00  0.00     0.002 C 
ENDROOT
BRANCH   1   2
ATOM      2  C   UNL A   1      34.038  27.887  25.771  1.00  0.00     0.002 C 
BRANCH   2   3
ATOM      3  C   UNL A   1      33.366  26.865  24.845  1.00  0.00     0.021 C 
BRANCH   3   4
ATOM      4  C   UNL A   1      34.029  25.495  24.762  1.00  0.00     0.116 C 
BRANCH   4   5
ATOM      5  N   UNL A   1      33.808  24.800  23.513  1.00  0.00    -0.352 N 
ATOM      6  C   UNL A   1      34.264  23.578  23.078  1.00  0.00     0.253 C 
ATOM      7  O   UNL A   1      33.928  23.219  21.947  1.00  0.00    -0.269 OA
ATOM      8  H   UNL A   1      33.240  25.280  22.868  1.00  0.00     0.163 HD
BRANCH   6   9
ATOM      9  C   UNL A   1      35.223  22.725  23.849  1.00  0.00     0.063 A 
ATOM     10  C   UNL A   1      34.953  21.576  24.610  1.00  0.00     0.054 A 
ATOM     11  C   UNL A   1      35.959  21.065  25.460  1.00  0.00     0.027 A 
ATOM     12  C   UNL A   1      37.263  21.548  25.416  1.00  0.00     0.002 A 
ATOM     13  C   UNL A   1      36.560  23.188  23.807  1.00  0.00     0.016 A 
ATOM     14  C   UNL A   1      37.575  22.587  24.556  1.00  0.00     0.001 A 
BRANCH  10  15
ATOM     15  N   UNL A   1      33.810  20.759  24.584  1.00  0.00    -0.321 N 
ATOM     16  C   UNL A   1      32.527  20.913  25.044  1.00  0.00     0.257 C 
ATOM     17  O   UNL A   1      31.779  19.935  24.963  1.00  0.00    -0.269 OA
ATOM     18  H   UNL A   1      33.963  19.893  24.142  1.00  0.00     0.170 HD
BRANCH  16  19
ATOM     19  C   UNL A   1      31.983  22.155  25.625  1.00  0.00     0.061 A 
ATOM     20  C   UNL A   1      33.303  22.119  27.821  1.00  0.00     0.067 C 
ATOM     21  C   UNL A   1      32.297  22.696  26.873  1.00  0.00     0.050 A 
ATOM     22  N   UNL A   1      31.740  23.861  27.313  1.00  0.00    -0.261 NA
ATOM     23  C   UNL A   1      30.911  24.528  26.482  1.00  0.00     0.111 A 
ATOM     24  C   UNL A   1      31.169  22.915  24.770  1.00  0.00     0.017 A 
ATOM     25  C   UNL A   1      30.617  24.113  25.200  1.00  0.00     0.021 A 
ENDBRANCH  16  19
ENDBRANCH  10  15
ENDBRANCH   6   9
ENDBRANCH   4   5
ENDBRANCH   3   4
ENDBRANCH   2   3
ENDBRANCH   1   2
BRANCH   1  26
ATOM     26  C   UNL A   1      33.758  30.020  27.255  1.00  0.00     0.021 C 
BRANCH  26  27
ATOM     27  C   UNL A   1      35.097  29.792  27.949  1.00  0.00     0.116 C 
BRANCH  27  28
ATOM     28  N   UNL A   1      35.218  30.512  29.205  1.00  0.00    -0.352 N 
ATOM     29  C   UNL A   1      36.273  30.577  30.085  1.00  0.00     0.251 C 
ATOM     30  H   UNL A   1      34.424  31.032  29.467  1.00  0.00     0.163 HD
ATOM     31  O   UNL A   1      36.137  31.135  31.165  1.00  0.00    -0.269 OA
BRANCH  29  32
ATOM     32  C   UNL A   1      37.561  29.941  29.733  1.00  0.00     0.039 A 
ATOM     33  C   UNL A   1      38.009  30.015  28.411  1.00  0.00     0.014 A 
ATOM     34  C   UNL A   1      38.333  29.297  30.703  1.00  0.00     0.014 A 
ATOM     35  C   UNL A   1      39.272  29.521  28.081  1.00  0.00     0.010 A 
ATOM     36  C   UNL A   1      39.618  28.867  30.388  1.00  0.00     0.010 A 
ATOM     37  C   UNL A   1      40.107  28.990  29.078  1.00  0.00    -0.014 A 
BRANCH  37  38
ATOM     38  C   UNL A   1      41.514  28.612  28.790  1.00  0.00     0.031 A 
ATOM     39  C   UNL A   1      42.609  29.638  28.851  1.00  0.00     0.074 A 
ATOM     40  C   UNL A   1      41.786  27.356  28.384  1.00  0.00     0.049 A 
ATOM     41  N   UNL A   1      43.876  29.509  28.557  1.00  0.00    -0.248 NA
ATOM     42  C   UNL A   1      42.222  30.992  29.277  1.00  0.00     0.031 C 
ATOM     43  C   UNL A   1      40.806  26.274  28.264  1.00  0.00     0.029 A 
ATOM     44  N   UNL A   1      42.966  26.777  27.991  1.00  0.00    -0.354 N 
ATOM     45  C   UNL A   1      44.437  30.767  28.746  1.00  0.00     0.074 A 
ATOM     46  C   UNL A   1      43.360  31.654  29.133  1.00  0.00     0.031 C 
ATOM     47  C   UNL A   1      41.430  25.156  27.862  1.00  0.00     0.029 A 
ATOM     48  C   UNL A   1      42.841  25.453  27.640  1.00  0.00     0.049 A 
ATOM     49  H   UNL A   1      43.821  27.264  27.961  1.00  0.00     0.167 HD
ATOM     50  C   UNL A   1      45.732  31.146  28.618  1.00  0.00     0.031 A 
ATOM     51  C   UNL A   1      43.755  24.577  27.182  1.00  0.00     0.031 A 
ATOM     52  C   UNL A   1      46.794  30.260  28.215  1.00  0.00     0.049 A 
ATOM     53  C   UNL A   1      45.172  25.036  26.981  1.00  0.00     0.074 A 
ATOM     54  C   UNL A   1      48.146  30.529  28.108  1.00  0.00     0.029 A 
ATOM     55  N   UNL A   1      46.619  28.936  27.832  1.00  0.00    -0.354 N 
ATOM     56  N   UNL A   1      45.701  26.210  27.236  1.00  0.00    -0.248 NA
ATOM     57  C   UNL A   1      46.116  24.055  26.430  1.00  0.00     0.031 C 
ATOM     58  C   UNL A   1      48.778  29.393  27.591  1.00  0.00     0.029 A 
ATOM     59  C   UNL A   1      47.831  28.391  27.441  1.00  0.00     0.049 A 
ATOM     60  H   UNL A   1      45.759  28.457  27.838  1.00  0.00     0.167 HD
ATOM     61  C   UNL A   1      47.044  26.102  26.894  1.00  0.00     0.074 A 
ATOM     62  C   UNL A   1      47.248  24.745  26.429  1.00  0.00     0.031 C 
ATOM     63  C   UNL A   1      48.018  27.042  26.963  1.00  0.00     0.031 A 
BRANCH  50  64
ATOM     64  C   UNL A   1      46.057  32.595  28.883  1.00  0.00    -0.014 A 
ATOM     65  C   UNL A   1      46.035  33.552  27.852  1.00  0.00     0.010 A 
ATOM     66  C   UNL A   1      46.392  33.006  30.186  1.00  0.00     0.010 A 
ATOM     67  C   UNL A   1      46.416  34.873  28.102  1.00  0.00     0.020 A 
ATOM     68  C   UNL A   1      46.740  34.336  30.448  1.00  0.00     0.020 A 
ATOM     69  C   UNL A   1      46.778  35.254  29.398  1.00  0.00     0.054 A 
BRANCH  69  70
ATOM     70  S   UNL A   1      47.300  36.967  29.688  1.00  0.00     0.124 S 
ATOM     71  O   UNL A   1      48.755  36.834  29.718  1.00  0.00    -0.237 OA
ATOM     72  O   UNL A   1      46.758  37.667  28.527  1.00  0.00    -0.237 OA
ATOM     73  O   UNL A   1      46.679  37.307  30.966  1.00  0.00    -0.744 OA
ENDBRANCH  69  70
ENDBRANCH  50  64
BRANCH  51  74
ATOM     74  C   UNL A   1      43.355  23.170  26.906  1.00  0.00    -0.014 A 
ATOM     75  C   UNL A   1      43.572  22.615  25.632  1.00  0.00     0.010 A 
ATOM     76  C   UNL A   1      42.807  22.362  27.920  1.00  0.00     0.010 A 
ATOM     77  C   UNL A   1      43.251  21.279  25.378  1.00  0.00     0.020 A 
ATOM     78  C   UNL A   1      42.509  21.018  27.677  1.00  0.00     0.020 A 
ATOM     79  C   UNL A   1      42.732  20.486  26.405  1.00  0.00     0.054 A 
BRANCH  79  80
ATOM     80  S   UNL A   1      42.403  18.733  26.068  1.00  0.00     0.124 S 
ATOM     81  O   UNL A   1      40.992  18.755  25.693  1.00  0.00    -0.237 OA
ATOM     82  O   UNL A   1      43.342  18.441  24.988  1.00  0.00    -0.237 OA
ATOM     83  O   UNL A   1      42.702  18.078  27.339  1.00  0.00    -0.744 OA
ENDBRANCH  79  80
ENDBRANCH  51  74
BRANCH  63  84
ATOM     84  C   UNL A   1      49.404  26.641  26.530  1.00  0.00    -0.014 A 
ATOM     85  C   UNL A   1      50.259  25.939  27.397  1.00  0.00     0.010 A 
ATOM     86  C   UNL A   1      49.828  26.904  25.214  1.00  0.00     0.010 A 
ATOM     87  C   UNL A   1      51.518  25.516  26.960  1.00  0.00     0.020 A 
ATOM     88  C   UNL A   1      51.073  26.457  24.764  1.00  0.00     0.020 A 
ATOM     89  C   UNL A   1      51.913  25.772  25.643  1.00  0.00     0.054 A 
BRANCH  89  90
ATOM     90  S   UNL A   1      53.519  25.145  25.080  1.00  0.00     0.124 S 
ATOM     91  O   UNL A   1      54.446  25.837  25.972  1.00  0.00    -0.237 OA
ATOM     92  O   UNL A   1      53.393  23.706  25.298  1.00  0.00    -0.237 OA
ATOM     93  O   UNL A   1      53.581  25.554  23.679  1.00  0.00    -0.744 OA
ENDBRANCH  89  90
ENDBRANCH  63  84
ENDBRANCH  37  38
ENDBRANCH  29  32
ENDBRANCH  27  28
ENDBRANCH  26  27
ENDBRANCH   1  26
TORSDOF 18
ENDMDL
MODEL 2
REMARK VINA RESULT:     -11.5      1.266      2.639
REMARK SMILES Cc1ncccc1C(=O)Nc1ccccc1C(=O)NCCCCCCNC(=O)c1ccc(-c2c3nc(c(-c4ccc(S(=O)(=O)[O-])cc4)c4ccc([nH]4)c(-c4ccc(S(=O)(=O)[O-])cc4)c4nc(c(-c5ccc(S(=O)(=O)[O-])cc5)c5ccc2[nH]5)C=C4)C=C3)cc1
REMARK SMILES IDX 23 1 22 2 21 3 20 4 19 5 17 6 18 7 16 9 11 10 12 11 13 12
REMARK SMILES IDX 15 13 14 14 10 15 8 16 9 17 7 19 1 20 2 21 3 22 4 23 6 24
REMARK SMILES IDX 5 25 24 26 25 27 26 28 27 29 28 31 29 32 30 33 88 34 31 35
REMARK SMILES IDX 87 36 32 37 33 38 34 39 81 40 35 41 86 42 80 43 82 44 36 45
REMARK SMILES IDX 85 46 79 47 78 48 37 50 67 51 48 52 66 53 49 54 52 55 65 56
REMARK SMILES IDX 83 57 50 58 51 59 64 61 84 62 53 63 38 64 39 65 47 66 40 67
REMARK SMILES IDX 46 68 41 69 42 70 43 71 44 72 45 73 68 74 69 75 77 76 70 77
REMARK SMILES IDX 76 78 71 79 72 80 73 81 74 82 75 83 54 84 55 85 63 86 56 87
REMARK SMILES IDX 62 88 57 89 58 90 59 91 60 92 61 93
REMARK H PARENT 19 8 10 18 26 30 82 49 52 60
REMARK Flexibility Score: inf
ROOT
ATOM      1  C   UNL A   1      33.221  29.267  25.523  1.00  0.00     0.002 C 
ENDROOT
BRANCH   1   2
ATOM      2  C   UNL A   1      34.150  28.368  24.701  1.00  0.00     0.002 C 
BRANCH   2   3
ATOM      3  C   UNL A   1      34.212  28.614  23.188  1.00  0.00     0.021 C 
BRANCH   3   4
ATOM      4  C   UNL A   1      33.442  27.632  22.314  1.00  0.00     0.116 C 
BRANCH   4   5
ATOM      5  N   UNL A   1      32.059  27.990  22.088  1.00  0.00    -0.352 N 
ATOM      6  C   UNL A   1      30.906  27.511  22.665  1.00  0.00     0.253 C 
ATOM      7  O   UNL A   1      29.839  27.992  22.277  1.00  0.00    -0.269 OA
ATOM      8  H   UNL A   1      31.919  28.691  21.411  1.00  0.00     0.163 HD
BRANCH   6   9
ATOM      9  C   UNL A   1      30.873  26.376  23.639  1.00  0.00     0.063 A 
ATOM     10  C   UNL A   1      31.203  25.027  23.422  1.00  0.00     0.054 A 
ATOM     11  C   UNL A   1      30.864  24.071  24.405  1.00  0.00     0.027 A 
ATOM     12  C   UNL A   1      30.394  24.452  25.658  1.00  0.00     0.002 A 
ATOM     13  C   UNL A   1      30.412  26.741  24.926  1.00  0.00     0.016 A 
ATOM     14  C   UNL A   1      30.206  25.796  25.935  1.00  0.00     0.001 A 
BRANCH  10  15
ATOM     15  N   UNL A   1      31.940  24.468  22.365  1.00  0.00    -0.321 N 
ATOM     16  C   UNL A   1      32.972  23.566  22.304  1.00  0.00     0.257 C 
ATOM     17  O   UNL A   1      33.485  23.371  21.199  1.00  0.00    -0.269 OA
ATOM     18  H   UNL A   1      31.656  24.792  21.480  1.00  0.00     0.170 HD
BRANCH  16  19
ATOM     19  C   UNL A   1      33.508  22.820  23.458  1.00  0.00     0.061 A 
ATOM     20  C   UNL A   1      34.664  24.781  24.634  1.00  0.00     0.067 C 
ATOM     21  C   UNL A   1      34.286  23.339  24.495  1.00  0.00     0.050 A 
ATOM     22  N   UNL A   1      34.725  22.559  25.525  1.00  0.00    -0.261 NA
ATOM     23  C   UNL A   1      34.337  21.266  25.559  1.00  0.00     0.111 A 
ATOM     24  C   UNL A   1      33.074  21.489  23.570  1.00  0.00     0.017 A 
ATOM     25  C   UNL A   1      33.496  20.695  24.626  1.00  0.00     0.021 A 
ENDBRANCH  16  19
ENDBRANCH  10  15
ENDBRANCH   6   9
ENDBRANCH   4   5
ENDBRANCH   3   4
ENDBRANCH   2   3
ENDBRANCH   1   2
BRANCH   1  26
ATOM     26  C   UNL A   1      33.352  29.199  27.047  1.00  0.00     0.021 C 
BRANCH  26  27
ATOM     27  C   UNL A   1      34.767  29.331  27.600  1.00  0.00     0.116 C 
BRANCH  27  28
ATOM     28  N   UNL A   1      34.889  30.365  28.614  1.00  0.00    -0.352 N 
ATOM     29  C   UNL A   1      35.965  30.708  29.397  1.00  0.00     0.251 C 
ATOM     30  H   UNL A   1      34.076  30.901  28.764  1.00  0.00     0.163 HD
ATOM     31  O   UNL A   1      35.833  31.528  30.296  1.00  0.00    -0.269 OA
BRANCH  29  32
ATOM     32  C   UNL A   1      37.274  30.058  29.170  1.00  0.00     0.039 A 
ATOM     33  C   UNL A   1      37.768  29.980  27.865  1.00  0.00     0.014 A 
ATOM     34  C   UNL A   1      38.019  29.549  30.237  1.00  0.00     0.014 A 
ATOM     35  C   UNL A   1      39.050  29.472  27.641  1.00  0.00     0.010 A 
ATOM     36  C   UNL A   1      39.321  29.108  30.021  1.00  0.00     0.010 A 
ATOM     37  C   UNL A   1      39.855  29.081  28.723  1.00  0.00    -0.014 A 
BRANCH  37  38
ATOM     38  C   UNL A   1      41.276  28.696  28.533  1.00  0.00     0.031 A 
ATOM     39  C   UNL A   1      42.366  29.724  28.632  1.00  0.00     0.074 A 
ATOM     40  C   UNL A   1      41.572  27.430  28.178  1.00  0.00     0.049 A 
ATOM     41  N   UNL A   1      43.649  29.588  28.420  1.00  0.00    -0.248 NA
ATOM     42  C   UNL A   1      41.955  31.089  28.996  1.00  0.00     0.031 C 
ATOM     43  C   UNL A   1      40.600  26.344  28.028  1.00  0.00     0.029 A 
ATOM     44  N   UNL A   1      42.773  26.841  27.873  1.00  0.00    -0.354 N 
ATOM     45  C   UNL A   1      44.199  30.852  28.608  1.00  0.00     0.074 A 
ATOM     46  C   UNL A   1      43.101  31.747  28.904  1.00  0.00     0.031 C 
ATOM     47  C   UNL A   1      41.246  25.216  27.696  1.00  0.00     0.029 A 
ATOM     48  C   UNL A   1      42.668  25.508  27.552  1.00  0.00     0.049 A 
ATOM     49  H   UNL A   1      43.629  27.328  27.883  1.00  0.00     0.167 HD
ATOM     50  C   UNL A   1      45.500  31.228  28.549  1.00  0.00     0.031 A 
ATOM     51  C   UNL A   1      43.608  24.620  27.174  1.00  0.00     0.031 A 
ATOM     52  C   UNL A   1      46.583  30.332  28.235  1.00  0.00     0.049 A 
ATOM     53  C   UNL A   1      45.036  25.075  27.048  1.00  0.00     0.074 A 
ATOM     54  C   UNL A   1      47.939  30.599  28.204  1.00  0.00     0.029 A 
ATOM     55  N   UNL A   1      46.430  28.998  27.879  1.00  0.00    -0.354 N 
ATOM     56  N   UNL A   1      45.548  26.256  27.302  1.00  0.00    -0.248 NA
ATOM     57  C   UNL A   1      46.010  24.080  26.582  1.00  0.00     0.031 C 
ATOM     58  C   UNL A   1      48.600  29.450  27.757  1.00  0.00     0.029 A 
ATOM     59  C   UNL A   1      47.664  28.444  27.577  1.00  0.00     0.049 A 
ATOM     60  H   UNL A   1      45.571  28.519  27.845  1.00  0.00     0.167 HD
ATOM     61  C   UNL A   1      46.910  26.140  27.046  1.00  0.00     0.074 A 
ATOM     62  C   UNL A   1      47.141  24.771  26.631  1.00  0.00     0.031 C 
ATOM     63  C   UNL A   1      47.879  27.083  27.148  1.00  0.00     0.031 A 
BRANCH  50  64
ATOM     64  C   UNL A   1      45.808  32.684  28.794  1.00  0.00    -0.014 A 
ATOM     65  C   UNL A   1      46.071  33.170  30.088  1.00  0.00     0.010 A 
ATOM     66  C   UNL A   1      45.831  33.582  27.711  1.00  0.00     0.010 A 
ATOM     67  C   UNL A   1      46.275  34.536  30.303  1.00  0.00     0.020 A 
ATOM     68  C   UNL A   1      46.071  34.945  27.918  1.00  0.00     0.020 A 
ATOM     69  C   UNL A   1      46.262  35.417  29.218  1.00  0.00     0.054 A 
BRANCH  69  70
ATOM     70  S   UNL A   1      46.497  37.188  29.531  1.00  0.00     0.124 S 
ATOM     71  O   UNL A   1      45.857  37.786  28.361  1.00  0.00    -0.237 OA
ATOM     72  O   UNL A   1      45.798  37.385  30.797  1.00  0.00    -0.237 OA
ATOM     73  O   UNL A   1      47.949  37.340  29.591  1.00  0.00    -0.744 OA
ENDBRANCH  69  70
ENDBRANCH  50  64
BRANCH  51  74
ATOM     74  C   UNL A   1      43.225  23.207  26.912  1.00  0.00    -0.014 A 
ATOM     75  C   UNL A   1      43.258  22.701  25.601  1.00  0.00     0.010 A 
ATOM     76  C   UNL A   1      42.877  22.345  27.969  1.00  0.00     0.010 A 
ATOM     77  C   UNL A   1      42.953  21.360  25.351  1.00  0.00     0.020 A 
ATOM     78  C   UNL A   1      42.597  20.996  27.727  1.00  0.00     0.020 A 
ATOM     79  C   UNL A   1      42.635  20.514  26.417  1.00  0.00     0.054 A 
BRANCH  79  80
ATOM     80  S   UNL A   1      42.325  18.759  26.071  1.00  0.00     0.124 S 
ATOM     81  O   UNL A   1      43.256  18.495  24.978  1.00  0.00    -0.237 OA
ATOM     82  O   UNL A   1      42.649  18.127  27.347  1.00  0.00    -0.237 OA
ATOM     83  O   UNL A   1      40.910  18.727  25.709  1.00  0.00    -0.744 OA
ENDBRANCH  79  80
ENDBRANCH  51  74
BRANCH  63  84
ATOM     84  C   UNL A   1      49.288  26.671  26.812  1.00  0.00    -0.014 A 
ATOM     85  C   UNL A   1      50.061  25.925  27.719  1.00  0.00     0.010 A 
ATOM     86  C   UNL A   1      49.818  26.969  25.543  1.00  0.00     0.010 A 
ATOM     87  C   UNL A   1      51.344  25.495  27.368  1.00  0.00     0.020 A 
ATOM     88  C   UNL A   1      51.088  26.515  25.177  1.00  0.00     0.020 A 
ATOM     89  C   UNL A   1      51.846  25.787  26.095  1.00  0.00     0.054 A 
BRANCH  89  90
ATOM     90  S   UNL A   1      53.481  25.150  25.639  1.00  0.00     0.124 S 
ATOM     91  O   UNL A   1      54.268  25.445  26.833  1.00  0.00    -0.237 OA
ATOM     92  O   UNL A   1      53.215  23.734  25.395  1.00  0.00    -0.237 OA
ATOM     93  O   UNL A   1      53.838  25.924  24.452  1.00  0.00    -0.744 OA
ENDBRANCH  89  90
ENDBRANCH  63  84
ENDBRANCH  37  38
ENDBRANCH  29  32
ENDBRANCH  27  28
ENDBRANCH  26  27
ENDBRANCH   1  26
TORSDOF 18
ENDMDL
MODEL 3
REMARK VINA RESULT:     -11.3      4.730      7.897
REMARK SMILES Cc1ncccc1C(=O)Nc1ccccc1C(=O)NCCCCCCNC(=O)c1ccc(-c2c3nc(c(-c4ccc(S(=O)(=O)[O-])cc4)c4ccc([nH]4)c(-c4ccc(S(=O)(=O)[O-])cc4)c4nc(c(-c5ccc(S(=O)(=O)[O-])cc5)c5ccc2[nH]5)C=C4)C=C3)cc1
REMARK SMILES IDX 23 1 22 2 21 3 20 4 19 5 17 6 18 7 16 9 11 10 12 11 13 12
REMARK SMILES IDX 15 13 14 14 10 15 8 16 9 17 7 19 1 20 2 21 3 22 4 23 6 24
REMARK SMILES IDX 5 25 24 26 25 27 26 28 27 29 28 31 29 32 30 33 88 34 31 35
REMARK SMILES IDX 87 36 32 37 33 38 34 39 81 40 35 41 86 42 80 43 82 44 36 45
REMARK SMILES IDX 85 46 79 47 78 48 37 50 67 51 48 52 66 53 49 54 52 55 65 56
REMARK SMILES IDX 83 57 50 58 51 59 64 61 84 62 53 63 38 64 39 65 47 66 40 67
REMARK SMILES IDX 46 68 41 69 42 70 43 71 44 72 45 73 68 74 69 75 77 76 70 77
REMARK SMILES IDX 76 78 71 79 72 80 73 81 74 82 75 83 54 84 55 85 63 86 56 87
REMARK SMILES IDX 62 88 57 89 58 90 59 91 60 92 61 93
REMARK H PARENT 19 8 10 18 26 30 82 49 52 60
REMARK Flexibility Score: inf
ROOT
ATOM      1  C   UNL A   1      36.055  32.363  31.742  1.00  0.00     0.002 C 
ENDROOT
BRANCH   1   2
ATOM      2  C   UNL A   1      36.517  33.593  32.530  1.00  0.00     0.002 C 
BRANCH   2   3
ATOM      3  C   UNL A   1      37.987  34.009  32.390  1.00  0.00     0.021 C 
BRANCH   3   4
ATOM      4  C   UNL A   1      38.960  33.385  33.382  1.00  0.00     0.116 C 
BRANCH   4   5
ATOM      5  N   UNL A   1      38.342  32.877  34.587  1.00  0.00    -0.352 N 
ATOM      6  C   UNL A   1      38.306  31.604  35.104  1.00  0.00     0.253 C 
ATOM      7  O   UNL A   1      37.692  31.441  36.161  1.00  0.00    -0.269 OA
ATOM      8  H   UNL A   1      37.870  33.553  35.125  1.00  0.00     0.163 HD
BRANCH   6   9
ATOM      9  C   UNL A   1      38.867  30.405  34.404  1.00  0.00     0.063 A 
ATOM     10  C   UNL A   1      40.159  29.862  34.501  1.00  0.00     0.054 A 
ATOM     11  C   UNL A   1      40.561  28.879  33.571  1.00  0.00     0.027 A 
ATOM     12  C   UNL A   1      39.654  28.296  32.690  1.00  0.00     0.002 A 
ATOM     13  C   UNL A   1      37.958  29.786  33.514  1.00  0.00     0.016 A 
ATOM     14  C   UNL A   1      38.336  28.723  32.690  1.00  0.00     0.001 A 
BRANCH  10  15
ATOM     15  N   UNL A   1      41.130  30.089  35.491  1.00  0.00    -0.321 N 
ATOM     16  C   UNL A   1      41.995  29.272  36.173  1.00  0.00     0.257 C 
ATOM     17  O   UNL A   1      42.652  29.783  37.084  1.00  0.00    -0.269 OA
ATOM     18  H   UNL A   1      41.206  31.036  35.749  1.00  0.00     0.170 HD
BRANCH  16  19
ATOM     19  C   UNL A   1      42.193  27.836  35.897  1.00  0.00     0.061 A 
ATOM     20  C   UNL A   1      44.252  28.051  34.388  1.00  0.00     0.067 C 
ATOM     21  C   UNL A   1      43.178  27.274  35.084  1.00  0.00     0.050 A 
ATOM     22  N   UNL A   1      43.278  25.925  34.903  1.00  0.00    -0.261 NA
ATOM     23  C   UNL A   1      42.432  25.123  35.585  1.00  0.00     0.111 A 
ATOM     24  C   UNL A   1      41.379  26.963  36.637  1.00  0.00     0.017 A 
ATOM     25  C   UNL A   1      41.490  25.589  36.477  1.00  0.00     0.021 A 
ENDBRANCH  16  19
ENDBRANCH  10  15
ENDBRANCH   6   9
ENDBRANCH   4   5
ENDBRANCH   3   4
ENDBRANCH   2   3
ENDBRANCH   1   2
BRANCH   1  26
ATOM     26  C   UNL A   1      34.779  32.505  30.910  1.00  0.00     0.021 C 
BRANCH  26  27
ATOM     27  C   UNL A   1      34.979  32.807  29.429  1.00  0.00     0.116 C 
BRANCH  27  28
ATOM     28  N   UNL A   1      34.185  31.954  28.560  1.00  0.00    -0.352 N 
ATOM     29  C   UNL A   1      34.525  30.781  27.929  1.00  0.00     0.251 C 
ATOM     30  H   UNL A   1      33.264  32.264  28.399  1.00  0.00     0.163 HD
ATOM     31  O   UNL A   1      33.755  30.272  27.125  1.00  0.00    -0.269 OA
BRANCH  29  32
ATOM     32  C   UNL A   1      35.836  30.154  28.201  1.00  0.00     0.039 A 
ATOM     33  C   UNL A   1      36.854  30.285  27.253  1.00  0.00     0.014 A 
ATOM     34  C   UNL A   1      36.069  29.462  29.393  1.00  0.00     0.014 A 
ATOM     35  C   UNL A   1      38.131  29.798  27.538  1.00  0.00     0.010 A 
ATOM     36  C   UNL A   1      37.357  29.040  29.705  1.00  0.00     0.010 A 
ATOM     37  C   UNL A   1      38.404  29.218  28.788  1.00  0.00    -0.014 A 
BRANCH  37  38
ATOM     38  C   UNL A   1      39.786  28.844  29.184  1.00  0.00     0.031 A 
ATOM     39  C   UNL A   1      40.664  29.824  29.909  1.00  0.00     0.074 A 
ATOM     40  C   UNL A   1      40.277  27.648  28.805  1.00  0.00     0.049 A 
ATOM     41  N   UNL A   1      41.917  29.701  30.263  1.00  0.00    -0.248 NA
ATOM     42  C   UNL A   1      40.060  31.118  30.261  1.00  0.00     0.031 C 
ATOM     43  C   UNL A   1      39.529  26.619  28.078  1.00  0.00     0.029 A 
ATOM     44  N   UNL A   1      41.522  27.096  28.971  1.00  0.00    -0.354 N 
ATOM     45  C   UNL A   1      42.258  30.907  30.865  1.00  0.00     0.074 A 
ATOM     46  C   UNL A   1      41.092  31.762  30.784  1.00  0.00     0.031 C 
ATOM     47  C   UNL A   1      40.318  25.548  27.893  1.00  0.00     0.029 A 
ATOM     48  C   UNL A   1      41.642  25.835  28.435  1.00  0.00     0.049 A 
ATOM     49  H   UNL A   1      42.259  27.560  29.430  1.00  0.00     0.167 HD
ATOM     50  C   UNL A   1      43.431  31.265  31.443  1.00  0.00     0.031 A 
ATOM     51  C   UNL A   1      42.701  25.004  28.377  1.00  0.00     0.031 A 
ATOM     52  C   UNL A   1      44.591  30.413  31.502  1.00  0.00     0.049 A 
ATOM     53  C   UNL A   1      44.012  25.448  28.962  1.00  0.00     0.074 A 
ATOM     54  C   UNL A   1      45.808  30.658  32.111  1.00  0.00     0.029 A 
ATOM     55  N   UNL A   1      44.684  29.158  30.914  1.00  0.00    -0.354 N 
ATOM     56  N   UNL A   1      44.296  26.563  29.594  1.00  0.00    -0.248 NA
ATOM     57  C   UNL A   1      45.146  24.526  28.824  1.00  0.00     0.031 C 
ATOM     58  C   UNL A   1      46.661  29.585  31.829  1.00  0.00     0.029 A 
ATOM     59  C   UNL A   1      45.954  28.639  31.103  1.00  0.00     0.049 A 
ATOM     60  H   UNL A   1      43.954  28.706  30.433  1.00  0.00     0.167 HD
ATOM     61  C   UNL A   1      45.637  26.466  29.947  1.00  0.00     0.074 A 
ATOM     62  C   UNL A   1      46.102  25.179  29.470  1.00  0.00     0.031 C 
ATOM     63  C   UNL A   1      46.410  27.362  30.608  1.00  0.00     0.031 A 
BRANCH  50  64
ATOM     64  C   UNL A   1      43.520  32.656  32.019  1.00  0.00    -0.014 A 
ATOM     65  C   UNL A   1      43.192  32.915  33.363  1.00  0.00     0.010 A 
ATOM     66  C   UNL A   1      43.935  33.723  31.201  1.00  0.00     0.010 A 
ATOM     67  C   UNL A   1      43.204  34.223  33.855  1.00  0.00     0.020 A 
ATOM     68  C   UNL A   1      43.983  35.029  31.701  1.00  0.00     0.020 A 
ATOM     69  C   UNL A   1      43.589  35.274  33.017  1.00  0.00     0.054 A 
BRANCH  69  70
ATOM     70  S   UNL A   1      43.564  36.965  33.673  1.00  0.00     0.124 S 
ATOM     71  O   UNL A   1      44.749  36.971  34.528  1.00  0.00    -0.237 OA
ATOM     72  O   UNL A   1      43.658  37.779  32.464  1.00  0.00    -0.237 OA
ATOM     73  O   UNL A   1      42.287  37.045  34.378  1.00  0.00    -0.744 OA
ENDBRANCH  69  70
ENDBRANCH  50  64
BRANCH  51  74
ATOM     74  C   UNL A   1      42.549  23.659  27.759  1.00  0.00    -0.014 A 
ATOM     75  C   UNL A   1      42.876  23.467  26.405  1.00  0.00     0.010 A 
ATOM     76  C   UNL A   1      42.131  22.555  28.525  1.00  0.00     0.010 A 
ATOM     77  C   UNL A   1      42.790  22.197  25.829  1.00  0.00     0.020 A 
ATOM     78  C   UNL A   1      42.069  21.278  27.959  1.00  0.00     0.020 A 
ATOM     79  C   UNL A   1      42.397  21.108  26.613  1.00  0.00     0.054 A 
BRANCH  79  80
ATOM     80  S   UNL A   1      42.375  19.457  25.859  1.00  0.00     0.124 S 
ATOM     81  O   UNL A   1      43.380  19.589  24.808  1.00  0.00    -0.237 OA
ATOM     82  O   UNL A   1      42.740  18.597  26.981  1.00  0.00    -0.237 OA
ATOM     83  O   UNL A   1      40.998  19.312  25.393  1.00  0.00    -0.744 OA
ENDBRANCH  79  80
ENDBRANCH  51  74
BRANCH  63  84
ATOM     84  C   UNL A   1      47.846  26.986  30.866  1.00  0.00    -0.014 A 
ATOM     85  C   UNL A   1      48.856  27.303  29.941  1.00  0.00     0.010 A 
ATOM     86  C   UNL A   1      48.199  26.374  32.084  1.00  0.00     0.010 A 
ATOM     87  C   UNL A   1      50.192  27.005  30.223  1.00  0.00     0.020 A 
ATOM     88  C   UNL A   1      49.537  26.102  32.382  1.00  0.00     0.020 A 
ATOM     89  C   UNL A   1      50.524  26.414  31.446  1.00  0.00     0.054 A 
BRANCH  89  90
ATOM     90  S   UNL A   1      52.273  26.109  31.818  1.00  0.00     0.124 S 
ATOM     91  O   UNL A   1      52.938  26.689  30.654  1.00  0.00    -0.237 OA
ATOM     92  O   UNL A   1      52.462  26.830  33.074  1.00  0.00    -0.237 OA
ATOM     93  O   UNL A   1      52.359  24.654  31.922  1.00  0.00    -0.744 OA
ENDBRANCH  89  90
ENDBRANCH  63  84
ENDBRANCH  37  38
ENDBRANCH  29  32
ENDBRANCH  27  28
ENDBRANCH  26  27
ENDBRANCH   1  26
TORSDOF 18
ENDMDL
