MODEL 1
REMARK VINA RESULT:     -10.4      0.000      0.000
REMARK SMILES O=CN[C@@H](CCS[C@@H]1CCO[C@]2(CCOC2)C1)C(=O)NCCCCCCNC(=O)c1ccc(-c2c3nc(c(-c4ccc(S(=O)(=O)[O-])cc4)c4ccc([nH]4)c(-c4ccc(S(=O)(=O)[O-])cc4)c4nc(c(-c5ccc(S(=O)(=O)[O-])cc5)c5ccc2[nH]5)C=C4)C=C3)cc1
REMARK SMILES IDX 23 1 22 2 21 3 20 4 18 5 19 6 4 8 3 9 1 10 2 11 5 13 6 14
REMARK SMILES IDX 7 15 8 16 9 17 17 18 10 19 12 20 11 21 13 22 16 23 14 24
REMARK SMILES IDX 15 25 24 26 25 27 26 28 27 29 28 30 29 32 30 33 31 34 89 35
REMARK SMILES IDX 32 36 88 37 33 38 34 39 35 40 82 41 36 42 87 43 81 44 83 45
REMARK SMILES IDX 37 46 86 47 80 48 79 49 38 51 68 52 49 53 67 54 50 55 53 56
REMARK SMILES IDX 66 57 84 58 51 59 52 60 65 62 85 63 54 64 39 65 40 66 48 67
REMARK SMILES IDX 41 68 47 69 42 70 43 71 44 72 45 73 46 74 69 75 70 76 78 77
REMARK SMILES IDX 71 78 77 79 72 80 73 81 74 82 75 83 76 84 55 85 56 86 64 87
REMARK SMILES IDX 57 88 63 89 58 90 59 91 60 92 61 93 62 94
REMARK H PARENT 20 7 3 12 27 31 83 50 53 61
REMARK Flexibility Score: inf
ROOT
ATOM      1  C   UNL A   1      33.357  28.978  27.392  1.00  0.00     0.002 C 
ENDROOT
BRANCH   1   2
ATOM      2  C   UNL A   1      34.325  28.866  26.209  1.00  0.00     0.021 C 
BRANCH   2   3
ATOM      3  C   UNL A   1      33.916  27.960  25.059  1.00  0.00     0.116 C 
BRANCH   3   4
ATOM      4  N   UNL A   1      34.131  28.599  23.782  1.00  0.00    -0.354 N 
ATOM      5  C   UNL A   1      33.481  28.284  22.630  1.00  0.00     0.242 C 
ATOM      6  O   UNL A   1      34.161  28.221  21.598  1.00  0.00    -0.273 OA
ATOM      7  H   UNL A   1      34.800  29.320  23.742  1.00  0.00     0.163 HD
BRANCH   5   8
ATOM      8  C   UNL A   1      32.026  27.820  22.607  1.00  0.00     0.171 C 
BRANCH   8   9
ATOM      9  N   UNL A   1      31.325  28.961  22.021  1.00  0.00    -0.347 N 
ATOM     10  O   UNL A   1      29.432  30.224  22.067  1.00  0.00    -0.279 OA
ATOM     11  C   UNL A   1      29.977  29.141  22.213  1.00  0.00     0.337 C 
ATOM     12  H   UNL A   1      31.829  29.612  21.480  1.00  0.00     0.164 HD
ENDBRANCH   8   9
BRANCH   8  13
ATOM     13  C   UNL A   1      31.686  26.465  21.967  1.00  0.00     0.046 C 
BRANCH  13  14
ATOM     14  C   UNL A   1      31.564  25.191  22.831  1.00  0.00     0.072 C 
BRANCH  14  15
ATOM     15  S   UNL A   1      32.834  23.895  22.669  1.00  0.00    -0.158 SA
BRANCH  15  16
ATOM     16  C   UNL A   1      34.103  24.275  23.974  1.00  0.00     0.052 C 
ATOM     17  C   UNL A   1      35.265  23.268  23.928  1.00  0.00     0.043 C 
ATOM     18  C   UNL A   1      33.575  24.204  25.406  1.00  0.00     0.052 C 
ATOM     19  C   UNL A   1      34.900  21.908  24.537  1.00  0.00     0.162 C 
ATOM     20  C   UNL A   1      33.153  22.815  25.898  1.00  0.00     0.095 C 
ATOM     21  O   UNL A   1      34.335  22.007  25.854  1.00  0.00    -0.372 OA
ATOM     22  C   UNL A   1      31.970  22.101  25.252  1.00  0.00     0.066 C 
ATOM     23  C   UNL A   1      32.591  22.943  27.328  1.00  0.00     0.195 C 
ATOM     24  C   UNL A   1      30.756  22.695  25.916  1.00  0.00     0.163 C 
ATOM     25  O   UNL A   1      31.154  23.048  27.241  1.00  0.00    -0.378 OA
ENDBRANCH  15  16
ENDBRANCH  14  15
ENDBRANCH  13  14
ENDBRANCH   8  13
ENDBRANCH   5   8
ENDBRANCH   3   4
ENDBRANCH   2   3
ENDBRANCH   1   2
BRANCH   1  26
ATOM     26  C   UNL A   1      32.108  29.852  27.259  1.00  0.00     0.002 C 
BRANCH  26  27
ATOM     27  C   UNL A   1      32.274  31.286  26.765  1.00  0.00     0.021 C 
BRANCH  27  28
ATOM     28  C   UNL A   1      33.299  32.145  27.490  1.00  0.00     0.116 C 
BRANCH  28  29
ATOM     29  N   UNL A   1      32.857  33.491  27.787  1.00  0.00    -0.352 N 
ATOM     30  C   UNL A   1      33.408  34.367  28.696  1.00  0.00     0.251 C 
ATOM     31  H   UNL A   1      32.076  33.817  27.283  1.00  0.00     0.163 HD
ATOM     32  O   UNL A   1      32.895  35.464  28.886  1.00  0.00    -0.269 OA
BRANCH  30  33
ATOM     33  C   UNL A   1      34.594  33.947  29.482  1.00  0.00     0.039 A 
ATOM     34  C   UNL A   1      34.400  33.138  30.604  1.00  0.00     0.014 A 
ATOM     35  C   UNL A   1      35.889  34.306  29.095  1.00  0.00     0.014 A 
ATOM     36  C   UNL A   1      35.505  32.641  31.299  1.00  0.00     0.010 A 
ATOM     37  C   UNL A   1      36.989  33.748  29.742  1.00  0.00     0.010 A 
ATOM     38  C   UNL A   1      36.810  32.914  30.855  1.00  0.00    -0.014 A 
BRANCH  38  39
ATOM     39  C   UNL A   1      37.989  32.339  31.555  1.00  0.00     0.031 A 
ATOM     40  C   UNL A   1      38.420  32.884  32.892  1.00  0.00     0.074 A 
ATOM     41  C   UNL A   1      38.696  31.349  30.973  1.00  0.00     0.049 A 
ATOM     42  N   UNL A   1      39.412  32.501  33.656  1.00  0.00    -0.248 NA
ATOM     43  C   UNL A   1      37.655  34.021  33.429  1.00  0.00     0.031 C 
ATOM     44  C   UNL A   1      38.421  30.773  29.654  1.00  0.00     0.029 A 
ATOM     45  N   UNL A   1      39.791  30.648  31.417  1.00  0.00    -0.354 N 
ATOM     46  C   UNL A   1      39.399  33.357  34.752  1.00  0.00     0.074 A 
ATOM     47  C   UNL A   1      38.334  34.311  34.529  1.00  0.00     0.031 C 
ATOM     48  C   UNL A   1      39.301  29.788  29.410  1.00  0.00     0.029 A 
ATOM     49  C   UNL A   1      40.217  29.677  30.541  1.00  0.00     0.049 A 
ATOM     50  H   UNL A   1      40.229  30.825  32.280  1.00  0.00     0.167 HD
ATOM     51  C   UNL A   1      40.184  33.338  35.856  1.00  0.00     0.031 A 
ATOM     52  C   UNL A   1      41.228  28.791  30.639  1.00  0.00     0.031 A 
ATOM     53  C   UNL A   1      41.227  32.377  36.087  1.00  0.00     0.049 A 
ATOM     54  C   UNL A   1      42.065  28.768  31.889  1.00  0.00     0.074 A 
ATOM     55  C   UNL A   1      42.033  32.232  37.203  1.00  0.00     0.029 A 
ATOM     56  N   UNL A   1      41.611  31.394  35.187  1.00  0.00    -0.354 N 
ATOM     57  N   UNL A   1      41.981  29.535  32.949  1.00  0.00    -0.248 NA
ATOM     58  C   UNL A   1      43.120  27.748  31.961  1.00  0.00     0.031 C 
ATOM     59  C   UNL A   1      42.934  31.189  36.961  1.00  0.00     0.029 A 
ATOM     60  C   UNL A   1      42.654  30.651  35.714  1.00  0.00     0.049 A 
ATOM     61  H   UNL A   1      41.202  31.247  34.304  1.00  0.00     0.167 HD
ATOM     62  C   UNL A   1      42.959  29.075  33.825  1.00  0.00     0.074 A 
ATOM     63  C   UNL A   1      43.606  27.953  33.178  1.00  0.00     0.031 C 
ATOM     64  C   UNL A   1      43.291  29.541  35.054  1.00  0.00     0.031 A 
BRANCH  51  65
ATOM     65  C   UNL A   1      39.935  34.392  36.903  1.00  0.00    -0.014 A 
ATOM     66  C   UNL A   1      39.008  34.180  37.939  1.00  0.00     0.010 A 
ATOM     67  C   UNL A   1      40.666  35.594  36.875  1.00  0.00     0.010 A 
ATOM     68  C   UNL A   1      38.785  35.167  38.903  1.00  0.00     0.020 A 
ATOM     69  C   UNL A   1      40.466  36.572  37.854  1.00  0.00     0.020 A 
ATOM     70  C   UNL A   1      39.514  36.358  38.852  1.00  0.00     0.054 A 
BRANCH  70  71
ATOM     71  S   UNL A   1      39.221  37.612  40.130  1.00  0.00     0.124 S 
ATOM     72  O   UNL A   1      40.531  38.251  40.230  1.00  0.00    -0.237 OA
ATOM     73  O   UNL A   1      38.166  38.433  39.540  1.00  0.00    -0.237 OA
ATOM     74  O   UNL A   1      38.818  36.830  41.297  1.00  0.00    -0.744 OA
ENDBRANCH  70  71
ENDBRANCH  51  65
BRANCH  52  75
ATOM     75  C   UNL A   1      41.484  27.829  29.532  1.00  0.00    -0.014 A 
ATOM     76  C   UNL A   1      42.570  28.015  28.659  1.00  0.00     0.010 A 
ATOM     77  C   UNL A   1      40.643  26.715  29.350  1.00  0.00     0.010 A 
ATOM     78  C   UNL A   1      42.801  27.116  27.613  1.00  0.00     0.020 A 
ATOM     79  C   UNL A   1      40.887  25.800  28.322  1.00  0.00     0.020 A 
ATOM     80  C   UNL A   1      41.957  26.013  27.452  1.00  0.00     0.054 A 
BRANCH  80  81
ATOM     81  S   UNL A   1      42.306  24.827  26.123  1.00  0.00     0.124 S 
ATOM     82  O   UNL A   1      42.171  25.660  24.931  1.00  0.00    -0.237 OA
ATOM     83  O   UNL A   1      43.662  24.387  26.438  1.00  0.00    -0.237 OA
ATOM     84  O   UNL A   1      41.273  23.808  26.298  1.00  0.00    -0.744 OA
ENDBRANCH  80  81
ENDBRANCH  52  75
BRANCH  64  85
ATOM     85  C   UNL A   1      44.388  28.820  35.790  1.00  0.00    -0.014 A 
ATOM     86  C   UNL A   1      45.671  29.382  35.916  1.00  0.00     0.010 A 
ATOM     87  C   UNL A   1      44.119  27.579  36.397  1.00  0.00     0.010 A 
ATOM     88  C   UNL A   1      46.677  28.696  36.601  1.00  0.00     0.020 A 
ATOM     89  C   UNL A   1      45.115  26.904  37.105  1.00  0.00     0.020 A 
ATOM     90  C   UNL A   1      46.394  27.459  37.187  1.00  0.00     0.054 A 
BRANCH  90  91
ATOM     91  S   UNL A   1      47.709  26.598  38.093  1.00  0.00     0.124 S 
ATOM     92  O   UNL A   1      47.032  25.375  38.518  1.00  0.00    -0.237 OA
ATOM     93  O   UNL A   1      48.741  26.422  37.073  1.00  0.00    -0.237 OA
ATOM     94  O   UNL A   1      48.054  27.525  39.166  1.00  0.00    -0.744 OA
ENDBRANCH  90  91
ENDBRANCH  64  85
ENDBRANCH  38  39
ENDBRANCH  30  33
ENDBRANCH  28  29
ENDBRANCH  27  28
ENDBRANCH  26  27
ENDBRANCH   1  26
TORSDOF 21
ENDMDL
MODEL 2
REMARK VINA RESULT:     -10.2      6.138     11.875
REMARK SMILES O=CN[C@@H](CCS[C@@H]1CCO[C@]2(CCOC2)C1)C(=O)NCCCCCCNC(=O)c1ccc(-c2c3nc(c(-c4ccc(S(=O)(=O)[O-])cc4)c4ccc([nH]4)c(-c4ccc(S(=O)(=O)[O-])cc4)c4nc(c(-c5ccc(S(=O)(=O)[O-])cc5)c5ccc2[nH]5)C=C4)C=C3)cc1
REMARK SMILES IDX 23 1 22 2 21 3 20 4 18 5 19 6 4 8 3 9 1 10 2 11 5 13 6 14
REMARK SMILES IDX 7 15 8 16 9 17 17 18 10 19 12 20 11 21 13 22 16 23 14 24
REMARK SMILES IDX 15 25 24 26 25 27 26 28 27 29 28 30 29 32 30 33 31 34 89 35
REMARK SMILES IDX 32 36 88 37 33 38 34 39 35 40 82 41 36 42 87 43 81 44 83 45
REMARK SMILES IDX 37 46 86 47 80 48 79 49 38 51 68 52 49 53 67 54 50 55 53 56
REMARK SMILES IDX 66 57 84 58 51 59 52 60 65 62 85 63 54 64 39 65 40 66 48 67
REMARK SMILES IDX 41 68 47 69 42 70 43 71 44 72 45 73 46 74 69 75 70 76 78 77
REMARK SMILES IDX 71 78 77 79 72 80 73 81 74 82 75 83 76 84 55 85 56 86 64 87
REMARK SMILES IDX 57 88 63 89 58 90 59 91 60 92 61 93 62 94
REMARK H PARENT 20 7 3 12 27 31 83 50 53 61
REMARK Flexibility Score: inf
ROOT
ATOM      1  C   UNL A   1      38.275  24.036  26.152  1.00  0.00     0.002 C 
ENDROOT
BRANCH   1   2
ATOM      2  C   UNL A   1      37.145  23.405  25.330  1.00  0.00     0.021 C 
BRANCH   2   3
ATOM      3  C   UNL A   1      35.725  23.601  25.834  1.00  0.00     0.116 C 
BRANCH   3   4
ATOM      4  N   UNL A   1      35.375  22.611  26.827  1.00  0.00    -0.354 N 
ATOM      5  C   UNL A   1      34.265  21.828  26.794  1.00  0.00     0.242 C 
ATOM      6  O   UNL A   1      33.653  21.673  27.858  1.00  0.00    -0.273 OA
ATOM      7  H   UNL A   1      35.990  22.495  27.587  1.00  0.00     0.163 HD
BRANCH   5   8
ATOM      8  C   UNL A   1      33.655  21.318  25.490  1.00  0.00     0.171 C 
BRANCH   8   9
ATOM      9  N   UNL A   1      32.783  20.234  25.935  1.00  0.00    -0.347 N 
ATOM     10  O   UNL A   1      32.394  17.992  25.868  1.00  0.00    -0.279 OA
ATOM     11  C   UNL A   1      32.813  19.002  25.326  1.00  0.00     0.337 C 
ATOM     12  H   UNL A   1      32.163  20.388  26.685  1.00  0.00     0.164 HD
ENDBRANCH   8   9
BRANCH   8  13
ATOM     13  C   UNL A   1      32.990  22.323  24.537  1.00  0.00     0.046 C 
BRANCH  13  14
ATOM     14  C   UNL A   1      31.977  23.362  25.064  1.00  0.00     0.072 C 
BRANCH  14  15
ATOM     15  S   UNL A   1      32.377  25.133  24.913  1.00  0.00    -0.158 SA
BRANCH  15  16
ATOM     16  C   UNL A   1      30.877  26.038  25.540  1.00  0.00     0.052 C 
ATOM     17  C   UNL A   1      30.081  26.662  24.382  1.00  0.00     0.043 C 
ATOM     18  C   UNL A   1      31.190  27.202  26.478  1.00  0.00     0.052 C 
ATOM     19  C   UNL A   1      30.737  27.932  23.823  1.00  0.00     0.162 C 
ATOM     20  C   UNL A   1      31.926  28.391  25.849  1.00  0.00     0.095 C 
ATOM     21  O   UNL A   1      31.052  28.901  24.835  1.00  0.00    -0.372 OA
ATOM     22  C   UNL A   1      33.346  28.220  25.321  1.00  0.00     0.066 C 
ATOM     23  C   UNL A   1      32.213  29.436  26.946  1.00  0.00     0.195 C 
ATOM     24  C   UNL A   1      34.224  28.334  26.539  1.00  0.00     0.163 C 
ATOM     25  O   UNL A   1      33.553  29.219  27.437  1.00  0.00    -0.378 OA
ENDBRANCH  15  16
ENDBRANCH  14  15
ENDBRANCH  13  14
ENDBRANCH   8  13
ENDBRANCH   5   8
ENDBRANCH   3   4
ENDBRANCH   2   3
ENDBRANCH   1   2
BRANCH   1  26
ATOM     26  C   UNL A   1      39.515  23.204  26.486  1.00  0.00     0.002 C 
BRANCH  26  27
ATOM     27  C   UNL A   1      39.340  21.710  26.742  1.00  0.00     0.021 C 
BRANCH  27  28
ATOM     28  C   UNL A   1      39.650  20.777  25.583  1.00  0.00     0.116 C 
BRANCH  28  29
ATOM     29  N   UNL A   1      40.472  19.637  25.929  1.00  0.00    -0.352 N 
ATOM     30  C   UNL A   1      41.749  19.656  26.446  1.00  0.00     0.251 C 
ATOM     31  H   UNL A   1      40.075  18.748  25.780  1.00  0.00     0.163 HD
ATOM     32  O   UNL A   1      42.353  18.608  26.643  1.00  0.00    -0.269 OA
BRANCH  30  33
ATOM     33  C   UNL A   1      42.407  20.961  26.707  1.00  0.00     0.039 A 
ATOM     34  C   UNL A   1      42.793  21.744  25.617  1.00  0.00     0.014 A 
ATOM     35  C   UNL A   1      42.600  21.431  28.009  1.00  0.00     0.014 A 
ATOM     36  C   UNL A   1      43.316  23.022  25.833  1.00  0.00     0.010 A 
ATOM     37  C   UNL A   1      43.050  22.733  28.220  1.00  0.00     0.010 A 
ATOM     38  C   UNL A   1      43.419  23.541  27.135  1.00  0.00    -0.014 A 
BRANCH  38  39
ATOM     39  C   UNL A   1      43.918  24.922  27.366  1.00  0.00     0.031 A 
ATOM     40  C   UNL A   1      45.365  25.260  27.114  1.00  0.00     0.074 A 
ATOM     41  C   UNL A   1      43.080  25.866  27.840  1.00  0.00     0.049 A 
ATOM     42  N   UNL A   1      45.977  26.409  27.247  1.00  0.00    -0.248 NA
ATOM     43  C   UNL A   1      46.242  24.161  26.680  1.00  0.00     0.031 C 
ATOM     44  C   UNL A   1      41.672  25.654  28.184  1.00  0.00     0.029 A 
ATOM     45  N   UNL A   1      43.290  27.196  28.112  1.00  0.00    -0.354 N 
ATOM     46  C   UNL A   1      47.309  26.168  26.929  1.00  0.00     0.074 A 
ATOM     47  C   UNL A   1      47.426  24.754  26.648  1.00  0.00     0.031 C 
ATOM     48  C   UNL A   1      41.137  26.818  28.590  1.00  0.00     0.029 A 
ATOM     49  C   UNL A   1      42.166  27.852  28.559  1.00  0.00     0.049 A 
ATOM     50  H   UNL A   1      44.162  27.638  27.999  1.00  0.00     0.167 HD
ATOM     51  C   UNL A   1      48.338  27.046  26.853  1.00  0.00     0.031 A 
ATOM     52  C   UNL A   1      41.982  29.143  28.899  1.00  0.00     0.031 A 
ATOM     53  C   UNL A   1      48.216  28.455  27.112  1.00  0.00     0.049 A 
ATOM     54  C   UNL A   1      43.131  30.106  28.775  1.00  0.00     0.074 A 
ATOM     55  C   UNL A   1      49.184  29.438  26.996  1.00  0.00     0.029 A 
ATOM     56  N   UNL A   1      47.056  29.085  27.537  1.00  0.00    -0.354 N 
ATOM     57  N   UNL A   1      44.363  29.871  28.393  1.00  0.00    -0.248 NA
ATOM     58  C   UNL A   1      42.859  31.510  29.112  1.00  0.00     0.031 C 
ATOM     59  C   UNL A   1      48.621  30.656  27.394  1.00  0.00     0.029 A 
ATOM     60  C   UNL A   1      47.288  30.439  27.707  1.00  0.00     0.049 A 
ATOM     61  H   UNL A   1      46.195  28.634  27.695  1.00  0.00     0.167 HD
ATOM     62  C   UNL A   1      45.008  31.103  28.422  1.00  0.00     0.074 A 
ATOM     63  C   UNL A   1      44.025  32.080  28.839  1.00  0.00     0.031 C 
ATOM     64  C   UNL A   1      46.300  31.397  28.130  1.00  0.00     0.031 A 
BRANCH  51  65
ATOM     65  C   UNL A   1      49.689  26.503  26.468  1.00  0.00    -0.014 A 
ATOM     66  C   UNL A   1      50.134  26.544  25.134  1.00  0.00     0.010 A 
ATOM     67  C   UNL A   1      50.541  25.978  27.456  1.00  0.00     0.010 A 
ATOM     68  C   UNL A   1      51.388  26.034  24.789  1.00  0.00     0.020 A 
ATOM     69  C   UNL A   1      51.808  25.492  27.120  1.00  0.00     0.020 A 
ATOM     70  C   UNL A   1      52.215  25.508  25.785  1.00  0.00     0.054 A 
BRANCH  70  71
ATOM     71  S   UNL A   1      53.849  24.874  25.312  1.00  0.00     0.124 S 
ATOM     72  O   UNL A   1      53.571  23.456  25.100  1.00  0.00    -0.237 OA
ATOM     73  O   UNL A   1      54.154  25.641  24.106  1.00  0.00    -0.237 OA
ATOM     74  O   UNL A   1      54.687  25.179  26.469  1.00  0.00    -0.744 OA
ENDBRANCH  70  71
ENDBRANCH  51  65
BRANCH  52  75
ATOM     75  C   UNL A   1      40.644  29.608  29.359  1.00  0.00    -0.014 A 
ATOM     76  C   UNL A   1      40.441  29.991  30.697  1.00  0.00     0.010 A 
ATOM     77  C   UNL A   1      39.567  29.676  28.456  1.00  0.00     0.010 A 
ATOM     78  C   UNL A   1      39.180  30.416  31.128  1.00  0.00     0.020 A 
ATOM     79  C   UNL A   1      38.313  30.126  28.878  1.00  0.00     0.020 A 
ATOM     80  C   UNL A   1      38.124  30.481  30.215  1.00  0.00     0.054 A 
BRANCH  80  81
ATOM     81  S   UNL A   1      36.510  31.088  30.781  1.00  0.00     0.124 S 
ATOM     82  O   UNL A   1      36.112  30.051  31.729  1.00  0.00    -0.237 OA
ATOM     83  O   UNL A   1      36.845  32.384  31.365  1.00  0.00    -0.237 OA
ATOM     84  O   UNL A   1      35.722  31.152  29.553  1.00  0.00    -0.744 OA
ENDBRANCH  80  81
ENDBRANCH  52  75
BRANCH  64  85
ATOM     85  C   UNL A   1      46.715  32.841  28.226  1.00  0.00    -0.014 A 
ATOM     86  C   UNL A   1      47.208  33.376  29.430  1.00  0.00     0.010 A 
ATOM     87  C   UNL A   1      46.646  33.662  27.086  1.00  0.00     0.010 A 
ATOM     88  C   UNL A   1      47.586  34.719  29.501  1.00  0.00     0.020 A 
ATOM     89  C   UNL A   1      47.048  34.998  27.147  1.00  0.00     0.020 A 
ATOM     90  C   UNL A   1      47.499  35.523  28.360  1.00  0.00     0.054 A 
BRANCH  90  91
ATOM     91  S   UNL A   1      48.019  37.257  28.469  1.00  0.00     0.124 S 
ATOM     92  O   UNL A   1      47.183  37.756  29.559  1.00  0.00    -0.237 OA
ATOM     93  O   UNL A   1      49.445  37.148  28.771  1.00  0.00    -0.237 OA
ATOM     94  O   UNL A   1      47.708  37.796  27.148  1.00  0.00    -0.744 OA
ENDBRANCH  90  91
ENDBRANCH  64  85
ENDBRANCH  38  39
ENDBRANCH  30  33
ENDBRANCH  28  29
ENDBRANCH  27  28
ENDBRANCH  26  27
ENDBRANCH   1  26
TORSDOF 21
ENDMDL
MODEL 3
REMARK VINA RESULT:     -10.1      5.494      7.798
REMARK SMILES O=CN[C@@H](CCS[C@@H]1CCO[C@]2(CCOC2)C1)C(=O)NCCCCCCNC(=O)c1ccc(-c2c3nc(c(-c4ccc(S(=O)(=O)[O-])cc4)c4ccc([nH]4)c(-c4ccc(S(=O)(=O)[O-])cc4)c4nc(c(-c5ccc(S(=O)(=O)[O-])cc5)c5ccc2[nH]5)C=C4)C=C3)cc1
REMARK SMILES IDX 23 1 22 2 21 3 20 4 18 5 19 6 4 8 3 9 1 10 2 11 5 13 6 14
REMARK SMILES IDX 7 15 8 16 9 17 17 18 10 19 12 20 11 21 13 22 16 23 14 24
REMARK SMILES IDX 15 25 24 26 25 27 26 28 27 29 28 30 29 32 30 33 31 34 89 35
REMARK SMILES IDX 32 36 88 37 33 38 34 39 35 40 82 41 36 42 87 43 81 44 83 45
REMARK SMILES IDX 37 46 86 47 80 48 79 49 38 51 68 52 49 53 67 54 50 55 53 56
REMARK SMILES IDX 66 57 84 58 51 59 52 60 65 62 85 63 54 64 39 65 40 66 48 67
REMARK SMILES IDX 41 68 47 69 42 70 43 71 44 72 45 73 46 74 69 75 70 76 78 77
REMARK SMILES IDX 71 78 77 79 72 80 73 81 74 82 75 83 76 84 55 85 56 86 64 87
REMARK SMILES IDX 57 88 63 89 58 90 59 91 60 92 61 93 62 94
REMARK H PARENT 20 7 3 12 27 31 83 50 53 61
REMARK Flexibility Score: inf
ROOT
ATOM      1  C   UNL A   1      34.630  29.937  27.322  1.00  0.00     0.002 C 
ENDROOT
BRANCH   1   2
ATOM      2  C   UNL A   1      33.794  28.727  26.889  1.00  0.00     0.021 C 
BRANCH   2   3
ATOM      3  C   UNL A   1      32.673  28.976  25.894  1.00  0.00     0.116 C 
BRANCH   3   4
ATOM      4  N   UNL A   1      33.190  29.359  24.600  1.00  0.00    -0.354 N 
ATOM      5  C   UNL A   1      32.625  29.041  23.406  1.00  0.00     0.242 C 
ATOM      6  O   UNL A   1      33.386  28.677  22.501  1.00  0.00    -0.273 OA
ATOM      7  H   UNL A   1      34.017  29.893  24.583  1.00  0.00     0.163 HD
BRANCH   5   8
ATOM      8  C   UNL A   1      31.114  28.927  23.215  1.00  0.00     0.171 C 
BRANCH   8   9
ATOM      9  N   UNL A   1      30.849  29.856  22.118  1.00  0.00    -0.347 N 
ATOM     10  O   UNL A   1      29.273  31.124  21.073  1.00  0.00    -0.279 OA
ATOM     11  C   UNL A   1      29.565  30.122  21.707  1.00  0.00     0.337 C 
ATOM     12  H   UNL A   1      31.603  30.300  21.667  1.00  0.00     0.164 HD
ENDBRANCH   8   9
BRANCH   8  13
ATOM     13  C   UNL A   1      30.488  27.536  23.038  1.00  0.00     0.046 C 
BRANCH  13  14
ATOM     14  C   UNL A   1      31.046  26.315  23.802  1.00  0.00     0.072 C 
BRANCH  14  15
ATOM     15  S   UNL A   1      31.872  24.992  22.861  1.00  0.00    -0.158 SA
BRANCH  15  16
ATOM     16  C   UNL A   1      33.502  24.716  23.714  1.00  0.00     0.052 C 
ATOM     17  C   UNL A   1      34.234  23.496  23.132  1.00  0.00     0.043 C 
ATOM     18  C   UNL A   1      33.389  24.433  25.211  1.00  0.00     0.052 C 
ATOM     19  C   UNL A   1      33.644  22.162  23.610  1.00  0.00     0.162 C 
ATOM     20  C   UNL A   1      32.706  23.115  25.595  1.00  0.00     0.095 C 
ATOM     21  O   UNL A   1      33.520  22.075  25.038  1.00  0.00    -0.372 OA
ATOM     22  C   UNL A   1      31.231  22.896  25.275  1.00  0.00     0.066 C 
ATOM     23  C   UNL A   1      32.624  23.026  27.132  1.00  0.00     0.195 C 
ATOM     24  C   UNL A   1      30.491  23.592  26.387  1.00  0.00     0.163 C 
ATOM     25  O   UNL A   1      31.325  23.501  27.543  1.00  0.00    -0.378 OA
ENDBRANCH  15  16
ENDBRANCH  14  15
ENDBRANCH  13  14
ENDBRANCH   8  13
ENDBRANCH   5   8
ENDBRANCH   3   4
ENDBRANCH   2   3
ENDBRANCH   1   2
BRANCH   1  26
ATOM     26  C   UNL A   1      33.927  31.257  27.647  1.00  0.00     0.002 C 
BRANCH  26  27
ATOM     27  C   UNL A   1      34.589  32.206  28.641  1.00  0.00     0.021 C 
BRANCH  27  28
ATOM     28  C   UNL A   1      35.882  31.729  29.285  1.00  0.00     0.116 C 
BRANCH  28  29
ATOM     29  N   UNL A   1      35.865  31.715  30.733  1.00  0.00    -0.352 N 
ATOM     30  C   UNL A   1      36.838  31.220  31.573  1.00  0.00     0.251 C 
ATOM     31  H   UNL A   1      35.069  32.102  31.166  1.00  0.00     0.163 HD
ATOM     32  O   UNL A   1      36.668  31.224  32.786  1.00  0.00    -0.269 OA
BRANCH  30  33
ATOM     33  C   UNL A   1      38.070  30.632  30.990  1.00  0.00     0.039 A 
ATOM     34  C   UNL A   1      38.249  30.693  29.606  1.00  0.00     0.014 A 
ATOM     35  C   UNL A   1      39.061  30.067  31.799  1.00  0.00     0.014 A 
ATOM     36  C   UNL A   1      39.446  30.243  29.042  1.00  0.00     0.010 A 
ATOM     37  C   UNL A   1      40.282  29.691  31.244  1.00  0.00     0.010 A 
ATOM     38  C   UNL A   1      40.486  29.769  29.859  1.00  0.00    -0.014 A 
BRANCH  38  39
ATOM     39  C   UNL A   1      41.784  29.345  29.270  1.00  0.00     0.031 A 
ATOM     40  C   UNL A   1      42.920  30.328  29.147  1.00  0.00     0.074 A 
ATOM     41  C   UNL A   1      41.931  28.086  28.811  1.00  0.00     0.049 A 
ATOM     42  N   UNL A   1      44.125  30.137  28.674  1.00  0.00    -0.248 NA
ATOM     43  C   UNL A   1      42.662  31.707  29.590  1.00  0.00     0.031 C 
ATOM     44  C   UNL A   1      40.890  27.055  28.813  1.00  0.00     0.029 A 
ATOM     45  N   UNL A   1      43.017  27.457  28.253  1.00  0.00    -0.354 N 
ATOM     46  C   UNL A   1      44.761  31.372  28.748  1.00  0.00     0.074 A 
ATOM     47  C   UNL A   1      43.793  32.315  29.263  1.00  0.00     0.031 C 
ATOM     48  C   UNL A   1      41.397  25.915  28.314  1.00  0.00     0.029 A 
ATOM     49  C   UNL A   1      42.787  26.139  27.933  1.00  0.00     0.049 A 
ATOM     50  H   UNL A   1      43.879  27.906  28.097  1.00  0.00     0.167 HD
ATOM     51  C   UNL A   1      46.042  31.689  28.440  1.00  0.00     0.031 A 
ATOM     52  C   UNL A   1      43.607  25.210  27.400  1.00  0.00     0.031 A 
ATOM     53  C   UNL A   1      47.010  30.746  27.949  1.00  0.00     0.049 A 
ATOM     54  C   UNL A   1      45.034  25.578  27.096  1.00  0.00     0.074 A 
ATOM     55  C   UNL A   1      48.351  30.955  27.672  1.00  0.00     0.029 A 
ATOM     56  N   UNL A   1      46.745  29.416  27.662  1.00  0.00    -0.354 N 
ATOM     57  N   UNL A   1      45.636  26.732  27.252  1.00  0.00    -0.248 NA
ATOM     58  C   UNL A   1      45.893  24.513  26.563  1.00  0.00     0.031 C 
ATOM     59  C   UNL A   1      48.886  29.761  27.176  1.00  0.00     0.029 A 
ATOM     60  C   UNL A   1      47.891  28.796  27.194  1.00  0.00     0.049 A 
ATOM     61  H   UNL A   1      45.871  28.977  27.776  1.00  0.00     0.167 HD
ATOM     62  C   UNL A   1      46.953  26.525  26.856  1.00  0.00     0.074 A 
ATOM     63  C   UNL A   1      47.062  25.133  26.474  1.00  0.00     0.031 C 
ATOM     64  C   UNL A   1      47.981  27.410  26.812  1.00  0.00     0.031 A 
BRANCH  51  65
ATOM     65  C   UNL A   1      46.469  33.121  28.632  1.00  0.00    -0.014 A 
ATOM     66  C   UNL A   1      46.329  34.064  27.598  1.00  0.00     0.010 A 
ATOM     67  C   UNL A   1      46.980  33.538  29.875  1.00  0.00     0.010 A 
ATOM     68  C   UNL A   1      46.732  35.388  27.789  1.00  0.00     0.020 A 
ATOM     69  C   UNL A   1      47.358  34.869  30.078  1.00  0.00     0.020 A 
ATOM     70  C   UNL A   1      47.247  35.781  29.027  1.00  0.00     0.054 A 
BRANCH  70  71
ATOM     71  S   UNL A   1      47.739  37.513  29.254  1.00  0.00     0.124 S 
ATOM     72  O   UNL A   1      47.061  37.857  30.502  1.00  0.00    -0.237 OA
ATOM     73  O   UNL A   1      49.196  37.425  29.335  1.00  0.00    -0.237 OA
ATOM     74  O   UNL A   1      47.224  38.179  28.060  1.00  0.00    -0.744 OA
ENDBRANCH  70  71
ENDBRANCH  51  65
BRANCH  52  75
ATOM     75  C   UNL A   1      43.104  23.832  27.148  1.00  0.00    -0.014 A 
ATOM     76  C   UNL A   1      42.525  23.496  25.912  1.00  0.00     0.010 A 
ATOM     77  C   UNL A   1      43.210  22.844  28.145  1.00  0.00     0.010 A 
ATOM     78  C   UNL A   1      42.044  22.203  25.683  1.00  0.00     0.020 A 
ATOM     79  C   UNL A   1      42.755  21.544  27.910  1.00  0.00     0.020 A 
ATOM     80  C   UNL A   1      42.162  21.234  26.684  1.00  0.00     0.054 A 
BRANCH  80  81
ATOM     81  S   UNL A   1      41.582  19.548  26.348  1.00  0.00     0.124 S 
ATOM     82  O   UNL A   1      42.416  19.162  25.214  1.00  0.00    -0.237 OA
ATOM     83  O   UNL A   1      41.863  18.859  27.605  1.00  0.00    -0.237 OA
ATOM     84  O   UNL A   1      40.163  19.730  26.051  1.00  0.00    -0.744 OA
ENDBRANCH  80  81
ENDBRANCH  52  75
BRANCH  64  85
ATOM     85  C   UNL A   1      49.318  26.890  26.358  1.00  0.00    -0.014 A 
ATOM     86  C   UNL A   1      49.740  27.035  25.025  1.00  0.00     0.010 A 
ATOM     87  C   UNL A   1      50.179  26.280  27.290  1.00  0.00     0.010 A 
ATOM     88  C   UNL A   1      50.985  26.544  24.622  1.00  0.00     0.020 A 
ATOM     89  C   UNL A   1      51.434  25.812  26.896  1.00  0.00     0.020 A 
ATOM     90  C   UNL A   1      51.821  25.930  25.559  1.00  0.00     0.054 A 
BRANCH  90  91
ATOM     91  S   UNL A   1      53.442  25.322  25.019  1.00  0.00     0.124 S 
ATOM     92  O   UNL A   1      54.349  26.045  25.907  1.00  0.00    -0.237 OA
ATOM     93  O   UNL A   1      53.343  23.883  25.258  1.00  0.00    -0.237 OA
ATOM     94  O   UNL A   1      53.507  25.709  23.612  1.00  0.00    -0.744 OA
ENDBRANCH  90  91
ENDBRANCH  64  85
ENDBRANCH  38  39
ENDBRANCH  30  33
ENDBRANCH  28  29
ENDBRANCH  27  28
ENDBRANCH  26  27
ENDBRANCH   1  26
TORSDOF 21
ENDMDL
