MODEL 1
REMARK VINA RESULT:     -11.8      0.000      0.000
REMARK SMILES O=C(NCCCCCCNC(=O)c1cn(C2C[NH+](Cc3cc(F)ccc3F)C2)nn1)c1ccc(-c2c3nc(c(-c4ccc(S(=O)(=O)[O-])cc4)c4ccc([nH]4)c(-c4ccc(S(=O)(=O)[O-])cc4)c4nc(c(-c5ccc(S(=O)(=O)[O-])cc5)c5ccc2[nH]5)C=C4)C=C3)cc1
REMARK SMILES IDX 6 1 5 2 4 3 3 4 1 5 2 6 31 8 32 9 90 10 33 11 89 12 34 13
REMARK SMILES IDX 35 14 36 15 83 16 37 17 88 18 82 19 84 20 38 21 87 22 81 23
REMARK SMILES IDX 80 24 39 26 69 27 50 28 68 29 51 30 54 31 67 32 85 33 52 34
REMARK SMILES IDX 53 35 66 37 86 38 55 39 40 40 41 41 49 42 42 43 48 44 43 45
REMARK SMILES IDX 44 46 45 47 46 48 47 49 70 50 71 51 79 52 72 53 78 54 73 55
REMARK SMILES IDX 74 56 75 57 76 58 77 59 56 60 57 61 65 62 58 63 64 64 59 65
REMARK SMILES IDX 60 66 61 67 62 68 63 69 7 70 8 71 9 72 10 73 11 74 12 76
REMARK SMILES IDX 13 77 14 78 30 79 15 80 29 81 16 82 17 83 28 84 18 85 19 87
REMARK SMILES IDX 20 88 21 89 26 90 22 91 25 92 27 93 23 94 24 95
REMARK H PARENT 3 7 84 25 54 36 10 75 18 86
REMARK Flexibility Score: inf
ROOT
ATOM      1  C   UNL A   1      31.503  29.754  25.429  1.00  0.00     0.002 C 
ENDROOT
BRANCH   1   2
ATOM      2  C   UNL A   1      31.835  28.810  26.592  1.00  0.00     0.021 C 
BRANCH   2   3
ATOM      3  C   UNL A   1      33.202  29.048  27.233  1.00  0.00     0.116 C 
BRANCH   3   4
ATOM      4  N   UNL A   1      33.431  30.421  27.626  1.00  0.00    -0.352 N 
ATOM      5  O   UNL A   1      34.342  32.387  28.016  1.00  0.00    -0.269 OA
ATOM      6  C   UNL A   1      34.543  31.180  27.855  1.00  0.00     0.251 C 
ATOM      7  H   UNL A   1      32.595  30.922  27.759  1.00  0.00     0.163 HD
BRANCH   6   8
ATOM      8  C   UNL A   1      35.930  30.657  27.997  1.00  0.00     0.039 A 
ATOM      9  C   UNL A   1      36.366  29.372  27.668  1.00  0.00     0.014 A 
ATOM     10  C   UNL A   1      36.853  31.549  28.578  1.00  0.00     0.014 A 
ATOM     11  C   UNL A   1      37.652  28.956  28.005  1.00  0.00     0.010 A 
ATOM     12  C   UNL A   1      38.138  31.144  28.911  1.00  0.00     0.010 A 
ATOM     13  C   UNL A   1      38.521  29.831  28.665  1.00  0.00    -0.014 A 
BRANCH  13  14
ATOM     14  C   UNL A   1      39.888  29.392  28.931  1.00  0.00     0.031 A 
ATOM     15  C   UNL A   1      40.168  29.150  30.377  1.00  0.00     0.074 A 
ATOM     16  C   UNL A   1      40.775  29.082  27.963  1.00  0.00     0.049 A 
ATOM     17  N   UNL A   1      40.994  29.779  31.146  1.00  0.00    -0.248 NA
ATOM     18  C   UNL A   1      39.313  28.183  31.089  1.00  0.00     0.031 C 
ATOM     19  C   UNL A   1      40.541  29.008  26.517  1.00  0.00     0.029 A 
ATOM     20  N   UNL A   1      42.062  28.650  28.079  1.00  0.00    -0.354 N 
ATOM     21  C   UNL A   1      40.925  29.144  32.385  1.00  0.00     0.074 A 
ATOM     22  C   UNL A   1      39.762  28.296  32.339  1.00  0.00     0.031 C 
ATOM     23  C   UNL A   1      41.557  28.330  25.932  1.00  0.00     0.029 A 
ATOM     24  C   UNL A   1      42.575  28.047  26.931  1.00  0.00     0.049 A 
ATOM     25  H   UNL A   1      42.587  28.756  28.905  1.00  0.00     0.167 HD
ATOM     26  C   UNL A   1      41.965  29.176  33.266  1.00  0.00     0.031 A 
ATOM     27  C   UNL A   1      43.720  27.319  26.827  1.00  0.00     0.031 A 
ATOM     28  C   UNL A   1      42.900  30.221  32.944  1.00  0.00     0.049 A 
ATOM     29  C   UNL A   1      44.571  27.678  27.987  1.00  0.00     0.074 A 
ATOM     30  C   UNL A   1      42.833  31.597  32.848  1.00  0.00     0.029 A 
ATOM     31  N   UNL A   1      44.046  29.851  32.281  1.00  0.00    -0.354 N 
ATOM     32  N   UNL A   1      45.084  28.864  28.157  1.00  0.00    -0.248 NA
ATOM     33  C   UNL A   1      44.457  26.867  29.189  1.00  0.00     0.031 C 
ATOM     34  C   UNL A   1      43.654  31.923  31.728  1.00  0.00     0.029 A 
ATOM     35  C   UNL A   1      44.235  30.743  31.260  1.00  0.00     0.049 A 
ATOM     36  H   UNL A   1      44.625  29.084  32.501  1.00  0.00     0.167 HD
ATOM     37  C   UNL A   1      44.944  29.117  29.513  1.00  0.00     0.074 A 
ATOM     38  C   UNL A   1      44.626  27.819  30.110  1.00  0.00     0.031 C 
ATOM     39  C   UNL A   1      44.824  30.393  29.985  1.00  0.00     0.031 A 
BRANCH  26  40
ATOM     40  C   UNL A   1      42.360  27.997  34.130  1.00  0.00    -0.014 A 
ATOM     41  C   UNL A   1      42.468  28.192  35.525  1.00  0.00     0.010 A 
ATOM     42  C   UNL A   1      42.923  26.815  33.610  1.00  0.00     0.010 A 
ATOM     43  C   UNL A   1      43.200  27.310  36.329  1.00  0.00     0.020 A 
ATOM     44  C   UNL A   1      43.616  25.906  34.410  1.00  0.00     0.020 A 
ATOM     45  C   UNL A   1      43.788  26.183  35.759  1.00  0.00     0.054 A 
BRANCH  45  46
ATOM     46  S   UNL A   1      44.843  25.124  36.778  1.00  0.00     0.124 S 
ATOM     47  O   UNL A   1      44.796  23.862  36.046  1.00  0.00    -0.237 OA
ATOM     48  O   UNL A   1      46.118  25.834  36.740  1.00  0.00    -0.237 OA
ATOM     49  O   UNL A   1      44.173  25.123  38.076  1.00  0.00    -0.744 OA
ENDBRANCH  45  46
ENDBRANCH  26  40
BRANCH  27  50
ATOM     50  C   UNL A   1      43.964  26.096  26.011  1.00  0.00    -0.014 A 
ATOM     51  C   UNL A   1      45.251  25.539  25.877  1.00  0.00     0.010 A 
ATOM     52  C   UNL A   1      42.871  25.305  25.601  1.00  0.00     0.010 A 
ATOM     53  C   UNL A   1      45.432  24.224  25.403  1.00  0.00     0.020 A 
ATOM     54  C   UNL A   1      43.042  23.997  25.126  1.00  0.00     0.020 A 
ATOM     55  C   UNL A   1      44.322  23.453  25.047  1.00  0.00     0.054 A 
BRANCH  55  56
ATOM     56  S   UNL A   1      44.540  21.702  24.599  1.00  0.00     0.124 S 
ATOM     57  O   UNL A   1      44.547  21.752  23.140  1.00  0.00    -0.237 OA
ATOM     58  O   UNL A   1      45.814  21.367  25.227  1.00  0.00    -0.237 OA
ATOM     59  O   UNL A   1      43.372  21.048  25.189  1.00  0.00    -0.744 OA
ENDBRANCH  55  56
ENDBRANCH  27  50
BRANCH  39  60
ATOM     60  C   UNL A   1      45.114  31.544  29.051  1.00  0.00    -0.014 A 
ATOM     61  C   UNL A   1      46.389  32.120  28.880  1.00  0.00     0.010 A 
ATOM     62  C   UNL A   1      44.079  31.941  28.189  1.00  0.00     0.010 A 
ATOM     63  C   UNL A   1      46.612  33.080  27.879  1.00  0.00     0.020 A 
ATOM     64  C   UNL A   1      44.297  32.880  27.181  1.00  0.00     0.020 A 
ATOM     65  C   UNL A   1      45.561  33.452  27.034  1.00  0.00     0.054 A 
BRANCH  65  66
ATOM     66  S   UNL A   1      45.860  34.650  25.704  1.00  0.00     0.124 S 
ATOM     67  O   UNL A   1      44.963  34.186  24.650  1.00  0.00    -0.237 OA
ATOM     68  O   UNL A   1      45.497  35.922  26.326  1.00  0.00    -0.237 OA
ATOM     69  O   UNL A   1      47.286  34.500  25.413  1.00  0.00    -0.744 OA
ENDBRANCH  65  66
ENDBRANCH  39  60
ENDBRANCH  13  14
ENDBRANCH   6   8
ENDBRANCH   3   4
ENDBRANCH   2   3
ENDBRANCH   1   2
BRANCH   1  70
ATOM     70  C   UNL A   1      31.376  29.086  24.056  1.00  0.00     0.002 C 
BRANCH  70  71
ATOM     71  C   UNL A   1      32.703  28.787  23.353  1.00  0.00     0.021 C 
BRANCH  71  72
ATOM     72  C   UNL A   1      32.981  27.303  23.115  1.00  0.00     0.116 C 
BRANCH  72  73
ATOM     73  N   UNL A   1      31.785  26.499  23.292  1.00  0.00    -0.351 N 
ATOM     74  C   UNL A   1      31.643  25.128  23.280  1.00  0.00     0.273 C 
ATOM     75  H   UNL A   1      30.953  27.006  23.441  1.00  0.00     0.163 HD
ATOM     76  O   UNL A   1      30.521  24.649  23.191  1.00  0.00    -0.267 OA
BRANCH  74  77
ATOM     77  C   UNL A   1      32.842  24.311  23.352  1.00  0.00     0.170 A 
ATOM     78  C   UNL A   1      33.437  23.736  24.461  1.00  0.00     0.145 A 
ATOM     79  N   UNL A   1      33.578  23.998  22.238  1.00  0.00    -0.125 NA
ATOM     80  N   UNL A   1      34.603  23.225  23.973  1.00  0.00    -0.237 N 
ATOM     81  N   UNL A   1      34.656  23.339  22.632  1.00  0.00    -0.066 NA
BRANCH  80  82
ATOM     82  C   UNL A   1      35.769  22.823  24.686  1.00  0.00     0.218 C 
ATOM     83  C   UNL A   1      37.096  22.912  23.881  1.00  0.00     0.296 C 
ATOM     84  C   UNL A   1      36.442  23.871  25.598  1.00  0.00     0.296 C 
ATOM     85  N   UNL A   1      37.766  23.433  25.087  1.00  0.00    -0.327 N 
ATOM     86  H   UNL A   1      38.537  24.097  25.027  1.00  0.00     0.348 HD
BRANCH  85  87
ATOM     87  C   UNL A   1      38.465  22.399  25.894  1.00  0.00     0.302 C 
BRANCH  87  88
ATOM     88  C   UNL A   1      39.508  22.811  26.914  1.00  0.00     0.045 A 
ATOM     89  C   UNL A   1      39.554  24.117  27.436  1.00  0.00     0.051 A 
ATOM     90  C   UNL A   1      40.512  21.916  27.300  1.00  0.00     0.132 A 
ATOM     91  C   UNL A   1      40.655  24.531  28.183  1.00  0.00     0.123 A 
ATOM     92  C   UNL A   1      41.589  22.322  28.089  1.00  0.00     0.043 A 
ATOM     93  F   UNL A   1      40.473  20.643  26.882  1.00  0.00    -0.206 F 
ATOM     94  F   UNL A   1      40.750  25.814  28.555  1.00  0.00    -0.207 F 
ATOM     95  C   UNL A   1      41.680  23.649  28.502  1.00  0.00     0.042 A 
ENDBRANCH  87  88
ENDBRANCH  85  87
ENDBRANCH  80  82
ENDBRANCH  74  77
ENDBRANCH  72  73
ENDBRANCH  71  72
ENDBRANCH  70  71
ENDBRANCH   1  70
TORSDOF 19
ENDMDL
MODEL 2
REMARK VINA RESULT:     -11.6      2.784      9.241
REMARK SMILES O=C(NCCCCCCNC(=O)c1cn(C2C[NH+](Cc3cc(F)ccc3F)C2)nn1)c1ccc(-c2c3nc(c(-c4ccc(S(=O)(=O)[O-])cc4)c4ccc([nH]4)c(-c4ccc(S(=O)(=O)[O-])cc4)c4nc(c(-c5ccc(S(=O)(=O)[O-])cc5)c5ccc2[nH]5)C=C4)C=C3)cc1
REMARK SMILES IDX 6 1 5 2 4 3 3 4 1 5 2 6 31 8 32 9 90 10 33 11 89 12 34 13
REMARK SMILES IDX 35 14 36 15 83 16 37 17 88 18 82 19 84 20 38 21 87 22 81 23
REMARK SMILES IDX 80 24 39 26 69 27 50 28 68 29 51 30 54 31 67 32 85 33 52 34
REMARK SMILES IDX 53 35 66 37 86 38 55 39 40 40 41 41 49 42 42 43 48 44 43 45
REMARK SMILES IDX 44 46 45 47 46 48 47 49 70 50 71 51 79 52 72 53 78 54 73 55
REMARK SMILES IDX 74 56 75 57 76 58 77 59 56 60 57 61 65 62 58 63 64 64 59 65
REMARK SMILES IDX 60 66 61 67 62 68 63 69 7 70 8 71 9 72 10 73 11 74 12 76
REMARK SMILES IDX 13 77 14 78 30 79 15 80 29 81 16 82 17 83 28 84 18 85 19 87
REMARK SMILES IDX 20 88 21 89 26 90 22 91 25 92 27 93 23 94 24 95
REMARK H PARENT 3 7 84 25 54 36 10 75 18 86
REMARK Flexibility Score: inf
ROOT
ATOM      1  C   UNL A   1      35.129  24.405  24.966  1.00  0.00     0.002 C 
ENDROOT
BRANCH   1   2
ATOM      2  C   UNL A   1      36.266  23.404  24.726  1.00  0.00     0.021 C 
BRANCH   2   3
ATOM      3  C   UNL A   1      36.701  22.626  25.968  1.00  0.00     0.116 C 
BRANCH   3   4
ATOM      4  N   UNL A   1      37.922  21.873  25.786  1.00  0.00    -0.352 N 
ATOM      5  O   UNL A   1      39.960  21.064  25.988  1.00  0.00    -0.269 OA
ATOM      6  C   UNL A   1      39.211  22.020  26.212  1.00  0.00     0.251 C 
ATOM      7  H   UNL A   1      37.795  21.073  25.228  1.00  0.00     0.163 HD
BRANCH   6   8
ATOM      8  C   UNL A   1      39.778  23.246  26.839  1.00  0.00     0.039 A 
ATOM      9  C   UNL A   1      40.814  23.293  27.773  1.00  0.00     0.014 A 
ATOM     10  C   UNL A   1      39.144  24.452  26.479  1.00  0.00     0.014 A 
ATOM     11  C   UNL A   1      41.138  24.492  28.406  1.00  0.00     0.010 A 
ATOM     12  C   UNL A   1      39.465  25.650  27.101  1.00  0.00     0.010 A 
ATOM     13  C   UNL A   1      40.433  25.659  28.100  1.00  0.00    -0.014 A 
BRANCH  13  14
ATOM     14  C   UNL A   1      40.850  26.913  28.721  1.00  0.00     0.031 A 
ATOM     15  C   UNL A   1      42.050  27.527  28.082  1.00  0.00     0.074 A 
ATOM     16  C   UNL A   1      40.138  27.545  29.678  1.00  0.00     0.049 A 
ATOM     17  N   UNL A   1      43.217  27.726  28.601  1.00  0.00    -0.248 NA
ATOM     18  C   UNL A   1      41.985  27.821  26.639  1.00  0.00     0.031 C 
ATOM     19  C   UNL A   1      38.811  27.196  30.193  1.00  0.00     0.029 A 
ATOM     20  N   UNL A   1      40.408  28.716  30.321  1.00  0.00    -0.354 N 
ATOM     21  C   UNL A   1      43.968  28.371  27.620  1.00  0.00     0.074 A 
ATOM     22  C   UNL A   1      43.224  28.246  26.395  1.00  0.00     0.031 C 
ATOM     23  C   UNL A   1      38.299  28.252  30.868  1.00  0.00     0.029 A 
ATOM     24  C   UNL A   1      39.309  29.293  30.954  1.00  0.00     0.049 A 
ATOM     25  H   UNL A   1      41.305  29.120  30.337  1.00  0.00     0.167 HD
ATOM     26  C   UNL A   1      45.024  29.173  27.939  1.00  0.00     0.031 A 
ATOM     27  C   UNL A   1      39.220  30.555  31.458  1.00  0.00     0.031 A 
ATOM     28  C   UNL A   1      45.479  28.940  29.284  1.00  0.00     0.049 A 
ATOM     29  C   UNL A   1      40.606  31.040  31.665  1.00  0.00     0.074 A 
ATOM     30  C   UNL A   1      45.990  27.857  29.970  1.00  0.00     0.029 A 
ATOM     31  N   UNL A   1      45.075  29.838  30.244  1.00  0.00    -0.354 N 
ATOM     32  N   UNL A   1      41.422  30.517  32.536  1.00  0.00    -0.248 NA
ATOM     33  C   UNL A   1      41.235  31.780  30.584  1.00  0.00     0.031 C 
ATOM     34  C   UNL A   1      45.415  27.946  31.271  1.00  0.00     0.029 A 
ATOM     35  C   UNL A   1      44.656  29.116  31.329  1.00  0.00     0.049 A 
ATOM     36  H   UNL A   1      45.083  30.820  30.164  1.00  0.00     0.167 HD
ATOM     37  C   UNL A   1      42.648  30.476  31.890  1.00  0.00     0.074 A 
ATOM     38  C   UNL A   1      42.489  31.343  30.721  1.00  0.00     0.031 C 
ATOM     39  C   UNL A   1      43.583  29.532  32.206  1.00  0.00     0.031 A 
BRANCH  26  40
ATOM     40  C   UNL A   1      45.347  30.456  27.203  1.00  0.00    -0.014 A 
ATOM     41  C   UNL A   1      46.701  30.757  26.937  1.00  0.00     0.010 A 
ATOM     42  C   UNL A   1      44.420  31.507  27.045  1.00  0.00     0.010 A 
ATOM     43  C   UNL A   1      47.113  32.063  26.645  1.00  0.00     0.020 A 
ATOM     44  C   UNL A   1      44.816  32.803  26.711  1.00  0.00     0.020 A 
ATOM     45  C   UNL A   1      46.166  33.082  26.556  1.00  0.00     0.054 A 
BRANCH  45  46
ATOM     46  S   UNL A   1      46.721  34.787  26.314  1.00  0.00     0.124 S 
ATOM     47  O   UNL A   1      47.468  34.684  25.065  1.00  0.00    -0.237 OA
ATOM     48  O   UNL A   1      45.457  35.513  26.240  1.00  0.00    -0.237 OA
ATOM     49  O   UNL A   1      47.522  35.057  27.505  1.00  0.00    -0.744 OA
ENDBRANCH  45  46
ENDBRANCH  26  40
BRANCH  27  50
ATOM     50  C   UNL A   1      38.051  31.479  31.426  1.00  0.00    -0.014 A 
ATOM     51  C   UNL A   1      36.734  31.015  31.618  1.00  0.00     0.010 A 
ATOM     52  C   UNL A   1      38.263  32.871  31.498  1.00  0.00     0.010 A 
ATOM     53  C   UNL A   1      35.684  31.904  31.924  1.00  0.00     0.020 A 
ATOM     54  C   UNL A   1      37.223  33.762  31.800  1.00  0.00     0.020 A 
ATOM     55  C   UNL A   1      35.940  33.274  32.031  1.00  0.00     0.054 A 
BRANCH  55  56
ATOM     56  S   UNL A   1      34.625  34.401  32.593  1.00  0.00     0.124 S 
ATOM     57  O   UNL A   1      33.763  34.483  31.418  1.00  0.00    -0.237 OA
ATOM     58  O   UNL A   1      34.065  33.693  33.740  1.00  0.00    -0.237 OA
ATOM     59  O   UNL A   1      35.343  35.631  32.920  1.00  0.00    -0.744 OA
ENDBRANCH  55  56
ENDBRANCH  27  50
BRANCH  39  60
ATOM     60  C   UNL A   1      43.382  28.698  33.449  1.00  0.00    -0.014 A 
ATOM     61  C   UNL A   1      43.893  29.037  34.719  1.00  0.00     0.010 A 
ATOM     62  C   UNL A   1      42.494  27.614  33.353  1.00  0.00     0.010 A 
ATOM     63  C   UNL A   1      43.532  28.296  35.856  1.00  0.00     0.020 A 
ATOM     64  C   UNL A   1      42.118  26.885  34.481  1.00  0.00     0.020 A 
ATOM     65  C   UNL A   1      42.643  27.224  35.728  1.00  0.00     0.054 A 
BRANCH  65  66
ATOM     66  S   UNL A   1      42.131  26.300  37.204  1.00  0.00     0.124 S 
ATOM     67  O   UNL A   1      43.159  26.658  38.176  1.00  0.00    -0.237 OA
ATOM     68  O   UNL A   1      40.797  26.831  37.472  1.00  0.00    -0.237 OA
ATOM     69  O   UNL A   1      42.153  24.904  36.765  1.00  0.00    -0.744 OA
ENDBRANCH  65  66
ENDBRANCH  39  60
ENDBRANCH  13  14
ENDBRANCH   6   8
ENDBRANCH   3   4
ENDBRANCH   2   3
ENDBRANCH   1   2
BRANCH   1  70
ATOM     70  C   UNL A   1      33.756  23.982  24.432  1.00  0.00     0.002 C 
BRANCH  70  71
ATOM     71  C   UNL A   1      33.789  23.005  23.254  1.00  0.00     0.021 C 
BRANCH  71  72
ATOM     72  C   UNL A   1      32.608  23.123  22.292  1.00  0.00     0.116 C 
BRANCH  72  73
ATOM     73  N   UNL A   1      32.977  23.818  21.072  1.00  0.00    -0.351 N 
ATOM     74  C   UNL A   1      32.792  25.140  20.729  1.00  0.00     0.273 C 
ATOM     75  H   UNL A   1      33.423  23.265  20.390  1.00  0.00     0.163 HD
ATOM     76  O   UNL A   1      32.938  25.475  19.561  1.00  0.00    -0.267 OA
BRANCH  74  77
ATOM     77  C   UNL A   1      32.407  26.075  21.771  1.00  0.00     0.170 A 
ATOM     78  C   UNL A   1      33.209  26.910  22.529  1.00  0.00     0.145 A 
ATOM     79  N   UNL A   1      31.101  26.243  22.153  1.00  0.00    -0.125 NA
ATOM     80  N   UNL A   1      32.351  27.436  23.448  1.00  0.00    -0.237 N 
ATOM     81  N   UNL A   1      31.080  27.074  23.184  1.00  0.00    -0.066 NA
BRANCH  80  82
ATOM     82  C   UNL A   1      32.650  28.087  24.681  1.00  0.00     0.218 C 
ATOM     83  C   UNL A   1      32.478  27.203  25.948  1.00  0.00     0.296 C 
ATOM     84  C   UNL A   1      34.130  28.139  25.116  1.00  0.00     0.296 C 
ATOM     85  N   UNL A   1      33.712  27.795  26.499  1.00  0.00    -0.327 N 
ATOM     86  H   UNL A   1      34.336  27.264  27.106  1.00  0.00     0.348 HD
BRANCH  85  87
ATOM     87  C   UNL A   1      33.485  28.943  27.414  1.00  0.00     0.302 C 
BRANCH  87  88
ATOM     88  C   UNL A   1      34.535  30.029  27.542  1.00  0.00     0.045 A 
ATOM     89  C   UNL A   1      35.905  29.724  27.640  1.00  0.00     0.051 A 
ATOM     90  C   UNL A   1      34.154  31.371  27.654  1.00  0.00     0.132 A 
ATOM     91  C   UNL A   1      36.818  30.716  27.994  1.00  0.00     0.123 A 
ATOM     92  C   UNL A   1      35.078  32.370  27.960  1.00  0.00     0.043 A 
ATOM     93  F   UNL A   1      32.868  31.719  27.501  1.00  0.00    -0.206 F 
ATOM     94  F   UNL A   1      38.094  30.381  28.218  1.00  0.00    -0.207 F 
ATOM     95  C   UNL A   1      36.414  32.033  28.169  1.00  0.00     0.042 A 
ENDBRANCH  87  88
ENDBRANCH  85  87
ENDBRANCH  80  82
ENDBRANCH  74  77
ENDBRANCH  72  73
ENDBRANCH  71  72
ENDBRANCH  70  71
ENDBRANCH   1  70
TORSDOF 19
ENDMDL
MODEL 3
REMARK VINA RESULT:     -11.5      2.882      9.408
REMARK SMILES O=C(NCCCCCCNC(=O)c1cn(C2C[NH+](Cc3cc(F)ccc3F)C2)nn1)c1ccc(-c2c3nc(c(-c4ccc(S(=O)(=O)[O-])cc4)c4ccc([nH]4)c(-c4ccc(S(=O)(=O)[O-])cc4)c4nc(c(-c5ccc(S(=O)(=O)[O-])cc5)c5ccc2[nH]5)C=C4)C=C3)cc1
REMARK SMILES IDX 6 1 5 2 4 3 3 4 1 5 2 6 31 8 32 9 90 10 33 11 89 12 34 13
REMARK SMILES IDX 35 14 36 15 83 16 37 17 88 18 82 19 84 20 38 21 87 22 81 23
REMARK SMILES IDX 80 24 39 26 69 27 50 28 68 29 51 30 54 31 67 32 85 33 52 34
REMARK SMILES IDX 53 35 66 37 86 38 55 39 40 40 41 41 49 42 42 43 48 44 43 45
REMARK SMILES IDX 44 46 45 47 46 48 47 49 70 50 71 51 79 52 72 53 78 54 73 55
REMARK SMILES IDX 74 56 75 57 76 58 77 59 56 60 57 61 65 62 58 63 64 64 59 65
REMARK SMILES IDX 60 66 61 67 62 68 63 69 7 70 8 71 9 72 10 73 11 74 12 76
REMARK SMILES IDX 13 77 14 78 30 79 15 80 29 81 16 82 17 83 28 84 18 85 19 87
REMARK SMILES IDX 20 88 21 89 26 90 22 91 25 92 27 93 23 94 24 95
REMARK H PARENT 3 7 84 25 54 36 10 75 18 86
REMARK Flexibility Score: inf
ROOT
ATOM      1  C   UNL A   1      35.006  23.621  24.081  1.00  0.00     0.002 C 
ENDROOT
BRANCH   1   2
ATOM      2  C   UNL A   1      36.253  22.731  24.143  1.00  0.00     0.021 C 
BRANCH   2   3
ATOM      3  C   UNL A   1      36.915  22.657  25.519  1.00  0.00     0.116 C 
BRANCH   3   4
ATOM      4  N   UNL A   1      38.284  22.194  25.483  1.00  0.00    -0.352 N 
ATOM      5  O   UNL A   1      40.398  21.799  25.957  1.00  0.00    -0.269 OA
ATOM      6  C   UNL A   1      39.434  22.551  26.128  1.00  0.00     0.251 C 
ATOM      7  H   UNL A   1      38.418  21.452  24.850  1.00  0.00     0.163 HD
BRANCH   6   8
ATOM      8  C   UNL A   1      39.621  23.788  26.935  1.00  0.00     0.039 A 
ATOM      9  C   UNL A   1      38.771  24.895  26.960  1.00  0.00     0.014 A 
ATOM     10  C   UNL A   1      40.810  23.839  27.690  1.00  0.00     0.014 A 
ATOM     11  C   UNL A   1      39.146  26.057  27.631  1.00  0.00     0.010 A 
ATOM     12  C   UNL A   1      41.187  24.991  28.366  1.00  0.00     0.010 A 
ATOM     13  C   UNL A   1      40.374  26.116  28.296  1.00  0.00    -0.014 A 
BRANCH  13  14
ATOM     14  C   UNL A   1      40.702  27.319  29.056  1.00  0.00     0.031 A 
ATOM     15  C   UNL A   1      41.702  28.198  28.384  1.00  0.00     0.074 A 
ATOM     16  C   UNL A   1      40.056  27.690  30.182  1.00  0.00     0.049 A 
ATOM     17  N   UNL A   1      42.894  28.502  28.784  1.00  0.00    -0.248 NA
ATOM     18  C   UNL A   1      41.391  28.680  27.026  1.00  0.00     0.031 C 
ATOM     19  C   UNL A   1      38.876  27.068  30.791  1.00  0.00     0.029 A 
ATOM     20  N   UNL A   1      40.253  28.785  30.968  1.00  0.00    -0.354 N 
ATOM     21  C   UNL A   1      43.401  29.390  27.836  1.00  0.00     0.074 A 
ATOM     22  C   UNL A   1      42.513  29.324  26.705  1.00  0.00     0.031 C 
ATOM     23  C   UNL A   1      38.328  27.924  31.685  1.00  0.00     0.029 A 
ATOM     24  C   UNL A   1      39.189  29.088  31.815  1.00  0.00     0.049 A 
ATOM     25  H   UNL A   1      41.080  29.319  30.940  1.00  0.00     0.167 HD
ATOM     26  C   UNL A   1      44.373  30.293  28.149  1.00  0.00     0.031 A 
ATOM     27  C   UNL A   1      39.002  30.235  32.523  1.00  0.00     0.031 A 
ATOM     28  C   UNL A   1      45.044  29.946  29.374  1.00  0.00     0.049 A 
ATOM     29  C   UNL A   1      40.324  30.897  32.637  1.00  0.00     0.074 A 
ATOM     30  C   UNL A   1      45.791  28.870  29.808  1.00  0.00     0.029 A 
ATOM     31  N   UNL A   1      44.663  30.624  30.508  1.00  0.00    -0.354 N 
ATOM     32  N   UNL A   1      41.320  30.390  33.306  1.00  0.00    -0.248 NA
ATOM     33  C   UNL A   1      40.684  31.873  31.621  1.00  0.00     0.031 C 
ATOM     34  C   UNL A   1      45.402  28.682  31.167  1.00  0.00     0.029 A 
ATOM     35  C   UNL A   1      44.507  29.699  31.505  1.00  0.00     0.049 A 
ATOM     36  H   UNL A   1      44.527  31.596  30.587  1.00  0.00     0.167 HD
ATOM     37  C   UNL A   1      42.435  30.635  32.518  1.00  0.00     0.074 A 
ATOM     38  C   UNL A   1      41.993  31.622  31.532  1.00  0.00     0.031 C 
ATOM     39  C   UNL A   1      43.525  29.813  32.561  1.00  0.00     0.031 A 
BRANCH  26  40
ATOM     40  C   UNL A   1      44.408  31.702  27.597  1.00  0.00    -0.014 A 
ATOM     41  C   UNL A   1      45.486  32.071  26.762  1.00  0.00     0.010 A 
ATOM     42  C   UNL A   1      43.614  32.749  28.107  1.00  0.00     0.010 A 
ATOM     43  C   UNL A   1      45.816  33.415  26.549  1.00  0.00     0.020 A 
ATOM     44  C   UNL A   1      43.907  34.092  27.863  1.00  0.00     0.020 A 
ATOM     45  C   UNL A   1      45.034  34.417  27.121  1.00  0.00     0.054 A 
BRANCH  45  46
ATOM     46  S   UNL A   1      45.545  36.144  26.953  1.00  0.00     0.124 S 
ATOM     47  O   UNL A   1      46.228  36.379  28.221  1.00  0.00    -0.237 OA
ATOM     48  O   UNL A   1      46.398  36.098  25.770  1.00  0.00    -0.237 OA
ATOM     49  O   UNL A   1      44.282  36.858  26.777  1.00  0.00    -0.744 OA
ENDBRANCH  45  46
ENDBRANCH  26  40
BRANCH  27  50
ATOM     50  C   UNL A   1      37.725  30.960  32.783  1.00  0.00    -0.014 A 
ATOM     51  C   UNL A   1      37.659  32.045  33.680  1.00  0.00     0.010 A 
ATOM     52  C   UNL A   1      36.628  30.766  31.921  1.00  0.00     0.010 A 
ATOM     53  C   UNL A   1      36.564  32.932  33.675  1.00  0.00     0.020 A 
ATOM     54  C   UNL A   1      35.532  31.642  31.911  1.00  0.00     0.020 A 
ATOM     55  C   UNL A   1      35.513  32.733  32.775  1.00  0.00     0.054 A 
BRANCH  55  56
ATOM     56  S   UNL A   1      34.182  33.970  32.648  1.00  0.00     0.124 S 
ATOM     57  O   UNL A   1      34.106  34.198  31.207  1.00  0.00    -0.237 OA
ATOM     58  O   UNL A   1      33.042  33.277  33.239  1.00  0.00    -0.237 OA
ATOM     59  O   UNL A   1      34.687  35.100  33.426  1.00  0.00    -0.744 OA
ENDBRANCH  55  56
ENDBRANCH  27  50
BRANCH  39  60
ATOM     60  C   UNL A   1      43.621  28.790  33.668  1.00  0.00    -0.014 A 
ATOM     61  C   UNL A   1      44.286  29.011  34.892  1.00  0.00     0.010 A 
ATOM     62  C   UNL A   1      42.858  27.620  33.522  1.00  0.00     0.010 A 
ATOM     63  C   UNL A   1      44.196  28.072  35.933  1.00  0.00     0.020 A 
ATOM     64  C   UNL A   1      42.751  26.692  34.558  1.00  0.00     0.020 A 
ATOM     65  C   UNL A   1      43.426  26.918  35.758  1.00  0.00     0.054 A 
BRANCH  65  66
ATOM     66  S   UNL A   1      43.264  25.730  37.121  1.00  0.00     0.124 S 
ATOM     67  O   UNL A   1      44.496  25.940  37.875  1.00  0.00    -0.237 OA
ATOM     68  O   UNL A   1      42.037  26.164  37.785  1.00  0.00    -0.237 OA
ATOM     69  O   UNL A   1      43.165  24.436  36.446  1.00  0.00    -0.744 OA
ENDBRANCH  65  66
ENDBRANCH  39  60
ENDBRANCH  13  14
ENDBRANCH   6   8
ENDBRANCH   3   4
ENDBRANCH   2   3
ENDBRANCH   1   2
BRANCH   1  70
ATOM     70  C   UNL A   1      33.870  23.102  23.194  1.00  0.00     0.002 C 
BRANCH  70  71
ATOM     71  C   UNL A   1      32.728  22.406  23.940  1.00  0.00     0.021 C 
BRANCH  71  72
ATOM     72  C   UNL A   1      32.870  22.398  25.462  1.00  0.00     0.116 C 
BRANCH  72  73
ATOM     73  N   UNL A   1      31.576  22.383  26.121  1.00  0.00    -0.351 N 
ATOM     74  C   UNL A   1      30.809  23.438  26.567  1.00  0.00     0.273 C 
ATOM     75  H   UNL A   1      31.190  21.489  26.271  1.00  0.00     0.163 HD
ATOM     76  O   UNL A   1      29.874  23.212  27.323  1.00  0.00    -0.267 OA
BRANCH  74  77
ATOM     77  C   UNL A   1      31.164  24.778  26.136  1.00  0.00     0.170 A 
ATOM     78  C   UNL A   1      32.272  25.535  26.473  1.00  0.00     0.145 A 
ATOM     79  N   UNL A   1      30.373  25.502  25.280  1.00  0.00    -0.125 NA
ATOM     80  N   UNL A   1      32.013  26.753  25.917  1.00  0.00    -0.237 N 
ATOM     81  N   UNL A   1      30.900  26.710  25.159  1.00  0.00    -0.066 NA
BRANCH  80  82
ATOM     82  C   UNL A   1      32.614  28.013  26.205  1.00  0.00     0.218 C 
ATOM     83  C   UNL A   1      32.435  28.506  27.668  1.00  0.00     0.296 C 
ATOM     84  C   UNL A   1      34.117  28.020  26.559  1.00  0.00     0.296 C 
ATOM     85  N   UNL A   1      33.831  28.981  27.654  1.00  0.00    -0.327 N 
ATOM     86  H   UNL A   1      34.405  28.983  28.497  1.00  0.00     0.348 HD
BRANCH  85  87
ATOM     87  C   UNL A   1      33.986  30.419  27.314  1.00  0.00     0.302 C 
BRANCH  87  88
ATOM     88  C   UNL A   1      35.242  31.164  27.723  1.00  0.00     0.045 A 
ATOM     89  C   UNL A   1      36.466  30.497  27.914  1.00  0.00     0.051 A 
ATOM     90  C   UNL A   1      35.191  32.533  28.006  1.00  0.00     0.132 A 
ATOM     91  C   UNL A   1      37.535  31.159  28.515  1.00  0.00     0.123 A 
ATOM     92  C   UNL A   1      36.280  33.205  28.563  1.00  0.00     0.043 A 
ATOM     93  F   UNL A   1      34.066  33.225  27.777  1.00  0.00    -0.206 F 
ATOM     94  F   UNL A   1      38.645  30.474  28.816  1.00  0.00    -0.207 F 
ATOM     95  C   UNL A   1      37.448  32.504  28.854  1.00  0.00     0.042 A 
ENDBRANCH  87  88
ENDBRANCH  85  87
ENDBRANCH  80  82
ENDBRANCH  74  77
ENDBRANCH  72  73
ENDBRANCH  71  72
ENDBRANCH  70  71
ENDBRANCH   1  70
TORSDOF 19
ENDMDL
