MODEL 1
REMARK VINA RESULT:     -11.7      0.000      0.000
REMARK SMILES Cc1cc(F)c(-c2ccc(F)c(C(=O)NCCCCCCNC(=O)c3ccc(-c4c5nc(c(-c6ccc(S(=O)(=O)[O-])cc6)c6ccc([nH]6)c(-c6ccc(S(=O)(=O)[O-])cc6)c6nc(c(-c7ccc(S(=O)(=O)[O-])cc7)c7ccc4[nH]7)C=C6)C=C5)cc3)c2)cc1F
REMARK SMILES IDX 19 1 18 2 17 3 16 4 15 5 13 6 14 7 12 9 7 10 8 11 85 12 9 13
REMARK SMILES IDX 10 14 11 15 6 16 1 17 2 18 3 19 87 20 4 21 86 22 88 23 5 24
REMARK SMILES IDX 20 25 21 26 22 27 23 28 24 30 25 31 26 32 84 33 27 34 83 35
REMARK SMILES IDX 28 36 29 37 30 38 77 39 31 40 82 41 76 42 78 43 32 44 81 45
REMARK SMILES IDX 75 46 74 47 33 49 63 50 44 51 62 52 45 53 48 54 61 55 79 56
REMARK SMILES IDX 46 57 47 58 60 60 80 61 49 62 34 63 35 64 43 65 36 66 42 67
REMARK SMILES IDX 37 68 38 69 39 70 40 71 41 72 64 73 65 74 73 75 66 76 72 77
REMARK SMILES IDX 67 78 68 79 69 80 70 81 71 82 50 83 51 84 59 85 52 86 58 87
REMARK SMILES IDX 53 88 54 89 55 90 56 91 57 92
REMARK H PARENT 15 8 22 29 78 48 48 59
REMARK Flexibility Score: inf
ROOT
ATOM      1  C   UNL A   1      33.658  28.131  24.598  1.00  0.00     0.002 C 
ENDROOT
BRANCH   1   2
ATOM      2  C   UNL A   1      33.117  28.904  23.394  1.00  0.00     0.002 C 
BRANCH   2   3
ATOM      3  C   UNL A   1      31.600  28.989  23.249  1.00  0.00     0.021 C 
BRANCH   3   4
ATOM      4  C   UNL A   1      30.870  27.733  22.788  1.00  0.00     0.116 C 
BRANCH   4   5
ATOM      5  N   UNL A   1      31.515  27.010  21.708  1.00  0.00    -0.352 N 
ATOM      6  C   UNL A   1      32.060  25.742  21.651  1.00  0.00     0.254 C 
ATOM      7  O   UNL A   1      32.469  25.346  20.561  1.00  0.00    -0.269 OA
ATOM      8  H   UNL A   1      31.574  27.513  20.863  1.00  0.00     0.163 HD
BRANCH   6   9
ATOM      9  C   UNL A   1      32.209  24.882  22.856  1.00  0.00     0.076 A 
ATOM     10  C   UNL A   1      33.610  23.618  24.418  1.00  0.00    -0.014 A 
ATOM     11  C   UNL A   1      32.452  23.003  24.923  1.00  0.00     0.012 A 
ATOM     12  C   UNL A   1      33.446  24.640  23.465  1.00  0.00     0.025 A 
ATOM     13  C   UNL A   1      31.192  23.339  24.429  1.00  0.00     0.041 A 
ATOM     14  C   UNL A   1      31.080  24.246  23.377  1.00  0.00     0.135 A 
ATOM     15  F   UNL A   1      29.857  24.447  22.863  1.00  0.00    -0.206 F 
BRANCH  10  16
ATOM     16  C   UNL A   1      34.955  23.108  24.750  1.00  0.00     0.020 A 
ATOM     17  C   UNL A   1      38.905  21.735  25.924  1.00  0.00     0.047 C 
ATOM     18  C   UNL A   1      37.527  22.191  25.555  1.00  0.00    -0.012 A 
ATOM     19  C   UNL A   1      36.563  21.290  25.087  1.00  0.00     0.046 A 
ATOM     20  C   UNL A   1      37.194  23.542  25.616  1.00  0.00     0.126 A 
ATOM     21  C   UNL A   1      35.300  21.749  24.698  1.00  0.00     0.131 A 
ATOM     22  C   UNL A   1      35.934  23.998  25.231  1.00  0.00     0.051 A 
ATOM     23  F   UNL A   1      38.089  24.436  26.062  1.00  0.00    -0.207 F 
ATOM     24  F   UNL A   1      34.403  20.842  24.279  1.00  0.00    -0.206 F 
ENDBRANCH  10  16
ENDBRANCH   6   9
ENDBRANCH   4   5
ENDBRANCH   3   4
ENDBRANCH   2   3
ENDBRANCH   1   2
BRANCH   1  25
ATOM     25  C   UNL A   1      32.878  28.262  25.906  1.00  0.00     0.021 C 
BRANCH  25  26
ATOM     26  C   UNL A   1      33.701  28.526  27.161  1.00  0.00     0.116 C 
BRANCH  26  27
ATOM     27  N   UNL A   1      33.658  29.910  27.602  1.00  0.00    -0.352 N 
ATOM     28  C   UNL A   1      34.625  30.667  28.227  1.00  0.00     0.251 C 
ATOM     29  H   UNL A   1      32.808  30.377  27.429  1.00  0.00     0.163 HD
ATOM     30  O   UNL A   1      34.354  31.793  28.619  1.00  0.00    -0.269 OA
BRANCH  28  31
ATOM     31  C   UNL A   1      35.981  30.107  28.456  1.00  0.00     0.039 A 
ATOM     32  C   UNL A   1      36.332  29.534  29.677  1.00  0.00     0.014 A 
ATOM     33  C   UNL A   1      36.921  30.157  27.420  1.00  0.00     0.014 A 
ATOM     34  C   UNL A   1      37.655  29.181  29.922  1.00  0.00     0.010 A 
ATOM     35  C   UNL A   1      38.230  29.707  27.637  1.00  0.00     0.010 A 
ATOM     36  C   UNL A   1      38.624  29.258  28.906  1.00  0.00    -0.014 A 
BRANCH  36  37
ATOM     37  C   UNL A   1      40.023  28.842  29.206  1.00  0.00     0.031 A 
ATOM     38  C   UNL A   1      40.539  27.486  28.795  1.00  0.00     0.074 A 
ATOM     39  C   UNL A   1      40.860  29.735  29.775  1.00  0.00     0.049 A 
ATOM     40  N   UNL A   1      41.758  27.014  28.883  1.00  0.00    -0.248 NA
ATOM     41  C   UNL A   1      39.577  26.537  28.210  1.00  0.00     0.031 C 
ATOM     42  C   UNL A   1      40.481  31.084  30.207  1.00  0.00     0.029 A 
ATOM     43  N   UNL A   1      42.207  29.672  30.041  1.00  0.00    -0.354 N 
ATOM     44  C   UNL A   1      41.709  25.722  28.370  1.00  0.00     0.074 A 
ATOM     45  C   UNL A   1      40.333  25.464  28.008  1.00  0.00     0.031 C 
ATOM     46  C   UNL A   1      41.581  31.749  30.589  1.00  0.00     0.029 A 
ATOM     47  C   UNL A   1      42.731  30.858  30.506  1.00  0.00     0.049 A 
ATOM     48  H   UNL A   1      42.745  28.858  29.912  1.00  0.00     0.167 HD
ATOM     49  C   UNL A   1      42.722  24.841  28.195  1.00  0.00     0.031 A 
ATOM     50  C   UNL A   1      43.997  31.200  30.823  1.00  0.00     0.031 A 
ATOM     51  C   UNL A   1      44.097  25.110  28.537  1.00  0.00     0.049 A 
ATOM     52  C   UNL A   1      45.089  30.178  30.670  1.00  0.00     0.074 A 
ATOM     53  C   UNL A   1      45.194  24.280  28.375  1.00  0.00     0.029 A 
ATOM     54  N   UNL A   1      44.568  26.290  29.091  1.00  0.00    -0.354 N 
ATOM     55  N   UNL A   1      45.020  28.971  30.163  1.00  0.00    -0.248 NA
ATOM     56  C   UNL A   1      46.430  30.567  31.129  1.00  0.00     0.031 C 
ATOM     57  C   UNL A   1      46.315  24.928  28.894  1.00  0.00     0.029 A 
ATOM     58  C   UNL A   1      45.934  26.195  29.306  1.00  0.00     0.049 A 
ATOM     59  H   UNL A   1      44.016  27.076  29.302  1.00  0.00     0.167 HD
ATOM     60  C   UNL A   1      46.312  28.461  30.228  1.00  0.00     0.074 A 
ATOM     61  C   UNL A   1      47.147  29.502  30.790  1.00  0.00     0.031 C 
ATOM     62  C   UNL A   1      46.761  27.236  29.863  1.00  0.00     0.031 A 
BRANCH  49  63
ATOM     63  C   UNL A   1      42.424  23.499  27.576  1.00  0.00    -0.014 A 
ATOM     64  C   UNL A   1      42.062  22.414  28.399  1.00  0.00     0.010 A 
ATOM     65  C   UNL A   1      42.690  23.264  26.216  1.00  0.00     0.010 A 
ATOM     66  C   UNL A   1      42.033  21.113  27.888  1.00  0.00     0.020 A 
ATOM     67  C   UNL A   1      42.634  21.968  25.694  1.00  0.00     0.020 A 
ATOM     68  C   UNL A   1      42.340  20.898  26.542  1.00  0.00     0.054 A 
BRANCH  68  69
ATOM     69  S   UNL A   1      42.398  19.193  25.921  1.00  0.00     0.124 S 
ATOM     70  O   UNL A   1      42.970  18.472  27.053  1.00  0.00    -0.237 OA
ATOM     71  O   UNL A   1      40.992  18.913  25.636  1.00  0.00    -0.237 OA
ATOM     72  O   UNL A   1      43.255  19.287  24.742  1.00  0.00    -0.744 OA
ENDBRANCH  68  69
ENDBRANCH  49  63
BRANCH  50  73
ATOM     73  C   UNL A   1      44.299  32.585  31.286  1.00  0.00    -0.014 A 
ATOM     74  C   UNL A   1      44.175  32.934  32.644  1.00  0.00     0.010 A 
ATOM     75  C   UNL A   1      44.682  33.575  30.362  1.00  0.00     0.010 A 
ATOM     76  C   UNL A   1      44.382  34.251  33.062  1.00  0.00     0.020 A 
ATOM     77  C   UNL A   1      44.929  34.886  30.782  1.00  0.00     0.020 A 
ATOM     78  C   UNL A   1      44.750  35.220  32.127  1.00  0.00     0.054 A 
BRANCH  78  79
ATOM     79  S   UNL A   1      45.004  36.925  32.692  1.00  0.00     0.124 S 
ATOM     80  O   UNL A   1      45.610  37.542  31.515  1.00  0.00    -0.237 OA
ATOM     81  O   UNL A   1      43.645  37.364  33.003  1.00  0.00    -0.237 OA
ATOM     82  O   UNL A   1      45.886  36.776  33.846  1.00  0.00    -0.744 OA
ENDBRANCH  78  79
ENDBRANCH  50  73
BRANCH  62  83
ATOM     83  C   UNL A   1      48.226  26.934  30.053  1.00  0.00    -0.014 A 
ATOM     84  C   UNL A   1      48.670  26.337  31.248  1.00  0.00     0.010 A 
ATOM     85  C   UNL A   1      49.176  27.333  29.096  1.00  0.00     0.010 A 
ATOM     86  C   UNL A   1      50.035  26.170  31.495  1.00  0.00     0.020 A 
ATOM     87  C   UNL A   1      50.540  27.135  29.323  1.00  0.00     0.020 A 
ATOM     88  C   UNL A   1      50.962  26.577  30.533  1.00  0.00     0.054 A 
BRANCH  88  89
ATOM     89  S   UNL A   1      52.730  26.361  30.874  1.00  0.00     0.124 S 
ATOM     90  O   UNL A   1      52.739  25.162  31.707  1.00  0.00    -0.237 OA
ATOM     91  O   UNL A   1      53.298  26.204  29.536  1.00  0.00    -0.237 OA
ATOM     92  O   UNL A   1      53.100  27.598  31.557  1.00  0.00    -0.744 OA
ENDBRANCH  88  89
ENDBRANCH  62  83
ENDBRANCH  36  37
ENDBRANCH  28  31
ENDBRANCH  26  27
ENDBRANCH  25  26
ENDBRANCH   1  25
TORSDOF 17
ENDMDL
MODEL 2
REMARK VINA RESULT:     -11.3      1.606      3.744
REMARK SMILES Cc1cc(F)c(-c2ccc(F)c(C(=O)NCCCCCCNC(=O)c3ccc(-c4c5nc(c(-c6ccc(S(=O)(=O)[O-])cc6)c6ccc([nH]6)c(-c6ccc(S(=O)(=O)[O-])cc6)c6nc(c(-c7ccc(S(=O)(=O)[O-])cc7)c7ccc4[nH]7)C=C6)C=C5)cc3)c2)cc1F
REMARK SMILES IDX 19 1 18 2 17 3 16 4 15 5 13 6 14 7 12 9 7 10 8 11 85 12 9 13
REMARK SMILES IDX 10 14 11 15 6 16 1 17 2 18 3 19 87 20 4 21 86 22 88 23 5 24
REMARK SMILES IDX 20 25 21 26 22 27 23 28 24 30 25 31 26 32 84 33 27 34 83 35
REMARK SMILES IDX 28 36 29 37 30 38 77 39 31 40 82 41 76 42 78 43 32 44 81 45
REMARK SMILES IDX 75 46 74 47 33 49 63 50 44 51 62 52 45 53 48 54 61 55 79 56
REMARK SMILES IDX 46 57 47 58 60 60 80 61 49 62 34 63 35 64 43 65 36 66 42 67
REMARK SMILES IDX 37 68 38 69 39 70 40 71 41 72 64 73 65 74 73 75 66 76 72 77
REMARK SMILES IDX 67 78 68 79 69 80 70 81 71 82 50 83 51 84 59 85 52 86 58 87
REMARK SMILES IDX 53 88 54 89 55 90 56 91 57 92
REMARK H PARENT 15 8 22 29 78 48 48 59
REMARK Flexibility Score: inf
ROOT
ATOM      1  C   UNL A   1      32.918  28.578  24.738  1.00  0.00     0.002 C 
ENDROOT
BRANCH   1   2
ATOM      2  C   UNL A   1      34.035  27.839  23.998  1.00  0.00     0.002 C 
BRANCH   2   3
ATOM      3  C   UNL A   1      33.667  26.516  23.331  1.00  0.00     0.021 C 
BRANCH   3   4
ATOM      4  C   UNL A   1      34.346  25.257  23.857  1.00  0.00     0.116 C 
BRANCH   4   5
ATOM      5  N   UNL A   1      33.761  24.008  23.403  1.00  0.00    -0.352 N 
ATOM      6  C   UNL A   1      32.461  23.543  23.426  1.00  0.00     0.254 C 
ATOM      7  O   UNL A   1      32.233  22.464  22.884  1.00  0.00    -0.269 OA
ATOM      8  H   UNL A   1      34.408  23.380  23.007  1.00  0.00     0.163 HD
BRANCH   6   9
ATOM      9  C   UNL A   1      31.365  24.273  24.119  1.00  0.00     0.076 A 
ATOM     10  C   UNL A   1      29.731  26.097  24.201  1.00  0.00    -0.014 A 
ATOM     11  C   UNL A   1      29.536  25.830  25.566  1.00  0.00     0.012 A 
ATOM     12  C   UNL A   1      30.564  25.226  23.476  1.00  0.00     0.025 A 
ATOM     13  C   UNL A   1      30.217  24.788  26.194  1.00  0.00     0.041 A 
ATOM     14  C   UNL A   1      31.152  24.041  25.480  1.00  0.00     0.135 A 
ATOM     15  F   UNL A   1      31.861  23.127  26.158  1.00  0.00    -0.206 F 
BRANCH  10  16
ATOM     16  C   UNL A   1      29.214  27.332  23.580  1.00  0.00     0.020 A 
ATOM     17  C   UNL A   1      27.810  30.911  21.557  1.00  0.00     0.047 C 
ATOM     18  C   UNL A   1      28.275  29.653  22.224  1.00  0.00    -0.012 A 
ATOM     19  C   UNL A   1      27.389  28.834  22.934  1.00  0.00     0.046 A 
ATOM     20  C   UNL A   1      29.623  29.301  22.198  1.00  0.00     0.126 A 
ATOM     21  C   UNL A   1      27.858  27.693  23.593  1.00  0.00     0.131 A 
ATOM     22  C   UNL A   1      30.088  28.162  22.853  1.00  0.00     0.051 A 
ATOM     23  F   UNL A   1      30.502  30.057  21.526  1.00  0.00    -0.207 F 
ATOM     24  F   UNL A   1      26.964  26.928  24.241  1.00  0.00    -0.206 F 
ENDBRANCH  10  16
ENDBRANCH   6   9
ENDBRANCH   4   5
ENDBRANCH   3   4
ENDBRANCH   2   3
ENDBRANCH   1   2
BRANCH   1  25
ATOM     25  C   UNL A   1      32.503  28.015  26.097  1.00  0.00     0.021 C 
BRANCH  25  26
ATOM     26  C   UNL A   1      33.370  28.409  27.286  1.00  0.00     0.116 C 
BRANCH  26  27
ATOM     27  N   UNL A   1      33.358  29.834  27.567  1.00  0.00    -0.352 N 
ATOM     28  C   UNL A   1      34.355  30.643  28.070  1.00  0.00     0.251 C 
ATOM     29  H   UNL A   1      32.510  30.292  27.367  1.00  0.00     0.163 HD
ATOM     30  O   UNL A   1      34.110  31.810  28.338  1.00  0.00    -0.269 OA
BRANCH  28  31
ATOM     31  C   UNL A   1      35.710  30.091  28.321  1.00  0.00     0.039 A 
ATOM     32  C   UNL A   1      36.055  29.550  29.559  1.00  0.00     0.014 A 
ATOM     33  C   UNL A   1      36.656  30.117  27.289  1.00  0.00     0.014 A 
ATOM     34  C   UNL A   1      37.378  29.206  29.820  1.00  0.00     0.010 A 
ATOM     35  C   UNL A   1      37.964  29.675  27.526  1.00  0.00     0.010 A 
ATOM     36  C   UNL A   1      38.352  29.259  28.807  1.00  0.00    -0.014 A 
BRANCH  36  37
ATOM     37  C   UNL A   1      39.750  28.853  29.126  1.00  0.00     0.031 A 
ATOM     38  C   UNL A   1      40.281  27.500  28.723  1.00  0.00     0.074 A 
ATOM     39  C   UNL A   1      40.573  29.752  29.705  1.00  0.00     0.049 A 
ATOM     40  N   UNL A   1      41.502  27.037  28.827  1.00  0.00    -0.248 NA
ATOM     41  C   UNL A   1      39.333  26.543  28.127  1.00  0.00     0.031 C 
ATOM     42  C   UNL A   1      40.179  31.099  30.130  1.00  0.00     0.029 A 
ATOM     43  N   UNL A   1      41.917  29.699  29.988  1.00  0.00    -0.354 N 
ATOM     44  C   UNL A   1      41.468  25.744  28.315  1.00  0.00     0.074 A 
ATOM     45  C   UNL A   1      40.099  25.476  27.936  1.00  0.00     0.031 C 
ATOM     46  C   UNL A   1      41.269  31.772  30.526  1.00  0.00     0.029 A 
ATOM     47  C   UNL A   1      42.427  30.889  30.458  1.00  0.00     0.049 A 
ATOM     48  H   UNL A   1      42.462  28.889  29.866  1.00  0.00     0.167 HD
ATOM     49  C   UNL A   1      42.490  24.871  28.154  1.00  0.00     0.031 A 
ATOM     50  C   UNL A   1      43.686  31.241  30.791  1.00  0.00     0.031 A 
ATOM     51  C   UNL A   1      43.859  25.150  28.513  1.00  0.00     0.049 A 
ATOM     52  C   UNL A   1      44.787  30.227  30.653  1.00  0.00     0.074 A 
ATOM     53  C   UNL A   1      44.964  24.327  28.366  1.00  0.00     0.029 A 
ATOM     54  N   UNL A   1      44.315  26.333  29.072  1.00  0.00    -0.354 N 
ATOM     55  N   UNL A   1      44.733  29.019  30.146  1.00  0.00    -0.248 NA
ATOM     56  C   UNL A   1      46.120  30.625  31.128  1.00  0.00     0.031 C 
ATOM     57  C   UNL A   1      46.073  24.984  28.899  1.00  0.00     0.029 A 
ATOM     58  C   UNL A   1      45.678  26.249  29.304  1.00  0.00     0.049 A 
ATOM     59  H   UNL A   1      43.754  27.116  29.275  1.00  0.00     0.167 HD
ATOM     60  C   UNL A   1      46.028  28.518  30.228  1.00  0.00     0.074 A 
ATOM     61  C   UNL A   1      46.848  29.566  30.800  1.00  0.00     0.031 C 
ATOM     62  C   UNL A   1      46.490  27.296  29.871  1.00  0.00     0.031 A 
BRANCH  49  63
ATOM     63  C   UNL A   1      42.210  23.525  27.532  1.00  0.00    -0.014 A 
ATOM     64  C   UNL A   1      41.742  22.467  28.336  1.00  0.00     0.010 A 
ATOM     65  C   UNL A   1      42.592  23.257  26.206  1.00  0.00     0.010 A 
ATOM     66  C   UNL A   1      41.721  21.158  27.846  1.00  0.00     0.020 A 
ATOM     67  C   UNL A   1      42.544  21.953  25.703  1.00  0.00     0.020 A 
ATOM     68  C   UNL A   1      42.142  20.909  26.538  1.00  0.00     0.054 A 
BRANCH  68  69
ATOM     69  S   UNL A   1      42.206  19.191  25.954  1.00  0.00     0.124 S 
ATOM     70  O   UNL A   1      43.110  19.287  24.812  1.00  0.00    -0.237 OA
ATOM     71  O   UNL A   1      42.729  18.480  27.118  1.00  0.00    -0.237 OA
ATOM     72  O   UNL A   1      40.814  18.890  25.626  1.00  0.00    -0.744 OA
ENDBRANCH  68  69
ENDBRANCH  49  63
BRANCH  50  73
ATOM     73  C   UNL A   1      43.972  32.629  31.256  1.00  0.00    -0.014 A 
ATOM     74  C   UNL A   1      43.823  32.979  32.611  1.00  0.00     0.010 A 
ATOM     75  C   UNL A   1      44.366  33.619  30.337  1.00  0.00     0.010 A 
ATOM     76  C   UNL A   1      44.015  34.298  33.030  1.00  0.00     0.020 A 
ATOM     77  C   UNL A   1      44.597  34.932  30.759  1.00  0.00     0.020 A 
ATOM     78  C   UNL A   1      44.393  35.268  32.100  1.00  0.00     0.054 A 
BRANCH  78  79
ATOM     79  S   UNL A   1      44.628  36.975  32.665  1.00  0.00     0.124 S 
ATOM     80  O   UNL A   1      45.914  36.888  33.352  1.00  0.00    -0.237 OA
ATOM     81  O   UNL A   1      44.633  37.728  31.413  1.00  0.00    -0.237 OA
ATOM     82  O   UNL A   1      43.472  37.212  33.527  1.00  0.00    -0.744 OA
ENDBRANCH  78  79
ENDBRANCH  50  73
BRANCH  62  83
ATOM     83  C   UNL A   1      47.955  27.004  30.079  1.00  0.00    -0.014 A 
ATOM     84  C   UNL A   1      48.384  26.383  31.268  1.00  0.00     0.010 A 
ATOM     85  C   UNL A   1      48.917  27.437  29.151  1.00  0.00     0.010 A 
ATOM     86  C   UNL A   1      49.746  26.224  31.536  1.00  0.00     0.020 A 
ATOM     87  C   UNL A   1      50.279  27.247  29.397  1.00  0.00     0.020 A 
ATOM     88  C   UNL A   1      50.685  26.664  30.600  1.00  0.00     0.054 A 
BRANCH  88  89
ATOM     89  S   UNL A   1      52.449  26.458  30.968  1.00  0.00     0.124 S 
ATOM     90  O   UNL A   1      52.768  27.705  31.655  1.00  0.00    -0.237 OA
ATOM     91  O   UNL A   1      52.465  25.256  31.800  1.00  0.00    -0.237 OA
ATOM     92  O   UNL A   1      53.058  26.298  29.649  1.00  0.00    -0.744 OA
ENDBRANCH  88  89
ENDBRANCH  62  83
ENDBRANCH  36  37
ENDBRANCH  28  31
ENDBRANCH  26  27
ENDBRANCH  25  26
ENDBRANCH   1  25
TORSDOF 17
ENDMDL
MODEL 3
REMARK VINA RESULT:     -11.2      2.914      8.465
REMARK SMILES Cc1cc(F)c(-c2ccc(F)c(C(=O)NCCCCCCNC(=O)c3ccc(-c4c5nc(c(-c6ccc(S(=O)(=O)[O-])cc6)c6ccc([nH]6)c(-c6ccc(S(=O)(=O)[O-])cc6)c6nc(c(-c7ccc(S(=O)(=O)[O-])cc7)c7ccc4[nH]7)C=C6)C=C5)cc3)c2)cc1F
REMARK SMILES IDX 19 1 18 2 17 3 16 4 15 5 13 6 14 7 12 9 7 10 8 11 85 12 9 13
REMARK SMILES IDX 10 14 11 15 6 16 1 17 2 18 3 19 87 20 4 21 86 22 88 23 5 24
REMARK SMILES IDX 20 25 21 26 22 27 23 28 24 30 25 31 26 32 84 33 27 34 83 35
REMARK SMILES IDX 28 36 29 37 30 38 77 39 31 40 82 41 76 42 78 43 32 44 81 45
REMARK SMILES IDX 75 46 74 47 33 49 63 50 44 51 62 52 45 53 48 54 61 55 79 56
REMARK SMILES IDX 46 57 47 58 60 60 80 61 49 62 34 63 35 64 43 65 36 66 42 67
REMARK SMILES IDX 37 68 38 69 39 70 40 71 41 72 64 73 65 74 73 75 66 76 72 77
REMARK SMILES IDX 67 78 68 79 69 80 70 81 71 82 50 83 51 84 59 85 52 86 58 87
REMARK SMILES IDX 53 88 54 89 55 90 56 91 57 92
REMARK H PARENT 15 8 22 29 78 48 48 59
REMARK Flexibility Score: inf
ROOT
ATOM      1  C   UNL A   1      35.476  22.458  26.765  1.00  0.00     0.002 C 
ENDROOT
BRANCH   1   2
ATOM      2  C   UNL A   1      34.170  21.663  26.712  1.00  0.00     0.002 C 
BRANCH   2   3
ATOM      3  C   UNL A   1      33.934  20.798  25.475  1.00  0.00     0.021 C 
BRANCH   3   4
ATOM      4  C   UNL A   1      32.538  20.817  24.867  1.00  0.00     0.116 C 
BRANCH   4   5
ATOM      5  N   UNL A   1      31.493  21.317  25.742  1.00  0.00    -0.352 N 
ATOM      6  C   UNL A   1      30.920  22.567  25.865  1.00  0.00     0.254 C 
ATOM      7  O   UNL A   1      29.976  22.688  26.643  1.00  0.00    -0.269 OA
ATOM      8  H   UNL A   1      31.125  20.642  26.359  1.00  0.00     0.163 HD
BRANCH   6   9
ATOM      9  C   UNL A   1      31.438  23.757  25.135  1.00  0.00     0.076 A 
ATOM     10  C   UNL A   1      32.372  26.021  25.133  1.00  0.00    -0.014 A 
ATOM     11  C   UNL A   1      32.099  26.108  23.758  1.00  0.00     0.012 A 
ATOM     12  C   UNL A   1      32.139  24.789  25.771  1.00  0.00     0.025 A 
ATOM     13  C   UNL A   1      31.534  25.033  23.073  1.00  0.00     0.041 A 
ATOM     14  C   UNL A   1      31.173  23.881  23.769  1.00  0.00     0.135 A 
ATOM     15  F   UNL A   1      30.529  22.923  23.087  1.00  0.00    -0.206 F 
BRANCH  10  16
ATOM     16  C   UNL A   1      32.740  27.216  25.919  1.00  0.00     0.020 A 
ATOM     17  C   UNL A   1      33.929  30.816  28.038  1.00  0.00     0.047 C 
ATOM     18  C   UNL A   1      33.497  29.599  27.279  1.00  0.00    -0.012 A 
ATOM     19  C   UNL A   1      32.187  29.114  27.367  1.00  0.00     0.046 A 
ATOM     20  C   UNL A   1      34.415  28.887  26.511  1.00  0.00     0.126 A 
ATOM     21  C   UNL A   1      31.822  27.945  26.690  1.00  0.00     0.131 A 
ATOM     22  C   UNL A   1      34.050  27.724  25.835  1.00  0.00     0.051 A 
ATOM     23  F   UNL A   1      35.679  29.322  26.400  1.00  0.00    -0.207 F 
ATOM     24  F   UNL A   1      30.548  27.534  26.787  1.00  0.00    -0.206 F 
ENDBRANCH  10  16
ENDBRANCH   6   9
ENDBRANCH   4   5
ENDBRANCH   3   4
ENDBRANCH   2   3
ENDBRANCH   1   2
BRANCH   1  25
ATOM     25  C   UNL A   1      35.565  23.694  25.872  1.00  0.00     0.021 C 
BRANCH  25  26
ATOM     26  C   UNL A   1      36.843  23.849  25.056  1.00  0.00     0.116 C 
BRANCH  26  27
ATOM     27  N   UNL A   1      37.862  22.865  25.382  1.00  0.00    -0.352 N 
ATOM     28  C   UNL A   1      39.017  23.003  26.122  1.00  0.00     0.251 C 
ATOM     29  H   UNL A   1      37.703  21.964  25.018  1.00  0.00     0.163 HD
ATOM     30  O   UNL A   1      39.806  22.072  26.192  1.00  0.00    -0.269 OA
BRANCH  28  31
ATOM     31  C   UNL A   1      39.319  24.287  26.803  1.00  0.00     0.039 A 
ATOM     32  C   UNL A   1      40.013  25.307  26.153  1.00  0.00     0.014 A 
ATOM     33  C   UNL A   1      38.896  24.472  28.125  1.00  0.00     0.014 A 
ATOM     34  C   UNL A   1      40.436  26.422  26.868  1.00  0.00     0.010 A 
ATOM     35  C   UNL A   1      39.239  25.642  28.814  1.00  0.00     0.010 A 
ATOM     36  C   UNL A   1      40.053  26.610  28.208  1.00  0.00    -0.014 A 
BRANCH  36  37
ATOM     37  C   UNL A   1      40.507  27.835  28.927  1.00  0.00     0.031 A 
ATOM     38  C   UNL A   1      41.946  28.008  29.339  1.00  0.00     0.074 A 
ATOM     39  C   UNL A   1      39.624  28.836  29.126  1.00  0.00     0.049 A 
ATOM     40  N   UNL A   1      42.523  29.058  29.871  1.00  0.00    -0.248 NA
ATOM     41  C   UNL A   1      42.860  26.873  29.131  1.00  0.00     0.031 C 
ATOM     42  C   UNL A   1      38.205  28.791  28.760  1.00  0.00     0.029 A 
ATOM     43  N   UNL A   1      39.792  30.103  29.631  1.00  0.00    -0.354 N 
ATOM     44  C   UNL A   1      43.856  28.710  30.060  1.00  0.00     0.074 A 
ATOM     45  C   UNL A   1      44.000  27.339  29.626  1.00  0.00     0.031 C 
ATOM     46  C   UNL A   1      37.660  29.999  28.961  1.00  0.00     0.029 A 
ATOM     47  C   UNL A   1      38.662  30.885  29.541  1.00  0.00     0.049 A 
ATOM     48  H   UNL A   1      40.638  30.421  30.021  1.00  0.00     0.167 HD
ATOM     49  C   UNL A   1      44.871  29.472  30.532  1.00  0.00     0.031 A 
ATOM     50  C   UNL A   1      38.450  32.175  29.875  1.00  0.00     0.031 A 
ATOM     51  C   UNL A   1      44.728  30.847  30.944  1.00  0.00     0.049 A 
ATOM     52  C   UNL A   1      39.586  32.975  30.448  1.00  0.00     0.074 A 
ATOM     53  C   UNL A   1      45.710  31.702  31.417  1.00  0.00     0.029 A 
ATOM     54  N   UNL A   1      43.547  31.571  30.922  1.00  0.00    -0.354 N 
ATOM     55  N   UNL A   1      40.842  32.630  30.598  1.00  0.00    -0.248 NA
ATOM     56  C   UNL A   1      39.276  34.341  30.895  1.00  0.00     0.031 C 
ATOM     57  C   UNL A   1      45.111  32.918  31.746  1.00  0.00     0.029 A 
ATOM     58  C   UNL A   1      43.771  32.851  31.403  1.00  0.00     0.049 A 
ATOM     59  H   UNL A   1      42.678  31.227  30.613  1.00  0.00     0.167 HD
ATOM     60  C   UNL A   1      41.476  33.741  31.142  1.00  0.00     0.074 A 
ATOM     61  C   UNL A   1      40.474  34.779  31.262  1.00  0.00     0.031 C 
ATOM     62  C   UNL A   1      42.770  33.882  31.518  1.00  0.00     0.031 A 
BRANCH  49  63
ATOM     63  C   UNL A   1      46.255  28.877  30.611  1.00  0.00    -0.014 A 
ATOM     64  C   UNL A   1      47.121  28.970  29.504  1.00  0.00     0.010 A 
ATOM     65  C   UNL A   1      46.622  28.065  31.698  1.00  0.00     0.010 A 
ATOM     66  C   UNL A   1      48.296  28.214  29.455  1.00  0.00     0.020 A 
ATOM     67  C   UNL A   1      47.811  27.329  31.665  1.00  0.00     0.020 A 
ATOM     68  C   UNL A   1      48.621  27.382  30.529  1.00  0.00     0.054 A 
BRANCH  68  69
ATOM     69  S   UNL A   1      50.095  26.331  30.404  1.00  0.00     0.124 S 
ATOM     70  O   UNL A   1      50.535  26.249  31.793  1.00  0.00    -0.237 OA
ATOM     71  O   UNL A   1      49.556  25.097  29.837  1.00  0.00    -0.237 OA
ATOM     72  O   UNL A   1      50.977  27.082  29.513  1.00  0.00    -0.744 OA
ENDBRANCH  68  69
ENDBRANCH  49  63
BRANCH  50  73
ATOM     73  C   UNL A   1      37.113  32.794  29.643  1.00  0.00    -0.014 A 
ATOM     74  C   UNL A   1      36.784  33.347  28.391  1.00  0.00     0.010 A 
ATOM     75  C   UNL A   1      36.171  32.862  30.685  1.00  0.00     0.010 A 
ATOM     76  C   UNL A   1      35.562  33.997  28.200  1.00  0.00     0.020 A 
ATOM     77  C   UNL A   1      34.931  33.477  30.486  1.00  0.00     0.020 A 
ATOM     78  C   UNL A   1      34.646  34.064  29.251  1.00  0.00     0.054 A 
BRANCH  78  79
ATOM     79  S   UNL A   1      33.070  34.920  28.981  1.00  0.00     0.124 S 
ATOM     80  O   UNL A   1      32.417  34.044  28.013  1.00  0.00    -0.237 OA
ATOM     81  O   UNL A   1      32.481  34.932  30.318  1.00  0.00    -0.237 OA
ATOM     82  O   UNL A   1      33.474  36.228  28.470  1.00  0.00    -0.744 OA
ENDBRANCH  78  79
ENDBRANCH  50  73
BRANCH  62  83
ATOM     83  C   UNL A   1      43.199  35.206  32.098  1.00  0.00    -0.014 A 
ATOM     84  C   UNL A   1      42.995  35.471  33.465  1.00  0.00     0.010 A 
ATOM     85  C   UNL A   1      43.705  36.225  31.273  1.00  0.00     0.010 A 
ATOM     86  C   UNL A   1      43.265  36.737  33.992  1.00  0.00     0.020 A 
ATOM     87  C   UNL A   1      44.011  37.482  31.802  1.00  0.00     0.020 A 
ATOM     88  C   UNL A   1      43.766  37.736  33.154  1.00  0.00     0.054 A 
BRANCH  88  89
ATOM     89  S   UNL A   1      44.101  39.376  33.852  1.00  0.00     0.124 S 
ATOM     90  O   UNL A   1      44.168  39.094  35.283  1.00  0.00    -0.237 OA
ATOM     91  O   UNL A   1      45.369  39.740  33.221  1.00  0.00    -0.237 OA
ATOM     92  O   UNL A   1      42.953  40.172  33.426  1.00  0.00    -0.744 OA
ENDBRANCH  88  89
ENDBRANCH  62  83
ENDBRANCH  36  37
ENDBRANCH  28  31
ENDBRANCH  26  27
ENDBRANCH  25  26
ENDBRANCH   1  25
TORSDOF 17
ENDMDL
