MODEL 1
REMARK VINA RESULT:     -13.3      0.000      0.000
REMARK SMILES Cc1[nH]c2ccccc2c1[C@H](C(=O)NCCCCCCNC(=O)c1ccc(-c2c3nc(c(-c4ccc(S(=O)(=O)[O-])cc4)c4ccc([nH]4)c(-c4ccc(S(=O)(=O)[O-])cc4)c4nc(c(-c5ccc(S(=O)(=O)[O-])cc5)c5ccc2[nH]5)C=C4)C=C3)cc1)[NH+]1CCN(C(=O)c2ccco2)CC1
REMARK SMILES IDX 18 1 17 2 16 3 15 4 14 5 12 6 13 7 11 9 10 10 1 11 2 12 3 13
REMARK SMILES IDX 4 14 9 16 5 17 8 18 6 19 7 20 84 21 85 22 96 23 86 25 95 26
REMARK SMILES IDX 87 27 88 28 89 29 90 30 91 31 94 32 92 33 93 34 19 35 20 36
REMARK SMILES IDX 21 37 22 38 23 40 24 41 25 42 83 43 26 44 82 45 27 46 28 47
REMARK SMILES IDX 29 48 76 49 30 50 81 51 75 52 77 53 31 54 80 55 74 56 73 57
REMARK SMILES IDX 32 59 62 60 43 61 61 62 44 63 47 64 60 65 78 66 45 67 46 68
REMARK SMILES IDX 59 70 79 71 48 72 33 73 34 74 42 75 35 76 41 77 36 78 37 79
REMARK SMILES IDX 38 80 39 81 40 82 63 83 64 84 72 85 65 86 71 87 66 88 67 89
REMARK SMILES IDX 68 90 69 91 70 92 49 93 50 94 58 95 51 96 57 97 52 98 53 99
REMARK SMILES IDX 54 100 55 101 56 102
REMARK H PARENT 14 8 3 15 84 24 21 39 77 58 47 69
REMARK Flexibility Score: inf
ROOT
ATOM      1  C   UNL A   1      33.590  30.992  27.512  1.00  0.00     0.002 C 
ENDROOT
BRANCH   1   2
ATOM      2  C   UNL A   1      32.570  30.384  26.540  1.00  0.00     0.002 C 
BRANCH   2   3
ATOM      3  C   UNL A   1      31.754  29.224  27.108  1.00  0.00     0.021 C 
BRANCH   3   4
ATOM      4  C   UNL A   1      32.420  27.874  26.893  1.00  0.00     0.116 C 
BRANCH   4   5
ATOM      5  N   UNL A   1      31.458  26.790  26.918  1.00  0.00    -0.351 N 
ATOM      6  C   UNL A   1      31.093  25.920  25.925  1.00  0.00     0.283 C 
ATOM      7  O   UNL A   1      30.251  25.063  26.222  1.00  0.00    -0.268 OA
ATOM      8  H   UNL A   1      30.998  26.658  27.778  1.00  0.00     0.163 HD
BRANCH   6   9
ATOM      9  C   UNL A   1      31.701  25.969  24.495  1.00  0.00     0.308 C 
BRANCH   9  10
ATOM     10  C   UNL A   1      31.462  27.311  23.799  1.00  0.00     0.047 A 
ATOM     11  C   UNL A   1      33.952  28.156  23.626  1.00  0.00     0.065 C 
ATOM     12  C   UNL A   1      32.479  28.189  23.406  1.00  0.00     0.022 A 
ATOM     13  N   UNL A   1      31.915  29.182  22.649  1.00  0.00    -0.358 N 
ATOM     14  C   UNL A   1      30.552  29.057  22.629  1.00  0.00     0.046 A 
ATOM     15  H   UNL A   1      32.421  29.887  22.184  1.00  0.00     0.166 HD
ATOM     16  C   UNL A   1      30.224  27.947  23.410  1.00  0.00     0.009 A 
ATOM     17  C   UNL A   1      29.599  29.853  21.981  1.00  0.00     0.027 A 
ATOM     18  C   UNL A   1      28.853  27.674  23.605  1.00  0.00     0.011 A 
ATOM     19  C   UNL A   1      28.254  29.540  22.174  1.00  0.00     0.002 A 
ATOM     20  C   UNL A   1      27.882  28.478  22.991  1.00  0.00     0.001 A 
ENDBRANCH   9  10
BRANCH   9  21
ATOM     21  N   UNL A   1      33.094  25.446  24.400  1.00  0.00    -0.318 N 
ATOM     22  C   UNL A   1      33.853  25.196  25.636  1.00  0.00     0.285 C 
ATOM     23  C   UNL A   1      33.222  24.262  23.534  1.00  0.00     0.285 C 
ATOM     24  H   UNL A   1      33.533  26.269  23.985  1.00  0.00     0.349 HD
ATOM     25  C   UNL A   1      33.571  23.869  26.371  1.00  0.00     0.181 C 
ATOM     26  C   UNL A   1      32.860  22.912  24.178  1.00  0.00     0.181 C 
ATOM     27  N   UNL A   1      33.455  22.698  25.503  1.00  0.00    -0.325 N 
ATOM     28  C   UNL A   1      33.384  21.453  26.159  1.00  0.00     0.289 C 
ATOM     29  O   UNL A   1      33.354  21.395  27.390  1.00  0.00    -0.265 OA
BRANCH  28  30
ATOM     30  C   UNL A   1      33.378  20.254  25.343  1.00  0.00     0.191 A 
ATOM     31  C   UNL A   1      34.398  19.517  24.766  1.00  0.00     0.056 A 
ATOM     32  O   UNL A   1      32.183  19.625  25.112  1.00  0.00    -0.459 OA
ATOM     33  C   UNL A   1      33.793  18.407  24.128  1.00  0.00     0.043 A 
ATOM     34  C   UNL A   1      32.445  18.521  24.367  1.00  0.00     0.196 A 
ENDBRANCH  28  30
ENDBRANCH   9  21
ENDBRANCH   6   9
ENDBRANCH   4   5
ENDBRANCH   3   4
ENDBRANCH   2   3
ENDBRANCH   1   2
BRANCH   1  35
ATOM     35  C   UNL A   1      35.014  30.439  27.404  1.00  0.00     0.021 C 
BRANCH  35  36
ATOM     36  C   UNL A   1      36.028  31.094  28.335  1.00  0.00     0.116 C 
BRANCH  36  37
ATOM     37  N   UNL A   1      35.798  30.744  29.726  1.00  0.00    -0.352 N 
ATOM     38  C   UNL A   1      36.576  29.982  30.557  1.00  0.00     0.251 C 
ATOM     39  H   UNL A   1      34.973  31.103  30.125  1.00  0.00     0.163 HD
ATOM     40  O   UNL A   1      36.166  29.640  31.659  1.00  0.00    -0.269 OA
BRANCH  38  41
ATOM     41  C   UNL A   1      37.912  29.570  30.091  1.00  0.00     0.039 A 
ATOM     42  C   UNL A   1      38.194  29.621  28.726  1.00  0.00     0.014 A 
ATOM     43  C   UNL A   1      38.881  29.160  31.012  1.00  0.00     0.014 A 
ATOM     44  C   UNL A   1      39.473  29.290  28.282  1.00  0.00     0.010 A 
ATOM     45  C   UNL A   1      40.171  28.887  30.573  1.00  0.00     0.010 A 
ATOM     46  C   UNL A   1      40.473  28.936  29.204  1.00  0.00    -0.014 A 
BRANCH  46  47
ATOM     47  C   UNL A   1      41.834  28.577  28.745  1.00  0.00     0.031 A 
ATOM     48  C   UNL A   1      42.899  29.635  28.682  1.00  0.00     0.074 A 
ATOM     49  C   UNL A   1      42.092  27.319  28.343  1.00  0.00     0.049 A 
ATOM     50  N   UNL A   1      44.139  29.533  28.279  1.00  0.00    -0.248 NA
ATOM     51  C   UNL A   1      42.514  30.993  29.103  1.00  0.00     0.031 C 
ATOM     52  C   UNL A   1      41.122  26.221  28.318  1.00  0.00     0.029 A 
ATOM     53  N   UNL A   1      43.248  26.751  27.873  1.00  0.00    -0.354 N 
ATOM     54  C   UNL A   1      44.674  30.812  28.378  1.00  0.00     0.074 A 
ATOM     55  C   UNL A   1      43.613  31.682  28.836  1.00  0.00     0.031 C 
ATOM     56  C   UNL A   1      41.731  25.106  27.878  1.00  0.00     0.029 A 
ATOM     57  C   UNL A   1      43.122  25.418  27.564  1.00  0.00     0.049 A 
ATOM     58  H   UNL A   1      44.090  27.251  27.767  1.00  0.00     0.167 HD
ATOM     59  C   UNL A   1      45.941  31.220  28.131  1.00  0.00     0.031 A 
ATOM     60  C   UNL A   1      44.028  24.545  27.083  1.00  0.00     0.031 A 
ATOM     61  C   UNL A   1      46.994  30.343  27.698  1.00  0.00     0.049 A 
ATOM     62  C   UNL A   1      45.434  25.017  26.837  1.00  0.00     0.074 A 
ATOM     63  C   UNL A   1      48.326  30.642  27.477  1.00  0.00     0.029 A 
ATOM     64  N   UNL A   1      46.834  28.994  27.422  1.00  0.00    -0.354 N 
ATOM     65  N   UNL A   1      45.940  26.216  27.001  1.00  0.00    -0.248 NA
ATOM     66  C   UNL A   1      46.395  24.015  26.355  1.00  0.00     0.031 C 
ATOM     67  C   UNL A   1      48.964  29.480  27.029  1.00  0.00     0.029 A 
ATOM     68  C   UNL A   1      48.039  28.448  27.017  1.00  0.00     0.049 A 
ATOM     69  H   UNL A   1      45.988  28.497  27.503  1.00  0.00     0.167 HD
ATOM     70  C   UNL A   1      47.284  26.108  26.667  1.00  0.00     0.074 A 
ATOM     71  C   UNL A   1      47.515  24.725  26.305  1.00  0.00     0.031 C 
ATOM     72  C   UNL A   1      48.243  27.067  26.662  1.00  0.00     0.031 A 
BRANCH  59  73
ATOM     73  C   UNL A   1      46.249  32.681  28.322  1.00  0.00    -0.014 A 
ATOM     74  C   UNL A   1      46.103  33.598  27.266  1.00  0.00     0.010 A 
ATOM     75  C   UNL A   1      46.668  33.147  29.581  1.00  0.00     0.010 A 
ATOM     76  C   UNL A   1      46.411  34.948  27.454  1.00  0.00     0.020 A 
ATOM     77  C   UNL A   1      46.951  34.501  29.779  1.00  0.00     0.020 A 
ATOM     78  C   UNL A   1      46.839  35.390  28.709  1.00  0.00     0.054 A 
BRANCH  78  79
ATOM     79  S   UNL A   1      47.215  37.150  28.930  1.00  0.00     0.124 S 
ATOM     80  O   UNL A   1      47.148  37.646  27.557  1.00  0.00    -0.237 OA
ATOM     81  O   UNL A   1      46.144  37.601  29.814  1.00  0.00    -0.237 OA
ATOM     82  O   UNL A   1      48.550  37.147  29.525  1.00  0.00    -0.744 OA
ENDBRANCH  78  79
ENDBRANCH  59  73
BRANCH  60  83
ATOM     83  C   UNL A   1      43.635  23.134  26.827  1.00  0.00    -0.014 A 
ATOM     84  C   UNL A   1      43.981  22.504  25.618  1.00  0.00     0.010 A 
ATOM     85  C   UNL A   1      42.931  22.403  27.801  1.00  0.00     0.010 A 
ATOM     86  C   UNL A   1      43.615  21.176  25.381  1.00  0.00     0.020 A 
ATOM     87  C   UNL A   1      42.585  21.067  27.578  1.00  0.00     0.020 A 
ATOM     88  C   UNL A   1      42.921  20.465  26.363  1.00  0.00     0.054 A 
BRANCH  88  89
ATOM     89  S   UNL A   1      42.504  18.725  26.059  1.00  0.00     0.124 S 
ATOM     90  O   UNL A   1      41.092  18.811  25.703  1.00  0.00    -0.237 OA
ATOM     91  O   UNL A   1      43.412  18.367  24.972  1.00  0.00    -0.237 OA
ATOM     92  O   UNL A   1      42.791  18.078  27.338  1.00  0.00    -0.744 OA
ENDBRANCH  88  89
ENDBRANCH  60  83
BRANCH  72  93
ATOM     93  C   UNL A   1      49.636  26.648  26.278  1.00  0.00    -0.014 A 
ATOM     94  C   UNL A   1      50.505  26.071  27.220  1.00  0.00     0.010 A 
ATOM     95  C   UNL A   1      50.056  26.780  24.943  1.00  0.00     0.010 A 
ATOM     96  C   UNL A   1      51.783  25.657  26.837  1.00  0.00     0.020 A 
ATOM     97  C   UNL A   1      51.324  26.345  24.551  1.00  0.00     0.020 A 
ATOM     98  C   UNL A   1      52.185  25.798  25.505  1.00  0.00     0.054 A 
BRANCH  98  99
ATOM     99  S   UNL A   1      53.831  25.209  25.022  1.00  0.00     0.124 S 
ATOM    100  O   UNL A   1      54.077  25.967  23.799  1.00  0.00    -0.237 OA
ATOM    101  O   UNL A   1      54.655  25.580  26.169  1.00  0.00    -0.237 OA
ATOM    102  O   UNL A   1      53.642  23.772  24.837  1.00  0.00    -0.744 OA
ENDBRANCH  98  99
ENDBRANCH  72  93
ENDBRANCH  46  47
ENDBRANCH  38  41
ENDBRANCH  36  37
ENDBRANCH  35  36
ENDBRANCH   1  35
TORSDOF 19
ENDMDL
MODEL 2
REMARK VINA RESULT:     -13.0      0.645      7.771
REMARK SMILES Cc1[nH]c2ccccc2c1[C@H](C(=O)NCCCCCCNC(=O)c1ccc(-c2c3nc(c(-c4ccc(S(=O)(=O)[O-])cc4)c4ccc([nH]4)c(-c4ccc(S(=O)(=O)[O-])cc4)c4nc(c(-c5ccc(S(=O)(=O)[O-])cc5)c5ccc2[nH]5)C=C4)C=C3)cc1)[NH+]1CCN(C(=O)c2ccco2)CC1
REMARK SMILES IDX 18 1 17 2 16 3 15 4 14 5 12 6 13 7 11 9 10 10 1 11 2 12 3 13
REMARK SMILES IDX 4 14 9 16 5 17 8 18 6 19 7 20 84 21 85 22 96 23 86 25 95 26
REMARK SMILES IDX 87 27 88 28 89 29 90 30 91 31 94 32 92 33 93 34 19 35 20 36
REMARK SMILES IDX 21 37 22 38 23 40 24 41 25 42 83 43 26 44 82 45 27 46 28 47
REMARK SMILES IDX 29 48 76 49 30 50 81 51 75 52 77 53 31 54 80 55 74 56 73 57
REMARK SMILES IDX 32 59 62 60 43 61 61 62 44 63 47 64 60 65 78 66 45 67 46 68
REMARK SMILES IDX 59 70 79 71 48 72 33 73 34 74 42 75 35 76 41 77 36 78 37 79
REMARK SMILES IDX 38 80 39 81 40 82 63 83 64 84 72 85 65 86 71 87 66 88 67 89
REMARK SMILES IDX 68 90 69 91 70 92 49 93 50 94 58 95 51 96 57 97 52 98 53 99
REMARK SMILES IDX 54 100 55 101 56 102
REMARK H PARENT 14 8 3 15 84 24 21 39 77 58 47 69
REMARK Flexibility Score: inf
ROOT
ATOM      1  C   UNL A   1      33.766  31.361  27.791  1.00  0.00     0.002 C 
ENDROOT
BRANCH   1   2
ATOM      2  C   UNL A   1      33.957  30.133  26.893  1.00  0.00     0.002 C 
BRANCH   2   3
ATOM      3  C   UNL A   1      33.093  28.928  27.260  1.00  0.00     0.021 C 
BRANCH   3   4
ATOM      4  C   UNL A   1      31.877  28.778  26.359  1.00  0.00     0.116 C 
BRANCH   4   5
ATOM      5  N   UNL A   1      31.183  27.528  26.596  1.00  0.00    -0.351 N 
ATOM      6  C   UNL A   1      31.015  26.449  25.769  1.00  0.00     0.283 C 
ATOM      7  O   UNL A   1      30.387  25.488  26.233  1.00  0.00    -0.268 OA
ATOM      8  H   UNL A   1      30.769  27.441  27.485  1.00  0.00     0.163 HD
BRANCH   6   9
ATOM      9  C   UNL A   1      31.587  26.396  24.325  1.00  0.00     0.308 C 
BRANCH   9  10
ATOM     10  C   UNL A   1      31.314  27.679  23.536  1.00  0.00     0.047 A 
ATOM     11  C   UNL A   1      33.795  28.464  23.121  1.00  0.00     0.065 C 
ATOM     12  C   UNL A   1      32.311  28.504  23.001  1.00  0.00     0.022 A 
ATOM     13  N   UNL A   1      31.707  29.439  22.203  1.00  0.00    -0.358 N 
ATOM     14  C   UNL A   1      30.344  29.336  22.287  1.00  0.00     0.046 A 
ATOM     15  H   UNL A   1      32.187  30.095  21.646  1.00  0.00     0.166 HD
ATOM     16  C   UNL A   1      30.060  28.301  23.180  1.00  0.00     0.009 A 
ATOM     17  C   UNL A   1      29.357  30.091  21.641  1.00  0.00     0.027 A 
ATOM     18  C   UNL A   1      28.702  28.069  23.491  1.00  0.00     0.011 A 
ATOM     19  C   UNL A   1      28.026  29.818  21.952  1.00  0.00     0.002 A 
ATOM     20  C   UNL A   1      27.700  28.834  22.880  1.00  0.00     0.001 A 
ENDBRANCH   9  10
BRANCH   9  21
ATOM     21  N   UNL A   1      32.984  25.882  24.234  1.00  0.00    -0.318 N 
ATOM     22  C   UNL A   1      33.760  25.691  25.470  1.00  0.00     0.285 C 
ATOM     23  C   UNL A   1      33.112  24.663  23.418  1.00  0.00     0.285 C 
ATOM     24  H   UNL A   1      33.410  26.690  23.779  1.00  0.00     0.349 HD
ATOM     25  C   UNL A   1      33.499  24.394  26.264  1.00  0.00     0.181 C 
ATOM     26  C   UNL A   1      32.771  23.339  24.123  1.00  0.00     0.181 C 
ATOM     27  N   UNL A   1      33.384  23.187  25.448  1.00  0.00    -0.325 N 
ATOM     28  C   UNL A   1      33.332  21.970  26.157  1.00  0.00     0.289 C 
ATOM     29  O   UNL A   1      33.319  21.964  27.389  1.00  0.00    -0.265 OA
BRANCH  28  30
ATOM     30  C   UNL A   1      33.329  20.738  25.393  1.00  0.00     0.191 A 
ATOM     31  C   UNL A   1      34.348  19.987  24.833  1.00  0.00     0.056 A 
ATOM     32  O   UNL A   1      32.137  20.087  25.205  1.00  0.00    -0.459 OA
ATOM     33  C   UNL A   1      33.746  18.845  24.252  1.00  0.00     0.043 A 
ATOM     34  C   UNL A   1      32.400  18.955  24.505  1.00  0.00     0.196 A 
ENDBRANCH  28  30
ENDBRANCH   9  21
ENDBRANCH   6   9
ENDBRANCH   4   5
ENDBRANCH   3   4
ENDBRANCH   2   3
ENDBRANCH   1   2
BRANCH   1  35
ATOM     35  C   UNL A   1      35.002  32.249  27.964  1.00  0.00     0.021 C 
BRANCH  35  36
ATOM     36  C   UNL A   1      36.231  31.538  28.520  1.00  0.00     0.116 C 
BRANCH  36  37
ATOM     37  N   UNL A   1      35.933  30.807  29.740  1.00  0.00    -0.352 N 
ATOM     38  C   UNL A   1      36.698  29.871  30.385  1.00  0.00     0.251 C 
ATOM     39  H   UNL A   1      35.067  31.013  30.160  1.00  0.00     0.163 HD
ATOM     40  O   UNL A   1      36.238  29.222  31.316  1.00  0.00    -0.269 OA
BRANCH  38  41
ATOM     41  C   UNL A   1      38.079  29.650  29.924  1.00  0.00     0.039 A 
ATOM     42  C   UNL A   1      39.087  29.477  30.874  1.00  0.00     0.014 A 
ATOM     43  C   UNL A   1      38.362  29.592  28.556  1.00  0.00     0.014 A 
ATOM     44  C   UNL A   1      40.386  29.209  30.447  1.00  0.00     0.010 A 
ATOM     45  C   UNL A   1      39.646  29.267  28.135  1.00  0.00     0.010 A 
ATOM     46  C   UNL A   1      40.670  29.087  29.076  1.00  0.00    -0.014 A 
BRANCH  46  47
ATOM     47  C   UNL A   1      42.047  28.807  28.610  1.00  0.00     0.031 A 
ATOM     48  C   UNL A   1      42.408  27.424  28.147  1.00  0.00     0.074 A 
ATOM     49  C   UNL A   1      42.976  29.782  28.650  1.00  0.00     0.049 A 
ATOM     50  N   UNL A   1      43.562  26.968  27.734  1.00  0.00    -0.248 NA
ATOM     51  C   UNL A   1      41.338  26.412  28.177  1.00  0.00     0.031 C 
ATOM     52  C   UNL A   1      42.750  31.149  29.123  1.00  0.00     0.029 A 
ATOM     53  N   UNL A   1      44.299  29.769  28.290  1.00  0.00    -0.354 N 
ATOM     54  C   UNL A   1      43.362  25.618  27.475  1.00  0.00     0.074 A 
ATOM     55  C   UNL A   1      41.990  25.316  27.819  1.00  0.00     0.031 C 
ATOM     56  C   UNL A   1      43.890  31.850  29.004  1.00  0.00     0.029 A 
ATOM     57  C   UNL A   1      44.931  30.975  28.474  1.00  0.00     0.049 A 
ATOM     58  H   UNL A   1      44.753  28.971  27.935  1.00  0.00     0.167 HD
ATOM     59  C   UNL A   1      44.237  24.715  26.974  1.00  0.00     0.031 A 
ATOM     60  C   UNL A   1      46.208  31.335  28.238  1.00  0.00     0.031 A 
ATOM     61  C   UNL A   1      45.592  25.028  26.613  1.00  0.00     0.049 A 
ATOM     62  C   UNL A   1      47.156  30.320  27.661  1.00  0.00     0.074 A 
ATOM     63  C   UNL A   1      46.544  24.202  26.041  1.00  0.00     0.029 A 
ATOM     64  N   UNL A   1      46.188  26.268  26.787  1.00  0.00    -0.354 N 
ATOM     65  N   UNL A   1      46.930  29.064  27.358  1.00  0.00    -0.248 NA
ATOM     66  C   UNL A   1      48.524  30.774  27.380  1.00  0.00     0.031 C 
ATOM     67  C   UNL A   1      47.729  24.934  25.905  1.00  0.00     0.029 A 
ATOM     68  C   UNL A   1      47.500  26.227  26.349  1.00  0.00     0.049 A 
ATOM     69  H   UNL A   1      45.744  27.060  27.166  1.00  0.00     0.167 HD
ATOM     70  C   UNL A   1      48.122  28.583  26.828  1.00  0.00     0.074 A 
ATOM     71  C   UNL A   1      49.059  29.688  26.838  1.00  0.00     0.031 C 
ATOM     72  C   UNL A   1      48.414  27.341  26.370  1.00  0.00     0.031 A 
BRANCH  59  73
ATOM     73  C   UNL A   1      43.749  23.302  26.792  1.00  0.00    -0.014 A 
ATOM     74  C   UNL A   1      43.845  22.655  25.547  1.00  0.00     0.010 A 
ATOM     75  C   UNL A   1      43.209  22.604  27.887  1.00  0.00     0.010 A 
ATOM     76  C   UNL A   1      43.371  21.350  25.389  1.00  0.00     0.020 A 
ATOM     77  C   UNL A   1      42.758  21.289  27.739  1.00  0.00     0.020 A 
ATOM     78  C   UNL A   1      42.825  20.677  26.486  1.00  0.00     0.054 A 
BRANCH  78  79
ATOM     79  S   UNL A   1      42.232  18.978  26.257  1.00  0.00     0.124 S 
ATOM     80  O   UNL A   1      42.413  18.415  27.594  1.00  0.00    -0.237 OA
ATOM     81  O   UNL A   1      40.846  19.173  25.841  1.00  0.00    -0.237 OA
ATOM     82  O   UNL A   1      43.118  18.437  25.229  1.00  0.00    -0.744 OA
ENDBRANCH  78  79
ENDBRANCH  59  73
BRANCH  60  83
ATOM     83  C   UNL A   1      46.652  32.724  28.526  1.00  0.00    -0.014 A 
ATOM     84  C   UNL A   1      46.535  33.729  27.548  1.00  0.00     0.010 A 
ATOM     85  C   UNL A   1      47.174  33.057  29.789  1.00  0.00     0.010 A 
ATOM     86  C   UNL A   1      46.948  35.036  27.823  1.00  0.00     0.020 A 
ATOM     87  C   UNL A   1      47.565  34.369  30.075  1.00  0.00     0.020 A 
ATOM     88  C   UNL A   1      47.459  35.348  29.085  1.00  0.00     0.054 A 
BRANCH  88  89
ATOM     89  S   UNL A   1      47.937  37.062  29.439  1.00  0.00     0.124 S 
ATOM     90  O   UNL A   1      46.654  37.754  29.372  1.00  0.00    -0.237 OA
ATOM     91  O   UNL A   1      48.532  36.957  30.769  1.00  0.00    -0.237 OA
ATOM     92  O   UNL A   1      48.878  37.381  28.367  1.00  0.00    -0.744 OA
ENDBRANCH  88  89
ENDBRANCH  60  83
BRANCH  72  93
ATOM     93  C   UNL A   1      49.794  27.116  25.819  1.00  0.00    -0.014 A 
ATOM     94  C   UNL A   1      50.865  26.767  26.661  1.00  0.00     0.010 A 
ATOM     95  C   UNL A   1      50.008  27.197  24.431  1.00  0.00     0.010 A 
ATOM     96  C   UNL A   1      52.132  26.529  26.126  1.00  0.00     0.020 A 
ATOM     97  C   UNL A   1      51.269  26.935  23.890  1.00  0.00     0.020 A 
ATOM     98  C   UNL A   1      52.327  26.616  24.743  1.00  0.00     0.054 A 
BRANCH  98  99
ATOM     99  S   UNL A   1      53.971  26.255  24.068  1.00  0.00     0.124 S 
ATOM    100  O   UNL A   1      53.710  26.232  22.631  1.00  0.00    -0.237 OA
ATOM    101  O   UNL A   1      54.770  27.381  24.545  1.00  0.00    -0.237 OA
ATOM    102  O   UNL A   1      54.310  24.963  24.660  1.00  0.00    -0.744 OA
ENDBRANCH  98  99
ENDBRANCH  72  93
ENDBRANCH  46  47
ENDBRANCH  38  41
ENDBRANCH  36  37
ENDBRANCH  35  36
ENDBRANCH   1  35
TORSDOF 19
ENDMDL
MODEL 3
REMARK VINA RESULT:     -12.6      5.742      7.721
REMARK SMILES Cc1[nH]c2ccccc2c1[C@H](C(=O)NCCCCCCNC(=O)c1ccc(-c2c3nc(c(-c4ccc(S(=O)(=O)[O-])cc4)c4ccc([nH]4)c(-c4ccc(S(=O)(=O)[O-])cc4)c4nc(c(-c5ccc(S(=O)(=O)[O-])cc5)c5ccc2[nH]5)C=C4)C=C3)cc1)[NH+]1CCN(C(=O)c2ccco2)CC1
REMARK SMILES IDX 18 1 17 2 16 3 15 4 14 5 12 6 13 7 11 9 10 10 1 11 2 12 3 13
REMARK SMILES IDX 4 14 9 16 5 17 8 18 6 19 7 20 84 21 85 22 96 23 86 25 95 26
REMARK SMILES IDX 87 27 88 28 89 29 90 30 91 31 94 32 92 33 93 34 19 35 20 36
REMARK SMILES IDX 21 37 22 38 23 40 24 41 25 42 83 43 26 44 82 45 27 46 28 47
REMARK SMILES IDX 29 48 76 49 30 50 81 51 75 52 77 53 31 54 80 55 74 56 73 57
REMARK SMILES IDX 32 59 62 60 43 61 61 62 44 63 47 64 60 65 78 66 45 67 46 68
REMARK SMILES IDX 59 70 79 71 48 72 33 73 34 74 42 75 35 76 41 77 36 78 37 79
REMARK SMILES IDX 38 80 39 81 40 82 63 83 64 84 72 85 65 86 71 87 66 88 67 89
REMARK SMILES IDX 68 90 69 91 70 92 49 93 50 94 58 95 51 96 57 97 52 98 53 99
REMARK SMILES IDX 54 100 55 101 56 102
REMARK H PARENT 14 8 3 15 84 24 21 39 77 58 47 69
REMARK Flexibility Score: inf
ROOT
ATOM      1  C   UNL A   1      32.627  30.374  27.214  1.00  0.00     0.002 C 
ENDROOT
BRANCH   1   2
ATOM      2  C   UNL A   1      31.876  29.408  26.289  1.00  0.00     0.002 C 
BRANCH   2   3
ATOM      3  C   UNL A   1      31.411  28.114  26.952  1.00  0.00     0.021 C 
BRANCH   3   4
ATOM      4  C   UNL A   1      32.190  26.897  26.480  1.00  0.00     0.116 C 
BRANCH   4   5
ATOM      5  N   UNL A   1      31.394  25.687  26.551  1.00  0.00    -0.351 N 
ATOM      6  C   UNL A   1      31.047  24.807  25.561  1.00  0.00     0.283 C 
ATOM      7  O   UNL A   1      30.367  23.830  25.902  1.00  0.00    -0.268 OA
ATOM      8  H   UNL A   1      31.050  25.464  27.447  1.00  0.00     0.163 HD
BRANCH   6   9
ATOM      9  C   UNL A   1      31.487  24.986  24.081  1.00  0.00     0.308 C 
BRANCH   9  10
ATOM     10  C   UNL A   1      31.215  26.396  23.553  1.00  0.00     0.047 A 
ATOM     11  C   UNL A   1      33.682  27.122  22.976  1.00  0.00     0.065 C 
ATOM     12  C   UNL A   1      32.200  27.253  23.045  1.00  0.00     0.022 A 
ATOM     13  N   UNL A   1      31.575  28.339  22.491  1.00  0.00    -0.358 N 
ATOM     14  C   UNL A   1      30.226  28.288  22.721  1.00  0.00     0.046 A 
ATOM     15  H   UNL A   1      32.033  29.056  21.996  1.00  0.00     0.166 HD
ATOM     16  C   UNL A   1      29.973  27.129  23.460  1.00  0.00     0.009 A 
ATOM     17  C   UNL A   1      29.226  29.188  22.333  1.00  0.00     0.027 A 
ATOM     18  C   UNL A   1      28.647  26.912  23.890  1.00  0.00     0.011 A 
ATOM     19  C   UNL A   1      27.922  28.930  22.754  1.00  0.00     0.002 A 
ATOM     20  C   UNL A   1      27.636  27.818  23.539  1.00  0.00     0.001 A 
ENDBRANCH   9  10
BRANCH   9  21
ATOM     21  N   UNL A   1      32.840  24.444  23.770  1.00  0.00    -0.318 N 
ATOM     22  C   UNL A   1      33.830  24.321  24.852  1.00  0.00     0.285 C 
ATOM     23  C   UNL A   1      32.810  23.172  23.028  1.00  0.00     0.285 C 
ATOM     24  H   UNL A   1      33.179  25.212  23.191  1.00  0.00     0.349 HD
ATOM     25  C   UNL A   1      33.715  23.083  25.766  1.00  0.00     0.181 C 
ATOM     26  C   UNL A   1      32.599  21.902  23.872  1.00  0.00     0.181 C 
ATOM     27  N   UNL A   1      33.446  21.827  25.069  1.00  0.00    -0.325 N 
ATOM     28  C   UNL A   1      33.520  20.661  25.856  1.00  0.00     0.289 C 
ATOM     29  O   UNL A   1      33.734  20.736  27.067  1.00  0.00    -0.265 OA
BRANCH  28  30
ATOM     30  C   UNL A   1      33.370  19.381  25.191  1.00  0.00     0.191 A 
ATOM     31  C   UNL A   1      34.203  18.668  24.347  1.00  0.00     0.056 A 
ATOM     32  O   UNL A   1      32.249  18.636  25.450  1.00  0.00    -0.459 OA
ATOM     33  C   UNL A   1      33.546  17.448  24.054  1.00  0.00     0.043 A 
ATOM     34  C   UNL A   1      32.361  17.479  24.749  1.00  0.00     0.196 A 
ENDBRANCH  28  30
ENDBRANCH   9  21
ENDBRANCH   6   9
ENDBRANCH   4   5
ENDBRANCH   3   4
ENDBRANCH   2   3
ENDBRANCH   1   2
BRANCH   1  35
ATOM     35  C   UNL A   1      32.190  31.839  27.132  1.00  0.00     0.021 C 
BRANCH  35  36
ATOM     36  C   UNL A   1      33.325  32.854  27.222  1.00  0.00     0.116 C 
BRANCH  36  37
ATOM     37  N   UNL A   1      32.917  34.070  27.905  1.00  0.00    -0.352 N 
ATOM     38  C   UNL A   1      33.365  34.571  29.099  1.00  0.00     0.251 C 
ATOM     39  H   UNL A   1      32.229  34.605  27.450  1.00  0.00     0.163 HD
ATOM     40  O   UNL A   1      32.806  35.524  29.626  1.00  0.00    -0.269 OA
BRANCH  38  41
ATOM     41  C   UNL A   1      34.524  33.929  29.743  1.00  0.00     0.039 A 
ATOM     42  C   UNL A   1      35.808  34.305  29.350  1.00  0.00     0.014 A 
ATOM     43  C   UNL A   1      34.329  32.977  30.749  1.00  0.00     0.014 A 
ATOM     44  C   UNL A   1      36.910  33.746  29.994  1.00  0.00     0.010 A 
ATOM     45  C   UNL A   1      35.427  32.465  31.430  1.00  0.00     0.010 A 
ATOM     46  C   UNL A   1      36.726  32.834  31.048  1.00  0.00    -0.014 A 
BRANCH  46  47
ATOM     47  C   UNL A   1      37.888  32.230  31.738  1.00  0.00     0.031 A 
ATOM     48  C   UNL A   1      38.341  32.788  33.058  1.00  0.00     0.074 A 
ATOM     49  C   UNL A   1      38.557  31.217  31.155  1.00  0.00     0.049 A 
ATOM     50  N   UNL A   1      39.352  32.424  33.803  1.00  0.00    -0.248 NA
ATOM     51  C   UNL A   1      37.573  33.923  33.599  1.00  0.00     0.031 C 
ATOM     52  C   UNL A   1      38.234  30.625  29.855  1.00  0.00     0.029 A 
ATOM     53  N   UNL A   1      39.651  30.509  31.580  1.00  0.00    -0.354 N 
ATOM     54  C   UNL A   1      39.353  33.293  34.887  1.00  0.00     0.074 A 
ATOM     55  C   UNL A   1      38.272  34.232  34.681  1.00  0.00     0.031 C 
ATOM     56  C   UNL A   1      39.099  29.629  29.598  1.00  0.00     0.029 A 
ATOM     57  C   UNL A   1      40.051  29.532  30.701  1.00  0.00     0.049 A 
ATOM     58  H   UNL A   1      40.109  30.685  32.434  1.00  0.00     0.167 HD
ATOM     59  C   UNL A   1      40.169  33.296  35.967  1.00  0.00     0.031 A 
ATOM     60  C   UNL A   1      41.070  28.654  30.777  1.00  0.00     0.031 A 
ATOM     61  C   UNL A   1      41.226  32.346  36.175  1.00  0.00     0.049 A 
ATOM     62  C   UNL A   1      41.948  28.662  31.997  1.00  0.00     0.074 A 
ATOM     63  C   UNL A   1      42.072  32.223  37.263  1.00  0.00     0.029 A 
ATOM     64  N   UNL A   1      41.582  31.353  35.275  1.00  0.00    -0.354 N 
ATOM     65  N   UNL A   1      41.892  29.449  33.045  1.00  0.00    -0.248 NA
ATOM     66  C   UNL A   1      43.017  27.655  32.052  1.00  0.00     0.031 C 
ATOM     67  C   UNL A   1      42.965  31.178  37.002  1.00  0.00     0.029 A 
ATOM     68  C   UNL A   1      42.645  30.622  35.773  1.00  0.00     0.049 A 
ATOM     69  H   UNL A   1      41.142  31.191  34.409  1.00  0.00     0.167 HD
ATOM     70  C   UNL A   1      42.902  29.017  33.896  1.00  0.00     0.074 A 
ATOM     71  C   UNL A   1      43.543  27.892  33.246  1.00  0.00     0.031 C 
ATOM     72  C   UNL A   1      43.266  29.505  35.107  1.00  0.00     0.031 A 
BRANCH  59  73
ATOM     73  C   UNL A   1      39.944  34.365  37.003  1.00  0.00    -0.014 A 
ATOM     74  C   UNL A   1      40.579  35.617  36.904  1.00  0.00     0.010 A 
ATOM     75  C   UNL A   1      39.070  34.124  38.077  1.00  0.00     0.010 A 
ATOM     76  C   UNL A   1      40.375  36.593  37.884  1.00  0.00     0.020 A 
ATOM     77  C   UNL A   1      38.843  35.108  39.044  1.00  0.00     0.020 A 
ATOM     78  C   UNL A   1      39.512  36.330  38.951  1.00  0.00     0.054 A 
BRANCH  78  79
ATOM     79  S   UNL A   1      39.253  37.620  40.199  1.00  0.00     0.124 S 
ATOM     80  O   UNL A   1      38.190  38.417  39.590  1.00  0.00    -0.237 OA
ATOM     81  O   UNL A   1      38.865  36.853  41.380  1.00  0.00    -0.237 OA
ATOM     82  O   UNL A   1      40.553  38.282  40.289  1.00  0.00    -0.744 OA
ENDBRANCH  78  79
ENDBRANCH  59  73
BRANCH  60  83
ATOM     83  C   UNL A   1      41.295  27.681  29.674  1.00  0.00    -0.014 A 
ATOM     84  C   UNL A   1      42.575  27.518  29.116  1.00  0.00     0.010 A 
ATOM     85  C   UNL A   1      40.233  26.895  29.191  1.00  0.00     0.010 A 
ATOM     86  C   UNL A   1      42.786  26.600  28.083  1.00  0.00     0.020 A 
ATOM     87  C   UNL A   1      40.446  25.958  28.175  1.00  0.00     0.020 A 
ATOM     88  C   UNL A   1      41.720  25.825  27.620  1.00  0.00     0.054 A 
BRANCH  88  89
ATOM     89  S   UNL A   1      42.027  24.599  26.318  1.00  0.00     0.124 S 
ATOM     90  O   UNL A   1      41.956  25.417  25.111  1.00  0.00    -0.237 OA
ATOM     91  O   UNL A   1      43.353  24.093  26.664  1.00  0.00    -0.237 OA
ATOM     92  O   UNL A   1      40.937  23.640  26.491  1.00  0.00    -0.744 OA
ENDBRANCH  88  89
ENDBRANCH  60  83
BRANCH  72  93
ATOM     93  C   UNL A   1      44.391  28.809  35.822  1.00  0.00    -0.014 A 
ATOM     94  C   UNL A   1      44.165  27.636  36.563  1.00  0.00     0.010 A 
ATOM     95  C   UNL A   1      45.702  29.305  35.701  1.00  0.00     0.010 A 
ATOM     96  C   UNL A   1      45.228  26.985  37.192  1.00  0.00     0.020 A 
ATOM     97  C   UNL A   1      46.771  28.643  36.308  1.00  0.00     0.020 A 
ATOM     98  C   UNL A   1      46.525  27.494  37.061  1.00  0.00     0.054 A 
BRANCH  98  99
ATOM     99  S   UNL A   1      47.896  26.603  37.847  1.00  0.00     0.124 S 
ATOM    100  O   UNL A   1      48.285  27.525  38.910  1.00  0.00    -0.237 OA
ATOM    101  O   UNL A   1      47.263  25.363  38.290  1.00  0.00    -0.237 OA
ATOM    102  O   UNL A   1      48.869  26.449  36.769  1.00  0.00    -0.744 OA
ENDBRANCH  98  99
ENDBRANCH  72  93
ENDBRANCH  46  47
ENDBRANCH  38  41
ENDBRANCH  36  37
ENDBRANCH  35  36
ENDBRANCH   1  35
TORSDOF 19
ENDMDL
