MODEL 1
REMARK VINA RESULT:     -11.0      0.000      0.000
REMARK SMILES Cc1nc(C)n(CC[C@H]2CCC[C@@]2([NH2+]C(C)C)C(=O)NCCCCCCNC(=O)c2ccc(-c3c4nc(c(-c5ccc(S(=O)(=O)[O-])cc5)c5ccc([nH]5)c(-c5ccc(S(=O)(=O)[O-])cc5)c5nc(c(-c6ccc(S(=O)(=O)[O-])cc6)c6ccc3[nH]6)C=C5)C=C4)cc2)n1
REMARK SMILES IDX 23 1 22 2 21 3 20 4 18 5 19 6 13 8 9 9 10 10 11 11 12 12
REMARK SMILES IDX 8 13 7 14 6 15 1 16 2 17 3 18 90 19 4 20 5 21 14 22 15 25
REMARK SMILES IDX 16 26 17 27 24 28 25 29 26 30 27 31 28 32 29 34 30 35 31 36
REMARK SMILES IDX 89 37 32 38 88 39 33 40 34 41 35 42 82 43 36 44 87 45 81 46
REMARK SMILES IDX 83 47 37 48 86 49 80 50 79 51 38 53 68 54 49 55 67 56 50 57
REMARK SMILES IDX 53 58 66 59 84 60 51 61 52 62 65 64 85 65 54 66 39 67 40 68
REMARK SMILES IDX 48 69 41 70 47 71 42 72 43 73 44 74 45 75 46 76 69 77 70 78
REMARK SMILES IDX 78 79 71 80 77 81 72 82 73 83 74 84 75 85 76 86 55 87 56 88
REMARK SMILES IDX 64 89 57 90 63 91 58 92 59 93 60 94 61 95 62 96
REMARK H PARENT 20 7 14 23 14 24 27 33 83 52 53 63
REMARK Flexibility Score: inf
ROOT
ATOM      1  C   UNL A   1      36.947  22.185  25.465  1.00  0.00     0.002 C 
ENDROOT
BRANCH   1   2
ATOM      2  C   UNL A   1      36.646  23.520  24.786  1.00  0.00     0.021 C 
BRANCH   2   3
ATOM      3  C   UNL A   1      35.186  23.929  24.731  1.00  0.00     0.116 C 
BRANCH   3   4
ATOM      4  N   UNL A   1      34.607  23.990  23.401  1.00  0.00    -0.351 N 
ATOM      5  C   UNL A   1      33.622  24.833  22.929  1.00  0.00     0.281 C 
ATOM      6  O   UNL A   1      33.501  24.922  21.705  1.00  0.00    -0.268 OA
ATOM      7  H   UNL A   1      34.965  23.346  22.749  1.00  0.00     0.163 HD
BRANCH   5   8
ATOM      8  C   UNL A   1      32.739  25.646  23.923  1.00  0.00     0.178 C 
ATOM      9  C   UNL A   1      31.320  25.076  24.269  1.00  0.00     0.062 C 
ATOM     10  C   UNL A   1      31.048  25.551  25.715  1.00  0.00     0.011 C 
ATOM     11  C   UNL A   1      32.381  25.699  26.401  1.00  0.00     0.008 C 
ATOM     12  C   UNL A   1      33.425  25.602  25.314  1.00  0.00     0.079 C 
BRANCH   9  13
ATOM     13  C   UNL A   1      30.963  23.606  24.072  1.00  0.00     0.034 C 
BRANCH  13  14
ATOM     14  C   UNL A   1      30.960  22.710  25.334  1.00  0.00     0.147 C 
BRANCH  14  15
ATOM     15  N   UNL A   1      31.964  21.732  25.730  1.00  0.00    -0.250 N 
ATOM     16  C   UNL A   1      33.633  18.802  24.613  1.00  0.00     0.092 C 
ATOM     17  C   UNL A   1      33.114  20.019  25.258  1.00  0.00     0.147 A 
ATOM     18  N   UNL A   1      33.745  20.568  26.312  1.00  0.00    -0.217 NA
ATOM     19  N   UNL A   1      32.012  20.657  24.879  1.00  0.00    -0.156 NA
ATOM     20  C   UNL A   1      33.042  21.647  26.603  1.00  0.00     0.124 A 
ATOM     21  C   UNL A   1      33.543  22.484  27.715  1.00  0.00     0.089 C 
ENDBRANCH  14  15
ENDBRANCH  13  14
ENDBRANCH   9  13
BRANCH   8  22
ATOM     22  N   UNL A   1      32.553  27.067  23.467  1.00  0.00    -0.331 N 
ATOM     23  H   UNL A   1      31.647  27.376  23.818  1.00  0.00     0.347 HD
ATOM     24  H   UNL A   1      32.656  27.014  22.455  1.00  0.00     0.347 HD
BRANCH  22  25
ATOM     25  C   UNL A   1      33.545  28.085  23.873  1.00  0.00     0.176 C 
ATOM     26  C   UNL A   1      34.146  28.682  22.588  1.00  0.00     0.075 C 
ATOM     27  C   UNL A   1      33.009  29.274  24.681  1.00  0.00     0.075 C 
ENDBRANCH  22  25
ENDBRANCH   8  22
ENDBRANCH   5   8
ENDBRANCH   3   4
ENDBRANCH   2   3
ENDBRANCH   1   2
BRANCH   1  28
ATOM     28  C   UNL A   1      36.927  20.912  24.611  1.00  0.00     0.002 C 
BRANCH  28  29
ATOM     29  C   UNL A   1      37.969  19.816  24.877  1.00  0.00     0.021 C 
BRANCH  29  30
ATOM     30  C   UNL A   1      39.082  20.169  25.849  1.00  0.00     0.116 C 
BRANCH  30  31
ATOM     31  N   UNL A   1      40.219  19.254  25.802  1.00  0.00    -0.352 N 
ATOM     32  C   UNL A   1      41.570  19.563  25.875  1.00  0.00     0.251 C 
ATOM     33  H   UNL A   1      39.999  18.298  25.707  1.00  0.00     0.163 HD
ATOM     34  O   UNL A   1      42.410  18.794  25.440  1.00  0.00    -0.269 OA
BRANCH  32  35
ATOM     35  C   UNL A   1      41.967  20.841  26.501  1.00  0.00     0.039 A 
ATOM     36  C   UNL A   1      42.454  21.915  25.750  1.00  0.00     0.014 A 
ATOM     37  C   UNL A   1      41.809  20.957  27.878  1.00  0.00     0.014 A 
ATOM     38  C   UNL A   1      42.692  23.130  26.396  1.00  0.00     0.010 A 
ATOM     39  C   UNL A   1      41.856  22.189  28.469  1.00  0.00     0.010 A 
ATOM     40  C   UNL A   1      42.366  23.264  27.754  1.00  0.00    -0.014 A 
BRANCH  40  41
ATOM     41  C   UNL A   1      42.419  24.551  28.439  1.00  0.00     0.031 A 
ATOM     42  C   UNL A   1      41.243  25.419  28.177  1.00  0.00     0.074 A 
ATOM     43  C   UNL A   1      43.321  24.829  29.407  1.00  0.00     0.049 A 
ATOM     44  N   UNL A   1      41.211  26.489  27.456  1.00  0.00    -0.248 NA
ATOM     45  C   UNL A   1      39.912  24.960  28.615  1.00  0.00     0.031 C 
ATOM     46  C   UNL A   1      44.346  23.941  29.972  1.00  0.00     0.029 A 
ATOM     47  N   UNL A   1      43.432  25.935  30.192  1.00  0.00    -0.354 N 
ATOM     48  C   UNL A   1      39.918  26.984  27.570  1.00  0.00     0.074 A 
ATOM     49  C   UNL A   1      39.122  25.899  28.088  1.00  0.00     0.031 C 
ATOM     50  C   UNL A   1      44.785  24.442  31.148  1.00  0.00     0.029 A 
ATOM     51  C   UNL A   1      44.209  25.761  31.335  1.00  0.00     0.049 A 
ATOM     52  H   UNL A   1      42.996  26.789  29.969  1.00  0.00     0.167 HD
ATOM     53  C   UNL A   1      39.672  28.323  27.511  1.00  0.00     0.031 A 
ATOM     54  C   UNL A   1      44.346  26.628  32.373  1.00  0.00     0.031 A 
ATOM     55  C   UNL A   1      40.831  29.047  27.045  1.00  0.00     0.049 A 
ATOM     56  C   UNL A   1      43.962  27.966  31.862  1.00  0.00     0.074 A 
ATOM     57  C   UNL A   1      41.611  29.009  25.906  1.00  0.00     0.029 A 
ATOM     58  N   UNL A   1      41.588  29.677  28.006  1.00  0.00    -0.354 N 
ATOM     59  N   UNL A   1      44.641  28.596  30.945  1.00  0.00    -0.248 NA
ATOM     60  C   UNL A   1      42.578  28.386  32.012  1.00  0.00     0.031 C 
ATOM     61  C   UNL A   1      42.947  29.179  26.373  1.00  0.00     0.029 A 
ATOM     62  C   UNL A   1      42.906  29.409  27.750  1.00  0.00     0.049 A 
ATOM     63  H   UNL A   1      41.241  30.225  28.747  1.00  0.00     0.167 HD
ATOM     64  C   UNL A   1      43.676  29.136  30.106  1.00  0.00     0.074 A 
ATOM     65  C   UNL A   1      42.431  29.065  30.870  1.00  0.00     0.031 C 
ATOM     66  C   UNL A   1      43.926  29.312  28.774  1.00  0.00     0.031 A 
BRANCH  53  67
ATOM     67  C   UNL A   1      38.572  29.015  28.280  1.00  0.00    -0.014 A 
ATOM     68  C   UNL A   1      37.626  29.776  27.562  1.00  0.00     0.010 A 
ATOM     69  C   UNL A   1      38.592  29.182  29.680  1.00  0.00     0.010 A 
ATOM     70  C   UNL A   1      36.807  30.714  28.202  1.00  0.00     0.020 A 
ATOM     71  C   UNL A   1      37.748  30.081  30.334  1.00  0.00     0.020 A 
ATOM     72  C   UNL A   1      36.883  30.867  29.586  1.00  0.00     0.054 A 
BRANCH  72  73
ATOM     73  S   UNL A   1      35.888  32.143  30.391  1.00  0.00     0.124 S 
ATOM     74  O   UNL A   1      35.566  31.510  31.667  1.00  0.00    -0.237 OA
ATOM     75  O   UNL A   1      36.820  33.264  30.456  1.00  0.00    -0.237 OA
ATOM     76  O   UNL A   1      34.762  32.325  29.479  1.00  0.00    -0.744 OA
ENDBRANCH  72  73
ENDBRANCH  53  67
BRANCH  54  77
ATOM     77  C   UNL A   1      44.464  26.332  33.827  1.00  0.00    -0.014 A 
ATOM     78  C   UNL A   1      43.687  25.318  34.423  1.00  0.00     0.010 A 
ATOM     79  C   UNL A   1      45.559  26.828  34.562  1.00  0.00     0.010 A 
ATOM     80  C   UNL A   1      44.051  24.755  35.660  1.00  0.00     0.020 A 
ATOM     81  C   UNL A   1      45.923  26.278  35.799  1.00  0.00     0.020 A 
ATOM     82  C   UNL A   1      45.187  25.220  36.326  1.00  0.00     0.054 A 
BRANCH  82  83
ATOM     83  S   UNL A   1      45.795  24.338  37.799  1.00  0.00     0.124 S 
ATOM     84  O   UNL A   1      44.980  24.913  38.865  1.00  0.00    -0.237 OA
ATOM     85  O   UNL A   1      45.518  22.943  37.472  1.00  0.00    -0.237 OA
ATOM     86  O   UNL A   1      47.214  24.690  37.843  1.00  0.00    -0.744 OA
ENDBRANCH  82  83
ENDBRANCH  54  77
BRANCH  66  87
ATOM     87  C   UNL A   1      45.355  29.202  28.289  1.00  0.00    -0.014 A 
ATOM     88  C   UNL A   1      46.238  30.292  28.155  1.00  0.00     0.010 A 
ATOM     89  C   UNL A   1      45.861  27.906  28.090  1.00  0.00     0.010 A 
ATOM     90  C   UNL A   1      47.580  30.089  27.793  1.00  0.00     0.020 A 
ATOM     91  C   UNL A   1      47.198  27.695  27.751  1.00  0.00     0.020 A 
ATOM     92  C   UNL A   1      48.049  28.787  27.588  1.00  0.00     0.054 A 
BRANCH  92  93
ATOM     93  S   UNL A   1      49.786  28.518  27.134  1.00  0.00     0.124 S 
ATOM     94  O   UNL A   1      50.026  27.154  27.598  1.00  0.00    -0.237 OA
ATOM     95  O   UNL A   1      49.774  28.697  25.683  1.00  0.00    -0.237 OA
ATOM     96  O   UNL A   1      50.504  29.557  27.871  1.00  0.00    -0.744 OA
ENDBRANCH  92  93
ENDBRANCH  66  87
ENDBRANCH  40  41
ENDBRANCH  32  35
ENDBRANCH  30  31
ENDBRANCH  29  30
ENDBRANCH  28  29
ENDBRANCH   1  28
TORSDOF 21
ENDMDL
MODEL 2
REMARK VINA RESULT:     -11.0      2.486      7.386
REMARK SMILES Cc1nc(C)n(CC[C@H]2CCC[C@@]2([NH2+]C(C)C)C(=O)NCCCCCCNC(=O)c2ccc(-c3c4nc(c(-c5ccc(S(=O)(=O)[O-])cc5)c5ccc([nH]5)c(-c5ccc(S(=O)(=O)[O-])cc5)c5nc(c(-c6ccc(S(=O)(=O)[O-])cc6)c6ccc3[nH]6)C=C5)C=C4)cc2)n1
REMARK SMILES IDX 23 1 22 2 21 3 20 4 18 5 19 6 13 8 9 9 10 10 11 11 12 12
REMARK SMILES IDX 8 13 7 14 6 15 1 16 2 17 3 18 90 19 4 20 5 21 14 22 15 25
REMARK SMILES IDX 16 26 17 27 24 28 25 29 26 30 27 31 28 32 29 34 30 35 31 36
REMARK SMILES IDX 89 37 32 38 88 39 33 40 34 41 35 42 82 43 36 44 87 45 81 46
REMARK SMILES IDX 83 47 37 48 86 49 80 50 79 51 38 53 68 54 49 55 67 56 50 57
REMARK SMILES IDX 53 58 66 59 84 60 51 61 52 62 65 64 85 65 54 66 39 67 40 68
REMARK SMILES IDX 48 69 41 70 47 71 42 72 43 73 44 74 45 75 46 76 69 77 70 78
REMARK SMILES IDX 78 79 71 80 77 81 72 82 73 83 74 84 75 85 76 86 55 87 56 88
REMARK SMILES IDX 64 89 57 90 63 91 58 92 59 93 60 94 61 95 62 96
REMARK H PARENT 20 7 14 23 14 24 27 33 83 52 53 63
REMARK Flexibility Score: inf
ROOT
ATOM      1  C   UNL A   1      39.440  22.971  26.892  1.00  0.00     0.002 C 
ENDROOT
BRANCH   1   2
ATOM      2  C   UNL A   1      38.700  24.040  26.090  1.00  0.00     0.021 C 
BRANCH   2   3
ATOM      3  C   UNL A   1      37.185  23.947  26.090  1.00  0.00     0.116 C 
BRANCH   3   4
ATOM      4  N   UNL A   1      36.576  23.717  24.792  1.00  0.00    -0.351 N 
ATOM      5  C   UNL A   1      35.253  23.845  24.428  1.00  0.00     0.281 C 
ATOM      6  O   UNL A   1      35.007  23.900  23.221  1.00  0.00    -0.268 OA
ATOM      7  H   UNL A   1      37.189  23.433  24.077  1.00  0.00     0.163 HD
BRANCH   5   8
ATOM      8  C   UNL A   1      34.142  23.945  25.517  1.00  0.00     0.178 C 
ATOM      9  C   UNL A   1      32.743  23.320  25.189  1.00  0.00     0.062 C 
ATOM     10  C   UNL A   1      32.186  22.864  26.558  1.00  0.00     0.011 C 
ATOM     11  C   UNL A   1      33.363  22.545  27.442  1.00  0.00     0.008 C 
ATOM     12  C   UNL A   1      34.582  23.075  26.725  1.00  0.00     0.079 C 
BRANCH   9  13
ATOM     13  C   UNL A   1      32.559  22.254  24.112  1.00  0.00     0.034 C 
BRANCH  13  14
ATOM     14  C   UNL A   1      32.154  20.839  24.589  1.00  0.00     0.147 C 
BRANCH  14  15
ATOM     15  N   UNL A   1      33.021  19.684  24.777  1.00  0.00    -0.250 N 
ATOM     16  C   UNL A   1      33.074  16.139  24.564  1.00  0.00     0.092 C 
ATOM     17  C   UNL A   1      33.301  17.589  24.676  1.00  0.00     0.147 A 
ATOM     18  N   UNL A   1      34.546  18.092  24.748  1.00  0.00    -0.217 NA
ATOM     19  N   UNL A   1      32.334  18.498  24.722  1.00  0.00    -0.156 NA
ATOM     20  C   UNL A   1      34.381  19.400  24.796  1.00  0.00     0.124 A 
ATOM     21  C   UNL A   1      35.610  20.222  24.836  1.00  0.00     0.089 C 
ENDBRANCH  14  15
ENDBRANCH  13  14
ENDBRANCH   9  13
BRANCH   8  22
ATOM     22  N   UNL A   1      33.909  25.367  25.945  1.00  0.00    -0.331 N 
ATOM     23  H   UNL A   1      34.810  25.842  25.906  1.00  0.00     0.347 HD
ATOM     24  H   UNL A   1      33.480  25.278  26.866  1.00  0.00     0.347 HD
BRANCH  22  25
ATOM     25  C   UNL A   1      32.948  26.196  25.185  1.00  0.00     0.176 C 
ATOM     26  C   UNL A   1      32.002  26.858  26.203  1.00  0.00     0.075 C 
ATOM     27  C   UNL A   1      33.545  27.340  24.355  1.00  0.00     0.075 C 
ENDBRANCH  22  25
ENDBRANCH   8  22
ENDBRANCH   5   8
ENDBRANCH   3   4
ENDBRANCH   2   3
ENDBRANCH   1   2
BRANCH   1  28
ATOM     28  C   UNL A   1      39.305  21.508  26.454  1.00  0.00     0.002 C 
BRANCH  28  29
ATOM     29  C   UNL A   1      40.530  20.782  25.879  1.00  0.00     0.021 C 
BRANCH  29  30
ATOM     30  C   UNL A   1      41.632  20.439  26.867  1.00  0.00     0.116 C 
BRANCH  30  31
ATOM     31  N   UNL A   1      42.928  20.186  26.241  1.00  0.00    -0.352 N 
ATOM     32  C   UNL A   1      43.813  21.109  25.703  1.00  0.00     0.251 C 
ATOM     33  H   UNL A   1      43.208  19.242  26.196  1.00  0.00     0.163 HD
ATOM     34  O   UNL A   1      44.646  20.768  24.881  1.00  0.00    -0.269 OA
BRANCH  32  35
ATOM     35  C   UNL A   1      43.728  22.513  26.156  1.00  0.00     0.039 A 
ATOM     36  C   UNL A   1      42.935  23.458  25.500  1.00  0.00     0.014 A 
ATOM     37  C   UNL A   1      44.448  22.863  27.294  1.00  0.00     0.014 A 
ATOM     38  C   UNL A   1      42.811  24.732  26.058  1.00  0.00     0.010 A 
ATOM     39  C   UNL A   1      44.175  24.037  27.940  1.00  0.00     0.010 A 
ATOM     40  C   UNL A   1      43.416  25.004  27.295  1.00  0.00    -0.014 A 
BRANCH  40  41
ATOM     41  C   UNL A   1      43.175  26.249  28.016  1.00  0.00     0.031 A 
ATOM     42  C   UNL A   1      44.195  27.297  27.763  1.00  0.00     0.074 A 
ATOM     43  C   UNL A   1      42.012  26.512  28.655  1.00  0.00     0.049 A 
ATOM     44  N   UNL A   1      45.106  27.708  28.580  1.00  0.00    -0.248 NA
ATOM     45  C   UNL A   1      44.342  27.827  26.396  1.00  0.00     0.031 C 
ATOM     46  C   UNL A   1      40.805  25.676  28.720  1.00  0.00     0.029 A 
ATOM     47  N   UNL A   1      41.609  27.650  29.281  1.00  0.00    -0.354 N 
ATOM     48  C   UNL A   1      45.767  28.738  27.921  1.00  0.00     0.074 A 
ATOM     49  C   UNL A   1      45.418  28.607  26.529  1.00  0.00     0.031 C 
ATOM     50  C   UNL A   1      39.752  26.426  29.117  1.00  0.00     0.029 A 
ATOM     51  C   UNL A   1      40.236  27.739  29.500  1.00  0.00     0.049 A 
ATOM     52  H   UNL A   1      42.239  28.355  29.556  1.00  0.00     0.167 HD
ATOM     53  C   UNL A   1      46.304  29.783  28.613  1.00  0.00     0.031 A 
ATOM     54  C   UNL A   1      39.545  28.824  29.939  1.00  0.00     0.031 A 
ATOM     55  C   UNL A   1      46.336  29.508  30.030  1.00  0.00     0.049 A 
ATOM     56  C   UNL A   1      40.523  29.703  30.624  1.00  0.00     0.074 A 
ATOM     57  C   UNL A   1      46.900  28.527  30.821  1.00  0.00     0.029 A 
ATOM     58  N   UNL A   1      45.345  30.089  30.790  1.00  0.00    -0.354 N 
ATOM     59  N   UNL A   1      41.135  29.361  31.722  1.00  0.00    -0.248 NA
ATOM     60  C   UNL A   1      41.177  30.740  29.843  1.00  0.00     0.031 C 
ATOM     61  C   UNL A   1      45.917  28.250  31.816  1.00  0.00     0.029 A 
ATOM     62  C   UNL A   1      44.852  29.137  31.642  1.00  0.00     0.049 A 
ATOM     63  H   UNL A   1      45.045  31.025  30.730  1.00  0.00     0.167 HD
ATOM     64  C   UNL A   1      42.446  29.778  31.536  1.00  0.00     0.074 A 
ATOM     65  C   UNL A   1      42.386  30.713  30.412  1.00  0.00     0.031 C 
ATOM     66  C   UNL A   1      43.484  29.105  32.115  1.00  0.00     0.031 A 
BRANCH  53  67
ATOM     67  C   UNL A   1      46.380  31.195  28.085  1.00  0.00    -0.014 A 
ATOM     68  C   UNL A   1      45.195  31.806  27.627  1.00  0.00     0.010 A 
ATOM     69  C   UNL A   1      47.593  31.836  27.759  1.00  0.00     0.010 A 
ATOM     70  C   UNL A   1      45.228  32.947  26.816  1.00  0.00     0.020 A 
ATOM     71  C   UNL A   1      47.636  32.999  26.989  1.00  0.00     0.020 A 
ATOM     72  C   UNL A   1      46.453  33.529  26.493  1.00  0.00     0.054 A 
BRANCH  72  73
ATOM     73  S   UNL A   1      46.493  34.947  25.372  1.00  0.00     0.124 S 
ATOM     74  O   UNL A   1      45.484  34.575  24.384  1.00  0.00    -0.237 OA
ATOM     75  O   UNL A   1      46.136  36.049  26.260  1.00  0.00    -0.237 OA
ATOM     76  O   UNL A   1      47.871  34.961  24.887  1.00  0.00    -0.744 OA
ENDBRANCH  72  73
ENDBRANCH  53  67
BRANCH  54  77
ATOM     77  C   UNL A   1      38.195  29.299  29.529  1.00  0.00    -0.014 A 
ATOM     78  C   UNL A   1      37.253  29.719  30.491  1.00  0.00     0.010 A 
ATOM     79  C   UNL A   1      37.944  29.636  28.184  1.00  0.00     0.010 A 
ATOM     80  C   UNL A   1      36.158  30.527  30.133  1.00  0.00     0.020 A 
ATOM     81  C   UNL A   1      36.851  30.434  27.819  1.00  0.00     0.020 A 
ATOM     82  C   UNL A   1      35.982  30.904  28.800  1.00  0.00     0.054 A 
BRANCH  82  83
ATOM     83  S   UNL A   1      34.713  32.138  28.372  1.00  0.00     0.124 S 
ATOM     84  O   UNL A   1      35.477  33.119  27.607  1.00  0.00    -0.237 OA
ATOM     85  O   UNL A   1      33.748  31.353  27.610  1.00  0.00    -0.237 OA
ATOM     86  O   UNL A   1      34.237  32.601  29.675  1.00  0.00    -0.744 OA
ENDBRANCH  82  83
ENDBRANCH  54  77
BRANCH  66  87
ATOM     87  C   UNL A   1      43.172  28.096  33.199  1.00  0.00    -0.014 A 
ATOM     88  C   UNL A   1      43.425  26.713  33.100  1.00  0.00     0.010 A 
ATOM     89  C   UNL A   1      42.723  28.605  34.430  1.00  0.00     0.010 A 
ATOM     90  C   UNL A   1      43.197  25.861  34.192  1.00  0.00     0.020 A 
ATOM     91  C   UNL A   1      42.515  27.767  35.527  1.00  0.00     0.020 A 
ATOM     92  C   UNL A   1      42.737  26.396  35.400  1.00  0.00     0.054 A 
BRANCH  92  93
ATOM     93  S   UNL A   1      42.454  25.301  36.820  1.00  0.00     0.124 S 
ATOM     94  O   UNL A   1      41.168  24.689  36.495  1.00  0.00    -0.237 OA
ATOM     95  O   UNL A   1      43.607  24.404  36.774  1.00  0.00    -0.237 OA
ATOM     96  O   UNL A   1      42.433  26.212  37.963  1.00  0.00    -0.744 OA
ENDBRANCH  92  93
ENDBRANCH  66  87
ENDBRANCH  40  41
ENDBRANCH  32  35
ENDBRANCH  30  31
ENDBRANCH  29  30
ENDBRANCH  28  29
ENDBRANCH   1  28
TORSDOF 21
ENDMDL
MODEL 3
REMARK VINA RESULT:     -10.9      3.284      7.902
REMARK SMILES Cc1nc(C)n(CC[C@H]2CCC[C@@]2([NH2+]C(C)C)C(=O)NCCCCCCNC(=O)c2ccc(-c3c4nc(c(-c5ccc(S(=O)(=O)[O-])cc5)c5ccc([nH]5)c(-c5ccc(S(=O)(=O)[O-])cc5)c5nc(c(-c6ccc(S(=O)(=O)[O-])cc6)c6ccc3[nH]6)C=C5)C=C4)cc2)n1
REMARK SMILES IDX 23 1 22 2 21 3 20 4 18 5 19 6 13 8 9 9 10 10 11 11 12 12
REMARK SMILES IDX 8 13 7 14 6 15 1 16 2 17 3 18 90 19 4 20 5 21 14 22 15 25
REMARK SMILES IDX 16 26 17 27 24 28 25 29 26 30 27 31 28 32 29 34 30 35 31 36
REMARK SMILES IDX 89 37 32 38 88 39 33 40 34 41 35 42 82 43 36 44 87 45 81 46
REMARK SMILES IDX 83 47 37 48 86 49 80 50 79 51 38 53 68 54 49 55 67 56 50 57
REMARK SMILES IDX 53 58 66 59 84 60 51 61 52 62 65 64 85 65 54 66 39 67 40 68
REMARK SMILES IDX 48 69 41 70 47 71 42 72 43 73 44 74 45 75 46 76 69 77 70 78
REMARK SMILES IDX 78 79 71 80 77 81 72 82 73 83 74 84 75 85 76 86 55 87 56 88
REMARK SMILES IDX 64 89 57 90 63 91 58 92 59 93 60 94 61 95 62 96
REMARK H PARENT 20 7 14 23 14 24 27 33 83 52 53 63
REMARK Flexibility Score: inf
ROOT
ATOM      1  C   UNL A   1      37.865  22.071  25.502  1.00  0.00     0.002 C 
ENDROOT
BRANCH   1   2
ATOM      2  C   UNL A   1      37.385  23.485  25.823  1.00  0.00     0.021 C 
BRANCH   2   3
ATOM      3  C   UNL A   1      36.119  23.938  25.120  1.00  0.00     0.116 C 
BRANCH   3   4
ATOM      4  N   UNL A   1      35.046  24.378  25.993  1.00  0.00    -0.351 N 
ATOM      5  C   UNL A   1      33.684  24.289  25.794  1.00  0.00     0.281 C 
ATOM      6  O   UNL A   1      32.963  24.439  26.784  1.00  0.00    -0.268 OA
ATOM      7  H   UNL A   1      35.327  24.794  26.839  1.00  0.00     0.163 HD
BRANCH   5   8
ATOM      8  C   UNL A   1      33.113  23.980  24.378  1.00  0.00     0.178 C 
ATOM      9  C   UNL A   1      33.266  22.518  23.834  1.00  0.00     0.062 C 
ATOM     10  C   UNL A   1      32.038  22.309  22.919  1.00  0.00     0.011 C 
ATOM     11  C   UNL A   1      30.931  23.188  23.438  1.00  0.00     0.008 C 
ATOM     12  C   UNL A   1      31.568  24.111  24.449  1.00  0.00     0.079 C 
BRANCH   9  13
ATOM     13  C   UNL A   1      33.502  21.326  24.758  1.00  0.00     0.034 C 
BRANCH  13  14
ATOM     14  C   UNL A   1      32.658  20.056  24.493  1.00  0.00     0.147 C 
BRANCH  14  15
ATOM     15  N   UNL A   1      33.124  18.768  23.998  1.00  0.00    -0.250 N 
ATOM     16  C   UNL A   1      34.690  15.753  25.035  1.00  0.00     0.092 C 
ATOM     17  C   UNL A   1      33.995  16.879  24.392  1.00  0.00     0.147 A 
ATOM     18  N   UNL A   1      33.432  16.744  23.177  1.00  0.00    -0.217 NA
ATOM     19  N   UNL A   1      33.871  18.089  24.926  1.00  0.00    -0.156 NA
ATOM     20  C   UNL A   1      32.873  17.914  22.931  1.00  0.00     0.124 A 
ATOM     21  C   UNL A   1      32.131  18.039  21.657  1.00  0.00     0.089 C 
ENDBRANCH  14  15
ENDBRANCH  13  14
ENDBRANCH   9  13
BRANCH   8  22
ATOM     22  N   UNL A   1      33.677  24.906  23.336  1.00  0.00    -0.331 N 
ATOM     23  H   UNL A   1      33.639  24.412  22.445  1.00  0.00     0.347 HD
ATOM     24  H   UNL A   1      34.604  25.137  23.691  1.00  0.00     0.347 HD
BRANCH  22  25
ATOM     25  C   UNL A   1      33.038  26.224  23.128  1.00  0.00     0.176 C 
ATOM     26  C   UNL A   1      33.806  27.249  23.981  1.00  0.00     0.075 C 
ATOM     27  C   UNL A   1      33.055  26.769  21.694  1.00  0.00     0.075 C 
ENDBRANCH  22  25
ENDBRANCH   8  22
ENDBRANCH   5   8
ENDBRANCH   3   4
ENDBRANCH   2   3
ENDBRANCH   1   2
BRANCH   1  28
ATOM     28  C   UNL A   1      39.282  21.668  25.927  1.00  0.00     0.002 C 
BRANCH  28  29
ATOM     29  C   UNL A   1      40.027  22.529  26.958  1.00  0.00     0.021 C 
BRANCH  29  30
ATOM     30  C   UNL A   1      41.405  22.040  27.371  1.00  0.00     0.116 C 
BRANCH  30  31
ATOM     31  N   UNL A   1      42.375  22.016  26.279  1.00  0.00    -0.352 N 
ATOM     32  C   UNL A   1      42.825  23.080  25.511  1.00  0.00     0.251 C 
ATOM     33  H   UNL A   1      42.757  21.134  26.061  1.00  0.00     0.163 HD
ATOM     34  O   UNL A   1      43.312  22.892  24.409  1.00  0.00    -0.269 OA
BRANCH  32  35
ATOM     35  C   UNL A   1      42.709  24.446  26.063  1.00  0.00     0.039 A 
ATOM     36  C   UNL A   1      41.773  25.365  25.580  1.00  0.00     0.014 A 
ATOM     37  C   UNL A   1      43.551  24.784  27.117  1.00  0.00     0.014 A 
ATOM     38  C   UNL A   1      41.640  26.592  26.233  1.00  0.00     0.010 A 
ATOM     39  C   UNL A   1      43.290  25.896  27.869  1.00  0.00     0.010 A 
ATOM     40  C   UNL A   1      42.387  26.839  27.395  1.00  0.00    -0.014 A 
BRANCH  40  41
ATOM     41  C   UNL A   1      42.163  28.019  28.222  1.00  0.00     0.031 A 
ATOM     42  C   UNL A   1      43.207  29.064  28.073  1.00  0.00     0.074 A 
ATOM     43  C   UNL A   1      40.999  28.248  28.871  1.00  0.00     0.049 A 
ATOM     44  N   UNL A   1      44.117  29.381  28.931  1.00  0.00    -0.248 NA
ATOM     45  C   UNL A   1      43.380  29.710  26.760  1.00  0.00     0.031 C 
ATOM     46  C   UNL A   1      39.775  27.436  28.850  1.00  0.00     0.029 A 
ATOM     47  N   UNL A   1      40.613  29.334  29.592  1.00  0.00    -0.354 N 
ATOM     48  C   UNL A   1      44.806  30.452  28.373  1.00  0.00     0.074 A 
ATOM     49  C   UNL A   1      44.470  30.452  26.971  1.00  0.00     0.031 C 
ATOM     50  C   UNL A   1      38.733  28.169  29.303  1.00  0.00     0.029 A 
ATOM     51  C   UNL A   1      39.240  29.432  29.806  1.00  0.00     0.049 A 
ATOM     52  H   UNL A   1      41.253  29.998  29.935  1.00  0.00     0.167 HD
ATOM     53  C   UNL A   1      45.356  31.419  29.160  1.00  0.00     0.031 A 
ATOM     54  C   UNL A   1      38.565  30.488  30.334  1.00  0.00     0.031 A 
ATOM     55  C   UNL A   1      45.367  31.019  30.547  1.00  0.00     0.049 A 
ATOM     56  C   UNL A   1      39.553  31.282  31.103  1.00  0.00     0.074 A 
ATOM     57  C   UNL A   1      45.903  29.960  31.252  1.00  0.00     0.029 A 
ATOM     58  N   UNL A   1      44.380  31.551  31.346  1.00  0.00    -0.354 N 
ATOM     59  N   UNL A   1      40.147  30.830  32.172  1.00  0.00    -0.248 NA
ATOM     60  C   UNL A   1      40.236  32.370  30.424  1.00  0.00     0.031 C 
ATOM     61  C   UNL A   1      44.904  29.616  32.210  1.00  0.00     0.029 A 
ATOM     62  C   UNL A   1      43.859  30.537  32.106  1.00  0.00     0.049 A 
ATOM     63  H   UNL A   1      44.099  32.494  31.368  1.00  0.00     0.167 HD
ATOM     64  C   UNL A   1      41.467  31.235  32.036  1.00  0.00     0.074 A 
ATOM     65  C   UNL A   1      41.439  32.267  31.000  1.00  0.00     0.031 C 
ATOM     66  C   UNL A   1      42.485  30.491  32.562  1.00  0.00     0.031 A 
BRANCH  53  67
ATOM     67  C   UNL A   1      45.466  32.871  28.761  1.00  0.00    -0.014 A 
ATOM     68  C   UNL A   1      46.666  33.556  29.045  1.00  0.00     0.010 A 
ATOM     69  C   UNL A   1      44.359  33.658  28.383  1.00  0.00     0.010 A 
ATOM     70  C   UNL A   1      46.728  34.955  29.034  1.00  0.00     0.020 A 
ATOM     71  C   UNL A   1      44.422  35.051  28.324  1.00  0.00     0.020 A 
ATOM     72  C   UNL A   1      45.598  35.693  28.684  1.00  0.00     0.054 A 
BRANCH  72  73
ATOM     73  S   UNL A   1      45.661  37.498  28.761  1.00  0.00     0.124 S 
ATOM     74  O   UNL A   1      44.765  37.782  29.878  1.00  0.00    -0.237 OA
ATOM     75  O   UNL A   1      47.079  37.745  29.005  1.00  0.00    -0.237 OA
ATOM     76  O   UNL A   1      45.177  37.913  27.447  1.00  0.00    -0.744 OA
ENDBRANCH  72  73
ENDBRANCH  53  67
BRANCH  54  77
ATOM     77  C   UNL A   1      37.229  31.025  29.955  1.00  0.00    -0.014 A 
ATOM     78  C   UNL A   1      36.365  31.566  30.930  1.00  0.00     0.010 A 
ATOM     79  C   UNL A   1      36.934  31.294  28.605  1.00  0.00     0.010 A 
ATOM     80  C   UNL A   1      35.308  32.422  30.570  1.00  0.00     0.020 A 
ATOM     81  C   UNL A   1      35.877  32.139  28.238  1.00  0.00     0.020 A 
ATOM     82  C   UNL A   1      35.090  32.727  29.225  1.00  0.00     0.054 A 
BRANCH  82  83
ATOM     83  S   UNL A   1      33.883  34.014  28.776  1.00  0.00     0.124 S 
ATOM     84  O   UNL A   1      34.728  35.036  28.166  1.00  0.00    -0.237 OA
ATOM     85  O   UNL A   1      32.987  33.308  27.866  1.00  0.00    -0.237 OA
ATOM     86  O   UNL A   1      33.288  34.385  30.060  1.00  0.00    -0.744 OA
ENDBRANCH  82  83
ENDBRANCH  54  77
BRANCH  66  87
ATOM     87  C   UNL A   1      42.142  29.397  33.549  1.00  0.00    -0.014 A 
ATOM     88  C   UNL A   1      41.835  28.068  33.193  1.00  0.00     0.010 A 
ATOM     89  C   UNL A   1      42.269  29.709  34.913  1.00  0.00     0.010 A 
ATOM     90  C   UNL A   1      41.625  27.091  34.179  1.00  0.00     0.020 A 
ATOM     91  C   UNL A   1      42.083  28.738  35.898  1.00  0.00     0.020 A 
ATOM     92  C   UNL A   1      41.746  27.436  35.529  1.00  0.00     0.054 A 
BRANCH  92  93
ATOM     93  S   UNL A   1      41.489  26.173  36.807  1.00  0.00     0.124 S 
ATOM     94  O   UNL A   1      40.485  26.794  37.667  1.00  0.00    -0.237 OA
ATOM     95  O   UNL A   1      41.032  25.019  36.037  1.00  0.00    -0.237 OA
ATOM     96  O   UNL A   1      42.811  26.018  37.413  1.00  0.00    -0.744 OA
ENDBRANCH  92  93
ENDBRANCH  66  87
ENDBRANCH  40  41
ENDBRANCH  32  35
ENDBRANCH  30  31
ENDBRANCH  29  30
ENDBRANCH  28  29
ENDBRANCH   1  28
TORSDOF 21
ENDMDL
