MODEL 1
REMARK VINA RESULT:     -11.1      0.000      0.000
REMARK SMILES CC(C)n1cncc1C[NH2+][C@H]1[C@@H]2CC[C@@H](C2)[C@@H]1C(=O)NCCCCCCNC(=O)c1ccc(-c2c3nc(c(-c4ccc(S(=O)(=O)[O-])cc4)c4ccc([nH]4)c(-c4ccc(S(=O)(=O)[O-])cc4)c4nc(c(-c5ccc(S(=O)(=O)[O-])cc5)c5ccc2[nH]5)C=C4)C=C3)cc1
REMARK SMILES IDX 23 1 22 2 21 3 20 4 18 5 19 6 17 8 11 9 12 10 13 11 16 12
REMARK SMILES IDX 15 13 14 14 10 15 9 18 8 19 4 20 5 21 6 22 7 23 2 24 1 25
REMARK SMILES IDX 3 26 24 27 25 28 26 29 27 30 28 31 29 33 30 34 31 35 89 36
REMARK SMILES IDX 32 37 88 38 33 39 34 40 35 41 82 42 36 43 87 44 81 45 83 46
REMARK SMILES IDX 37 47 86 48 80 49 79 50 38 52 68 53 49 54 67 55 50 56 53 57
REMARK SMILES IDX 66 58 84 59 51 60 52 61 65 63 85 64 54 65 39 66 40 67 48 68
REMARK SMILES IDX 41 69 47 70 42 71 43 72 44 73 45 74 46 75 69 76 70 77 78 78
REMARK SMILES IDX 71 79 77 80 72 81 73 82 74 83 75 84 76 85 55 86 56 87 64 88
REMARK SMILES IDX 57 89 63 90 58 91 59 92 60 93 61 94 62 95
REMARK H PARENT 20 7 10 16 10 17 27 32 83 51 53 62
REMARK Flexibility Score: inf
ROOT
ATOM      1  C   UNL A   1      37.151  23.742  25.973  1.00  0.00     0.002 C 
ENDROOT
BRANCH   1   2
ATOM      2  C   UNL A   1      36.920  23.437  24.494  1.00  0.00     0.021 C 
BRANCH   2   3
ATOM      3  C   UNL A   1      35.943  22.291  24.233  1.00  0.00     0.116 C 
BRANCH   3   4
ATOM      4  N   UNL A   1      35.006  22.624  23.189  1.00  0.00    -0.356 N 
ATOM      5  C   UNL A   1      33.695  22.954  23.203  1.00  0.00     0.229 C 
ATOM      6  O   UNL A   1      33.186  23.112  22.084  1.00  0.00    -0.275 OA
ATOM      7  H   UNL A   1      35.398  22.606  22.287  1.00  0.00     0.163 HD
BRANCH   5   8
ATOM      8  C   UNL A   1      32.837  23.167  24.447  1.00  0.00     0.140 C 
ATOM      9  C   UNL A   1      33.351  24.076  25.590  1.00  0.00     0.198 C 
ATOM     10  C   UNL A   1      32.802  23.333  26.847  1.00  0.00     0.048 C 
ATOM     11  C   UNL A   1      33.670  22.093  27.126  1.00  0.00     0.010 C 
ATOM     12  C   UNL A   1      31.517  22.671  26.334  1.00  0.00     0.014 C 
ATOM     13  C   UNL A   1      32.241  21.945  25.188  1.00  0.00     0.008 C 
ATOM     14  C   UNL A   1      33.262  21.134  25.999  1.00  0.00     0.005 C 
BRANCH   9  15
ATOM     15  N   UNL A   1      32.787  25.436  25.526  1.00  0.00    -0.338 N 
ATOM     16  H   UNL A   1      32.152  25.570  26.314  1.00  0.00     0.346 HD
ATOM     17  H   UNL A   1      33.555  26.106  25.563  1.00  0.00     0.346 HD
BRANCH  15  18
ATOM     18  C   UNL A   1      32.050  25.648  24.280  1.00  0.00     0.317 C 
BRANCH  18  19
ATOM     19  C   UNL A   1      32.650  26.767  23.508  1.00  0.00     0.093 A 
ATOM     20  N   UNL A   1      32.413  28.115  23.669  1.00  0.00    -0.327 N 
ATOM     21  C   UNL A   1      33.203  28.774  22.757  1.00  0.00     0.200 A 
ATOM     22  N   UNL A   1      33.930  27.949  22.044  1.00  0.00    -0.245 NA
ATOM     23  C   UNL A   1      33.594  26.705  22.498  1.00  0.00     0.140 A 
BRANCH  20  24
ATOM     24  C   UNL A   1      31.488  28.818  24.552  1.00  0.00     0.082 C 
ATOM     25  C   UNL A   1      32.226  29.727  25.532  1.00  0.00     0.031 C 
ATOM     26  C   UNL A   1      30.343  29.541  23.840  1.00  0.00     0.031 C 
ENDBRANCH  20  24
ENDBRANCH  18  19
ENDBRANCH  15  18
ENDBRANCH   9  15
ENDBRANCH   5   8
ENDBRANCH   3   4
ENDBRANCH   2   3
ENDBRANCH   1   2
BRANCH   1  27
ATOM     27  C   UNL A   1      38.580  23.497  26.482  1.00  0.00     0.002 C 
BRANCH  27  28
ATOM     28  C   UNL A   1      39.194  22.128  26.149  1.00  0.00     0.021 C 
BRANCH  28  29
ATOM     29  C   UNL A   1      40.418  21.786  26.986  1.00  0.00     0.116 C 
BRANCH  29  30
ATOM     30  N   UNL A   1      41.612  21.640  26.160  1.00  0.00    -0.352 N 
ATOM     31  C   UNL A   1      42.437  22.619  25.646  1.00  0.00     0.251 C 
ATOM     32  H   UNL A   1      41.864  20.715  25.939  1.00  0.00     0.163 HD
ATOM     33  O   UNL A   1      43.167  22.371  24.700  1.00  0.00    -0.269 OA
BRANCH  31  34
ATOM     34  C   UNL A   1      42.423  23.963  26.254  1.00  0.00     0.039 A 
ATOM     35  C   UNL A   1      41.839  25.038  25.579  1.00  0.00     0.014 A 
ATOM     36  C   UNL A   1      43.015  24.145  27.503  1.00  0.00     0.014 A 
ATOM     37  C   UNL A   1      41.790  26.281  26.205  1.00  0.00     0.010 A 
ATOM     38  C   UNL A   1      42.859  25.336  28.170  1.00  0.00     0.010 A 
ATOM     39  C   UNL A   1      42.286  26.418  27.510  1.00  0.00    -0.014 A 
BRANCH  39  40
ATOM     40  C   UNL A   1      42.088  27.659  28.252  1.00  0.00     0.031 A 
ATOM     41  C   UNL A   1      43.166  28.664  28.055  1.00  0.00     0.074 A 
ATOM     42  C   UNL A   1      40.928  27.974  28.867  1.00  0.00     0.049 A 
ATOM     43  N   UNL A   1      44.041  29.065  28.916  1.00  0.00    -0.248 NA
ATOM     44  C   UNL A   1      43.402  29.172  26.692  1.00  0.00     0.031 C 
ATOM     45  C   UNL A   1      39.670  27.218  28.863  1.00  0.00     0.029 A 
ATOM     46  N   UNL A   1      40.587  29.114  29.527  1.00  0.00    -0.354 N 
ATOM     47  C   UNL A   1      44.787  30.049  28.276  1.00  0.00     0.074 A 
ATOM     48  C   UNL A   1      44.490  29.922  26.871  1.00  0.00     0.031 C 
ATOM     49  C   UNL A   1      38.659  28.018  29.267  1.00  0.00     0.029 A 
ATOM     50  C   UNL A   1      39.217  29.279  29.720  1.00  0.00     0.049 A 
ATOM     51  H   UNL A   1      41.252  29.768  29.842  1.00  0.00     0.167 HD
ATOM     52  C   UNL A   1      45.381  31.058  28.974  1.00  0.00     0.031 A 
ATOM     53  C   UNL A   1      38.584  30.385  30.188  1.00  0.00     0.031 A 
ATOM     54  C   UNL A   1      45.387  30.782  30.389  1.00  0.00     0.049 A 
ATOM     55  C   UNL A   1      39.598  31.190  30.911  1.00  0.00     0.074 A 
ATOM     56  C   UNL A   1      45.913  29.786  31.187  1.00  0.00     0.029 A 
ATOM     57  N   UNL A   1      44.415  31.404  31.139  1.00  0.00    -0.354 N 
ATOM     58  N   UNL A   1      40.180  30.789  32.006  1.00  0.00    -0.248 NA
ATOM     59  C   UNL A   1      40.299  32.234  30.180  1.00  0.00     0.031 C 
ATOM     60  C   UNL A   1      44.925  29.559  32.189  1.00  0.00     0.029 A 
ATOM     61  C   UNL A   1      43.889  30.479  32.002  1.00  0.00     0.049 A 
ATOM     62  H   UNL A   1      44.146  32.348  31.068  1.00  0.00     0.167 HD
ATOM     63  C   UNL A   1      41.502  31.189  31.871  1.00  0.00     0.074 A 
ATOM     64  C   UNL A   1      41.488  32.169  30.785  1.00  0.00     0.031 C 
ATOM     65  C   UNL A   1      42.514  30.482  32.457  1.00  0.00     0.031 A 
BRANCH  52  66
ATOM     66  C   UNL A   1      45.563  32.464  28.446  1.00  0.00    -0.014 A 
ATOM     67  C   UNL A   1      46.770  33.140  28.730  1.00  0.00     0.010 A 
ATOM     68  C   UNL A   1      44.507  33.243  27.934  1.00  0.00     0.010 A 
ATOM     69  C   UNL A   1      46.880  34.530  28.592  1.00  0.00     0.020 A 
ATOM     70  C   UNL A   1      44.619  34.623  27.751  1.00  0.00     0.020 A 
ATOM     71  C   UNL A   1      45.794  35.264  28.117  1.00  0.00     0.054 A 
BRANCH  71  72
ATOM     72  S   UNL A   1      45.907  37.067  28.040  1.00  0.00     0.124 S 
ATOM     73  O   UNL A   1      47.345  37.271  27.902  1.00  0.00    -0.237 OA
ATOM     74  O   UNL A   1      45.104  37.376  26.861  1.00  0.00    -0.237 OA
ATOM     75  O   UNL A   1      45.330  37.500  29.312  1.00  0.00    -0.744 OA
ENDBRANCH  71  72
ENDBRANCH  52  66
BRANCH  53  76
ATOM     76  C   UNL A   1      37.249  30.919  29.813  1.00  0.00    -0.014 A 
ATOM     77  C   UNL A   1      36.464  31.631  30.739  1.00  0.00     0.010 A 
ATOM     78  C   UNL A   1      36.869  30.974  28.457  1.00  0.00     0.010 A 
ATOM     79  C   UNL A   1      35.380  32.421  30.315  1.00  0.00     0.020 A 
ATOM     80  C   UNL A   1      35.788  31.753  28.027  1.00  0.00     0.020 A 
ATOM     81  C   UNL A   1      35.063  32.495  28.957  1.00  0.00     0.054 A 
BRANCH  81  82
ATOM     82  S   UNL A   1      33.785  33.662  28.394  1.00  0.00     0.124 S 
ATOM     83  O   UNL A   1      33.266  34.186  29.653  1.00  0.00    -0.237 OA
ATOM     84  O   UNL A   1      34.549  34.604  27.583  1.00  0.00    -0.237 OA
ATOM     85  O   UNL A   1      32.856  32.815  27.645  1.00  0.00    -0.744 OA
ENDBRANCH  81  82
ENDBRANCH  53  76
BRANCH  65  86
ATOM     86  C   UNL A   1      42.161  29.461  33.517  1.00  0.00    -0.014 A 
ATOM     87  C   UNL A   1      41.695  28.161  33.242  1.00  0.00     0.010 A 
ATOM     88  C   UNL A   1      42.467  29.794  34.848  1.00  0.00     0.010 A 
ATOM     89  C   UNL A   1      41.518  27.229  34.278  1.00  0.00     0.020 A 
ATOM     90  C   UNL A   1      42.314  28.868  35.880  1.00  0.00     0.020 A 
ATOM     91  C   UNL A   1      41.831  27.591  35.592  1.00  0.00     0.054 A 
BRANCH  91  92
ATOM     92  S   UNL A   1      41.647  26.374  36.927  1.00  0.00     0.124 S 
ATOM     93  O   UNL A   1      41.657  25.106  36.204  1.00  0.00    -0.237 OA
ATOM     94  O   UNL A   1      42.816  26.630  37.765  1.00  0.00    -0.237 OA
ATOM     95  O   UNL A   1      40.368  26.724  37.544  1.00  0.00    -0.744 OA
ENDBRANCH  91  92
ENDBRANCH  65  86
ENDBRANCH  39  40
ENDBRANCH  31  34
ENDBRANCH  29  30
ENDBRANCH  28  29
ENDBRANCH  27  28
ENDBRANCH   1  27
TORSDOF 20
ENDMDL
MODEL 2
REMARK VINA RESULT:     -11.0      2.107      3.783
REMARK SMILES CC(C)n1cncc1C[NH2+][C@H]1[C@@H]2CC[C@@H](C2)[C@@H]1C(=O)NCCCCCCNC(=O)c1ccc(-c2c3nc(c(-c4ccc(S(=O)(=O)[O-])cc4)c4ccc([nH]4)c(-c4ccc(S(=O)(=O)[O-])cc4)c4nc(c(-c5ccc(S(=O)(=O)[O-])cc5)c5ccc2[nH]5)C=C4)C=C3)cc1
REMARK SMILES IDX 23 1 22 2 21 3 20 4 18 5 19 6 17 8 11 9 12 10 13 11 16 12
REMARK SMILES IDX 15 13 14 14 10 15 9 18 8 19 4 20 5 21 6 22 7 23 2 24 1 25
REMARK SMILES IDX 3 26 24 27 25 28 26 29 27 30 28 31 29 33 30 34 31 35 89 36
REMARK SMILES IDX 32 37 88 38 33 39 34 40 35 41 82 42 36 43 87 44 81 45 83 46
REMARK SMILES IDX 37 47 86 48 80 49 79 50 38 52 68 53 49 54 67 55 50 56 53 57
REMARK SMILES IDX 66 58 84 59 51 60 52 61 65 63 85 64 54 65 39 66 40 67 48 68
REMARK SMILES IDX 41 69 47 70 42 71 43 72 44 73 45 74 46 75 69 76 70 77 78 78
REMARK SMILES IDX 71 79 77 80 72 81 73 82 74 83 75 84 76 85 55 86 56 87 64 88
REMARK SMILES IDX 57 89 63 90 58 91 59 92 60 93 61 94 62 95
REMARK H PARENT 20 7 10 16 10 17 27 32 83 51 53 62
REMARK Flexibility Score: inf
ROOT
ATOM      1  C   UNL A   1      34.582  24.861  24.313  1.00  0.00     0.002 C 
ENDROOT
BRANCH   1   2
ATOM      2  C   UNL A   1      34.026  24.914  25.735  1.00  0.00     0.021 C 
BRANCH   2   3
ATOM      3  C   UNL A   1      32.550  24.533  25.848  1.00  0.00     0.116 C 
BRANCH   3   4
ATOM      4  N   UNL A   1      31.825  25.469  26.671  1.00  0.00    -0.356 N 
ATOM      5  C   UNL A   1      31.532  26.781  26.531  1.00  0.00     0.229 C 
ATOM      6  O   UNL A   1      30.935  27.287  27.491  1.00  0.00    -0.275 OA
ATOM      7  H   UNL A   1      31.472  25.073  27.501  1.00  0.00     0.163 HD
BRANCH   5   8
ATOM      8  C   UNL A   1      31.846  27.645  25.312  1.00  0.00     0.140 C 
ATOM      9  C   UNL A   1      31.333  29.104  25.250  1.00  0.00     0.198 C 
ATOM     10  C   UNL A   1      31.008  29.253  23.732  1.00  0.00     0.048 C 
ATOM     11  C   UNL A   1      29.686  28.527  23.421  1.00  0.00     0.010 C 
ATOM     12  C   UNL A   1      32.014  28.312  23.059  1.00  0.00     0.014 C 
ATOM     13  C   UNL A   1      31.570  27.096  23.891  1.00  0.00     0.008 C 
ATOM     14  C   UNL A   1      30.086  27.047  23.506  1.00  0.00     0.005 C 
BRANCH   9  15
ATOM     15  N   UNL A   1      32.366  30.082  25.639  1.00  0.00    -0.338 N 
ATOM     16  H   UNL A   1      33.284  29.713  25.387  1.00  0.00     0.346 HD
ATOM     17  H   UNL A   1      32.182  30.958  25.149  1.00  0.00     0.346 HD
BRANCH  15  18
ATOM     18  C   UNL A   1      32.336  30.342  27.077  1.00  0.00     0.317 C 
BRANCH  18  19
ATOM     19  C   UNL A   1      33.468  31.222  27.468  1.00  0.00     0.093 A 
ATOM     20  N   UNL A   1      34.758  30.841  27.768  1.00  0.00    -0.327 N 
ATOM     21  C   UNL A   1      35.462  31.988  28.046  1.00  0.00     0.200 A 
ATOM     22  N   UNL A   1      34.722  33.064  27.931  1.00  0.00    -0.245 NA
ATOM     23  C   UNL A   1      33.486  32.602  27.576  1.00  0.00     0.140 A 
BRANCH  20  24
ATOM     24  C   UNL A   1      35.358  29.514  27.866  1.00  0.00     0.082 C 
ATOM     25  C   UNL A   1      35.184  28.721  26.573  1.00  0.00     0.031 C 
ATOM     26  C   UNL A   1      36.803  29.496  28.368  1.00  0.00     0.031 C 
ENDBRANCH  20  24
ENDBRANCH  18  19
ENDBRANCH  15  18
ENDBRANCH   9  15
ENDBRANCH   5   8
ENDBRANCH   3   4
ENDBRANCH   2   3
ENDBRANCH   1   2
BRANCH   1  27
ATOM     27  C   UNL A   1      35.239  23.532  23.911  1.00  0.00     0.002 C 
BRANCH  27  28
ATOM     28  C   UNL A   1      36.021  22.801  25.012  1.00  0.00     0.021 C 
BRANCH  28  29
ATOM     29  C   UNL A   1      37.461  23.274  25.159  1.00  0.00     0.116 C 
BRANCH  29  30
ATOM     30  N   UNL A   1      38.301  22.258  25.783  1.00  0.00    -0.352 N 
ATOM     31  C   UNL A   1      39.484  22.416  26.476  1.00  0.00     0.251 C 
ATOM     32  H   UNL A   1      37.980  21.332  25.700  1.00  0.00     0.163 HD
ATOM     33  O   UNL A   1      40.240  21.470  26.623  1.00  0.00    -0.269 OA
BRANCH  31  34
ATOM     34  C   UNL A   1      39.820  23.741  27.033  1.00  0.00     0.039 A 
ATOM     35  C   UNL A   1      38.854  24.749  27.093  1.00  0.00     0.014 A 
ATOM     36  C   UNL A   1      41.119  23.973  27.483  1.00  0.00     0.014 A 
ATOM     37  C   UNL A   1      39.187  25.969  27.677  1.00  0.00     0.010 A 
ATOM     38  C   UNL A   1      41.412  25.128  28.168  1.00  0.00     0.010 A 
ATOM     39  C   UNL A   1      40.464  26.144  28.230  1.00  0.00    -0.014 A 
BRANCH  39  40
ATOM     40  C   UNL A   1      40.779  27.342  29.002  1.00  0.00     0.031 A 
ATOM     41  C   UNL A   1      41.774  28.238  28.355  1.00  0.00     0.074 A 
ATOM     42  C   UNL A   1      40.067  27.734  30.080  1.00  0.00     0.049 A 
ATOM     43  N   UNL A   1      42.985  28.479  28.735  1.00  0.00    -0.248 NA
ATOM     44  C   UNL A   1      41.439  28.815  27.041  1.00  0.00     0.031 C 
ATOM     45  C   UNL A   1      38.854  27.119  30.633  1.00  0.00     0.029 A 
ATOM     46  N   UNL A   1      40.206  28.853  30.842  1.00  0.00    -0.354 N 
ATOM     47  C   UNL A   1      43.485  29.422  27.842  1.00  0.00     0.074 A 
ATOM     48  C   UNL A   1      42.580  29.429  26.721  1.00  0.00     0.031 C 
ATOM     49  C   UNL A   1      38.242  27.992  31.463  1.00  0.00     0.029 A 
ATOM     50  C   UNL A   1      39.100  29.149  31.635  1.00  0.00     0.049 A 
ATOM     51  H   UNL A   1      41.019  29.407  30.833  1.00  0.00     0.167 HD
ATOM     52  C   UNL A   1      44.453  30.307  28.213  1.00  0.00     0.031 A 
ATOM     53  C   UNL A   1      38.891  30.280  32.357  1.00  0.00     0.031 A 
ATOM     54  C   UNL A   1      45.055  29.930  29.467  1.00  0.00     0.049 A 
ATOM     55  C   UNL A   1      40.215  30.917  32.557  1.00  0.00     0.074 A 
ATOM     56  C   UNL A   1      45.749  28.829  29.925  1.00  0.00     0.029 A 
ATOM     57  N   UNL A   1      44.610  30.597  30.586  1.00  0.00    -0.354 N 
ATOM     58  N   UNL A   1      41.167  30.378  33.264  1.00  0.00    -0.248 NA
ATOM     59  C   UNL A   1      40.642  31.930  31.605  1.00  0.00     0.031 C 
ATOM     60  C   UNL A   1      45.293  28.637  31.261  1.00  0.00     0.029 A 
ATOM     61  C   UNL A   1      44.410  29.674  31.578  1.00  0.00     0.049 A 
ATOM     62  H   UNL A   1      44.460  31.567  30.659  1.00  0.00     0.167 HD
ATOM     63  C   UNL A   1      42.329  30.642  32.552  1.00  0.00     0.074 A 
ATOM     64  C   UNL A   1      41.957  31.694  31.607  1.00  0.00     0.031 C 
ATOM     65  C   UNL A   1      43.396  29.791  32.606  1.00  0.00     0.031 A 
BRANCH  52  66
ATOM     66  C   UNL A   1      44.559  31.721  27.682  1.00  0.00    -0.014 A 
ATOM     67  C   UNL A   1      45.724  32.090  26.975  1.00  0.00     0.010 A 
ATOM     68  C   UNL A   1      43.706  32.766  28.087  1.00  0.00     0.010 A 
ATOM     69  C   UNL A   1      46.056  33.434  26.764  1.00  0.00     0.020 A 
ATOM     70  C   UNL A   1      44.005  34.109  27.843  1.00  0.00     0.020 A 
ATOM     71  C   UNL A   1      45.198  34.436  27.215  1.00  0.00     0.054 A 
BRANCH  71  72
ATOM     72  S   UNL A   1      45.682  36.169  27.032  1.00  0.00     0.124 S 
ATOM     73  O   UNL A   1      46.493  36.127  25.819  1.00  0.00    -0.237 OA
ATOM     74  O   UNL A   1      44.391  36.839  26.913  1.00  0.00    -0.237 OA
ATOM     75  O   UNL A   1      46.413  36.451  28.267  1.00  0.00    -0.744 OA
ENDBRANCH  71  72
ENDBRANCH  52  66
BRANCH  53  76
ATOM     76  C   UNL A   1      37.610  30.979  32.636  1.00  0.00    -0.014 A 
ATOM     77  C   UNL A   1      37.517  31.955  33.647  1.00  0.00     0.010 A 
ATOM     78  C   UNL A   1      36.546  30.891  31.715  1.00  0.00     0.010 A 
ATOM     79  C   UNL A   1      36.434  32.851  33.693  1.00  0.00     0.020 A 
ATOM     80  C   UNL A   1      35.461  31.775  31.759  1.00  0.00     0.020 A 
ATOM     81  C   UNL A   1      35.422  32.770  32.733  1.00  0.00     0.054 A 
BRANCH  81  82
ATOM     82  S   UNL A   1      34.125  34.044  32.684  1.00  0.00     0.124 S 
ATOM     83  O   UNL A   1      33.990  34.297  31.253  1.00  0.00    -0.237 OA
ATOM     84  O   UNL A   1      32.995  33.372  33.317  1.00  0.00    -0.237 OA
ATOM     85  O   UNL A   1      34.698  35.146  33.457  1.00  0.00    -0.744 OA
ENDBRANCH  81  82
ENDBRANCH  53  76
BRANCH  65  86
ATOM     86  C   UNL A   1      43.426  28.739  33.693  1.00  0.00    -0.014 A 
ATOM     87  C   UNL A   1      44.112  28.880  34.915  1.00  0.00     0.010 A 
ATOM     88  C   UNL A   1      42.589  27.622  33.522  1.00  0.00     0.010 A 
ATOM     89  C   UNL A   1      43.980  27.915  35.927  1.00  0.00     0.020 A 
ATOM     90  C   UNL A   1      42.437  26.670  34.530  1.00  0.00     0.020 A 
ATOM     91  C   UNL A   1      43.140  26.815  35.725  1.00  0.00     0.054 A 
BRANCH  91  92
ATOM     92  S   UNL A   1      42.932  25.590  37.049  1.00  0.00     0.124 S 
ATOM     93  O   UNL A   1      43.018  26.408  38.255  1.00  0.00    -0.237 OA
ATOM     94  O   UNL A   1      41.616  25.023  36.765  1.00  0.00    -0.237 OA
ATOM     95  O   UNL A   1      44.049  24.666  36.848  1.00  0.00    -0.744 OA
ENDBRANCH  91  92
ENDBRANCH  65  86
ENDBRANCH  39  40
ENDBRANCH  31  34
ENDBRANCH  29  30
ENDBRANCH  28  29
ENDBRANCH  27  28
ENDBRANCH   1  27
TORSDOF 20
ENDMDL
MODEL 3
REMARK VINA RESULT:     -11.0      2.466      4.336
REMARK SMILES CC(C)n1cncc1C[NH2+][C@H]1[C@@H]2CC[C@@H](C2)[C@@H]1C(=O)NCCCCCCNC(=O)c1ccc(-c2c3nc(c(-c4ccc(S(=O)(=O)[O-])cc4)c4ccc([nH]4)c(-c4ccc(S(=O)(=O)[O-])cc4)c4nc(c(-c5ccc(S(=O)(=O)[O-])cc5)c5ccc2[nH]5)C=C4)C=C3)cc1
REMARK SMILES IDX 23 1 22 2 21 3 20 4 18 5 19 6 17 8 11 9 12 10 13 11 16 12
REMARK SMILES IDX 15 13 14 14 10 15 9 18 8 19 4 20 5 21 6 22 7 23 2 24 1 25
REMARK SMILES IDX 3 26 24 27 25 28 26 29 27 30 28 31 29 33 30 34 31 35 89 36
REMARK SMILES IDX 32 37 88 38 33 39 34 40 35 41 82 42 36 43 87 44 81 45 83 46
REMARK SMILES IDX 37 47 86 48 80 49 79 50 38 52 68 53 49 54 67 55 50 56 53 57
REMARK SMILES IDX 66 58 84 59 51 60 52 61 65 63 85 64 54 65 39 66 40 67 48 68
REMARK SMILES IDX 41 69 47 70 42 71 43 72 44 73 45 74 46 75 69 76 70 77 78 78
REMARK SMILES IDX 71 79 77 80 72 81 73 82 74 83 75 84 76 85 55 86 56 87 64 88
REMARK SMILES IDX 57 89 63 90 58 91 59 92 60 93 61 94 62 95
REMARK H PARENT 20 7 10 16 10 17 27 32 83 51 53 62
REMARK Flexibility Score: inf
ROOT
ATOM      1  C   UNL A   1      39.043  22.159  26.185  1.00  0.00     0.002 C 
ENDROOT
BRANCH   1   2
ATOM      2  C   UNL A   1      38.003  23.273  26.077  1.00  0.00     0.021 C 
BRANCH   2   3
ATOM      3  C   UNL A   1      36.606  22.794  25.686  1.00  0.00     0.116 C 
BRANCH   3   4
ATOM      4  N   UNL A   1      35.746  22.677  26.837  1.00  0.00    -0.356 N 
ATOM      5  C   UNL A   1      34.405  22.749  26.993  1.00  0.00     0.229 C 
ATOM      6  O   UNL A   1      34.012  22.667  28.166  1.00  0.00    -0.275 OA
ATOM      7  H   UNL A   1      36.232  22.512  27.677  1.00  0.00     0.163 HD
BRANCH   5   8
ATOM      8  C   UNL A   1      33.378  22.889  25.873  1.00  0.00     0.140 C 
ATOM      9  C   UNL A   1      33.292  21.807  24.768  1.00  0.00     0.198 C 
ATOM     10  C   UNL A   1      32.949  22.671  23.516  1.00  0.00     0.048 C 
ATOM     11  C   UNL A   1      34.218  23.396  23.034  1.00  0.00     0.010 C 
ATOM     12  C   UNL A   1      32.155  23.845  24.101  1.00  0.00     0.014 C 
ATOM     13  C   UNL A   1      33.270  24.222  25.092  1.00  0.00     0.008 C 
ATOM     14  C   UNL A   1      34.418  24.476  24.107  1.00  0.00     0.005 C 
BRANCH   9  15
ATOM     15  N   UNL A   1      32.213  20.833  25.016  1.00  0.00    -0.338 N 
ATOM     16  H   UNL A   1      31.603  21.194  25.751  1.00  0.00     0.346 HD
ATOM     17  H   UNL A   1      31.694  20.699  24.148  1.00  0.00     0.346 HD
BRANCH  15  18
ATOM     18  C   UNL A   1      32.751  19.540  25.436  1.00  0.00     0.317 C 
BRANCH  18  19
ATOM     19  C   UNL A   1      32.826  18.611  24.279  1.00  0.00     0.093 A 
ATOM     20  N   UNL A   1      33.193  17.282  24.297  1.00  0.00    -0.327 N 
ATOM     21  C   UNL A   1      33.092  16.820  23.006  1.00  0.00     0.200 A 
ATOM     22  N   UNL A   1      32.676  17.747  22.179  1.00  0.00    -0.245 NA
ATOM     23  C   UNL A   1      32.511  18.859  22.955  1.00  0.00     0.140 A 
BRANCH  20  24
ATOM     24  C   UNL A   1      33.673  16.443  25.391  1.00  0.00     0.082 C 
ATOM     25  C   UNL A   1      32.739  15.262  25.645  1.00  0.00     0.031 C 
ATOM     26  C   UNL A   1      35.136  16.012  25.278  1.00  0.00     0.031 C 
ENDBRANCH  20  24
ENDBRANCH  18  19
ENDBRANCH  15  18
ENDBRANCH   9  15
ENDBRANCH   5   8
ENDBRANCH   3   4
ENDBRANCH   2   3
ENDBRANCH   1   2
BRANCH   1  27
ATOM     27  C   UNL A   1      38.715  20.872  25.413  1.00  0.00     0.002 C 
BRANCH  27  28
ATOM     28  C   UNL A   1      39.555  19.635  25.767  1.00  0.00     0.021 C 
BRANCH  28  29
ATOM     29  C   UNL A   1      40.726  19.934  26.694  1.00  0.00     0.116 C 
BRANCH  29  30
ATOM     30  N   UNL A   1      42.000  19.564  26.088  1.00  0.00    -0.352 N 
ATOM     31  C   UNL A   1      43.013  20.381  25.630  1.00  0.00     0.251 C 
ATOM     32  H   UNL A   1      42.161  18.598  25.995  1.00  0.00     0.163 HD
ATOM     33  O   UNL A   1      43.838  19.951  24.840  1.00  0.00    -0.269 OA
BRANCH  31  34
ATOM     34  C   UNL A   1      43.082  21.777  26.104  1.00  0.00     0.039 A 
ATOM     35  C   UNL A   1      42.593  22.818  25.311  1.00  0.00     0.014 A 
ATOM     36  C   UNL A   1      43.655  22.039  27.347  1.00  0.00     0.014 A 
ATOM     37  C   UNL A   1      42.619  24.118  25.812  1.00  0.00     0.010 A 
ATOM     38  C   UNL A   1      43.571  23.298  27.891  1.00  0.00     0.010 A 
ATOM     39  C   UNL A   1      43.093  24.347  27.112  1.00  0.00    -0.014 A 
BRANCH  39  40
ATOM     40  C   UNL A   1      42.968  25.666  27.725  1.00  0.00     0.031 A 
ATOM     41  C   UNL A   1      44.052  26.614  27.355  1.00  0.00     0.074 A 
ATOM     42  C   UNL A   1      41.856  26.077  28.371  1.00  0.00     0.049 A 
ATOM     43  N   UNL A   1      44.987  27.081  28.113  1.00  0.00    -0.248 NA
ATOM     44  C   UNL A   1      44.212  26.965  25.933  1.00  0.00     0.031 C 
ATOM     45  C   UNL A   1      40.585  25.360  28.524  1.00  0.00     0.029 A 
ATOM     46  N   UNL A   1      41.580  27.290  28.921  1.00  0.00    -0.354 N 
ATOM     47  C   UNL A   1      45.712  27.969  27.325  1.00  0.00     0.074 A 
ATOM     48  C   UNL A   1      45.326  27.700  25.963  1.00  0.00     0.031 C 
ATOM     49  C   UNL A   1      39.618  26.227  28.899  1.00  0.00     0.029 A 
ATOM     50  C   UNL A   1      40.229  27.513  29.176  1.00  0.00     0.049 A 
ATOM     51  H   UNL A   1      42.277  27.956  29.122  1.00  0.00     0.167 HD
ATOM     52  C   UNL A   1      46.370  29.030  27.872  1.00  0.00     0.031 A 
ATOM     53  C   UNL A   1      39.650  28.681  29.558  1.00  0.00     0.031 A 
ATOM     54  C   UNL A   1      46.459  28.908  29.306  1.00  0.00     0.049 A 
ATOM     55  C   UNL A   1      40.724  29.530  30.126  1.00  0.00     0.074 A 
ATOM     56  C   UNL A   1      47.012  27.991  30.175  1.00  0.00     0.029 A 
ATOM     57  N   UNL A   1      45.549  29.634  30.041  1.00  0.00    -0.354 N 
ATOM     58  N   UNL A   1      41.364  29.234  31.222  1.00  0.00    -0.248 NA
ATOM     59  C   UNL A   1      41.399  30.470  29.245  1.00  0.00     0.031 C 
ATOM     60  C   UNL A   1      46.085  27.900  31.253  1.00  0.00     0.029 A 
ATOM     61  C   UNL A   1      45.059  28.823  31.029  1.00  0.00     0.049 A 
ATOM     62  H   UNL A   1      45.295  30.572  29.883  1.00  0.00     0.167 HD
ATOM     63  C   UNL A   1      42.684  29.580  30.965  1.00  0.00     0.074 A 
ATOM     64  C   UNL A   1      42.622  30.437  29.782  1.00  0.00     0.031 C 
ATOM     65  C   UNL A   1      43.715  28.913  31.563  1.00  0.00     0.031 A 
BRANCH  52  66
ATOM     66  C   UNL A   1      46.548  30.366  27.184  1.00  0.00    -0.014 A 
ATOM     67  C   UNL A   1      47.829  30.961  27.187  1.00  0.00     0.010 A 
ATOM     68  C   UNL A   1      45.471  31.184  26.787  1.00  0.00     0.010 A 
ATOM     69  C   UNL A   1      48.005  32.320  26.895  1.00  0.00     0.020 A 
ATOM     70  C   UNL A   1      45.641  32.529  26.451  1.00  0.00     0.020 A 
ATOM     71  C   UNL A   1      46.903  33.098  26.544  1.00  0.00     0.054 A 
BRANCH  71  72
ATOM     72  S   UNL A   1      47.120  34.873  26.269  1.00  0.00     0.124 S 
ATOM     73  O   UNL A   1      47.882  34.892  25.024  1.00  0.00    -0.237 OA
ATOM     74  O   UNL A   1      45.741  35.342  26.180  1.00  0.00    -0.237 OA
ATOM     75  O   UNL A   1      47.848  35.315  27.458  1.00  0.00    -0.744 OA
ENDBRANCH  71  72
ENDBRANCH  52  66
BRANCH  53  76
ATOM     76  C   UNL A   1      38.306  29.207  29.208  1.00  0.00    -0.014 A 
ATOM     77  C   UNL A   1      37.366  29.526  30.207  1.00  0.00     0.010 A 
ATOM     78  C   UNL A   1      38.049  29.666  27.900  1.00  0.00     0.010 A 
ATOM     79  C   UNL A   1      36.247  30.329  29.921  1.00  0.00     0.020 A 
ATOM     80  C   UNL A   1      36.934  30.462  27.606  1.00  0.00     0.020 A 
ATOM     81  C   UNL A   1      36.051  30.812  28.625  1.00  0.00     0.054 A 
BRANCH  81  82
ATOM     82  S   UNL A   1      34.712  32.000  28.301  1.00  0.00     0.124 S 
ATOM     83  O   UNL A   1      35.393  33.034  27.528  1.00  0.00    -0.237 OA
ATOM     84  O   UNL A   1      33.743  31.195  27.565  1.00  0.00    -0.237 OA
ATOM     85  O   UNL A   1      34.284  32.407  29.640  1.00  0.00    -0.744 OA
ENDBRANCH  81  82
ENDBRANCH  53  76
BRANCH  65  86
ATOM     86  C   UNL A   1      43.408  28.022  32.747  1.00  0.00    -0.014 A 
ATOM     87  C   UNL A   1      42.680  28.432  33.881  1.00  0.00     0.010 A 
ATOM     88  C   UNL A   1      43.747  26.663  32.626  1.00  0.00     0.010 A 
ATOM     89  C   UNL A   1      42.323  27.507  34.876  1.00  0.00     0.020 A 
ATOM     90  C   UNL A   1      43.379  25.734  33.599  1.00  0.00     0.020 A 
ATOM     91  C   UNL A   1      42.676  26.162  34.726  1.00  0.00     0.054 A 
BRANCH  91  92
ATOM     92  S   UNL A   1      42.175  24.956  35.988  1.00  0.00     0.124 S 
ATOM     93  O   UNL A   1      41.995  23.736  35.207  1.00  0.00    -0.237 OA
ATOM     94  O   UNL A   1      43.312  24.954  36.905  1.00  0.00    -0.237 OA
ATOM     95  O   UNL A   1      40.945  25.522  36.542  1.00  0.00    -0.744 OA
ENDBRANCH  91  92
ENDBRANCH  65  86
ENDBRANCH  39  40
ENDBRANCH  31  34
ENDBRANCH  29  30
ENDBRANCH  28  29
ENDBRANCH  27  28
ENDBRANCH   1  27
TORSDOF 20
ENDMDL
