MODEL 1
REMARK VINA RESULT:     -13.9      0.000      0.000
REMARK SMILES CCc1cc(OCCC(=O)NCCCCCCNC(=O)c2ccc(-c3c4nc(c(-c5ccc(S(=O)(=O)[O-])cc5)c5ccc([nH]5)c(-c5ccc(S(=O)(=O)[O-])cc5)c5nc(c(-c6ccc(S(=O)(=O)[O-])cc6)c6ccc3[nH]6)C=C5)C=C4)cc2)nc(-c2cnccn2)n1
REMARK SMILES IDX 14 1 13 2 12 3 11 4 9 5 10 6 8 8 7 9 6 10 5 11 3 12 4 13
REMARK SMILES IDX 89 14 82 15 81 16 2 17 1 18 83 19 84 20 88 21 85 22 87 23
REMARK SMILES IDX 86 24 15 25 16 26 17 27 18 28 19 29 20 31 21 32 22 33 80 34
REMARK SMILES IDX 23 35 79 36 24 37 25 38 26 39 73 40 27 41 78 42 72 43 74 44
REMARK SMILES IDX 28 45 77 46 71 47 70 48 29 50 59 51 40 52 58 53 41 54 44 55
REMARK SMILES IDX 57 56 75 57 42 58 43 59 56 61 76 62 45 63 30 64 31 65 39 66
REMARK SMILES IDX 32 67 38 68 33 69 34 70 35 71 36 72 37 73 60 74 61 75 69 76
REMARK SMILES IDX 62 77 68 78 63 79 64 80 65 81 66 82 67 83 46 84 47 85 55 86
REMARK SMILES IDX 48 87 54 88 49 89 50 90 51 91 52 92 53 93
REMARK H PARENT 11 7 18 30 74 49 44 60
REMARK Flexibility Score: inf
ROOT
ATOM      1  C   UNL A   1      34.833  22.202  23.628  1.00  0.00     0.002 C 
ENDROOT
BRANCH   1   2
ATOM      2  C   UNL A   1      33.823  21.654  25.177  1.00  0.00     0.021 C 
BRANCH   2   3
ATOM      3  C   UNL A   1      31.635  21.552  25.039  1.00  0.00     0.116 C 
BRANCH   3   4
ATOM      4  N   UNL A   1      30.561  22.393  25.802  1.00  0.00    -0.356 N 
ATOM      5  C   UNL A   1      30.690  23.657  26.277  1.00  0.00     0.223 C 
ATOM      6  O   UNL A   1      30.045  24.009  27.262  1.00  0.00    -0.275 OA
ATOM      7  H   UNL A   1      29.692  21.955  25.954  1.00  0.00     0.163 HD
BRANCH   5   8
ATOM      8  C   UNL A   1      31.604  24.584  25.509  1.00  0.00     0.141 C 
BRANCH   8   9
ATOM      9  C   UNL A   1      32.967  24.992  26.117  1.00  0.00     0.241 C 
BRANCH   9  10
ATOM     10  O   UNL A   1      33.629  26.244  25.765  1.00  0.00    -0.477 OA
BRANCH  10  11
ATOM     11  C   UNL A   1      33.415  26.766  24.461  1.00  0.00     0.217 A 
ATOM     12  C   UNL A   1      32.437  25.475  21.969  1.00  0.00     0.048 A 
ATOM     13  C   UNL A   1      33.612  25.584  23.247  1.00  0.00     0.092 A 
ATOM     14  N   UNL A   1      31.027  26.566  22.026  1.00  0.00    -0.231 NA
ATOM     15  C   UNL A   1      30.996  27.966  23.207  1.00  0.00     0.183 A 
ATOM     16  N   UNL A   1      32.171  27.974  24.459  1.00  0.00    -0.192 NA
BRANCH  12  17
ATOM     17  C   UNL A   1      32.880  24.766  20.701  1.00  0.00     0.053 C 
ATOM     18  C   UNL A   1      32.533  25.545  19.419  1.00  0.00     0.011 C 
ENDBRANCH  12  17
BRANCH  15  19
ATOM     19  C   UNL A   1      30.672  29.528  22.744  1.00  0.00     0.126 A 
ATOM     20  C   UNL A   1      30.243  30.437  24.173  1.00  0.00     0.143 A 
ATOM     21  N   UNL A   1      29.687  29.831  21.235  1.00  0.00    -0.250 NA
ATOM     22  N   UNL A   1      28.759  31.327  24.264  1.00  0.00    -0.261 NA
ATOM     23  C   UNL A   1      28.153  30.768  21.322  1.00  0.00     0.132 A 
ATOM     24  C   UNL A   1      27.729  31.503  22.870  1.00  0.00     0.131 A 
ENDBRANCH  15  19
ENDBRANCH  10  11
ENDBRANCH   9  10
ENDBRANCH   8   9
ENDBRANCH   5   8
ENDBRANCH   3   4
ENDBRANCH   2   3
ENDBRANCH   1   2
BRANCH   1  25
ATOM     25  C   UNL A   1      36.599  22.624  23.715  1.00  0.00     0.002 C 
BRANCH  25  26
ATOM     26  C   UNL A   1      37.609  22.348  25.135  1.00  0.00     0.021 C 
BRANCH  26  27
ATOM     27  C   UNL A   1      38.232  23.667  26.290  1.00  0.00     0.116 C 
BRANCH  27  28
ATOM     28  N   UNL A   1      40.158  24.466  26.100  1.00  0.00    -0.352 N 
ATOM     29  C   UNL A   1      41.023  25.625  26.016  1.00  0.00     0.251 C 
ATOM     30  H   UNL A   1      40.758  23.687  26.039  1.00  0.00     0.163 HD
ATOM     31  O   UNL A   1      41.479  25.991  24.934  1.00  0.00    -0.269 OA
BRANCH  29  32
ATOM     32  C   UNL A   1      41.374  26.390  27.206  1.00  0.00     0.039 A 
ATOM     33  C   UNL A   1      42.097  27.591  27.101  1.00  0.00     0.014 A 
ATOM     34  C   UNL A   1      40.683  26.017  28.339  1.00  0.00     0.014 A 
ATOM     35  C   UNL A   1      41.941  28.538  28.108  1.00  0.00     0.010 A 
ATOM     36  C   UNL A   1      40.466  26.984  29.287  1.00  0.00     0.010 A 
ATOM     37  C   UNL A   1      41.078  28.249  29.174  1.00  0.00    -0.014 A 
BRANCH  37  38
ATOM     38  C   UNL A   1      40.865  29.178  30.296  1.00  0.00     0.031 A 
ATOM     39  C   UNL A   1      41.718  28.963  31.510  1.00  0.00     0.074 A 
ATOM     40  C   UNL A   1      39.863  30.076  30.287  1.00  0.00     0.049 A 
ATOM     41  N   UNL A   1      41.634  29.522  32.684  1.00  0.00    -0.248 NA
ATOM     42  C   UNL A   1      42.767  27.929  31.402  1.00  0.00     0.031 C 
ATOM     43  C   UNL A   1      38.934  30.321  29.181  1.00  0.00     0.029 A 
ATOM     44  N   UNL A   1      39.448  30.944  31.265  1.00  0.00    -0.354 N 
ATOM     45  C   UNL A   1      42.597  28.886  33.453  1.00  0.00     0.074 A 
ATOM     46  C   UNL A   1      43.175  27.834  32.654  1.00  0.00     0.031 C 
ATOM     47  C   UNL A   1      38.077  31.295  29.536  1.00  0.00     0.029 A 
ATOM     48  C   UNL A   1      38.368  31.716  30.904  1.00  0.00     0.049 A 
ATOM     49  H   UNL A   1      39.884  31.008  32.146  1.00  0.00     0.167 HD
ATOM     50  C   UNL A   1      43.002  29.185  34.704  1.00  0.00     0.031 A 
ATOM     51  C   UNL A   1      37.698  32.651  31.609  1.00  0.00     0.031 A 
ATOM     52  C   UNL A   1      42.429  30.243  35.481  1.00  0.00     0.049 A 
ATOM     53  C   UNL A   1      38.154  32.956  33.016  1.00  0.00     0.074 A 
ATOM     54  C   UNL A   1      42.799  30.680  36.738  1.00  0.00     0.029 A 
ATOM     55  N   UNL A   1      41.361  31.027  35.074  1.00  0.00    -0.354 N 
ATOM     56  N   UNL A   1      39.134  32.418  33.704  1.00  0.00    -0.248 NA
ATOM     57  C   UNL A   1      37.423  34.008  33.737  1.00  0.00     0.031 C 
ATOM     58  C   UNL A   1      41.903  31.680  37.123  1.00  0.00     0.029 A 
ATOM     59  C   UNL A   1      41.033  31.926  36.070  1.00  0.00     0.049 A 
ATOM     60  H   UNL A   1      40.903  30.954  34.205  1.00  0.00     0.167 HD
ATOM     61  C   UNL A   1      39.163  33.092  34.921  1.00  0.00     0.074 A 
ATOM     62  C   UNL A   1      38.111  34.088  34.867  1.00  0.00     0.031 C 
ATOM     63  C   UNL A   1      39.985  32.911  35.986  1.00  0.00     0.031 A 
BRANCH  50  64
ATOM     64  C   UNL A   1      44.111  28.353  35.282  1.00  0.00    -0.014 A 
ATOM     65  C   UNL A   1      45.462  28.712  35.103  1.00  0.00     0.010 A 
ATOM     66  C   UNL A   1      43.801  27.195  36.014  1.00  0.00     0.010 A 
ATOM     67  C   UNL A   1      46.480  27.905  35.607  1.00  0.00     0.020 A 
ATOM     68  C   UNL A   1      44.818  26.407  36.557  1.00  0.00     0.020 A 
ATOM     69  C   UNL A   1      46.151  26.760  36.338  1.00  0.00     0.054 A 
BRANCH  69  70
ATOM     70  S   UNL A   1      47.496  25.760  37.024  1.00  0.00     0.124 S 
ATOM     71  O   UNL A   1      47.237  25.845  38.459  1.00  0.00    -0.237 OA
ATOM     72  O   UNL A   1      47.259  24.452  36.419  1.00  0.00    -0.237 OA
ATOM     73  O   UNL A   1      48.705  26.444  36.569  1.00  0.00    -0.744 OA
ENDBRANCH  69  70
ENDBRANCH  50  64
BRANCH  51  74
ATOM     74  C   UNL A   1      36.555  33.390  30.999  1.00  0.00    -0.014 A 
ATOM     75  C   UNL A   1      35.382  33.634  31.739  1.00  0.00     0.010 A 
ATOM     76  C   UNL A   1      36.620  33.842  29.669  1.00  0.00     0.010 A 
ATOM     77  C   UNL A   1      34.294  34.294  31.157  1.00  0.00     0.020 A 
ATOM     78  C   UNL A   1      35.547  34.533  29.093  1.00  0.00     0.020 A 
ATOM     79  C   UNL A   1      34.385  34.746  29.839  1.00  0.00     0.054 A 
BRANCH  79  80
ATOM     80  S   UNL A   1      32.983  35.651  29.127  1.00  0.00     0.124 S 
ATOM     81  O   UNL A   1      32.132  35.865  30.294  1.00  0.00    -0.237 OA
ATOM     82  O   UNL A   1      33.626  36.845  28.584  1.00  0.00    -0.237 OA
ATOM     83  O   UNL A   1      32.451  34.730  28.126  1.00  0.00    -0.744 OA
ENDBRANCH  79  80
ENDBRANCH  51  74
BRANCH  63  84
ATOM     84  C   UNL A   1      39.820  33.836  37.164  1.00  0.00    -0.014 A 
ATOM     85  C   UNL A   1      40.415  35.109  37.191  1.00  0.00     0.010 A 
ATOM     86  C   UNL A   1      38.983  33.447  38.228  1.00  0.00     0.010 A 
ATOM     87  C   UNL A   1      40.202  35.962  38.277  1.00  0.00     0.020 A 
ATOM     88  C   UNL A   1      38.735  34.312  39.294  1.00  0.00     0.020 A 
ATOM     89  C   UNL A   1      39.360  35.560  39.318  1.00  0.00     0.054 A 
BRANCH  89  90
ATOM     90  S   UNL A   1      39.062  36.707  40.689  1.00  0.00     0.124 S 
ATOM     91  O   UNL A   1      38.761  37.951  39.985  1.00  0.00    -0.237 OA
ATOM     92  O   UNL A   1      37.935  36.088  41.382  1.00  0.00    -0.237 OA
ATOM     93  O   UNL A   1      40.322  36.702  41.429  1.00  0.00    -0.744 OA
ENDBRANCH  89  90
ENDBRANCH  63  84
ENDBRANCH  37  38
ENDBRANCH  29  32
ENDBRANCH  27  28
ENDBRANCH  26  27
ENDBRANCH  25  26
ENDBRANCH   1  25
TORSDOF 21
ENDMDL
MODEL 2
REMARK VINA RESULT:     -13.9      2.959      9.739
REMARK SMILES CCc1cc(OCCC(=O)NCCCCCCNC(=O)c2ccc(-c3c4nc(c(-c5ccc(S(=O)(=O)[O-])cc5)c5ccc([nH]5)c(-c5ccc(S(=O)(=O)[O-])cc5)c5nc(c(-c6ccc(S(=O)(=O)[O-])cc6)c6ccc3[nH]6)C=C5)C=C4)cc2)nc(-c2cnccn2)n1
REMARK SMILES IDX 14 1 13 2 12 3 11 4 9 5 10 6 8 8 7 9 6 10 5 11 3 12 4 13
REMARK SMILES IDX 89 14 82 15 81 16 2 17 1 18 83 19 84 20 88 21 85 22 87 23
REMARK SMILES IDX 86 24 15 25 16 26 17 27 18 28 19 29 20 31 21 32 22 33 80 34
REMARK SMILES IDX 23 35 79 36 24 37 25 38 26 39 73 40 27 41 78 42 72 43 74 44
REMARK SMILES IDX 28 45 77 46 71 47 70 48 29 50 59 51 40 52 58 53 41 54 44 55
REMARK SMILES IDX 57 56 75 57 42 58 43 59 56 61 76 62 45 63 30 64 31 65 39 66
REMARK SMILES IDX 32 67 38 68 33 69 34 70 35 71 36 72 37 73 60 74 61 75 69 76
REMARK SMILES IDX 62 77 68 78 63 79 64 80 65 81 66 82 67 83 46 84 47 85 55 86
REMARK SMILES IDX 48 87 54 88 49 89 50 90 51 91 52 92 53 93
REMARK H PARENT 11 7 18 30 74 49 44 60
REMARK Flexibility Score: inf
ROOT
ATOM      1  C   UNL A   1      33.779  26.325  22.807  1.00  0.00     0.002 C 
ENDROOT
BRANCH   1   2
ATOM      2  C   UNL A   1      32.188  26.278  21.718  1.00  0.00     0.021 C 
BRANCH   2   3
ATOM      3  C   UNL A   1      30.414  27.387  22.377  1.00  0.00     0.116 C 
BRANCH   3   4
ATOM      4  N   UNL A   1      29.587  27.230  23.695  1.00  0.00    -0.356 N 
ATOM      5  C   UNL A   1      29.598  26.178  24.552  1.00  0.00     0.223 C 
ATOM      6  O   UNL A   1      28.595  25.918  25.213  1.00  0.00    -0.275 OA
ATOM      7  H   UNL A   1      28.992  27.978  23.928  1.00  0.00     0.163 HD
BRANCH   5   8
ATOM      8  C   UNL A   1      30.895  25.413  24.675  1.00  0.00     0.141 C 
BRANCH   8   9
ATOM      9  C   UNL A   1      31.607  25.327  26.046  1.00  0.00     0.241 C 
BRANCH   9  10
ATOM     10  O   UNL A   1      32.218  24.092  26.527  1.00  0.00    -0.477 OA
BRANCH  10  11
ATOM     11  C   UNL A   1      33.166  23.449  25.687  1.00  0.00     0.217 A 
ATOM     12  C   UNL A   1      36.123  23.225  25.878  1.00  0.00     0.048 A 
ATOM     13  C   UNL A   1      34.694  24.206  25.730  1.00  0.00     0.092 A 
ATOM     14  N   UNL A   1      35.921  21.462  26.053  1.00  0.00    -0.231 NA
ATOM     15  C   UNL A   1      34.286  20.692  25.755  1.00  0.00     0.183 A 
ATOM     16  N   UNL A   1      32.924  21.732  25.659  1.00  0.00    -0.192 NA
BRANCH  12  17
ATOM     17  C   UNL A   1      37.431  23.867  25.447  1.00  0.00     0.053 C 
ATOM     18  C   UNL A   1      38.421  24.062  26.611  1.00  0.00     0.011 C 
ENDBRANCH  12  17
BRANCH  15  19
ATOM     19  C   UNL A   1      34.071  19.404  24.728  1.00  0.00     0.126 A 
ATOM     20  C   UNL A   1      32.420  18.854  24.889  1.00  0.00     0.143 A 
ATOM     21  N   UNL A   1      35.368  18.123  24.610  1.00  0.00    -0.250 NA
ATOM     22  N   UNL A   1      32.051  17.202  25.258  1.00  0.00    -0.261 NA
ATOM     23  C   UNL A   1      34.987  16.403  24.977  1.00  0.00     0.132 A 
ATOM     24  C   UNL A   1      33.301  15.989  25.296  1.00  0.00     0.131 A 
ENDBRANCH  15  19
ENDBRANCH  10  11
ENDBRANCH   9  10
ENDBRANCH   8   9
ENDBRANCH   5   8
ENDBRANCH   3   4
ENDBRANCH   2   3
ENDBRANCH   1   2
BRANCH   1  25
ATOM     25  C   UNL A   1      33.971  27.473  24.204  1.00  0.00     0.002 C 
BRANCH  25  26
ATOM     26  C   UNL A   1      32.993  28.925  24.427  1.00  0.00     0.021 C 
BRANCH  26  27
ATOM     27  C   UNL A   1      32.581  29.708  26.064  1.00  0.00     0.116 C 
BRANCH  27  28
ATOM     28  N   UNL A   1      33.798  31.188  26.905  1.00  0.00    -0.352 N 
ATOM     29  C   UNL A   1      34.631  31.642  28.000  1.00  0.00     0.251 C 
ATOM     30  H   UNL A   1      33.812  31.920  26.246  1.00  0.00     0.163 HD
ATOM     31  O   UNL A   1      34.204  32.460  28.816  1.00  0.00    -0.269 OA
BRANCH  29  32
ATOM     32  C   UNL A   1      35.990  31.145  28.171  1.00  0.00     0.039 A 
ATOM     33  C   UNL A   1      37.050  32.026  28.443  1.00  0.00     0.014 A 
ATOM     34  C   UNL A   1      36.070  29.780  28.358  1.00  0.00     0.014 A 
ATOM     35  C   UNL A   1      38.156  31.528  29.123  1.00  0.00     0.010 A 
ATOM     36  C   UNL A   1      37.123  29.312  29.101  1.00  0.00     0.010 A 
ATOM     37  C   UNL A   1      38.162  30.178  29.499  1.00  0.00    -0.014 A 
BRANCH  37  38
ATOM     38  C   UNL A   1      39.295  29.555  30.202  1.00  0.00     0.031 A 
ATOM     39  C   UNL A   1      39.733  30.212  31.475  1.00  0.00     0.074 A 
ATOM     40  C   UNL A   1      39.990  28.539  29.657  1.00  0.00     0.049 A 
ATOM     41  N   UNL A   1      40.787  29.976  32.204  1.00  0.00    -0.248 NA
ATOM     42  C   UNL A   1      38.901  31.335  31.956  1.00  0.00     0.031 C 
ATOM     43  C   UNL A   1      39.687  27.868  28.390  1.00  0.00     0.029 A 
ATOM     44  N   UNL A   1      41.121  27.904  30.104  1.00  0.00    -0.354 N 
ATOM     45  C   UNL A   1      40.753  30.935  33.205  1.00  0.00     0.074 A 
ATOM     46  C   UNL A   1      39.647  31.819  32.932  1.00  0.00     0.031 C 
ATOM     47  C   UNL A   1      40.595  26.898  28.180  1.00  0.00     0.029 A 
ATOM     48  C   UNL A   1      41.565  26.904  29.272  1.00  0.00     0.049 A 
ATOM     49  H   UNL A   1      41.573  28.143  30.946  1.00  0.00     0.167 HD
ATOM     50  C   UNL A   1      41.548  31.044  34.289  1.00  0.00     0.031 A 
ATOM     51  C   UNL A   1      42.637  26.093  29.388  1.00  0.00     0.031 A 
ATOM     52  C   UNL A   1      42.635  30.150  34.556  1.00  0.00     0.049 A 
ATOM     53  C   UNL A   1      43.527  26.244  30.599  1.00  0.00     0.074 A 
ATOM     54  C   UNL A   1      43.472  30.123  35.654  1.00  0.00     0.029 A 
ATOM     55  N   UNL A   1      43.037  29.128  33.710  1.00  0.00    -0.354 N 
ATOM     56  N   UNL A   1      43.430  27.092  31.596  1.00  0.00    -0.248 NA
ATOM     57  C   UNL A   1      44.662  25.317  30.708  1.00  0.00     0.031 C 
ATOM     58  C   UNL A   1      44.431  29.131  35.436  1.00  0.00     0.029 A 
ATOM     59  C   UNL A   1      44.135  28.482  34.245  1.00  0.00     0.049 A 
ATOM     60  H   UNL A   1      42.606  28.897  32.856  1.00  0.00     0.167 HD
ATOM     61  C   UNL A   1      44.466  26.775  32.470  1.00  0.00     0.074 A 
ATOM     62  C   UNL A   1      45.166  25.646  31.889  1.00  0.00     0.031 C 
ATOM     63  C   UNL A   1      44.808  27.356  33.647  1.00  0.00     0.031 A 
BRANCH  50  64
ATOM     64  C   UNL A   1      41.252  32.163  35.247  1.00  0.00    -0.014 A 
ATOM     65  C   UNL A   1      41.873  33.420  35.112  1.00  0.00     0.010 A 
ATOM     66  C   UNL A   1      40.343  31.956  36.297  1.00  0.00     0.010 A 
ATOM     67  C   UNL A   1      41.623  34.434  36.036  1.00  0.00     0.020 A 
ATOM     68  C   UNL A   1      40.057  32.983  37.198  1.00  0.00     0.020 A 
ATOM     69  C   UNL A   1      40.710  34.211  37.070  1.00  0.00     0.054 A 
BRANCH  69  70
ATOM     70  S   UNL A   1      40.367  35.565  38.223  1.00  0.00     0.124 S 
ATOM     71  O   UNL A   1      39.632  34.881  39.284  1.00  0.00    -0.237 OA
ATOM     72  O   UNL A   1      41.707  36.022  38.581  1.00  0.00    -0.237 OA
ATOM     73  O   UNL A   1      39.581  36.506  37.429  1.00  0.00    -0.744 OA
ENDBRANCH  69  70
ENDBRANCH  50  64
BRANCH  51  74
ATOM     74  C   UNL A   1      42.916  25.048  28.360  1.00  0.00    -0.014 A 
ATOM     75  C   UNL A   1      43.736  25.335  27.251  1.00  0.00     0.010 A 
ATOM     76  C   UNL A   1      42.353  23.764  28.469  1.00  0.00     0.010 A 
ATOM     77  C   UNL A   1      43.969  24.368  26.267  1.00  0.00     0.020 A 
ATOM     78  C   UNL A   1      42.611  22.783  27.504  1.00  0.00     0.020 A 
ATOM     79  C   UNL A   1      43.411  23.096  26.402  1.00  0.00     0.054 A 
BRANCH  79  80
ATOM     80  S   UNL A   1      43.777  21.842  25.141  1.00  0.00     0.124 S 
ATOM     81  O   UNL A   1      45.130  21.431  25.502  1.00  0.00    -0.237 OA
ATOM     82  O   UNL A   1      42.730  20.851  25.375  1.00  0.00    -0.237 OA
ATOM     83  O   UNL A   1      43.661  22.576  23.883  1.00  0.00    -0.744 OA
ENDBRANCH  79  80
ENDBRANCH  51  74
BRANCH  63  84
ATOM     84  C   UNL A   1      45.957  26.760  34.418  1.00  0.00    -0.014 A 
ATOM     85  C   UNL A   1      47.292  27.080  34.117  1.00  0.00     0.010 A 
ATOM     86  C   UNL A   1      45.683  25.925  35.519  1.00  0.00     0.010 A 
ATOM     87  C   UNL A   1      48.332  26.550  34.883  1.00  0.00     0.020 A 
ATOM     88  C   UNL A   1      46.717  25.426  36.311  1.00  0.00     0.020 A 
ATOM     89  C   UNL A   1      48.038  25.730  35.977  1.00  0.00     0.054 A 
BRANCH  89  90
ATOM     90  S   UNL A   1      49.406  25.096  36.983  1.00  0.00     0.124 S 
ATOM     91  O   UNL A   1      49.659  23.796  36.367  1.00  0.00    -0.237 OA
ATOM     92  O   UNL A   1      50.444  26.103  36.778  1.00  0.00    -0.237 OA
ATOM     93  O   UNL A   1      48.852  25.046  38.335  1.00  0.00    -0.744 OA
ENDBRANCH  89  90
ENDBRANCH  63  84
ENDBRANCH  37  38
ENDBRANCH  29  32
ENDBRANCH  27  28
ENDBRANCH  26  27
ENDBRANCH  25  26
ENDBRANCH   1  25
TORSDOF 21
ENDMDL
MODEL 3
REMARK VINA RESULT:     -13.9      6.205     11.988
REMARK SMILES CCc1cc(OCCC(=O)NCCCCCCNC(=O)c2ccc(-c3c4nc(c(-c5ccc(S(=O)(=O)[O-])cc5)c5ccc([nH]5)c(-c5ccc(S(=O)(=O)[O-])cc5)c5nc(c(-c6ccc(S(=O)(=O)[O-])cc6)c6ccc3[nH]6)C=C5)C=C4)cc2)nc(-c2cnccn2)n1
REMARK SMILES IDX 14 1 13 2 12 3 11 4 9 5 10 6 8 8 7 9 6 10 5 11 3 12 4 13
REMARK SMILES IDX 89 14 82 15 81 16 2 17 1 18 83 19 84 20 88 21 85 22 87 23
REMARK SMILES IDX 86 24 15 25 16 26 17 27 18 28 19 29 20 31 21 32 22 33 80 34
REMARK SMILES IDX 23 35 79 36 24 37 25 38 26 39 73 40 27 41 78 42 72 43 74 44
REMARK SMILES IDX 28 45 77 46 71 47 70 48 29 50 59 51 40 52 58 53 41 54 44 55
REMARK SMILES IDX 57 56 75 57 42 58 43 59 56 61 76 62 45 63 30 64 31 65 39 66
REMARK SMILES IDX 32 67 38 68 33 69 34 70 35 71 36 72 37 73 60 74 61 75 69 76
REMARK SMILES IDX 62 77 68 78 63 79 64 80 65 81 66 82 67 83 46 84 47 85 55 86
REMARK SMILES IDX 48 87 54 88 49 89 50 90 51 91 52 92 53 93
REMARK H PARENT 11 7 18 30 74 49 44 60
REMARK Flexibility Score: inf
ROOT
ATOM      1  C   UNL A   1      32.308  28.589  23.104  1.00  0.00     0.002 C 
ENDROOT
BRANCH   1   2
ATOM      2  C   UNL A   1      30.487  28.668  23.734  1.00  0.00     0.021 C 
BRANCH   2   3
ATOM      3  C   UNL A   1      29.490  26.812  24.346  1.00  0.00     0.116 C 
BRANCH   3   4
ATOM      4  N   UNL A   1      29.774  25.344  23.888  1.00  0.00    -0.356 N 
ATOM      5  C   UNL A   1      30.756  24.519  24.333  1.00  0.00     0.223 C 
ATOM      6  O   UNL A   1      31.210  23.653  23.588  1.00  0.00    -0.275 OA
ATOM      7  H   UNL A   1      29.174  24.979  23.199  1.00  0.00     0.163 HD
BRANCH   5   8
ATOM      8  C   UNL A   1      31.195  24.694  25.768  1.00  0.00     0.141 C 
BRANCH   8   9
ATOM      9  C   UNL A   1      31.020  23.528  26.770  1.00  0.00     0.241 C 
BRANCH   9  10
ATOM     10  O   UNL A   1      32.150  22.950  27.491  1.00  0.00    -0.477 OA
BRANCH  10  11
ATOM     11  C   UNL A   1      33.103  22.206  26.745  1.00  0.00     0.217 A 
ATOM     12  C   UNL A   1      32.833  20.612  24.251  1.00  0.00     0.048 A 
ATOM     13  C   UNL A   1      32.399  20.894  25.912  1.00  0.00     0.092 A 
ATOM     14  N   UNL A   1      33.948  21.760  23.465  1.00  0.00    -0.231 NA
ATOM     15  C   UNL A   1      34.854  22.994  24.470  1.00  0.00     0.183 A 
ATOM     16  N   UNL A   1      34.336  23.234  26.089  1.00  0.00    -0.192 NA
BRANCH  12  17
ATOM     17  C   UNL A   1      32.569  19.216  23.712  1.00  0.00     0.053 C 
ATOM     18  C   UNL A   1      33.613  18.182  24.174  1.00  0.00     0.011 C 
ENDBRANCH  12  17
BRANCH  15  19
ATOM     19  C   UNL A   1      36.501  23.194  24.383  1.00  0.00     0.126 A 
ATOM     20  C   UNL A   1      37.227  21.617  24.182  1.00  0.00     0.143 A 
ATOM     21  N   UNL A   1      37.327  24.352  25.530  1.00  0.00    -0.250 NA
ATOM     22  N   UNL A   1      38.462  21.049  25.256  1.00  0.00    -0.261 NA
ATOM     23  C   UNL A   1      38.622  23.771  26.636  1.00  0.00     0.132 A 
ATOM     24  C   UNL A   1      39.160  22.099  26.458  1.00  0.00     0.131 A 
ENDBRANCH  15  19
ENDBRANCH  10  11
ENDBRANCH   9  10
ENDBRANCH   8   9
ENDBRANCH   5   8
ENDBRANCH   3   4
ENDBRANCH   2   3
ENDBRANCH   1   2
BRANCH   1  25
ATOM     25  C   UNL A   1      33.732  28.596  24.234  1.00  0.00     0.002 C 
BRANCH  25  26
ATOM     26  C   UNL A   1      33.655  29.136  25.912  1.00  0.00     0.021 C 
BRANCH  26  27
ATOM     27  C   UNL A   1      34.788  28.578  27.279  1.00  0.00     0.116 C 
BRANCH  27  28
ATOM     28  N   UNL A   1      35.561  29.928  28.679  1.00  0.00    -0.352 N 
ATOM     29  C   UNL A   1      36.363  30.176  29.859  1.00  0.00     0.251 C 
ATOM     30  H   UNL A   1      35.217  30.811  28.407  1.00  0.00     0.163 HD
ATOM     31  O   UNL A   1      35.830  30.368  30.952  1.00  0.00    -0.269 OA
BRANCH  29  32
ATOM     32  C   UNL A   1      37.818  30.202  29.790  1.00  0.00     0.039 A 
ATOM     33  C   UNL A   1      38.598  29.774  30.878  1.00  0.00     0.014 A 
ATOM     34  C   UNL A   1      38.318  30.360  28.514  1.00  0.00     0.014 A 
ATOM     35  C   UNL A   1      39.877  29.294  30.617  1.00  0.00     0.010 A 
ATOM     36  C   UNL A   1      39.545  29.809  28.250  1.00  0.00     0.010 A 
ATOM     37  C   UNL A   1      40.325  29.263  29.289  1.00  0.00    -0.014 A 
BRANCH  37  38
ATOM     38  C   UNL A   1      41.670  28.793  28.917  1.00  0.00     0.031 A 
ATOM     39  C   UNL A   1      42.745  29.836  28.849  1.00  0.00     0.074 A 
ATOM     40  C   UNL A   1      41.889  27.527  28.520  1.00  0.00     0.049 A 
ATOM     41  N   UNL A   1      43.963  29.733  28.400  1.00  0.00    -0.248 NA
ATOM     42  C   UNL A   1      42.371  31.197  29.287  1.00  0.00     0.031 C 
ATOM     43  C   UNL A   1      40.897  26.449  28.487  1.00  0.00     0.029 A 
ATOM     44  N   UNL A   1      43.033  26.936  28.045  1.00  0.00    -0.354 N 
ATOM     45  C   UNL A   1      44.484  31.017  28.478  1.00  0.00     0.074 A 
ATOM     46  C   UNL A   1      43.425  31.895  28.909  1.00  0.00     0.031 C 
ATOM     47  C   UNL A   1      41.486  25.324  28.043  1.00  0.00     0.029 A 
ATOM     48  C   UNL A   1      42.882  25.608  27.722  1.00  0.00     0.049 A 
ATOM     49  H   UNL A   1      43.884  27.421  27.945  1.00  0.00     0.167 HD
ATOM     50  C   UNL A   1      45.750  31.423  28.255  1.00  0.00     0.031 A 
ATOM     51  C   UNL A   1      43.778  24.732  27.221  1.00  0.00     0.031 A 
ATOM     52  C   UNL A   1      46.796  30.536  27.840  1.00  0.00     0.049 A 
ATOM     53  C   UNL A   1      45.186  25.212  26.960  1.00  0.00     0.074 A 
ATOM     54  C   UNL A   1      48.132  30.821  27.643  1.00  0.00     0.029 A 
ATOM     55  N   UNL A   1      46.617  29.191  27.554  1.00  0.00    -0.354 N 
ATOM     56  N   UNL A   1      45.698  26.408  27.132  1.00  0.00    -0.248 NA
ATOM     57  C   UNL A   1      46.142  24.218  26.452  1.00  0.00     0.031 C 
ATOM     58  C   UNL A   1      48.749  29.663  27.163  1.00  0.00     0.029 A 
ATOM     59  C   UNL A   1      47.816  28.636  27.149  1.00  0.00     0.049 A 
ATOM     60  H   UNL A   1      45.765  28.704  27.629  1.00  0.00     0.167 HD
ATOM     61  C   UNL A   1      47.044  26.301  26.792  1.00  0.00     0.074 A 
ATOM     62  C   UNL A   1      47.267  24.918  26.419  1.00  0.00     0.031 C 
ATOM     63  C   UNL A   1      48.010  27.253  26.790  1.00  0.00     0.031 A 
BRANCH  50  64
ATOM     64  C   UNL A   1      46.050  32.880  28.464  1.00  0.00    -0.014 A 
ATOM     65  C   UNL A   1      46.396  33.378  29.736  1.00  0.00     0.010 A 
ATOM     66  C   UNL A   1      45.982  33.765  27.376  1.00  0.00     0.010 A 
ATOM     67  C   UNL A   1      46.626  34.740  29.922  1.00  0.00     0.020 A 
ATOM     68  C   UNL A   1      46.254  35.124  27.551  1.00  0.00     0.020 A 
ATOM     69  C   UNL A   1      46.560  35.603  28.826  1.00  0.00     0.054 A 
BRANCH  69  70
ATOM     70  S   UNL A   1      46.916  37.360  29.091  1.00  0.00     0.124 S 
ATOM     71  O   UNL A   1      45.735  37.999  28.514  1.00  0.00    -0.237 OA
ATOM     72  O   UNL A   1      47.028  37.444  30.544  1.00  0.00    -0.237 OA
ATOM     73  O   UNL A   1      48.161  37.577  28.358  1.00  0.00    -0.744 OA
ENDBRANCH  69  70
ENDBRANCH  50  64
BRANCH  51  74
ATOM     74  C   UNL A   1      43.394  23.313  26.966  1.00  0.00    -0.014 A 
ATOM     75  C   UNL A   1      43.187  22.423  28.037  1.00  0.00     0.010 A 
ATOM     76  C   UNL A   1      43.246  22.834  25.652  1.00  0.00     0.010 A 
ATOM     77  C   UNL A   1      42.863  21.083  27.800  1.00  0.00     0.020 A 
ATOM     78  C   UNL A   1      42.889  21.502  25.410  1.00  0.00     0.020 A 
ATOM     79  C   UNL A   1      42.709  20.632  26.487  1.00  0.00     0.054 A 
BRANCH  79  80
ATOM     80  S   UNL A   1      42.231  18.903  26.207  1.00  0.00     0.124 S 
ATOM     81  O   UNL A   1      42.459  18.306  27.520  1.00  0.00    -0.237 OA
ATOM     82  O   UNL A   1      40.833  19.029  25.803  1.00  0.00    -0.237 OA
ATOM     83  O   UNL A   1      43.140  18.461  25.152  1.00  0.00    -0.744 OA
ENDBRANCH  79  80
ENDBRANCH  51  74
BRANCH  63  84
ATOM     84  C   UNL A   1      49.410  26.833  26.424  1.00  0.00    -0.014 A 
ATOM     85  C   UNL A   1      49.856  26.838  25.091  1.00  0.00     0.010 A 
ATOM     86  C   UNL A   1      50.317  26.507  27.451  1.00  0.00     0.010 A 
ATOM     87  C   UNL A   1      51.175  26.491  24.790  1.00  0.00     0.020 A 
ATOM     88  C   UNL A   1      51.646  26.201  27.157  1.00  0.00     0.020 A 
ATOM     89  C   UNL A   1      52.062  26.180  25.825  1.00  0.00     0.054 A 
BRANCH  89  90
ATOM     90  S   UNL A   1      53.781  25.783  25.408  1.00  0.00     0.124 S 
ATOM     91  O   UNL A   1      53.693  25.518  23.974  1.00  0.00    -0.237 OA
ATOM     92  O   UNL A   1      54.489  27.005  25.781  1.00  0.00    -0.237 OA
ATOM     93  O   UNL A   1      54.081  24.618  26.238  1.00  0.00    -0.744 OA
ENDBRANCH  89  90
ENDBRANCH  63  84
ENDBRANCH  37  38
ENDBRANCH  29  32
ENDBRANCH  27  28
ENDBRANCH  26  27
ENDBRANCH  25  26
ENDBRANCH   1  25
TORSDOF 21
ENDMDL
