MODEL 1
REMARK VINA RESULT:     -11.6      0.000      0.000
REMARK SMILES O=C(NCCCCCCNC(=O)c1ccc(-c2c3nc(c(-c4ccc(S(=O)(=O)[O-])cc4)c4ccc([nH]4)c(-c4ccc(S(=O)(=O)[O-])cc4)c4nc(c(-c5ccc(S(=O)(=O)[O-])cc5)c5ccc2[nH]5)C=C4)C=C3)cc1)C1=Cc2cc(Cl)cc(Cl)c2O[C@@H]1C(F)(F)F
REMARK SMILES IDX 7 1 6 2 5 3 4 4 3 5 1 6 2 7 73 9 74 10 84 11 75 12 83 13
REMARK SMILES IDX 76 14 82 15 77 16 80 17 78 18 79 19 81 20 85 21 86 22 87 23
REMARK SMILES IDX 88 24 8 25 9 26 10 27 11 28 12 30 13 31 14 32 72 33 15 34
REMARK SMILES IDX 71 35 16 36 17 37 18 38 65 39 19 40 70 41 64 42 66 43 20 44
REMARK SMILES IDX 69 45 63 46 62 47 21 49 51 50 32 51 50 52 33 53 36 54 49 55
REMARK SMILES IDX 67 56 34 57 35 58 48 60 68 61 37 62 22 63 23 64 31 65 24 66
REMARK SMILES IDX 30 67 25 68 26 69 27 70 28 71 29 72 52 73 53 74 61 75 54 76
REMARK SMILES IDX 60 77 55 78 56 79 57 80 58 81 59 82 38 83 39 84 47 85 40 86
REMARK SMILES IDX 46 87 41 88 42 89 43 90 44 91 45 92
REMARK H PARENT 3 8 10 29 66 48 36 59
REMARK Flexibility Score: inf
ROOT
ATOM      1  C   UNL A   1      36.463  23.463  25.235  1.00  0.00     0.002 C 
ENDROOT
BRANCH   1   2
ATOM      2  C   UNL A   1      36.348  23.384  23.707  1.00  0.00     0.002 C 
BRANCH   2   3
ATOM      3  C   UNL A   1      34.995  22.952  23.147  1.00  0.00     0.021 C 
BRANCH   3   4
ATOM      4  C   UNL A   1      33.816  23.865  23.458  1.00  0.00     0.116 C 
BRANCH   4   5
ATOM      5  N   UNL A   1      33.916  25.216  22.933  1.00  0.00    -0.352 N 
ATOM      6  O   UNL A   1      33.791  27.457  22.935  1.00  0.00    -0.270 OA
ATOM      7  C   UNL A   1      33.470  26.394  23.464  1.00  0.00     0.251 C 
ATOM      8  H   UNL A   1      34.374  25.294  22.065  1.00  0.00     0.163 HD
BRANCH   7   9
ATOM      9  C   UNL A   1      32.675  26.451  24.728  1.00  0.00     0.067 C 
ATOM     10  C   UNL A   1      33.229  26.777  25.909  1.00  0.00     0.025 C 
ATOM     11  C   UNL A   1      31.221  26.786  24.488  1.00  0.00     0.314 C 
ATOM     12  C   UNL A   1      32.804  28.130  26.355  1.00  0.00     0.020 A 
ATOM     13  O   UNL A   1      30.953  28.184  24.769  1.00  0.00    -0.474 OA
ATOM     14  C   UNL A   1      33.648  28.821  27.234  1.00  0.00     0.032 A 
ATOM     15  C   UNL A   1      31.774  28.809  25.680  1.00  0.00     0.146 A 
ATOM     16  C   UNL A   1      33.525  30.203  27.357  1.00  0.00     0.043 A 
ATOM     17  C   UNL A   1      31.654  30.195  25.835  1.00  0.00     0.085 A 
ATOM     18  Cl  UNL A   1      34.687  31.074  28.279  1.00  0.00    -0.084 Cl
ATOM     19  C   UNL A   1      32.540  30.895  26.656  1.00  0.00     0.045 A 
ATOM     20  Cl  UNL A   1      30.507  31.097  24.912  1.00  0.00    -0.080 Cl
BRANCH  11  21
ATOM     21  C   UNL A   1      30.271  25.859  25.263  1.00  0.00     0.429 C 
ATOM     22  F   UNL A   1      30.660  24.565  25.173  1.00  0.00    -0.167 F 
ATOM     23  F   UNL A   1      30.238  26.169  26.582  1.00  0.00    -0.167 F 
ATOM     24  F   UNL A   1      28.997  25.930  24.807  1.00  0.00    -0.167 F 
ENDBRANCH  11  21
ENDBRANCH   7   9
ENDBRANCH   4   5
ENDBRANCH   3   4
ENDBRANCH   2   3
ENDBRANCH   1   2
BRANCH   1  25
ATOM     25  C   UNL A   1      37.790  23.015  25.857  1.00  0.00     0.021 C 
BRANCH  25  26
ATOM     26  C   UNL A   1      38.646  24.111  26.487  1.00  0.00     0.116 C 
BRANCH  26  27
ATOM     27  N   UNL A   1      40.048  24.011  26.125  1.00  0.00    -0.352 N 
ATOM     28  C   UNL A   1      41.119  24.781  26.510  1.00  0.00     0.251 C 
ATOM     29  H   UNL A   1      40.267  23.277  25.507  1.00  0.00     0.163 HD
ATOM     30  O   UNL A   1      42.207  24.612  25.968  1.00  0.00    -0.269 OA
BRANCH  28  31
ATOM     31  C   UNL A   1      40.969  25.823  27.553  1.00  0.00     0.039 A 
ATOM     32  C   UNL A   1      39.928  25.698  28.479  1.00  0.00     0.014 A 
ATOM     33  C   UNL A   1      41.815  26.934  27.606  1.00  0.00     0.014 A 
ATOM     34  C   UNL A   1      39.769  26.655  29.484  1.00  0.00     0.010 A 
ATOM     35  C   UNL A   1      41.700  27.849  28.652  1.00  0.00     0.010 A 
ATOM     36  C   UNL A   1      40.672  27.724  29.597  1.00  0.00    -0.014 A 
BRANCH  36  37
ATOM     37  C   UNL A   1      40.548  28.720  30.696  1.00  0.00     0.031 A 
ATOM     38  C   UNL A   1      41.413  28.610  31.923  1.00  0.00     0.074 A 
ATOM     39  C   UNL A   1      39.621  29.694  30.611  1.00  0.00     0.049 A 
ATOM     40  N   UNL A   1      41.417  29.356  32.998  1.00  0.00    -0.248 NA
ATOM     41  C   UNL A   1      42.386  27.506  31.954  1.00  0.00     0.031 C 
ATOM     42  C   UNL A   1      38.693  29.884  29.494  1.00  0.00     0.029 A 
ATOM     43  N   UNL A   1      39.299  30.703  31.485  1.00  0.00    -0.354 N 
ATOM     44  C   UNL A   1      42.382  28.808  33.836  1.00  0.00     0.074 A 
ATOM     45  C   UNL A   1      42.901  27.633  33.168  1.00  0.00     0.031 C 
ATOM     46  C   UNL A   1      37.922  30.955  29.740  1.00  0.00     0.029 A 
ATOM     47  C   UNL A   1      38.270  31.504  31.048  1.00  0.00     0.049 A 
ATOM     48  H   UNL A   1      39.761  30.840  32.343  1.00  0.00     0.167 HD
ATOM     49  C   UNL A   1      42.815  29.251  35.042  1.00  0.00     0.031 A 
ATOM     50  C   UNL A   1      37.664  32.555  31.635  1.00  0.00     0.031 A 
ATOM     51  C   UNL A   1      42.292  30.417  35.705  1.00  0.00     0.049 A 
ATOM     52  C   UNL A   1      38.145  33.021  32.981  1.00  0.00     0.074 A 
ATOM     53  C   UNL A   1      42.688  30.971  36.911  1.00  0.00     0.029 A 
ATOM     54  N   UNL A   1      41.257  31.206  35.224  1.00  0.00    -0.354 N 
ATOM     55  N   UNL A   1      39.101  32.524  33.731  1.00  0.00    -0.248 NA
ATOM     56  C   UNL A   1      37.479  34.198  33.554  1.00  0.00     0.031 C 
ATOM     57  C   UNL A   1      41.856  32.063  37.185  1.00  0.00     0.029 A 
ATOM     58  C   UNL A   1      40.985  32.228  36.119  1.00  0.00     0.049 A 
ATOM     59  H   UNL A   1      40.786  31.060  34.373  1.00  0.00     0.167 HD
ATOM     60  C   UNL A   1      39.165  33.341  34.854  1.00  0.00     0.074 A 
ATOM     61  C   UNL A   1      38.165  34.374  34.675  1.00  0.00     0.031 C 
ATOM     62  C   UNL A   1      39.980  33.246  35.933  1.00  0.00     0.031 A 
BRANCH  49  63
ATOM     63  C   UNL A   1      43.904  28.460  35.720  1.00  0.00    -0.014 A 
ATOM     64  C   UNL A   1      43.595  27.438  36.637  1.00  0.00     0.010 A 
ATOM     65  C   UNL A   1      45.254  28.724  35.426  1.00  0.00     0.010 A 
ATOM     66  C   UNL A   1      44.613  26.737  37.289  1.00  0.00     0.020 A 
ATOM     67  C   UNL A   1      46.276  28.002  36.051  1.00  0.00     0.020 A 
ATOM     68  C   UNL A   1      45.948  27.028  36.996  1.00  0.00     0.054 A 
BRANCH  68  69
ATOM     69  S   UNL A   1      47.247  26.102  37.858  1.00  0.00     0.124 S 
ATOM     70  O   UNL A   1      47.619  25.104  36.858  1.00  0.00    -0.237 OA
ATOM     71  O   UNL A   1      48.252  27.129  38.123  1.00  0.00    -0.237 OA
ATOM     72  O   UNL A   1      46.572  25.576  39.041  1.00  0.00    -0.744 OA
ENDBRANCH  68  69
ENDBRANCH  49  63
BRANCH  50  73
ATOM     73  C   UNL A   1      36.538  33.237  30.939  1.00  0.00    -0.014 A 
ATOM     74  C   UNL A   1      35.243  33.226  31.487  1.00  0.00     0.010 A 
ATOM     75  C   UNL A   1      36.766  33.932  29.737  1.00  0.00     0.010 A 
ATOM     76  C   UNL A   1      34.195  33.890  30.840  1.00  0.00     0.020 A 
ATOM     77  C   UNL A   1      35.728  34.620  29.104  1.00  0.00     0.020 A 
ATOM     78  C   UNL A   1      34.447  34.589  29.656  1.00  0.00     0.054 A 
BRANCH  78  79
ATOM     79  S   UNL A   1      33.088  35.501  28.872  1.00  0.00     0.124 S 
ATOM     80  O   UNL A   1      32.346  35.993  30.027  1.00  0.00    -0.237 OA
ATOM     81  O   UNL A   1      33.798  36.515  28.095  1.00  0.00    -0.237 OA
ATOM     82  O   UNL A   1      32.407  34.483  28.076  1.00  0.00    -0.744 OA
ENDBRANCH  78  79
ENDBRANCH  50  73
BRANCH  62  83
ATOM     83  C   UNL A   1      39.848  34.303  36.999  1.00  0.00    -0.014 A 
ATOM     84  C   UNL A   1      40.475  35.555  36.868  1.00  0.00     0.010 A 
ATOM     85  C   UNL A   1      39.037  34.057  38.121  1.00  0.00     0.010 A 
ATOM     86  C   UNL A   1      40.318  36.530  37.857  1.00  0.00     0.020 A 
ATOM     87  C   UNL A   1      38.853  35.040  39.098  1.00  0.00     0.020 A 
ATOM     88  C   UNL A   1      39.507  36.266  38.965  1.00  0.00     0.054 A 
BRANCH  88  89
ATOM     89  S   UNL A   1      39.283  37.564  40.212  1.00  0.00     0.124 S 
ATOM     90  O   UNL A   1      38.871  36.794  41.382  1.00  0.00    -0.237 OA
ATOM     91  O   UNL A   1      40.614  38.164  40.292  1.00  0.00    -0.237 OA
ATOM     92  O   UNL A   1      38.252  38.425  39.638  1.00  0.00    -0.744 OA
ENDBRANCH  88  89
ENDBRANCH  62  83
ENDBRANCH  36  37
ENDBRANCH  28  31
ENDBRANCH  26  27
ENDBRANCH  25  26
ENDBRANCH   1  25
TORSDOF 17
ENDMDL
MODEL 2
REMARK VINA RESULT:     -11.4      3.352      4.292
REMARK SMILES O=C(NCCCCCCNC(=O)c1ccc(-c2c3nc(c(-c4ccc(S(=O)(=O)[O-])cc4)c4ccc([nH]4)c(-c4ccc(S(=O)(=O)[O-])cc4)c4nc(c(-c5ccc(S(=O)(=O)[O-])cc5)c5ccc2[nH]5)C=C4)C=C3)cc1)C1=Cc2cc(Cl)cc(Cl)c2O[C@@H]1C(F)(F)F
REMARK SMILES IDX 7 1 6 2 5 3 4 4 3 5 1 6 2 7 73 9 74 10 84 11 75 12 83 13
REMARK SMILES IDX 76 14 82 15 77 16 80 17 78 18 79 19 81 20 85 21 86 22 87 23
REMARK SMILES IDX 88 24 8 25 9 26 10 27 11 28 12 30 13 31 14 32 72 33 15 34
REMARK SMILES IDX 71 35 16 36 17 37 18 38 65 39 19 40 70 41 64 42 66 43 20 44
REMARK SMILES IDX 69 45 63 46 62 47 21 49 51 50 32 51 50 52 33 53 36 54 49 55
REMARK SMILES IDX 67 56 34 57 35 58 48 60 68 61 37 62 22 63 23 64 31 65 24 66
REMARK SMILES IDX 30 67 25 68 26 69 27 70 28 71 29 72 52 73 53 74 61 75 54 76
REMARK SMILES IDX 60 77 55 78 56 79 57 80 58 81 59 82 38 83 39 84 47 85 40 86
REMARK SMILES IDX 46 87 41 88 42 89 43 90 44 91 45 92
REMARK H PARENT 3 8 10 29 66 48 36 59
REMARK Flexibility Score: inf
ROOT
ATOM      1  C   UNL A   1      34.629  22.690  24.726  1.00  0.00     0.002 C 
ENDROOT
BRANCH   1   2
ATOM      2  C   UNL A   1      34.473  22.608  26.250  1.00  0.00     0.002 C 
BRANCH   2   3
ATOM      3  C   UNL A   1      33.197  23.205  26.838  1.00  0.00     0.021 C 
BRANCH   3   4
ATOM      4  C   UNL A   1      31.952  23.122  25.966  1.00  0.00     0.116 C 
BRANCH   4   5
ATOM      5  N   UNL A   1      30.859  23.997  26.352  1.00  0.00    -0.352 N 
ATOM      6  O   UNL A   1      29.415  25.709  26.190  1.00  0.00    -0.270 OA
ATOM      7  C   UNL A   1      30.468  25.194  25.817  1.00  0.00     0.251 C 
ATOM      8  H   UNL A   1      30.319  23.683  27.113  1.00  0.00     0.163 HD
BRANCH   7   9
ATOM      9  C   UNL A   1      31.227  25.865  24.719  1.00  0.00     0.067 C 
ATOM     10  C   UNL A   1      30.632  26.279  23.587  1.00  0.00     0.025 C 
ATOM     11  C   UNL A   1      32.439  26.613  25.221  1.00  0.00     0.314 C 
ATOM     12  C   UNL A   1      30.534  27.762  23.534  1.00  0.00     0.020 A 
ATOM     13  O   UNL A   1      32.175  28.036  25.317  1.00  0.00    -0.474 OA
ATOM     14  C   UNL A   1      29.524  28.320  22.740  1.00  0.00     0.032 A 
ATOM     15  C   UNL A   1      31.211  28.551  24.480  1.00  0.00     0.146 A 
ATOM     16  C   UNL A   1      29.125  29.636  22.966  1.00  0.00     0.043 A 
ATOM     17  C   UNL A   1      30.809  29.879  24.676  1.00  0.00     0.085 A 
ATOM     18  Cl  UNL A   1      27.754  30.255  22.132  1.00  0.00    -0.084 Cl
ATOM     19  C   UNL A   1      29.754  30.415  23.934  1.00  0.00     0.045 A 
ATOM     20  Cl  UNL A   1      31.501  30.843  25.929  1.00  0.00    -0.080 Cl
BRANCH  11  21
ATOM     21  C   UNL A   1      33.694  26.325  24.381  1.00  0.00     0.429 C 
ATOM     22  F   UNL A   1      33.498  25.280  23.541  1.00  0.00    -0.167 F 
ATOM     23  F   UNL A   1      34.035  27.388  23.612  1.00  0.00    -0.167 F 
ATOM     24  F   UNL A   1      34.771  26.029  25.147  1.00  0.00    -0.167 F 
ENDBRANCH  11  21
ENDBRANCH   7   9
ENDBRANCH   4   5
ENDBRANCH   3   4
ENDBRANCH   2   3
ENDBRANCH   1   2
BRANCH   1  25
ATOM     25  C   UNL A   1      35.942  23.269  24.191  1.00  0.00     0.021 C 
BRANCH  25  26
ATOM     26  C   UNL A   1      36.946  23.748  25.237  1.00  0.00     0.116 C 
BRANCH  26  27
ATOM     27  N   UNL A   1      37.994  22.778  25.499  1.00  0.00    -0.352 N 
ATOM     28  C   UNL A   1      39.210  22.935  26.120  1.00  0.00     0.251 C 
ATOM     29  H   UNL A   1      37.805  21.865  25.183  1.00  0.00     0.163 HD
ATOM     30  O   UNL A   1      40.015  22.008  26.109  1.00  0.00    -0.269 OA
BRANCH  28  31
ATOM     31  C   UNL A   1      39.566  24.212  26.780  1.00  0.00     0.039 A 
ATOM     32  C   UNL A   1      39.128  24.434  28.089  1.00  0.00     0.014 A 
ATOM     33  C   UNL A   1      40.293  25.203  26.114  1.00  0.00     0.014 A 
ATOM     34  C   UNL A   1      39.460  25.621  28.746  1.00  0.00     0.010 A 
ATOM     35  C   UNL A   1      40.685  26.356  26.794  1.00  0.00     0.010 A 
ATOM     36  C   UNL A   1      40.267  26.582  28.114  1.00  0.00    -0.014 A 
BRANCH  36  37
ATOM     37  C   UNL A   1      40.676  27.825  28.820  1.00  0.00     0.031 A 
ATOM     38  C   UNL A   1      42.026  27.918  29.479  1.00  0.00     0.074 A 
ATOM     39  C   UNL A   1      39.811  28.854  28.912  1.00  0.00     0.049 A 
ATOM     40  N   UNL A   1      42.538  28.900  30.176  1.00  0.00    -0.248 NA
ATOM     41  C   UNL A   1      42.906  26.745  29.357  1.00  0.00     0.031 C 
ATOM     42  C   UNL A   1      38.456  28.875  28.352  1.00  0.00     0.029 A 
ATOM     43  N   UNL A   1      39.936  30.080  29.518  1.00  0.00    -0.354 N 
ATOM     44  C   UNL A   1      43.794  28.462  30.582  1.00  0.00     0.074 A 
ATOM     45  C   UNL A   1      43.941  27.105  30.103  1.00  0.00     0.031 C 
ATOM     46  C   UNL A   1      37.886  30.059  28.622  1.00  0.00     0.029 A 
ATOM     47  C   UNL A   1      38.815  30.868  29.409  1.00  0.00     0.049 A 
ATOM     48  H   UNL A   1      40.753  30.367  29.986  1.00  0.00     0.167 HD
ATOM     49  C   UNL A   1      44.748  29.134  31.272  1.00  0.00     0.031 A 
ATOM     50  C   UNL A   1      38.553  32.098  29.894  1.00  0.00     0.031 A 
ATOM     51  C   UNL A   1      44.596  30.483  31.751  1.00  0.00     0.049 A 
ATOM     52  C   UNL A   1      39.618  32.820  30.673  1.00  0.00     0.074 A 
ATOM     53  C   UNL A   1      45.516  31.266  32.427  1.00  0.00     0.029 A 
ATOM     54  N   UNL A   1      43.447  31.249  31.611  1.00  0.00    -0.354 N 
ATOM     55  N   UNL A   1      40.822  32.410  30.996  1.00  0.00    -0.248 NA
ATOM     56  C   UNL A   1      39.295  34.174  31.140  1.00  0.00     0.031 C 
ATOM     57  C   UNL A   1      44.905  32.484  32.743  1.00  0.00     0.029 A 
ATOM     58  C   UNL A   1      43.627  32.486  32.208  1.00  0.00     0.049 A 
ATOM     59  H   UNL A   1      42.626  30.956  31.155  1.00  0.00     0.167 HD
ATOM     60  C   UNL A   1      41.409  33.466  31.684  1.00  0.00     0.074 A 
ATOM     61  C   UNL A   1      40.434  34.537  31.715  1.00  0.00     0.031 C 
ATOM     62  C   UNL A   1      42.644  33.542  32.238  1.00  0.00     0.031 A 
BRANCH  49  63
ATOM     63  C   UNL A   1      46.039  28.408  31.553  1.00  0.00    -0.014 A 
ATOM     64  C   UNL A   1      47.154  28.555  30.707  1.00  0.00     0.010 A 
ATOM     65  C   UNL A   1      46.150  27.583  32.687  1.00  0.00     0.010 A 
ATOM     66  C   UNL A   1      48.333  27.848  30.956  1.00  0.00     0.020 A 
ATOM     67  C   UNL A   1      47.339  26.899  32.959  1.00  0.00     0.020 A 
ATOM     68  C   UNL A   1      48.415  27.019  32.078  1.00  0.00     0.054 A 
BRANCH  68  69
ATOM     69  S   UNL A   1      49.958  26.113  32.376  1.00  0.00     0.124 S 
ATOM     70  O   UNL A   1      50.393  26.670  33.654  1.00  0.00    -0.237 OA
ATOM     71  O   UNL A   1      49.512  24.722  32.417  1.00  0.00    -0.237 OA
ATOM     72  O   UNL A   1      50.793  26.462  31.229  1.00  0.00    -0.744 OA
ENDBRANCH  68  69
ENDBRANCH  49  63
BRANCH  50  73
ATOM     73  C   UNL A   1      37.223  32.719  29.646  1.00  0.00    -0.014 A 
ATOM     74  C   UNL A   1      36.189  32.604  30.590  1.00  0.00     0.010 A 
ATOM     75  C   UNL A   1      36.998  33.461  28.471  1.00  0.00     0.010 A 
ATOM     76  C   UNL A   1      34.950  33.211  30.361  1.00  0.00     0.020 A 
ATOM     77  C   UNL A   1      35.771  34.093  28.253  1.00  0.00     0.020 A 
ATOM     78  C   UNL A   1      34.751  33.958  29.196  1.00  0.00     0.054 A 
BRANCH  78  79
ATOM     79  S   UNL A   1      33.160  34.795  28.953  1.00  0.00     0.124 S 
ATOM     80  O   UNL A   1      33.577  36.108  28.472  1.00  0.00    -0.237 OA
ATOM     81  O   UNL A   1      32.502  33.939  27.968  1.00  0.00    -0.237 OA
ATOM     82  O   UNL A   1      32.557  34.777  30.283  1.00  0.00    -0.744 OA
ENDBRANCH  78  79
ENDBRANCH  50  73
BRANCH  62  83
ATOM     83  C   UNL A   1      43.028  34.838  32.904  1.00  0.00    -0.014 A 
ATOM     84  C   UNL A   1      42.956  34.991  34.301  1.00  0.00     0.010 A 
ATOM     85  C   UNL A   1      43.522  35.898  32.123  1.00  0.00     0.010 A 
ATOM     86  C   UNL A   1      43.342  36.194  34.899  1.00  0.00     0.020 A 
ATOM     87  C   UNL A   1      43.937  37.091  32.721  1.00  0.00     0.020 A 
ATOM     88  C   UNL A   1      43.831  37.236  34.106  1.00  0.00     0.054 A 
BRANCH  88  89
ATOM     89  S   UNL A   1      44.367  38.770  34.911  1.00  0.00     0.124 S 
ATOM     90  O   UNL A   1      43.538  39.770  34.244  1.00  0.00    -0.237 OA
ATOM     91  O   UNL A   1      44.046  38.523  36.315  1.00  0.00    -0.237 OA
ATOM     92  O   UNL A   1      45.794  38.841  34.609  1.00  0.00    -0.744 OA
ENDBRANCH  88  89
ENDBRANCH  62  83
ENDBRANCH  36  37
ENDBRANCH  28  31
ENDBRANCH  26  27
ENDBRANCH  25  26
ENDBRANCH   1  25
TORSDOF 17
ENDMDL
MODEL 3
REMARK VINA RESULT:     -11.4      6.579     12.075
REMARK SMILES O=C(NCCCCCCNC(=O)c1ccc(-c2c3nc(c(-c4ccc(S(=O)(=O)[O-])cc4)c4ccc([nH]4)c(-c4ccc(S(=O)(=O)[O-])cc4)c4nc(c(-c5ccc(S(=O)(=O)[O-])cc5)c5ccc2[nH]5)C=C4)C=C3)cc1)C1=Cc2cc(Cl)cc(Cl)c2O[C@@H]1C(F)(F)F
REMARK SMILES IDX 7 1 6 2 5 3 4 4 3 5 1 6 2 7 73 9 74 10 84 11 75 12 83 13
REMARK SMILES IDX 76 14 82 15 77 16 80 17 78 18 79 19 81 20 85 21 86 22 87 23
REMARK SMILES IDX 88 24 8 25 9 26 10 27 11 28 12 30 13 31 14 32 72 33 15 34
REMARK SMILES IDX 71 35 16 36 17 37 18 38 65 39 19 40 70 41 64 42 66 43 20 44
REMARK SMILES IDX 69 45 63 46 62 47 21 49 51 50 32 51 50 52 33 53 36 54 49 55
REMARK SMILES IDX 67 56 34 57 35 58 48 60 68 61 37 62 22 63 23 64 31 65 24 66
REMARK SMILES IDX 30 67 25 68 26 69 27 70 28 71 29 72 52 73 53 74 61 75 54 76
REMARK SMILES IDX 60 77 55 78 56 79 57 80 58 81 59 82 38 83 39 84 47 85 40 86
REMARK SMILES IDX 46 87 41 88 42 89 43 90 44 91 45 92
REMARK H PARENT 3 8 10 29 66 48 36 59
REMARK Flexibility Score: inf
ROOT
ATOM      1  C   UNL A   1      33.558  28.403  26.204  1.00  0.00     0.002 C 
ENDROOT
BRANCH   1   2
ATOM      2  C   UNL A   1      33.772  28.459  24.686  1.00  0.00     0.002 C 
BRANCH   2   3
ATOM      3  C   UNL A   1      32.517  28.568  23.824  1.00  0.00     0.021 C 
BRANCH   3   4
ATOM      4  C   UNL A   1      32.372  27.536  22.713  1.00  0.00     0.116 C 
BRANCH   4   5
ATOM      5  N   UNL A   1      33.437  26.552  22.632  1.00  0.00    -0.352 N 
ATOM      6  O   UNL A   1      34.399  24.524  22.699  1.00  0.00    -0.270 OA
ATOM      7  C   UNL A   1      33.437  25.233  22.993  1.00  0.00     0.251 C 
ATOM      8  H   UNL A   1      34.287  26.885  22.262  1.00  0.00     0.163 HD
BRANCH   7   9
ATOM      9  C   UNL A   1      32.265  24.586  23.655  1.00  0.00     0.067 C 
ATOM     10  C   UNL A   1      31.748  23.423  23.220  1.00  0.00     0.025 C 
ATOM     11  C   UNL A   1      32.166  24.922  25.124  1.00  0.00     0.314 C 
ATOM     12  C   UNL A   1      32.056  22.307  24.152  1.00  0.00     0.020 A 
ATOM     13  O   UNL A   1      32.675  23.839  25.945  1.00  0.00    -0.474 OA
ATOM     14  C   UNL A   1      32.069  21.007  23.630  1.00  0.00     0.032 A 
ATOM     15  C   UNL A   1      32.619  22.571  25.413  1.00  0.00     0.146 A 
ATOM     16  C   UNL A   1      32.735  19.998  24.323  1.00  0.00     0.043 A 
ATOM     17  C   UNL A   1      33.264  21.537  26.103  1.00  0.00     0.085 A 
ATOM     18  Cl  UNL A   1      32.924  18.455  23.588  1.00  0.00    -0.084 Cl
ATOM     19  C   UNL A   1      33.340  20.257  25.551  1.00  0.00     0.045 A 
ATOM     20  Cl  UNL A   1      34.104  21.842  27.580  1.00  0.00    -0.080 Cl
BRANCH  11  21
ATOM     21  C   UNL A   1      30.742  25.327  25.538  1.00  0.00     0.429 C 
ATOM     22  F   UNL A   1      30.206  24.435  26.405  1.00  0.00    -0.167 F 
ATOM     23  F   UNL A   1      30.725  26.533  26.155  1.00  0.00    -0.167 F 
ATOM     24  F   UNL A   1      29.903  25.412  24.478  1.00  0.00    -0.167 F 
ENDBRANCH  11  21
ENDBRANCH   7   9
ENDBRANCH   4   5
ENDBRANCH   3   4
ENDBRANCH   2   3
ENDBRANCH   1   2
BRANCH   1  25
ATOM     25  C   UNL A   1      34.006  29.623  27.015  1.00  0.00     0.021 C 
BRANCH  25  26
ATOM     26  C   UNL A   1      35.385  29.534  27.665  1.00  0.00     0.116 C 
BRANCH  26  27
ATOM     27  N   UNL A   1      35.393  29.999  29.040  1.00  0.00    -0.352 N 
ATOM     28  C   UNL A   1      36.420  30.053  29.951  1.00  0.00     0.251 C 
ATOM     29  H   UNL A   1      34.526  30.329  29.373  1.00  0.00     0.163 HD
ATOM     30  O   UNL A   1      36.175  30.350  31.117  1.00  0.00    -0.269 OA
BRANCH  28  31
ATOM     31  C   UNL A   1      37.810  29.736  29.547  1.00  0.00     0.039 A 
ATOM     32  C   UNL A   1      38.743  29.432  30.544  1.00  0.00     0.014 A 
ATOM     33  C   UNL A   1      38.210  29.770  28.208  1.00  0.00     0.014 A 
ATOM     34  C   UNL A   1      40.058  29.113  30.195  1.00  0.00     0.010 A 
ATOM     35  C   UNL A   1      39.502  29.382  27.857  1.00  0.00     0.010 A 
ATOM     36  C   UNL A   1      40.442  29.057  28.846  1.00  0.00    -0.014 A 
BRANCH  36  37
ATOM     37  C   UNL A   1      41.823  28.665  28.457  1.00  0.00     0.031 A 
ATOM     38  C   UNL A   1      42.917  29.698  28.387  1.00  0.00     0.074 A 
ATOM     39  C   UNL A   1      42.083  27.387  28.118  1.00  0.00     0.049 A 
ATOM     40  N   UNL A   1      44.166  29.553  28.028  1.00  0.00    -0.248 NA
ATOM     41  C   UNL A   1      42.551  31.077  28.749  1.00  0.00     0.031 C 
ATOM     42  C   UNL A   1      41.102  26.299  28.104  1.00  0.00     0.029 A 
ATOM     43  N   UNL A   1      43.249  26.787  27.710  1.00  0.00    -0.354 N 
ATOM     44  C   UNL A   1      44.734  30.820  28.110  1.00  0.00     0.074 A 
ATOM     45  C   UNL A   1      43.677  31.729  28.497  1.00  0.00     0.031 C 
ATOM     46  C   UNL A   1      41.711  25.163  27.730  1.00  0.00     0.029 A 
ATOM     47  C   UNL A   1      43.113  25.447  27.436  1.00  0.00     0.049 A 
ATOM     48  H   UNL A   1      44.101  27.271  27.623  1.00  0.00     0.167 HD
ATOM     49  C   UNL A   1      46.021  31.191  27.904  1.00  0.00     0.031 A 
ATOM     50  C   UNL A   1      44.010  24.546  26.987  1.00  0.00     0.031 A 
ATOM     51  C   UNL A   1      47.068  30.284  27.513  1.00  0.00     0.049 A 
ATOM     52  C   UNL A   1      45.429  24.981  26.747  1.00  0.00     0.074 A 
ATOM     53  C   UNL A   1      48.412  30.554  27.315  1.00  0.00     0.029 A 
ATOM     54  N   UNL A   1      46.891  28.933  27.255  1.00  0.00    -0.354 N 
ATOM     55  N   UNL A   1      45.959  26.173  26.888  1.00  0.00    -0.248 NA
ATOM     56  C   UNL A   1      46.374  23.948  26.301  1.00  0.00     0.031 C 
ATOM     57  C   UNL A   1      49.035  29.378  26.885  1.00  0.00     0.029 A 
ATOM     58  C   UNL A   1      48.094  28.360  26.878  1.00  0.00     0.049 A 
ATOM     59  H   UNL A   1      46.035  28.452  27.329  1.00  0.00     0.167 HD
ATOM     60  C   UNL A   1      47.306  26.028  26.571  1.00  0.00     0.074 A 
ATOM     61  C   UNL A   1      47.510  24.630  26.248  1.00  0.00     0.031 C 
ATOM     62  C   UNL A   1      48.283  26.968  26.551  1.00  0.00     0.031 A 
BRANCH  49  63
ATOM     63  C   UNL A   1      46.359  32.649  28.091  1.00  0.00    -0.014 A 
ATOM     64  C   UNL A   1      46.280  33.556  27.018  1.00  0.00     0.010 A 
ATOM     65  C   UNL A   1      46.742  33.126  29.358  1.00  0.00     0.010 A 
ATOM     66  C   UNL A   1      46.632  34.897  27.194  1.00  0.00     0.020 A 
ATOM     67  C   UNL A   1      47.064  34.473  29.547  1.00  0.00     0.020 A 
ATOM     68  C   UNL A   1      47.028  35.346  28.457  1.00  0.00     0.054 A 
BRANCH  68  69
ATOM     69  S   UNL A   1      47.480  37.091  28.654  1.00  0.00     0.124 S 
ATOM     70  O   UNL A   1      46.693  37.727  27.601  1.00  0.00    -0.237 OA
ATOM     71  O   UNL A   1      47.052  37.381  30.020  1.00  0.00    -0.237 OA
ATOM     72  O   UNL A   1      48.926  37.101  28.442  1.00  0.00    -0.744 OA
ENDBRANCH  68  69
ENDBRANCH  49  63
BRANCH  50  73
ATOM     73  C   UNL A   1      43.582  23.140  26.746  1.00  0.00    -0.014 A 
ATOM     74  C   UNL A   1      43.808  22.523  25.503  1.00  0.00     0.010 A 
ATOM     75  C   UNL A   1      42.974  22.399  27.777  1.00  0.00     0.010 A 
ATOM     76  C   UNL A   1      43.426  21.195  25.292  1.00  0.00     0.020 A 
ATOM     77  C   UNL A   1      42.618  21.063  27.579  1.00  0.00     0.020 A 
ATOM     78  C   UNL A   1      42.839  20.470  26.334  1.00  0.00     0.054 A 
BRANCH  78  79
ATOM     79  S   UNL A   1      42.415  18.728  26.060  1.00  0.00     0.124 S 
ATOM     80  O   UNL A   1      41.010  18.813  25.677  1.00  0.00    -0.237 OA
ATOM     81  O   UNL A   1      43.340  18.343  24.996  1.00  0.00    -0.237 OA
ATOM     82  O   UNL A   1      42.676  18.104  27.356  1.00  0.00    -0.744 OA
ENDBRANCH  78  79
ENDBRANCH  50  73
BRANCH  62  83
ATOM     83  C   UNL A   1      49.675  26.514  26.195  1.00  0.00    -0.014 A 
ATOM     84  C   UNL A   1      50.211  26.740  24.914  1.00  0.00     0.010 A 
ATOM     85  C   UNL A   1      50.476  25.902  27.175  1.00  0.00     0.010 A 
ATOM     86  C   UNL A   1      51.514  26.334  24.613  1.00  0.00     0.020 A 
ATOM     87  C   UNL A   1      51.790  25.521  26.887  1.00  0.00     0.020 A 
ATOM     88  C   UNL A   1      52.295  25.728  25.602  1.00  0.00     0.054 A 
BRANCH  88  89
ATOM     89  S   UNL A   1      53.998  25.250  25.199  1.00  0.00     0.124 S 
ATOM     90  O   UNL A   1      54.722  25.663  26.398  1.00  0.00    -0.237 OA
ATOM     91  O   UNL A   1      53.887  23.806  25.000  1.00  0.00    -0.237 OA
ATOM     92  O   UNL A   1      54.299  26.017  23.994  1.00  0.00    -0.744 OA
ENDBRANCH  88  89
ENDBRANCH  62  83
ENDBRANCH  36  37
ENDBRANCH  28  31
ENDBRANCH  26  27
ENDBRANCH  25  26
ENDBRANCH   1  25
TORSDOF 17
ENDMDL
