MODEL 1
REMARK VINA RESULT:     -11.4      0.000      0.000
REMARK SMILES O=C(NCCCCCCNC(=O)c1cccc(Nc2ccnc3ccc(Cl)cc23)c1)c1ccc(-c2c3nc(c(-c4ccc(S(=O)(=O)[O-])cc4)c4ccc([nH]4)c(-c4ccc(S(=O)(=O)[O-])cc4)c4nc(c(-c5ccc(S(=O)(=O)[O-])cc5)c5ccc2[nH]5)C=C4)C=C3)cc1
REMARK SMILES IDX 6 1 5 2 4 3 3 4 1 5 2 6 31 8 32 9 90 10 33 11 89 12 34 13
REMARK SMILES IDX 35 14 36 15 83 16 37 17 88 18 82 19 84 20 38 21 87 22 81 23
REMARK SMILES IDX 80 24 39 26 69 27 50 28 68 29 51 30 54 31 67 32 85 33 52 34
REMARK SMILES IDX 53 35 66 37 86 38 55 39 40 40 41 41 49 42 42 43 48 44 43 45
REMARK SMILES IDX 44 46 45 47 46 48 47 49 70 50 71 51 79 52 72 53 78 54 73 55
REMARK SMILES IDX 74 56 75 57 76 58 77 59 56 60 57 61 65 62 58 63 64 64 59 65
REMARK SMILES IDX 60 66 61 67 62 68 63 69 7 70 8 71 9 72 10 73 11 74 12 76
REMARK SMILES IDX 13 77 14 78 30 79 15 80 17 81 16 82 18 83 19 85 20 86 29 87
REMARK SMILES IDX 21 88 23 89 28 90 22 91 24 92 26 93 25 94 27 95
REMARK H PARENT 3 7 84 25 54 36 10 75 18 84
REMARK Flexibility Score: inf
ROOT
ATOM      1  C   UNL A   1      31.412  28.413  25.683  1.00  0.00     0.002 C 
ENDROOT
BRANCH   1   2
ATOM      2  C   UNL A   1      32.447  27.501  26.347  1.00  0.00     0.021 C 
BRANCH   2   3
ATOM      3  C   UNL A   1      33.709  28.190  26.859  1.00  0.00     0.116 C 
BRANCH   3   4
ATOM      4  N   UNL A   1      33.509  29.604  27.136  1.00  0.00    -0.352 N 
ATOM      5  O   UNL A   1      33.909  31.631  28.027  1.00  0.00    -0.269 OA
ATOM      6  C   UNL A   1      34.335  30.509  27.761  1.00  0.00     0.251 C 
ATOM      7  H   UNL A   1      32.649  29.970  26.829  1.00  0.00     0.163 HD
BRANCH   6   8
ATOM      8  C   UNL A   1      35.720  30.140  28.138  1.00  0.00     0.039 A 
ATOM      9  C   UNL A   1      36.782  30.287  27.243  1.00  0.00     0.014 A 
ATOM     10  C   UNL A   1      35.965  29.672  29.434  1.00  0.00     0.014 A 
ATOM     11  C   UNL A   1      38.057  29.847  27.595  1.00  0.00     0.010 A 
ATOM     12  C   UNL A   1      37.258  29.292  29.809  1.00  0.00     0.010 A 
ATOM     13  C   UNL A   1      38.311  29.347  28.882  1.00  0.00    -0.014 A 
BRANCH  13  14
ATOM     14  C   UNL A   1      39.685  28.918  29.258  1.00  0.00     0.031 A 
ATOM     15  C   UNL A   1      40.600  29.836  30.023  1.00  0.00     0.074 A 
ATOM     16  C   UNL A   1      40.109  27.688  28.908  1.00  0.00     0.049 A 
ATOM     17  N   UNL A   1      41.829  29.627  30.423  1.00  0.00    -0.248 NA
ATOM     18  C   UNL A   1      40.071  31.161  30.380  1.00  0.00     0.031 C 
ATOM     19  C   UNL A   1      39.319  26.704  28.163  1.00  0.00     0.029 A 
ATOM     20  N   UNL A   1      41.302  27.052  29.137  1.00  0.00    -0.354 N 
ATOM     21  C   UNL A   1      42.228  30.795  31.061  1.00  0.00     0.074 A 
ATOM     22  C   UNL A   1      41.116  31.719  30.975  1.00  0.00     0.031 C 
ATOM     23  C   UNL A   1      40.038  25.580  28.022  1.00  0.00     0.029 A 
ATOM     24  C   UNL A   1      41.356  25.780  28.617  1.00  0.00     0.049 A 
ATOM     25  H   UNL A   1      42.050  27.466  29.627  1.00  0.00     0.167 HD
ATOM     26  C   UNL A   1      43.409  31.074  31.665  1.00  0.00     0.031 A 
ATOM     27  C   UNL A   1      42.356  24.878  28.600  1.00  0.00     0.031 A 
ATOM     28  C   UNL A   1      44.516  30.157  31.745  1.00  0.00     0.049 A 
ATOM     29  C   UNL A   1      43.665  25.219  29.250  1.00  0.00     0.074 A 
ATOM     30  C   UNL A   1      45.743  30.340  32.360  1.00  0.00     0.029 A 
ATOM     31  N   UNL A   1      44.535  28.887  31.187  1.00  0.00    -0.354 N 
ATOM     32  N   UNL A   1      44.010  26.319  29.874  1.00  0.00    -0.248 NA
ATOM     33  C   UNL A   1      44.719  24.196  29.198  1.00  0.00     0.031 C 
ATOM     34  C   UNL A   1      46.521  29.197  32.135  1.00  0.00     0.029 A 
ATOM     35  C   UNL A   1      45.760  28.283  31.425  1.00  0.00     0.049 A 
ATOM     36  H   UNL A   1      43.789  28.475  30.694  1.00  0.00     0.167 HD
ATOM     37  C   UNL A   1      45.316  26.115  30.306  1.00  0.00     0.074 A 
ATOM     38  C   UNL A   1      45.692  24.782  29.882  1.00  0.00     0.031 C 
ATOM     39  C   UNL A   1      46.126  26.957  30.994  1.00  0.00     0.031 A 
BRANCH  26  40
ATOM     40  C   UNL A   1      43.575  32.447  32.264  1.00  0.00    -0.014 A 
ATOM     41  C   UNL A   1      43.253  32.700  33.608  1.00  0.00     0.010 A 
ATOM     42  C   UNL A   1      44.087  33.495  31.474  1.00  0.00     0.010 A 
ATOM     43  C   UNL A   1      43.392  33.986  34.140  1.00  0.00     0.020 A 
ATOM     44  C   UNL A   1      44.250  34.776  32.009  1.00  0.00     0.020 A 
ATOM     45  C   UNL A   1      43.880  35.018  33.333  1.00  0.00     0.054 A 
BRANCH  45  46
ATOM     46  S   UNL A   1      44.043  36.679  34.045  1.00  0.00     0.124 S 
ATOM     47  O   UNL A   1      42.647  37.080  34.191  1.00  0.00    -0.237 OA
ATOM     48  O   UNL A   1      44.757  36.426  35.293  1.00  0.00    -0.237 OA
ATOM     49  O   UNL A   1      44.801  37.415  33.037  1.00  0.00    -0.744 OA
ENDBRANCH  45  46
ENDBRANCH  26  40
BRANCH  27  50
ATOM     50  C   UNL A   1      42.142  23.566  27.935  1.00  0.00    -0.014 A 
ATOM     51  C   UNL A   1      42.606  23.343  26.627  1.00  0.00     0.010 A 
ATOM     52  C   UNL A   1      41.518  22.514  28.631  1.00  0.00     0.010 A 
ATOM     53  C   UNL A   1      42.452  22.089  26.028  1.00  0.00     0.020 A 
ATOM     54  C   UNL A   1      41.385  21.253  28.045  1.00  0.00     0.020 A 
ATOM     55  C   UNL A   1      41.850  21.050  26.744  1.00  0.00     0.054 A 
BRANCH  55  56
ATOM     56  S   UNL A   1      41.738  19.409  25.979  1.00  0.00     0.124 S 
ATOM     57  O   UNL A   1      40.322  19.328  25.638  1.00  0.00    -0.237 OA
ATOM     58  O   UNL A   1      42.657  19.523  24.848  1.00  0.00    -0.237 OA
ATOM     59  O   UNL A   1      42.181  18.507  27.040  1.00  0.00    -0.744 OA
ENDBRANCH  55  56
ENDBRANCH  27  50
BRANCH  39  60
ATOM     60  C   UNL A   1      47.495  26.451  31.360  1.00  0.00    -0.014 A 
ATOM     61  C   UNL A   1      47.718  25.761  32.565  1.00  0.00     0.010 A 
ATOM     62  C   UNL A   1      48.561  26.624  30.459  1.00  0.00     0.010 A 
ATOM     63  C   UNL A   1      48.992  25.274  32.873  1.00  0.00     0.020 A 
ATOM     64  C   UNL A   1      49.829  26.118  30.753  1.00  0.00     0.020 A 
ATOM     65  C   UNL A   1      50.040  25.457  31.964  1.00  0.00     0.054 A 
BRANCH  65  66
ATOM     66  S   UNL A   1      51.672  24.773  32.363  1.00  0.00     0.124 S 
ATOM     67  O   UNL A   1      52.525  25.430  31.376  1.00  0.00    -0.237 OA
ATOM     68  O   UNL A   1      51.870  25.195  33.747  1.00  0.00    -0.237 OA
ATOM     69  O   UNL A   1      51.497  23.333  32.176  1.00  0.00    -0.744 OA
ENDBRANCH  65  66
ENDBRANCH  39  60
ENDBRANCH  13  14
ENDBRANCH   6   8
ENDBRANCH   3   4
ENDBRANCH   2   3
ENDBRANCH   1   2
BRANCH   1  70
ATOM     70  C   UNL A   1      30.856  27.942  24.336  1.00  0.00     0.002 C 
BRANCH  70  71
ATOM     71  C   UNL A   1      31.557  28.469  23.077  1.00  0.00     0.021 C 
BRANCH  71  72
ATOM     72  C   UNL A   1      33.056  28.189  22.963  1.00  0.00     0.116 C 
BRANCH  72  73
ATOM     73  N   UNL A   1      33.408  27.278  21.888  1.00  0.00    -0.352 N 
ATOM     74  C   UNL A   1      33.118  25.938  21.778  1.00  0.00     0.251 C 
ATOM     75  H   UNL A   1      33.920  27.668  21.143  1.00  0.00     0.163 HD
ATOM     76  O   UNL A   1      33.246  25.342  20.714  1.00  0.00    -0.269 OA
BRANCH  74  77
ATOM     77  C   UNL A   1      32.711  25.194  22.981  1.00  0.00     0.041 A 
ATOM     78  C   UNL A   1      31.398  24.718  23.033  1.00  0.00     0.014 A 
ATOM     79  C   UNL A   1      33.610  24.980  24.039  1.00  0.00     0.039 A 
ATOM     80  C   UNL A   1      30.974  24.002  24.145  1.00  0.00     0.003 A 
ATOM     81  C   UNL A   1      33.197  24.228  25.145  1.00  0.00     0.039 A 
ATOM     82  C   UNL A   1      31.872  23.754  25.181  1.00  0.00     0.026 A 
BRANCH  81  83
ATOM     83  N   UNL A   1      34.110  23.801  26.131  1.00  0.00    -0.355 N 
ATOM     84  H   UNL A   1      33.917  24.046  27.066  1.00  0.00     0.167 HD
BRANCH  83  85
ATOM     85  C   UNL A   1      35.283  23.043  25.882  1.00  0.00     0.050 A 
ATOM     86  C   UNL A   1      36.522  23.697  25.934  1.00  0.00     0.047 A 
ATOM     87  C   UNL A   1      35.251  21.677  25.504  1.00  0.00     0.025 A 
ATOM     88  C   UNL A   1      37.663  23.004  25.604  1.00  0.00     0.114 A 
ATOM     89  C   UNL A   1      36.491  21.068  25.188  1.00  0.00     0.072 A 
ATOM     90  C   UNL A   1      34.069  20.906  25.381  1.00  0.00     0.033 A 
ATOM     91  N   UNL A   1      37.665  21.713  25.232  1.00  0.00    -0.256 NA
ATOM     92  C   UNL A   1      36.517  19.742  24.786  1.00  0.00     0.030 A 
ATOM     93  C   UNL A   1      34.129  19.574  24.971  1.00  0.00     0.041 A 
ATOM     94  C   UNL A   1      35.351  18.985  24.675  1.00  0.00     0.023 A 
ATOM     95  Cl  UNL A   1      32.684  18.653  24.812  1.00  0.00    -0.084 Cl
ENDBRANCH  83  85
ENDBRANCH  81  83
ENDBRANCH  74  77
ENDBRANCH  72  73
ENDBRANCH  71  72
ENDBRANCH  70  71
ENDBRANCH   1  70
TORSDOF 18
ENDMDL
MODEL 2
REMARK VINA RESULT:     -10.8      2.573      8.249
REMARK SMILES O=C(NCCCCCCNC(=O)c1cccc(Nc2ccnc3ccc(Cl)cc23)c1)c1ccc(-c2c3nc(c(-c4ccc(S(=O)(=O)[O-])cc4)c4ccc([nH]4)c(-c4ccc(S(=O)(=O)[O-])cc4)c4nc(c(-c5ccc(S(=O)(=O)[O-])cc5)c5ccc2[nH]5)C=C4)C=C3)cc1
REMARK SMILES IDX 6 1 5 2 4 3 3 4 1 5 2 6 31 8 32 9 90 10 33 11 89 12 34 13
REMARK SMILES IDX 35 14 36 15 83 16 37 17 88 18 82 19 84 20 38 21 87 22 81 23
REMARK SMILES IDX 80 24 39 26 69 27 50 28 68 29 51 30 54 31 67 32 85 33 52 34
REMARK SMILES IDX 53 35 66 37 86 38 55 39 40 40 41 41 49 42 42 43 48 44 43 45
REMARK SMILES IDX 44 46 45 47 46 48 47 49 70 50 71 51 79 52 72 53 78 54 73 55
REMARK SMILES IDX 74 56 75 57 76 58 77 59 56 60 57 61 65 62 58 63 64 64 59 65
REMARK SMILES IDX 60 66 61 67 62 68 63 69 7 70 8 71 9 72 10 73 11 74 12 76
REMARK SMILES IDX 13 77 14 78 30 79 15 80 17 81 16 82 18 83 19 85 20 86 29 87
REMARK SMILES IDX 21 88 23 89 28 90 22 91 24 92 26 93 25 94 27 95
REMARK H PARENT 3 7 84 25 54 36 10 75 18 84
REMARK Flexibility Score: inf
ROOT
ATOM      1  C   UNL A   1      31.917  27.858  26.627  1.00  0.00     0.002 C 
ENDROOT
BRANCH   1   2
ATOM      2  C   UNL A   1      33.406  27.585  26.400  1.00  0.00     0.021 C 
BRANCH   2   3
ATOM      3  C   UNL A   1      34.237  28.779  25.935  1.00  0.00     0.116 C 
BRANCH   3   4
ATOM      4  N   UNL A   1      33.692  30.053  26.373  1.00  0.00    -0.352 N 
ATOM      5  O   UNL A   1      33.409  31.861  27.683  1.00  0.00    -0.269 OA
ATOM      6  C   UNL A   1      34.105  30.894  27.380  1.00  0.00     0.251 C 
ATOM      7  H   UNL A   1      32.904  30.362  25.871  1.00  0.00     0.163 HD
BRANCH   6   8
ATOM      8  C   UNL A   1      35.365  30.635  28.117  1.00  0.00     0.039 A 
ATOM      9  C   UNL A   1      36.542  31.324  27.812  1.00  0.00     0.014 A 
ATOM     10  C   UNL A   1      35.355  29.707  29.164  1.00  0.00     0.014 A 
ATOM     11  C   UNL A   1      37.731  30.993  28.461  1.00  0.00     0.010 A 
ATOM     12  C   UNL A   1      36.535  29.425  29.860  1.00  0.00     0.010 A 
ATOM     13  C   UNL A   1      37.741  30.042  29.494  1.00  0.00    -0.014 A 
BRANCH  13  14
ATOM     14  C   UNL A   1      39.009  29.729  30.205  1.00  0.00     0.031 A 
ATOM     15  C   UNL A   1      39.932  28.650  29.703  1.00  0.00     0.074 A 
ATOM     16  C   UNL A   1      39.333  30.425  31.312  1.00  0.00     0.049 A 
ATOM     17  N   UNL A   1      41.070  28.242  30.204  1.00  0.00    -0.248 NA
ATOM     18  C   UNL A   1      39.523  27.935  28.485  1.00  0.00     0.031 C 
ATOM     19  C   UNL A   1      38.522  31.494  31.902  1.00  0.00     0.029 A 
ATOM     20  N   UNL A   1      40.428  30.347  32.133  1.00  0.00    -0.354 N 
ATOM     21  C   UNL A   1      41.505  27.212  29.379  1.00  0.00     0.074 A 
ATOM     22  C   UNL A   1      40.495  27.043  28.354  1.00  0.00     0.031 C 
ATOM     23  C   UNL A   1      39.161  31.989  32.972  1.00  0.00     0.029 A 
ATOM     24  C   UNL A   1      40.398  31.241  33.177  1.00  0.00     0.049 A 
ATOM     25  H   UNL A   1      41.166  29.710  31.989  1.00  0.00     0.167 HD
ATOM     26  C   UNL A   1      42.640  26.476  29.463  1.00  0.00     0.031 A 
ATOM     27  C   UNL A   1      41.256  31.431  34.198  1.00  0.00     0.031 A 
ATOM     28  C   UNL A   1      43.641  26.641  30.485  1.00  0.00     0.049 A 
ATOM     29  C   UNL A   1      42.492  30.585  34.287  1.00  0.00     0.074 A 
ATOM     30  C   UNL A   1      44.838  25.960  30.637  1.00  0.00     0.029 A 
ATOM     31  N   UNL A   1      43.560  27.544  31.535  1.00  0.00    -0.354 N 
ATOM     32  N   UNL A   1      42.898  29.637  33.477  1.00  0.00    -0.248 NA
ATOM     33  C   UNL A   1      43.389  30.837  35.424  1.00  0.00     0.031 C 
ATOM     34  C   UNL A   1      45.459  26.421  31.804  1.00  0.00     0.029 A 
ATOM     35  C   UNL A   1      44.675  27.425  32.349  1.00  0.00     0.049 A 
ATOM     36  H   UNL A   1      42.821  28.177  31.679  1.00  0.00     0.167 HD
ATOM     37  C   UNL A   1      44.108  29.189  33.997  1.00  0.00     0.074 A 
ATOM     38  C   UNL A   1      44.372  29.980  35.182  1.00  0.00     0.031 C 
ATOM     39  C   UNL A   1      44.925  28.214  33.529  1.00  0.00     0.031 A 
BRANCH  26  40
ATOM     40  C   UNL A   1      42.845  25.397  28.431  1.00  0.00    -0.014 A 
ATOM     41  C   UNL A   1      42.452  24.069  28.675  1.00  0.00     0.010 A 
ATOM     42  C   UNL A   1      43.420  25.722  27.188  1.00  0.00     0.010 A 
ATOM     43  C   UNL A   1      42.672  23.077  27.715  1.00  0.00     0.020 A 
ATOM     44  C   UNL A   1      43.620  24.737  26.216  1.00  0.00     0.020 A 
ATOM     45  C   UNL A   1      43.265  23.416  26.495  1.00  0.00     0.054 A 
BRANCH  45  46
ATOM     46  S   UNL A   1      43.548  22.109  25.269  1.00  0.00     0.124 S 
ATOM     47  O   UNL A   1      42.427  21.209  25.528  1.00  0.00    -0.237 OA
ATOM     48  O   UNL A   1      43.490  22.835  24.003  1.00  0.00    -0.237 OA
ATOM     49  O   UNL A   1      44.864  21.582  25.620  1.00  0.00    -0.744 OA
ENDBRANCH  45  46
ENDBRANCH  26  40
BRANCH  27  50
ATOM     50  C   UNL A   1      40.956  32.472  35.216  1.00  0.00    -0.014 A 
ATOM     51  C   UNL A   1      40.261  32.143  36.392  1.00  0.00     0.010 A 
ATOM     52  C   UNL A   1      41.417  33.790  35.036  1.00  0.00     0.010 A 
ATOM     53  C   UNL A   1      40.033  33.114  37.372  1.00  0.00     0.020 A 
ATOM     54  C   UNL A   1      41.213  34.756  36.024  1.00  0.00     0.020 A 
ATOM     55  C   UNL A   1      40.516  34.412  37.184  1.00  0.00     0.054 A 
BRANCH  55  56
ATOM     56  S   UNL A   1      40.284  35.634  38.506  1.00  0.00     0.124 S 
ATOM     57  O   UNL A   1      41.561  35.568  39.207  1.00  0.00    -0.237 OA
ATOM     58  O   UNL A   1      40.034  36.865  37.758  1.00  0.00    -0.237 OA
ATOM     59  O   UNL A   1      39.133  35.121  39.246  1.00  0.00    -0.744 OA
ENDBRANCH  55  56
ENDBRANCH  27  50
BRANCH  39  60
ATOM     60  C   UNL A   1      46.203  27.963  34.285  1.00  0.00    -0.014 A 
ATOM     61  C   UNL A   1      47.373  28.686  33.996  1.00  0.00     0.010 A 
ATOM     62  C   UNL A   1      46.213  27.028  35.335  1.00  0.00     0.010 A 
ATOM     63  C   UNL A   1      48.541  28.460  34.730  1.00  0.00     0.020 A 
ATOM     64  C   UNL A   1      47.372  26.815  36.085  1.00  0.00     0.020 A 
ATOM     65  C   UNL A   1      48.533  27.523  35.769  1.00  0.00     0.054 A 
BRANCH  65  66
ATOM     66  S   UNL A   1      50.047  27.281  36.740  1.00  0.00     0.124 S 
ATOM     67  O   UNL A   1      51.087  27.595  35.763  1.00  0.00    -0.237 OA
ATOM     68  O   UNL A   1      49.892  28.244  37.826  1.00  0.00    -0.237 OA
ATOM     69  O   UNL A   1      49.976  25.878  37.145  1.00  0.00    -0.744 OA
ENDBRANCH  65  66
ENDBRANCH  39  60
ENDBRANCH  13  14
ENDBRANCH   6   8
ENDBRANCH   3   4
ENDBRANCH   2   3
ENDBRANCH   1   2
BRANCH   1  70
ATOM     70  C   UNL A   1      30.997  27.665  25.417  1.00  0.00     0.002 C 
BRANCH  70  71
ATOM     71  C   UNL A   1      31.085  28.720  24.308  1.00  0.00     0.021 C 
BRANCH  71  72
ATOM     72  C   UNL A   1      31.063  28.201  22.869  1.00  0.00     0.116 C 
BRANCH  72  73
ATOM     73  N   UNL A   1      32.371  27.841  22.349  1.00  0.00    -0.352 N 
ATOM     74  C   UNL A   1      32.937  26.591  22.260  1.00  0.00     0.251 C 
ATOM     75  H   UNL A   1      32.922  28.586  22.018  1.00  0.00     0.163 HD
ATOM     76  O   UNL A   1      33.932  26.388  21.573  1.00  0.00    -0.269 OA
BRANCH  74  77
ATOM     77  C   UNL A   1      32.373  25.492  23.061  1.00  0.00     0.041 A 
ATOM     78  C   UNL A   1      31.077  25.067  22.753  1.00  0.00     0.014 A 
ATOM     79  C   UNL A   1      33.110  24.900  24.099  1.00  0.00     0.039 A 
ATOM     80  C   UNL A   1      30.509  24.027  23.476  1.00  0.00     0.003 A 
ATOM     81  C   UNL A   1      32.555  23.828  24.806  1.00  0.00     0.039 A 
ATOM     82  C   UNL A   1      31.250  23.411  24.483  1.00  0.00     0.026 A 
BRANCH  81  83
ATOM     83  N   UNL A   1      33.321  23.060  25.708  1.00  0.00    -0.355 N 
ATOM     84  H   UNL A   1      33.284  23.307  26.661  1.00  0.00     0.167 HD
BRANCH  83  85
ATOM     85  C   UNL A   1      34.140  21.959  25.348  1.00  0.00     0.050 A 
ATOM     86  C   UNL A   1      33.518  20.756  24.988  1.00  0.00     0.047 A 
ATOM     87  C   UNL A   1      35.556  21.998  25.416  1.00  0.00     0.025 A 
ATOM     88  C   UNL A   1      34.293  19.649  24.727  1.00  0.00     0.114 A 
ATOM     89  C   UNL A   1      36.247  20.796  25.124  1.00  0.00     0.072 A 
ATOM     90  C   UNL A   1      36.309  23.137  25.795  1.00  0.00     0.033 A 
ATOM     91  N   UNL A   1      35.635  19.652  24.793  1.00  0.00    -0.256 NA
ATOM     92  C   UNL A   1      37.631  20.769  25.201  1.00  0.00     0.030 A 
ATOM     93  C   UNL A   1      37.702  23.076  25.866  1.00  0.00     0.041 A 
ATOM     94  C   UNL A   1      38.368  21.895  25.567  1.00  0.00     0.023 A 
ATOM     95  Cl  UNL A   1      38.604  24.461  26.341  1.00  0.00    -0.084 Cl
ENDBRANCH  83  85
ENDBRANCH  81  83
ENDBRANCH  74  77
ENDBRANCH  72  73
ENDBRANCH  71  72
ENDBRANCH  70  71
ENDBRANCH   1  70
TORSDOF 18
ENDMDL
MODEL 3
REMARK VINA RESULT:     -10.8      2.502      3.312
REMARK SMILES O=C(NCCCCCCNC(=O)c1cccc(Nc2ccnc3ccc(Cl)cc23)c1)c1ccc(-c2c3nc(c(-c4ccc(S(=O)(=O)[O-])cc4)c4ccc([nH]4)c(-c4ccc(S(=O)(=O)[O-])cc4)c4nc(c(-c5ccc(S(=O)(=O)[O-])cc5)c5ccc2[nH]5)C=C4)C=C3)cc1
REMARK SMILES IDX 6 1 5 2 4 3 3 4 1 5 2 6 31 8 32 9 90 10 33 11 89 12 34 13
REMARK SMILES IDX 35 14 36 15 83 16 37 17 88 18 82 19 84 20 38 21 87 22 81 23
REMARK SMILES IDX 80 24 39 26 69 27 50 28 68 29 51 30 54 31 67 32 85 33 52 34
REMARK SMILES IDX 53 35 66 37 86 38 55 39 40 40 41 41 49 42 42 43 48 44 43 45
REMARK SMILES IDX 44 46 45 47 46 48 47 49 70 50 71 51 79 52 72 53 78 54 73 55
REMARK SMILES IDX 74 56 75 57 76 58 77 59 56 60 57 61 65 62 58 63 64 64 59 65
REMARK SMILES IDX 60 66 61 67 62 68 63 69 7 70 8 71 9 72 10 73 11 74 12 76
REMARK SMILES IDX 13 77 14 78 30 79 15 80 17 81 16 82 18 83 19 85 20 86 29 87
REMARK SMILES IDX 21 88 23 89 28 90 22 91 24 92 26 93 25 94 27 95
REMARK H PARENT 3 7 84 25 54 36 10 75 18 84
REMARK Flexibility Score: inf
ROOT
ATOM      1  C   UNL A   1      31.731  28.283  26.665  1.00  0.00     0.002 C 
ENDROOT
BRANCH   1   2
ATOM      2  C   UNL A   1      33.225  28.030  26.883  1.00  0.00     0.021 C 
BRANCH   2   3
ATOM      3  C   UNL A   1      34.171  29.055  26.263  1.00  0.00     0.116 C 
BRANCH   3   4
ATOM      4  N   UNL A   1      33.879  30.418  26.678  1.00  0.00    -0.352 N 
ATOM      5  O   UNL A   1      33.989  32.286  27.926  1.00  0.00    -0.269 OA
ATOM      6  C   UNL A   1      34.490  31.205  27.626  1.00  0.00     0.251 C 
ATOM      7  H   UNL A   1      33.128  30.843  26.206  1.00  0.00     0.163 HD
BRANCH   6   8
ATOM      8  C   UNL A   1      35.728  30.754  28.305  1.00  0.00     0.039 A 
ATOM      9  C   UNL A   1      35.720  29.675  29.192  1.00  0.00     0.014 A 
ATOM     10  C   UNL A   1      36.932  31.404  28.014  1.00  0.00     0.014 A 
ATOM     11  C   UNL A   1      36.881  29.332  29.883  1.00  0.00     0.010 A 
ATOM     12  C   UNL A   1      38.111  31.016  28.659  1.00  0.00     0.010 A 
ATOM     13  C   UNL A   1      38.091  29.997  29.623  1.00  0.00    -0.014 A 
BRANCH  13  14
ATOM     14  C   UNL A   1      39.331  29.594  30.338  1.00  0.00     0.031 A 
ATOM     15  C   UNL A   1      39.755  30.289  31.605  1.00  0.00     0.074 A 
ATOM     16  C   UNL A   1      40.080  28.590  29.842  1.00  0.00     0.049 A 
ATOM     17  N   UNL A   1      40.808  30.071  32.350  1.00  0.00    -0.248 NA
ATOM     18  C   UNL A   1      38.886  31.370  32.096  1.00  0.00     0.031 C 
ATOM     19  C   UNL A   1      39.780  27.838  28.621  1.00  0.00     0.029 A 
ATOM     20  N   UNL A   1      41.241  28.024  30.304  1.00  0.00    -0.354 N 
ATOM     21  C   UNL A   1      40.744  30.997  33.385  1.00  0.00     0.074 A 
ATOM     22  C   UNL A   1      39.556  31.794  33.159  1.00  0.00     0.031 C 
ATOM     23  C   UNL A   1      40.715  26.893  28.447  1.00  0.00     0.029 A 
ATOM     24  C   UNL A   1      41.709  27.004  29.511  1.00  0.00     0.049 A 
ATOM     25  H   UNL A   1      41.696  28.321  31.126  1.00  0.00     0.167 HD
ATOM     26  C   UNL A   1      41.592  31.168  34.428  1.00  0.00     0.031 A 
ATOM     27  C   UNL A   1      42.822  26.251  29.610  1.00  0.00     0.031 A 
ATOM     28  C   UNL A   1      42.776  30.378  34.649  1.00  0.00     0.049 A 
ATOM     29  C   UNL A   1      43.761  26.476  30.758  1.00  0.00     0.074 A 
ATOM     30  C   UNL A   1      43.682  30.459  35.693  1.00  0.00     0.029 A 
ATOM     31  N   UNL A   1      43.224  29.368  33.809  1.00  0.00    -0.354 N 
ATOM     32  N   UNL A   1      43.664  27.338  31.743  1.00  0.00    -0.248 NA
ATOM     33  C   UNL A   1      44.959  25.626  30.813  1.00  0.00     0.031 C 
ATOM     34  C   UNL A   1      44.703  29.528  35.460  1.00  0.00     0.029 A 
ATOM     35  C   UNL A   1      44.404  28.832  34.300  1.00  0.00     0.049 A 
ATOM     36  H   UNL A   1      42.770  29.076  32.986  1.00  0.00     0.167 HD
ATOM     37  C   UNL A   1      44.779  27.121  32.545  1.00  0.00     0.074 A 
ATOM     38  C   UNL A   1      45.528  26.040  31.937  1.00  0.00     0.031 C 
ATOM     39  C   UNL A   1      45.144  27.760  33.684  1.00  0.00     0.031 A 
BRANCH  26  40
ATOM     40  C   UNL A   1      41.283  32.277  35.400  1.00  0.00    -0.014 A 
ATOM     41  C   UNL A   1      40.527  32.039  36.561  1.00  0.00     0.010 A 
ATOM     42  C   UNL A   1      41.778  33.572  35.160  1.00  0.00     0.010 A 
ATOM     43  C   UNL A   1      40.230  33.086  37.440  1.00  0.00     0.020 A 
ATOM     44  C   UNL A   1      41.504  34.616  36.048  1.00  0.00     0.020 A 
ATOM     45  C   UNL A   1      40.713  34.371  37.171  1.00  0.00     0.054 A 
BRANCH  45  46
ATOM     46  S   UNL A   1      40.308  35.714  38.322  1.00  0.00     0.124 S 
ATOM     47  O   UNL A   1      40.003  36.810  37.407  1.00  0.00    -0.237 OA
ATOM     48  O   UNL A   1      39.166  35.176  39.057  1.00  0.00    -0.237 OA
ATOM     49  O   UNL A   1      41.527  35.877  39.108  1.00  0.00    -0.744 OA
ENDBRANCH  45  46
ENDBRANCH  26  40
BRANCH  27  50
ATOM     50  C   UNL A   1      43.095  25.217  28.579  1.00  0.00    -0.014 A 
ATOM     51  C   UNL A   1      42.607  23.908  28.731  1.00  0.00     0.010 A 
ATOM     52  C   UNL A   1      43.800  25.554  27.408  1.00  0.00     0.010 A 
ATOM     53  C   UNL A   1      42.819  22.954  27.731  1.00  0.00     0.020 A 
ATOM     54  C   UNL A   1      43.992  24.611  26.396  1.00  0.00     0.020 A 
ATOM     55  C   UNL A   1      43.504  23.314  26.567  1.00  0.00     0.054 A 
BRANCH  55  56
ATOM     56  S   UNL A   1      43.692  22.086  25.245  1.00  0.00     0.124 S 
ATOM     57  O   UNL A   1      45.058  21.620  25.456  1.00  0.00    -0.237 OA
ATOM     58  O   UNL A   1      42.639  21.121  25.557  1.00  0.00    -0.237 OA
ATOM     59  O   UNL A   1      43.472  22.860  24.026  1.00  0.00    -0.744 OA
ENDBRANCH  55  56
ENDBRANCH  27  50
BRANCH  39  60
ATOM     60  C   UNL A   1      46.398  27.288  34.368  1.00  0.00    -0.014 A 
ATOM     61  C   UNL A   1      47.646  27.870  34.085  1.00  0.00     0.010 A 
ATOM     62  C   UNL A   1      46.315  26.283  35.349  1.00  0.00     0.010 A 
ATOM     63  C   UNL A   1      48.795  27.437  34.753  1.00  0.00     0.020 A 
ATOM     64  C   UNL A   1      47.457  25.864  36.035  1.00  0.00     0.020 A 
ATOM     65  C   UNL A   1      48.693  26.434  35.724  1.00  0.00     0.054 A 
BRANCH  65  66
ATOM     66  S   UNL A   1      50.188  25.922  36.614  1.00  0.00     0.124 S 
ATOM     67  O   UNL A   1      50.172  24.474  36.427  1.00  0.00    -0.237 OA
ATOM     68  O   UNL A   1      51.247  26.636  35.904  1.00  0.00    -0.237 OA
ATOM     69  O   UNL A   1      49.949  26.378  37.982  1.00  0.00    -0.744 OA
ENDBRANCH  65  66
ENDBRANCH  39  60
ENDBRANCH  13  14
ENDBRANCH   6   8
ENDBRANCH   3   4
ENDBRANCH   2   3
ENDBRANCH   1   2
BRANCH   1  70
ATOM     70  C   UNL A   1      31.148  27.803  25.333  1.00  0.00     0.002 C 
BRANCH  70  71
ATOM     71  C   UNL A   1      31.078  28.833  24.198  1.00  0.00     0.021 C 
BRANCH  71  72
ATOM     72  C   UNL A   1      31.097  28.279  22.772  1.00  0.00     0.116 C 
BRANCH  72  73
ATOM     73  N   UNL A   1      32.418  27.898  22.302  1.00  0.00    -0.352 N 
ATOM     74  C   UNL A   1      32.969  26.640  22.241  1.00  0.00     0.251 C 
ATOM     75  H   UNL A   1      32.991  28.633  21.987  1.00  0.00     0.163 HD
ATOM     76  O   UNL A   1      33.985  26.419  21.593  1.00  0.00    -0.269 OA
BRANCH  74  77
ATOM     77  C   UNL A   1      32.361  25.554  23.028  1.00  0.00     0.041 A 
ATOM     78  C   UNL A   1      31.064  25.159  22.691  1.00  0.00     0.014 A 
ATOM     79  C   UNL A   1      33.060  24.946  24.084  1.00  0.00     0.039 A 
ATOM     80  C   UNL A   1      30.456  24.132  23.399  1.00  0.00     0.003 A 
ATOM     81  C   UNL A   1      32.464  23.886  24.777  1.00  0.00     0.039 A 
ATOM     82  C   UNL A   1      31.158  23.499  24.423  1.00  0.00     0.026 A 
BRANCH  81  83
ATOM     83  N   UNL A   1      33.191  23.101  25.696  1.00  0.00    -0.355 N 
ATOM     84  H   UNL A   1      33.097  23.317  26.652  1.00  0.00     0.167 HD
BRANCH  83  85
ATOM     85  C   UNL A   1      34.045  22.023  25.349  1.00  0.00     0.050 A 
ATOM     86  C   UNL A   1      33.461  20.809  24.962  1.00  0.00     0.047 A 
ATOM     87  C   UNL A   1      35.457  22.094  25.455  1.00  0.00     0.025 A 
ATOM     88  C   UNL A   1      34.268  19.723  24.713  1.00  0.00     0.114 A 
ATOM     89  C   UNL A   1      36.184  20.911  25.172  1.00  0.00     0.072 A 
ATOM     90  C   UNL A   1      36.173  23.246  25.864  1.00  0.00     0.033 A 
ATOM     91  N   UNL A   1      35.608  19.756  24.815  1.00  0.00    -0.256 NA
ATOM     92  C   UNL A   1      37.566  20.916  25.285  1.00  0.00     0.030 A 
ATOM     93  C   UNL A   1      37.564  23.217  25.972  1.00  0.00     0.041 A 
ATOM     94  C   UNL A   1      38.266  22.056  25.681  1.00  0.00     0.023 A 
ATOM     95  Cl  UNL A   1      38.420  24.619  26.483  1.00  0.00    -0.084 Cl
ENDBRANCH  83  85
ENDBRANCH  81  83
ENDBRANCH  74  77
ENDBRANCH  72  73
ENDBRANCH  71  72
ENDBRANCH  70  71
ENDBRANCH   1  70
TORSDOF 18
ENDMDL
