MODEL 1
REMARK VINA RESULT:      -9.9      0.000      0.000
REMARK SMILES O=C(NCCCCCCNC(=O)[C@@H](Cc1ccccc1Br)CC(F)(F)F)c1ccc(-c2c3nc(c(-c4ccc(S(=O)(=O)[O-])cc4)c4ccc([nH]4)c(-c4ccc(S(=O)(=O)[O-])cc4)c4nc(c(-c5ccc(S(=O)(=O)[O-])cc5)c5ccc2[nH]5)C=C4)C=C3)cc1
REMARK SMILES IDX 6 1 5 2 4 3 3 4 1 5 2 6 27 8 28 9 86 10 29 11 85 12 30 13
REMARK SMILES IDX 31 14 32 15 79 16 33 17 84 18 78 19 80 20 34 21 83 22 77 23
REMARK SMILES IDX 76 24 35 26 65 27 46 28 64 29 47 30 50 31 63 32 81 33 48 34
REMARK SMILES IDX 49 35 62 37 82 38 51 39 36 40 37 41 45 42 38 43 44 44 39 45
REMARK SMILES IDX 40 46 41 47 42 48 43 49 66 50 67 51 75 52 68 53 74 54 69 55
REMARK SMILES IDX 70 56 71 57 72 58 73 59 52 60 53 61 61 62 54 63 60 64 55 65
REMARK SMILES IDX 56 66 57 67 58 68 59 69 7 70 8 71 9 72 10 73 11 74 12 76
REMARK SMILES IDX 13 77 14 78 15 79 16 80 20 81 17 82 19 83 21 84 18 85 22 86
REMARK SMILES IDX 23 87 24 88 25 89 26 90
REMARK H PARENT 3 7 80 25 50 36 10 75
REMARK Flexibility Score: inf
ROOT
ATOM      1  C   UNL A   1      35.315  22.149  26.503  1.00  0.00     0.002 C 
ENDROOT
BRANCH   1   2
ATOM      2  C   UNL A   1      35.475  23.560  25.928  1.00  0.00     0.021 C 
BRANCH   2   3
ATOM      3  C   UNL A   1      36.775  23.796  25.164  1.00  0.00     0.116 C 
BRANCH   3   4
ATOM      4  N   UNL A   1      37.775  22.780  25.458  1.00  0.00    -0.352 N 
ATOM      5  O   UNL A   1      39.798  21.955  25.993  1.00  0.00    -0.269 OA
ATOM      6  C   UNL A   1      39.010  22.893  26.051  1.00  0.00     0.251 C 
ATOM      7  H   UNL A   1      37.528  21.866  25.189  1.00  0.00     0.163 HD
BRANCH   6   8
ATOM      8  C   UNL A   1      39.398  24.143  26.745  1.00  0.00     0.039 A 
ATOM      9  C   UNL A   1      40.181  25.105  26.105  1.00  0.00     0.014 A 
ATOM     10  C   UNL A   1      38.934  24.374  28.044  1.00  0.00     0.014 A 
ATOM     11  C   UNL A   1      40.623  26.220  26.809  1.00  0.00     0.010 A 
ATOM     12  C   UNL A   1      39.310  25.541  28.721  1.00  0.00     0.010 A 
ATOM     13  C   UNL A   1      40.189  26.457  28.124  1.00  0.00    -0.014 A 
BRANCH  13  14
ATOM     14  C   UNL A   1      40.639  27.685  28.831  1.00  0.00     0.031 A 
ATOM     15  C   UNL A   1      42.051  27.816  29.337  1.00  0.00     0.074 A 
ATOM     16  C   UNL A   1      39.772  28.707  28.982  1.00  0.00     0.049 A 
ATOM     17  N   UNL A   1      42.625  28.842  29.915  1.00  0.00    -0.248 NA
ATOM     18  C   UNL A   1      42.931  26.648  29.184  1.00  0.00     0.031 C 
ATOM     19  C   UNL A   1      38.374  28.699  28.541  1.00  0.00     0.029 A 
ATOM     20  N   UNL A   1      39.942  29.957  29.518  1.00  0.00    -0.354 N 
ATOM     21  C   UNL A   1      43.920  28.437  30.218  1.00  0.00     0.074 A 
ATOM     22  C   UNL A   1      44.041  27.063  29.779  1.00  0.00     0.031 C 
ATOM     23  C   UNL A   1      37.834  29.904  28.770  1.00  0.00     0.029 A 
ATOM     24  C   UNL A   1      38.824  30.752  29.425  1.00  0.00     0.049 A 
ATOM     25  H   UNL A   1      40.785  30.258  29.931  1.00  0.00     0.167 HD
ATOM     26  C   UNL A   1      44.917  29.145  30.803  1.00  0.00     0.031 A 
ATOM     27  C   UNL A   1      38.611  32.020  29.824  1.00  0.00     0.031 A 
ATOM     28  C   UNL A   1      44.794  30.514  31.236  1.00  0.00     0.049 A 
ATOM     29  C   UNL A   1      39.730  32.778  30.480  1.00  0.00     0.074 A 
ATOM     30  C   UNL A   1      45.760  31.327  31.804  1.00  0.00     0.029 A 
ATOM     31  N   UNL A   1      43.635  31.270  31.154  1.00  0.00    -0.354 N 
ATOM     32  N   UNL A   1      40.959  32.388  30.718  1.00  0.00    -0.248 NA
ATOM     33  C   UNL A   1      39.434  34.150  30.912  1.00  0.00     0.031 C 
ATOM     34  C   UNL A   1      45.170  32.558  32.111  1.00  0.00     0.029 A 
ATOM     35  C   UNL A   1      43.855  32.533  31.679  1.00  0.00     0.049 A 
ATOM     36  H   UNL A   1      42.781  30.956  30.777  1.00  0.00     0.167 HD
ATOM     37  C   UNL A   1      41.593  33.477  31.304  1.00  0.00     0.074 A 
ATOM     38  C   UNL A   1      40.614  34.544  31.372  1.00  0.00     0.031 C 
ATOM     39  C   UNL A   1      42.872  33.585  31.742  1.00  0.00     0.031 A 
BRANCH  26  40
ATOM     40  C   UNL A   1      46.226  28.436  31.045  1.00  0.00    -0.014 A 
ATOM     41  C   UNL A   1      47.261  28.461  30.094  1.00  0.00     0.010 A 
ATOM     42  C   UNL A   1      46.435  27.760  32.262  1.00  0.00     0.010 A 
ATOM     43  C   UNL A   1      48.461  27.785  30.334  1.00  0.00     0.020 A 
ATOM     44  C   UNL A   1      47.643  27.106  32.518  1.00  0.00     0.020 A 
ATOM     45  C   UNL A   1      48.642  27.105  31.543  1.00  0.00     0.054 A 
BRANCH  45  46
ATOM     46  S   UNL A   1      50.209  26.237  31.830  1.00  0.00     0.124 S 
ATOM     47  O   UNL A   1      50.044  25.042  31.005  1.00  0.00    -0.237 OA
ATOM     48  O   UNL A   1      51.200  27.197  31.352  1.00  0.00    -0.237 OA
ATOM     49  O   UNL A   1      50.216  26.002  33.272  1.00  0.00    -0.744 OA
ENDBRANCH  45  46
ENDBRANCH  26  40
BRANCH  27  50
ATOM     50  C   UNL A   1      37.285  32.655  29.595  1.00  0.00    -0.014 A 
ATOM     51  C   UNL A   1      36.247  32.498  30.531  1.00  0.00     0.010 A 
ATOM     52  C   UNL A   1      37.063  33.443  28.450  1.00  0.00     0.010 A 
ATOM     53  C   UNL A   1      35.008  33.107  30.320  1.00  0.00     0.020 A 
ATOM     54  C   UNL A   1      35.834  34.077  28.252  1.00  0.00     0.020 A 
ATOM     55  C   UNL A   1      34.810  33.897  29.183  1.00  0.00     0.054 A 
BRANCH  55  56
ATOM     56  S   UNL A   1      33.213  34.727  28.960  1.00  0.00     0.124 S 
ATOM     57  O   UNL A   1      32.674  34.714  30.316  1.00  0.00    -0.237 OA
ATOM     58  O   UNL A   1      33.607  36.037  28.449  1.00  0.00    -0.237 OA
ATOM     59  O   UNL A   1      32.517  33.875  28.000  1.00  0.00    -0.744 OA
ENDBRANCH  55  56
ENDBRANCH  27  50
BRANCH  39  60
ATOM     60  C   UNL A   1      43.300  34.921  32.288  1.00  0.00    -0.014 A 
ATOM     61  C   UNL A   1      43.173  35.231  33.654  1.00  0.00     0.010 A 
ATOM     62  C   UNL A   1      43.866  35.871  31.419  1.00  0.00     0.010 A 
ATOM     63  C   UNL A   1      43.566  36.484  34.132  1.00  0.00     0.020 A 
ATOM     64  C   UNL A   1      44.285  37.114  31.898  1.00  0.00     0.020 A 
ATOM     65  C   UNL A   1      44.115  37.420  33.249  1.00  0.00     0.054 A 
BRANCH  65  66
ATOM     66  S   UNL A   1      44.639  39.032  33.895  1.00  0.00     0.124 S 
ATOM     67  O   UNL A   1      44.242  39.934  32.817  1.00  0.00    -0.237 OA
ATOM     68  O   UNL A   1      43.866  39.150  35.129  1.00  0.00    -0.237 OA
ATOM     69  O   UNL A   1      46.080  38.878  34.080  1.00  0.00    -0.744 OA
ENDBRANCH  65  66
ENDBRANCH  39  60
ENDBRANCH  13  14
ENDBRANCH   6   8
ENDBRANCH   3   4
ENDBRANCH   2   3
ENDBRANCH   1   2
BRANCH   1  70
ATOM     70  C   UNL A   1      33.877  21.719  26.819  1.00  0.00     0.002 C 
BRANCH  70  71
ATOM     71  C   UNL A   1      33.195  20.889  25.728  1.00  0.00     0.021 C 
BRANCH  71  72
ATOM     72  C   UNL A   1      31.969  21.569  25.115  1.00  0.00     0.116 C 
BRANCH  72  73
ATOM     73  N   UNL A   1      31.032  21.972  26.140  1.00  0.00    -0.356 N 
ATOM     74  C   UNL A   1      30.566  23.180  26.522  1.00  0.00     0.223 C 
ATOM     75  H   UNL A   1      30.663  21.221  26.658  1.00  0.00     0.163 HD
ATOM     76  O   UNL A   1      29.810  23.197  27.500  1.00  0.00    -0.275 OA
BRANCH  74  77
ATOM     77  C   UNL A   1      30.892  24.494  25.809  1.00  0.00     0.092 C 
BRANCH  77  78
ATOM     78  C   UNL A   1      32.306  25.056  26.108  1.00  0.00     0.050 C 
BRANCH  78  79
ATOM     79  C   UNL A   1      32.802  26.475  25.882  1.00  0.00    -0.033 A 
ATOM     80  C   UNL A   1      32.779  27.464  26.875  1.00  0.00     0.005 A 
ATOM     81  C   UNL A   1      33.431  26.827  24.663  1.00  0.00     0.021 A 
ATOM     82  C   UNL A   1      33.228  28.771  26.632  1.00  0.00     0.000 A 
ATOM     83  C   UNL A   1      33.901  28.128  24.426  1.00  0.00     0.016 A 
ATOM     84  Br  UNL A   1      33.761  25.566  23.270  1.00  0.00    -0.051 Br
ATOM     85  C   UNL A   1      33.777  29.107  25.404  1.00  0.00     0.001 A 
ENDBRANCH  78  79
ENDBRANCH  77  78
BRANCH  77  86
ATOM     86  C   UNL A   1      30.325  24.637  24.397  1.00  0.00     0.129 C 
BRANCH  86  87
ATOM     87  C   UNL A   1      29.745  26.013  24.125  1.00  0.00     0.389 C 
ATOM     88  F   UNL A   1      28.464  25.951  23.713  1.00  0.00    -0.171 F 
ATOM     89  F   UNL A   1      29.770  26.752  25.259  1.00  0.00    -0.171 F 
ATOM     90  F   UNL A   1      30.463  26.681  23.200  1.00  0.00    -0.171 F 
ENDBRANCH  86  87
ENDBRANCH  77  86
ENDBRANCH  74  77
ENDBRANCH  72  73
ENDBRANCH  71  72
ENDBRANCH  70  71
ENDBRANCH   1  70
TORSDOF 20
ENDMDL
MODEL 2
REMARK VINA RESULT:      -9.7      3.558      9.254
REMARK SMILES O=C(NCCCCCCNC(=O)[C@@H](Cc1ccccc1Br)CC(F)(F)F)c1ccc(-c2c3nc(c(-c4ccc(S(=O)(=O)[O-])cc4)c4ccc([nH]4)c(-c4ccc(S(=O)(=O)[O-])cc4)c4nc(c(-c5ccc(S(=O)(=O)[O-])cc5)c5ccc2[nH]5)C=C4)C=C3)cc1
REMARK SMILES IDX 6 1 5 2 4 3 3 4 1 5 2 6 27 8 28 9 86 10 29 11 85 12 30 13
REMARK SMILES IDX 31 14 32 15 79 16 33 17 84 18 78 19 80 20 34 21 83 22 77 23
REMARK SMILES IDX 76 24 35 26 65 27 46 28 64 29 47 30 50 31 63 32 81 33 48 34
REMARK SMILES IDX 49 35 62 37 82 38 51 39 36 40 37 41 45 42 38 43 44 44 39 45
REMARK SMILES IDX 40 46 41 47 42 48 43 49 66 50 67 51 75 52 68 53 74 54 69 55
REMARK SMILES IDX 70 56 71 57 72 58 73 59 52 60 53 61 61 62 54 63 60 64 55 65
REMARK SMILES IDX 56 66 57 67 58 68 59 69 7 70 8 71 9 72 10 73 11 74 12 76
REMARK SMILES IDX 13 77 14 78 15 79 16 80 20 81 17 82 19 83 21 84 18 85 22 86
REMARK SMILES IDX 23 87 24 88 25 89 26 90
REMARK H PARENT 3 7 80 25 50 36 10 75
REMARK Flexibility Score: inf
ROOT
ATOM      1  C   UNL A   1      32.639  29.332  24.471  1.00  0.00     0.002 C 
ENDROOT
BRANCH   1   2
ATOM      2  C   UNL A   1      33.301  28.327  25.419  1.00  0.00     0.021 C 
BRANCH   2   3
ATOM      3  C   UNL A   1      34.272  28.939  26.425  1.00  0.00     0.116 C 
BRANCH   3   4
ATOM      4  N   UNL A   1      33.952  30.329  26.716  1.00  0.00    -0.352 N 
ATOM      5  O   UNL A   1      33.918  32.247  27.891  1.00  0.00    -0.269 OA
ATOM      6  C   UNL A   1      34.488  31.189  27.645  1.00  0.00     0.251 C 
ATOM      7  H   UNL A   1      33.237  30.715  26.160  1.00  0.00     0.163 HD
BRANCH   6   8
ATOM      8  C   UNL A   1      35.738  30.840  28.358  1.00  0.00     0.039 A 
ATOM      9  C   UNL A   1      36.882  31.629  28.225  1.00  0.00     0.014 A 
ATOM     10  C   UNL A   1      35.753  29.731  29.209  1.00  0.00     0.014 A 
ATOM     11  C   UNL A   1      38.076  31.226  28.817  1.00  0.00     0.010 A 
ATOM     12  C   UNL A   1      36.933  29.377  29.873  1.00  0.00     0.010 A 
ATOM     13  C   UNL A   1      38.116  30.099  29.654  1.00  0.00    -0.014 A 
BRANCH  13  14
ATOM     14  C   UNL A   1      39.395  29.725  30.312  1.00  0.00     0.031 A 
ATOM     15  C   UNL A   1      39.834  30.387  31.591  1.00  0.00     0.074 A 
ATOM     16  C   UNL A   1      40.149  28.748  29.768  1.00  0.00     0.049 A 
ATOM     17  N   UNL A   1      40.887  30.133  32.329  1.00  0.00    -0.248 NA
ATOM     18  C   UNL A   1      38.993  31.478  32.106  1.00  0.00     0.031 C 
ATOM     19  C   UNL A   1      39.835  28.034  28.527  1.00  0.00     0.029 A 
ATOM     20  N   UNL A   1      41.313  28.165  30.198  1.00  0.00    -0.354 N 
ATOM     21  C   UNL A   1      40.849  31.046  33.377  1.00  0.00     0.074 A 
ATOM     22  C   UNL A   1      39.680  31.875  33.168  1.00  0.00     0.031 C 
ATOM     23  C   UNL A   1      40.748  27.072  28.329  1.00  0.00     0.029 A 
ATOM     24  C   UNL A   1      41.744  27.137  29.393  1.00  0.00     0.049 A 
ATOM     25  H   UNL A   1      41.795  28.455  31.007  1.00  0.00     0.167 HD
ATOM     26  C   UNL A   1      41.705  31.180  34.420  1.00  0.00     0.031 A 
ATOM     27  C   UNL A   1      42.820  26.334  29.493  1.00  0.00     0.031 A 
ATOM     28  C   UNL A   1      42.865  30.351  34.627  1.00  0.00     0.049 A 
ATOM     29  C   UNL A   1      43.760  26.511  30.652  1.00  0.00     0.074 A 
ATOM     30  C   UNL A   1      43.771  30.384  35.674  1.00  0.00     0.029 A 
ATOM     31  N   UNL A   1      43.284  29.344  33.770  1.00  0.00    -0.354 N 
ATOM     32  N   UNL A   1      43.681  27.353  31.654  1.00  0.00    -0.248 NA
ATOM     33  C   UNL A   1      44.927  25.622  30.697  1.00  0.00     0.031 C 
ATOM     34  C   UNL A   1      44.765  29.431  35.424  1.00  0.00     0.029 A 
ATOM     35  C   UNL A   1      44.445  28.763  34.253  1.00  0.00     0.049 A 
ATOM     36  H   UNL A   1      42.823  29.080  32.941  1.00  0.00     0.167 HD
ATOM     37  C   UNL A   1      44.774  27.077  32.465  1.00  0.00     0.074 A 
ATOM     38  C   UNL A   1      45.491  25.981  31.842  1.00  0.00     0.031 C 
ATOM     39  C   UNL A   1      45.149  27.674  33.623  1.00  0.00     0.031 A 
BRANCH  26  40
ATOM     40  C   UNL A   1      41.439  32.292  35.403  1.00  0.00    -0.014 A 
ATOM     41  C   UNL A   1      40.639  32.088  36.542  1.00  0.00     0.010 A 
ATOM     42  C   UNL A   1      42.028  33.554  35.200  1.00  0.00     0.010 A 
ATOM     43  C   UNL A   1      40.395  33.138  37.432  1.00  0.00     0.020 A 
ATOM     44  C   UNL A   1      41.809  34.598  36.102  1.00  0.00     0.020 A 
ATOM     45  C   UNL A   1      40.976  34.390  37.203  1.00  0.00     0.054 A 
BRANCH  45  46
ATOM     46  S   UNL A   1      40.644  35.734  38.375  1.00  0.00     0.124 S 
ATOM     47  O   UNL A   1      39.782  35.073  39.352  1.00  0.00    -0.237 OA
ATOM     48  O   UNL A   1      41.980  36.082  38.851  1.00  0.00    -0.237 OA
ATOM     49  O   UNL A   1      39.991  36.754  37.557  1.00  0.00    -0.744 OA
ENDBRANCH  45  46
ENDBRANCH  26  40
BRANCH  27  50
ATOM     50  C   UNL A   1      43.054  25.280  28.469  1.00  0.00    -0.014 A 
ATOM     51  C   UNL A   1      42.505  23.996  28.629  1.00  0.00     0.010 A 
ATOM     52  C   UNL A   1      43.805  25.566  27.314  1.00  0.00     0.010 A 
ATOM     53  C   UNL A   1      42.714  23.012  27.658  1.00  0.00     0.020 A 
ATOM     54  C   UNL A   1      43.990  24.594  26.328  1.00  0.00     0.020 A 
ATOM     55  C   UNL A   1      43.453  23.319  26.511  1.00  0.00     0.054 A 
BRANCH  55  56
ATOM     56  S   UNL A   1      43.661  22.045  25.237  1.00  0.00     0.124 S 
ATOM     57  O   UNL A   1      42.600  21.102  25.577  1.00  0.00    -0.237 OA
ATOM     58  O   UNL A   1      43.464  22.800  24.002  1.00  0.00    -0.237 OA
ATOM     59  O   UNL A   1      45.022  21.565  25.455  1.00  0.00    -0.744 OA
ENDBRANCH  55  56
ENDBRANCH  27  50
BRANCH  39  60
ATOM     60  C   UNL A   1      46.363  27.120  34.320  1.00  0.00    -0.014 A 
ATOM     61  C   UNL A   1      46.271  26.030  35.202  1.00  0.00     0.010 A 
ATOM     62  C   UNL A   1      47.624  27.688  34.061  1.00  0.00     0.010 A 
ATOM     63  C   UNL A   1      47.412  25.545  35.847  1.00  0.00     0.020 A 
ATOM     64  C   UNL A   1      48.771  27.188  34.681  1.00  0.00     0.020 A 
ATOM     65  C   UNL A   1      48.655  26.131  35.585  1.00  0.00     0.054 A 
BRANCH  65  66
ATOM     66  S   UNL A   1      50.127  25.471  36.415  1.00  0.00     0.124 S 
ATOM     67  O   UNL A   1      50.622  26.643  37.132  1.00  0.00    -0.237 OA
ATOM     68  O   UNL A   1      49.575  24.409  37.253  1.00  0.00    -0.237 OA
ATOM     69  O   UNL A   1      50.969  25.013  35.312  1.00  0.00    -0.744 OA
ENDBRANCH  65  66
ENDBRANCH  39  60
ENDBRANCH  13  14
ENDBRANCH   6   8
ENDBRANCH   3   4
ENDBRANCH   2   3
ENDBRANCH   1   2
BRANCH   1  70
ATOM     70  C   UNL A   1      31.163  29.066  24.147  1.00  0.00     0.002 C 
BRANCH  70  71
ATOM     71  C   UNL A   1      30.728  27.602  24.266  1.00  0.00     0.021 C 
BRANCH  71  72
ATOM     72  C   UNL A   1      30.526  26.911  22.916  1.00  0.00     0.116 C 
BRANCH  72  73
ATOM     73  N   UNL A   1      31.785  26.745  22.225  1.00  0.00    -0.356 N 
ATOM     74  C   UNL A   1      32.812  25.887  22.400  1.00  0.00     0.223 C 
ATOM     75  H   UNL A   1      31.917  27.378  21.483  1.00  0.00     0.163 HD
ATOM     76  O   UNL A   1      33.799  26.050  21.673  1.00  0.00    -0.275 OA
BRANCH  74  77
ATOM     77  C   UNL A   1      32.810  24.734  23.406  1.00  0.00     0.092 C 
BRANCH  77  78
ATOM     78  C   UNL A   1      33.272  23.371  22.827  1.00  0.00     0.050 C 
BRANCH  78  79
ATOM     79  C   UNL A   1      33.438  22.060  23.576  1.00  0.00    -0.033 A 
ATOM     80  C   UNL A   1      32.462  21.053  23.591  1.00  0.00     0.005 A 
ATOM     81  C   UNL A   1      34.668  21.748  24.205  1.00  0.00     0.021 A 
ATOM     82  C   UNL A   1      32.638  19.859  24.306  1.00  0.00     0.000 A 
ATOM     83  C   UNL A   1      34.854  20.543  24.902  1.00  0.00     0.016 A 
ATOM     84  Br  UNL A   1      36.196  22.887  24.109  1.00  0.00    -0.051 Br
ATOM     85  C   UNL A   1      33.828  19.609  24.973  1.00  0.00     0.001 A 
ENDBRANCH  78  79
ENDBRANCH  77  78
BRANCH  77  86
ATOM     86  C   UNL A   1      33.212  25.103  24.834  1.00  0.00     0.129 C 
BRANCH  86  87
ATOM     87  C   UNL A   1      32.251  24.568  25.880  1.00  0.00     0.389 C 
ATOM     88  F   UNL A   1      31.107  24.115  25.332  1.00  0.00    -0.171 F 
ATOM     89  F   UNL A   1      32.823  23.535  26.540  1.00  0.00    -0.171 F 
ATOM     90  F   UNL A   1      31.946  25.507  26.798  1.00  0.00    -0.171 F 
ENDBRANCH  86  87
ENDBRANCH  77  86
ENDBRANCH  74  77
ENDBRANCH  72  73
ENDBRANCH  71  72
ENDBRANCH  70  71
ENDBRANCH   1  70
TORSDOF 20
ENDMDL
MODEL 3
REMARK VINA RESULT:      -9.7      2.940      9.085
REMARK SMILES O=C(NCCCCCCNC(=O)[C@@H](Cc1ccccc1Br)CC(F)(F)F)c1ccc(-c2c3nc(c(-c4ccc(S(=O)(=O)[O-])cc4)c4ccc([nH]4)c(-c4ccc(S(=O)(=O)[O-])cc4)c4nc(c(-c5ccc(S(=O)(=O)[O-])cc5)c5ccc2[nH]5)C=C4)C=C3)cc1
REMARK SMILES IDX 6 1 5 2 4 3 3 4 1 5 2 6 27 8 28 9 86 10 29 11 85 12 30 13
REMARK SMILES IDX 31 14 32 15 79 16 33 17 84 18 78 19 80 20 34 21 83 22 77 23
REMARK SMILES IDX 76 24 35 26 65 27 46 28 64 29 47 30 50 31 63 32 81 33 48 34
REMARK SMILES IDX 49 35 62 37 82 38 51 39 36 40 37 41 45 42 38 43 44 44 39 45
REMARK SMILES IDX 40 46 41 47 42 48 43 49 66 50 67 51 75 52 68 53 74 54 69 55
REMARK SMILES IDX 70 56 71 57 72 58 73 59 52 60 53 61 61 62 54 63 60 64 55 65
REMARK SMILES IDX 56 66 57 67 58 68 59 69 7 70 8 71 9 72 10 73 11 74 12 76
REMARK SMILES IDX 13 77 14 78 15 79 16 80 20 81 17 82 19 83 21 84 18 85 22 86
REMARK SMILES IDX 23 87 24 88 25 89 26 90
REMARK H PARENT 3 7 80 25 50 36 10 75
REMARK Flexibility Score: inf
ROOT
ATOM      1  C   UNL A   1      32.001  29.405  25.366  1.00  0.00     0.002 C 
ENDROOT
BRANCH   1   2
ATOM      2  C   UNL A   1      32.761  28.207  25.946  1.00  0.00     0.021 C 
BRANCH   2   3
ATOM      3  C   UNL A   1      33.837  28.566  26.968  1.00  0.00     0.116 C 
BRANCH   3   4
ATOM      4  N   UNL A   1      33.664  29.911  27.495  1.00  0.00    -0.352 N 
ATOM      5  O   UNL A   1      34.064  31.690  28.812  1.00  0.00    -0.269 OA
ATOM      6  C   UNL A   1      34.496  30.672  28.280  1.00  0.00     0.251 C 
ATOM      7  H   UNL A   1      32.814  30.345  27.251  1.00  0.00     0.163 HD
BRANCH   6   8
ATOM      8  C   UNL A   1      35.904  30.266  28.497  1.00  0.00     0.039 A 
ATOM      9  C   UNL A   1      36.314  29.731  29.719  1.00  0.00     0.014 A 
ATOM     10  C   UNL A   1      36.818  30.382  27.446  1.00  0.00     0.014 A 
ATOM     11  C   UNL A   1      37.661  29.455  29.938  1.00  0.00     0.010 A 
ATOM     12  C   UNL A   1      38.156  30.021  27.642  1.00  0.00     0.010 A 
ATOM     13  C   UNL A   1      38.598  29.590  28.901  1.00  0.00    -0.014 A 
BRANCH  13  14
ATOM     14  C   UNL A   1      40.021  29.239  29.153  1.00  0.00     0.031 A 
ATOM     15  C   UNL A   1      40.948  30.200  29.848  1.00  0.00     0.074 A 
ATOM     16  C   UNL A   1      40.468  28.021  28.785  1.00  0.00     0.049 A 
ATOM     17  N   UNL A   1      42.196  30.026  30.204  1.00  0.00    -0.248 NA
ATOM     18  C   UNL A   1      40.411  31.529  30.180  1.00  0.00     0.031 C 
ATOM     19  C   UNL A   1      39.669  27.002  28.097  1.00  0.00     0.029 A 
ATOM     20  N   UNL A   1      41.688  27.421  28.960  1.00  0.00    -0.354 N 
ATOM     21  C   UNL A   1      42.602  31.227  30.777  1.00  0.00     0.074 A 
ATOM     22  C   UNL A   1      41.473  32.129  30.701  1.00  0.00     0.031 C 
ATOM     23  C   UNL A   1      40.400  25.886  27.963  1.00  0.00     0.029 A 
ATOM     24  C   UNL A   1      41.735  26.125  28.501  1.00  0.00     0.049 A 
ATOM     25  H   UNL A   1      42.458  27.874  29.375  1.00  0.00     0.167 HD
ATOM     26  C   UNL A   1      43.803  31.547  31.319  1.00  0.00     0.031 A 
ATOM     27  C   UNL A   1      42.737  25.227  28.506  1.00  0.00     0.031 A 
ATOM     28  C   UNL A   1      44.924  30.645  31.396  1.00  0.00     0.049 A 
ATOM     29  C   UNL A   1      44.062  25.611  29.103  1.00  0.00     0.074 A 
ATOM     30  C   UNL A   1      46.168  30.865  31.962  1.00  0.00     0.029 A 
ATOM     31  N   UNL A   1      44.939  29.354  30.889  1.00  0.00    -0.354 N 
ATOM     32  N   UNL A   1      44.409  26.738  29.675  1.00  0.00    -0.248 NA
ATOM     33  C   UNL A   1      45.124  24.598  29.061  1.00  0.00     0.031 C 
ATOM     34  C   UNL A   1      46.953  29.725  31.752  1.00  0.00     0.029 A 
ATOM     35  C   UNL A   1      46.178  28.773  31.110  1.00  0.00     0.049 A 
ATOM     36  H   UNL A   1      44.182  28.915  30.439  1.00  0.00     0.167 HD
ATOM     37  C   UNL A   1      45.724  26.560  30.089  1.00  0.00     0.074 A 
ATOM     38  C   UNL A   1      46.103  25.213  29.710  1.00  0.00     0.031 C 
ATOM     39  C   UNL A   1      46.543  27.432  30.727  1.00  0.00     0.031 A 
BRANCH  26  40
ATOM     40  C   UNL A   1      43.980  32.951  31.842  1.00  0.00    -0.014 A 
ATOM     41  C   UNL A   1      43.684  33.279  33.176  1.00  0.00     0.010 A 
ATOM     42  C   UNL A   1      44.484  33.950  30.989  1.00  0.00     0.010 A 
ATOM     43  C   UNL A   1      43.843  34.590  33.635  1.00  0.00     0.020 A 
ATOM     44  C   UNL A   1      44.670  35.256  31.451  1.00  0.00     0.020 A 
ATOM     45  C   UNL A   1      44.329  35.573  32.766  1.00  0.00     0.054 A 
BRANCH  45  46
ATOM     46  S   UNL A   1      44.527  37.266  33.387  1.00  0.00     0.124 S 
ATOM     47  O   UNL A   1      43.369  37.937  32.800  1.00  0.00    -0.237 OA
ATOM     48  O   UNL A   1      44.477  37.084  34.836  1.00  0.00    -0.237 OA
ATOM     49  O   UNL A   1      45.823  37.681  32.857  1.00  0.00    -0.744 OA
ENDBRANCH  45  46
ENDBRANCH  26  40
BRANCH  27  50
ATOM     50  C   UNL A   1      42.516  23.869  27.938  1.00  0.00    -0.014 A 
ATOM     51  C   UNL A   1      42.241  22.779  28.782  1.00  0.00     0.010 A 
ATOM     52  C   UNL A   1      42.553  23.667  26.546  1.00  0.00     0.010 A 
ATOM     53  C   UNL A   1      42.020  21.508  28.245  1.00  0.00     0.020 A 
ATOM     54  C   UNL A   1      42.302  22.404  26.005  1.00  0.00     0.020 A 
ATOM     55  C   UNL A   1      42.047  21.329  26.858  1.00  0.00     0.054 A 
BRANCH  55  56
ATOM     56  S   UNL A   1      41.697  19.684  26.180  1.00  0.00     0.124 S 
ATOM     57  O   UNL A   1      41.978  18.820  27.323  1.00  0.00    -0.237 OA
ATOM     58  O   UNL A   1      40.291  19.792  25.800  1.00  0.00    -0.237 OA
ATOM     59  O   UNL A   1      42.630  19.570  25.063  1.00  0.00    -0.744 OA
ENDBRANCH  55  56
ENDBRANCH  27  50
BRANCH  39  60
ATOM     60  C   UNL A   1      47.914  26.938  31.103  1.00  0.00    -0.014 A 
ATOM     61  C   UNL A   1      48.117  26.118  32.226  1.00  0.00     0.010 A 
ATOM     62  C   UNL A   1      49.014  27.282  30.295  1.00  0.00     0.010 A 
ATOM     63  C   UNL A   1      49.404  25.685  32.560  1.00  0.00     0.020 A 
ATOM     64  C   UNL A   1      50.297  26.829  30.610  1.00  0.00     0.020 A 
ATOM     65  C   UNL A   1      50.487  26.048  31.751  1.00  0.00     0.054 A 
BRANCH  65  66
ATOM     66  S   UNL A   1      52.144  25.456  32.190  1.00  0.00     0.124 S 
ATOM     67  O   UNL A   1      51.882  24.070  32.567  1.00  0.00    -0.237 OA
ATOM     68  O   UNL A   1      52.890  25.638  30.947  1.00  0.00    -0.237 OA
ATOM     69  O   UNL A   1      52.546  26.335  33.285  1.00  0.00    -0.744 OA
ENDBRANCH  65  66
ENDBRANCH  39  60
ENDBRANCH  13  14
ENDBRANCH   6   8
ENDBRANCH   3   4
ENDBRANCH   2   3
ENDBRANCH   1   2
BRANCH   1  70
ATOM     70  C   UNL A   1      31.047  29.088  24.208  1.00  0.00     0.002 C 
BRANCH  70  71
ATOM     71  C   UNL A   1      30.494  27.659  24.197  1.00  0.00     0.021 C 
BRANCH  71  72
ATOM     72  C   UNL A   1      30.636  26.957  22.845  1.00  0.00     0.116 C 
BRANCH  72  73
ATOM     73  N   UNL A   1      31.899  27.282  22.221  1.00  0.00    -0.356 N 
ATOM     74  C   UNL A   1      33.110  26.687  22.254  1.00  0.00     0.223 C 
ATOM     75  H   UNL A   1      31.869  28.094  21.664  1.00  0.00     0.163 HD
ATOM     76  O   UNL A   1      34.026  27.263  21.657  1.00  0.00    -0.275 OA
BRANCH  74  77
ATOM     77  C   UNL A   1      33.396  25.355  22.951  1.00  0.00     0.092 C 
BRANCH  77  78
ATOM     78  C   UNL A   1      33.839  25.484  24.432  1.00  0.00     0.050 C 
BRANCH  78  79
ATOM     79  C   UNL A   1      33.604  24.487  25.555  1.00  0.00    -0.033 A 
ATOM     80  C   UNL A   1      32.348  24.267  26.138  1.00  0.00     0.005 A 
ATOM     81  C   UNL A   1      34.651  23.635  25.984  1.00  0.00     0.021 A 
ATOM     82  C   UNL A   1      32.165  23.352  27.185  1.00  0.00     0.000 A 
ATOM     83  C   UNL A   1      34.464  22.702  27.017  1.00  0.00     0.016 A 
ATOM     84  Br  UNL A   1      36.373  23.621  25.165  1.00  0.00    -0.051 Br
ATOM     85  C   UNL A   1      33.226  22.579  27.635  1.00  0.00     0.001 A 
ENDBRANCH  78  79
ENDBRANCH  77  78
BRANCH  77  86
ATOM     86  C   UNL A   1      32.488  24.192  22.551  1.00  0.00     0.129 C 
BRANCH  86  87
ATOM     87  C   UNL A   1      33.235  22.881  22.392  1.00  0.00     0.389 C 
ATOM     88  F   UNL A   1      32.880  22.228  21.269  1.00  0.00    -0.171 F 
ATOM     89  F   UNL A   1      34.565  23.119  22.321  1.00  0.00    -0.171 F 
ATOM     90  F   UNL A   1      33.033  22.064  23.446  1.00  0.00    -0.171 F 
ENDBRANCH  86  87
ENDBRANCH  77  86
ENDBRANCH  74  77
ENDBRANCH  72  73
ENDBRANCH  71  72
ENDBRANCH  70  71
ENDBRANCH   1  70
TORSDOF 20
ENDMDL
