MODEL 1
REMARK VINA RESULT:      -9.5      0.000      0.000
REMARK SMILES O=C(C[C@H]1C(=O)N[NH+]=C2c3ccc(F)cc3N=CN21)NCCCCCCNC(=O)c1ccc(-c2c3nc(c(-c4ccc(S(=O)(=O)[O-])cc4)c4ccc([nH]4)c(-c4ccc(S(=O)(=O)[O-])cc4)c4nc(c(-c5ccc(S(=O)(=O)[O-])cc5)c5ccc2[nH]5)C=C4)C=C3)cc1
REMARK SMILES IDX 24 1 23 2 22 3 21 4 20 5 1 6 2 7 3 9 4 10 5 11 19 12 6 13
REMARK SMILES IDX 7 14 9 15 18 16 8 17 10 19 17 20 11 22 16 23 12 24 15 25
REMARK SMILES IDX 13 26 14 27 25 28 26 29 27 30 28 31 29 33 30 34 31 35 89 36
REMARK SMILES IDX 32 37 88 38 33 39 34 40 35 41 82 42 36 43 87 44 81 45 83 46
REMARK SMILES IDX 37 47 86 48 80 49 79 50 38 52 68 53 49 54 67 55 50 56 53 57
REMARK SMILES IDX 66 58 84 59 51 60 52 61 65 63 85 64 54 65 39 66 40 67 48 68
REMARK SMILES IDX 41 69 47 70 42 71 43 72 44 73 45 74 46 75 69 76 70 77 78 78
REMARK SMILES IDX 71 79 77 80 72 81 73 82 74 83 75 84 76 85 55 86 56 87 64 88
REMARK SMILES IDX 57 89 63 90 58 91 59 92 60 93 61 94 62 95
REMARK H PARENT 20 8 7 18 8 21 27 32 83 51 53 62
REMARK Flexibility Score: inf
ROOT
ATOM      1  C   UNL A   1      35.519  33.699  31.445  1.00  0.00     0.002 C 
ENDROOT
BRANCH   1   2
ATOM      2  C   UNL A   1      35.147  32.957  32.734  1.00  0.00     0.002 C 
BRANCH   2   3
ATOM      3  C   UNL A   1      34.868  33.850  33.949  1.00  0.00     0.021 C 
BRANCH   3   4
ATOM      4  C   UNL A   1      35.977  33.841  35.000  1.00  0.00     0.116 C 
BRANCH   4   5
ATOM      5  N   UNL A   1      36.989  32.840  34.701  1.00  0.00    -0.356 N 
ATOM      6  O   UNL A   1      38.750  34.175  35.304  1.00  0.00    -0.275 OA
ATOM      7  C   UNL A   1      38.326  33.147  34.787  1.00  0.00     0.224 C 
ATOM      8  H   UNL A   1      36.714  31.933  34.434  1.00  0.00     0.163 HD
BRANCH   7   9
ATOM      9  C   UNL A   1      39.259  32.140  34.162  1.00  0.00     0.160 C 
BRANCH   9  10
ATOM     10  C   UNL A   1      39.005  30.720  34.678  1.00  0.00     0.284 C 
ATOM     11  C   UNL A   1      38.329  29.946  33.551  1.00  0.00     0.300 C 
ATOM     12  N   UNL A   1      40.246  30.081  35.145  1.00  0.00    -0.203 N 
ATOM     13  O   UNL A   1      37.240  30.295  33.088  1.00  0.00    -0.267 OA
ATOM     14  N   UNL A   1      38.987  28.864  33.032  1.00  0.00    -0.193 N 
ATOM     15  C   UNL A   1      40.762  29.006  34.437  1.00  0.00     0.309 C 
ATOM     16  C   UNL A   1      40.879  30.567  36.270  1.00  0.00     0.317 C 
ATOM     17  N   UNL A   1      40.197  28.405  33.433  1.00  0.00    -0.169 N 
ATOM     18  H   UNL A   1      38.542  28.377  32.301  1.00  0.00     0.216 HD
ATOM     19  C   UNL A   1      42.099  28.514  34.894  1.00  0.00     0.092 A 
ATOM     20  N   UNL A   1      42.018  30.168  36.736  1.00  0.00    -0.216 NA
ATOM     21  H   UNL A   1      40.629  27.645  32.982  1.00  0.00     0.340 HD
ATOM     22  C   UNL A   1      42.779  27.489  34.222  1.00  0.00     0.022 A 
ATOM     23  C   UNL A   1      42.673  29.155  36.008  1.00  0.00     0.085 A 
ATOM     24  C   UNL A   1      44.055  27.123  34.646  1.00  0.00     0.040 A 
ATOM     25  C   UNL A   1      43.953  28.777  36.417  1.00  0.00     0.068 A 
ATOM     26  C   UNL A   1      44.633  27.777  35.730  1.00  0.00     0.125 A 
ATOM     27  F   UNL A   1      45.870  27.435  36.117  1.00  0.00    -0.207 F 
ENDBRANCH   9  10
ENDBRANCH   7   9
ENDBRANCH   4   5
ENDBRANCH   3   4
ENDBRANCH   2   3
ENDBRANCH   1   2
BRANCH   1  28
ATOM     28  C   UNL A   1      34.478  33.642  30.324  1.00  0.00     0.021 C 
BRANCH  28  29
ATOM     29  C   UNL A   1      34.995  33.126  28.984  1.00  0.00     0.116 C 
BRANCH  29  30
ATOM     30  N   UNL A   1      34.085  32.179  28.356  1.00  0.00    -0.352 N 
ATOM     31  C   UNL A   1      34.327  30.895  27.923  1.00  0.00     0.251 C 
ATOM     32  H   UNL A   1      33.164  32.503  28.221  1.00  0.00     0.163 HD
ATOM     33  O   UNL A   1      33.471  30.289  27.283  1.00  0.00    -0.269 OA
BRANCH  31  34
ATOM     34  C   UNL A   1      35.637  30.262  28.199  1.00  0.00     0.039 A 
ATOM     35  C   UNL A   1      35.908  29.705  29.449  1.00  0.00     0.014 A 
ATOM     36  C   UNL A   1      36.617  30.260  27.202  1.00  0.00     0.014 A 
ATOM     37  C   UNL A   1      37.204  29.306  29.759  1.00  0.00     0.010 A 
ATOM     38  C   UNL A   1      37.900  29.781  27.491  1.00  0.00     0.010 A 
ATOM     39  C   UNL A   1      38.219  29.349  28.788  1.00  0.00    -0.014 A 
BRANCH  39  40
ATOM     40  C   UNL A   1      39.603  28.949  29.159  1.00  0.00     0.031 A 
ATOM     41  C   UNL A   1      40.457  29.840  30.023  1.00  0.00     0.074 A 
ATOM     42  C   UNL A   1      40.068  27.745  28.771  1.00  0.00     0.049 A 
ATOM     43  N   UNL A   1      41.667  29.628  30.475  1.00  0.00    -0.248 NA
ATOM     44  C   UNL A   1      39.883  31.132  30.438  1.00  0.00     0.031 C 
ATOM     45  C   UNL A   1      39.325  26.783  27.954  1.00  0.00     0.029 A 
ATOM     46  N   UNL A   1      41.254  27.108  29.038  1.00  0.00    -0.354 N 
ATOM     47  C   UNL A   1      42.002  30.756  31.217  1.00  0.00     0.074 A 
ATOM     48  C   UNL A   1      40.882  31.667  31.129  1.00  0.00     0.031 C 
ATOM     49  C   UNL A   1      40.045  25.657  27.840  1.00  0.00     0.029 A 
ATOM     50  C   UNL A   1      41.328  25.838  28.515  1.00  0.00     0.049 A 
ATOM     51  H   UNL A   1      41.984  27.521  29.555  1.00  0.00     0.167 HD
ATOM     52  C   UNL A   1      43.133  31.001  31.921  1.00  0.00     0.031 A 
ATOM     53  C   UNL A   1      42.312  24.918  28.561  1.00  0.00     0.031 A 
ATOM     54  C   UNL A   1      44.240  30.085  32.015  1.00  0.00     0.049 A 
ATOM     55  C   UNL A   1      43.579  25.235  29.303  1.00  0.00     0.074 A 
ATOM     56  C   UNL A   1      45.425  30.248  32.712  1.00  0.00     0.029 A 
ATOM     57  N   UNL A   1      44.303  28.841  31.407  1.00  0.00    -0.354 N 
ATOM     58  N   UNL A   1      43.876  26.310  29.992  1.00  0.00    -0.248 NA
ATOM     59  C   UNL A   1      44.643  24.223  29.272  1.00  0.00     0.031 C 
ATOM     60  C   UNL A   1      46.227  29.129  32.478  1.00  0.00     0.029 A 
ATOM     61  C   UNL A   1      45.515  28.237  31.691  1.00  0.00     0.049 A 
ATOM     62  H   UNL A   1      43.589  28.446  30.854  1.00  0.00     0.167 HD
ATOM     63  C   UNL A   1      45.161  26.103  30.480  1.00  0.00     0.074 A 
ATOM     64  C   UNL A   1      45.574  24.791  30.029  1.00  0.00     0.031 C 
ATOM     65  C   UNL A   1      45.925  26.934  31.230  1.00  0.00     0.031 A 
BRANCH  52  66
ATOM     66  C   UNL A   1      43.247  32.309  32.659  1.00  0.00    -0.014 A 
ATOM     67  C   UNL A   1      42.947  32.367  34.033  1.00  0.00     0.010 A 
ATOM     68  C   UNL A   1      43.526  33.503  31.971  1.00  0.00     0.010 A 
ATOM     69  C   UNL A   1      42.892  33.595  34.698  1.00  0.00     0.020 A 
ATOM     70  C   UNL A   1      43.498  34.731  32.638  1.00  0.00     0.020 A 
ATOM     71  C   UNL A   1      43.159  34.771  33.993  1.00  0.00     0.054 A 
BRANCH  71  72
ATOM     72  S   UNL A   1      43.059  36.358  34.866  1.00  0.00     0.124 S 
ATOM     73  O   UNL A   1      43.110  37.318  33.768  1.00  0.00    -0.237 OA
ATOM     74  O   UNL A   1      41.778  36.261  35.563  1.00  0.00    -0.237 OA
ATOM     75  O   UNL A   1      44.232  36.341  35.738  1.00  0.00    -0.744 OA
ENDBRANCH  71  72
ENDBRANCH  52  66
BRANCH  53  76
ATOM     76  C   UNL A   1      42.106  23.609  27.886  1.00  0.00    -0.014 A 
ATOM     77  C   UNL A   1      41.625  22.503  28.612  1.00  0.00     0.010 A 
ATOM     78  C   UNL A   1      42.487  23.430  26.544  1.00  0.00     0.010 A 
ATOM     79  C   UNL A   1      41.593  21.233  28.035  1.00  0.00     0.020 A 
ATOM     80  C   UNL A   1      42.428  22.163  25.953  1.00  0.00     0.020 A 
ATOM     81  C   UNL A   1      42.014  21.068  26.714  1.00  0.00     0.054 A 
BRANCH  81  82
ATOM     82  S   UNL A   1      42.030  19.398  26.006  1.00  0.00     0.124 S 
ATOM     83  O   UNL A   1      40.624  19.210  25.656  1.00  0.00    -0.237 OA
ATOM     84  O   UNL A   1      42.946  19.536  24.877  1.00  0.00    -0.237 OA
ATOM     85  O   UNL A   1      42.518  18.567  27.103  1.00  0.00    -0.744 OA
ENDBRANCH  81  82
ENDBRANCH  53  76
BRANCH  65  86
ATOM     86  C   UNL A   1      47.306  26.475  31.615  1.00  0.00    -0.014 A 
ATOM     87  C   UNL A   1      48.369  26.618  30.703  1.00  0.00     0.010 A 
ATOM     88  C   UNL A   1      47.522  25.776  32.815  1.00  0.00     0.010 A 
ATOM     89  C   UNL A   1      49.612  26.036  30.967  1.00  0.00     0.020 A 
ATOM     90  C   UNL A   1      48.772  25.216  33.095  1.00  0.00     0.020 A 
ATOM     91  C   UNL A   1      49.801  25.328  32.156  1.00  0.00     0.054 A 
BRANCH  91  92
ATOM     92  S   UNL A   1      51.407  24.541  32.462  1.00  0.00     0.124 S 
ATOM     93  O   UNL A   1      51.138  23.149  32.118  1.00  0.00    -0.237 OA
ATOM     94  O   UNL A   1      52.294  25.256  31.548  1.00  0.00    -0.237 OA
ATOM     95  O   UNL A   1      51.649  24.799  33.880  1.00  0.00    -0.744 OA
ENDBRANCH  91  92
ENDBRANCH  65  86
ENDBRANCH  39  40
ENDBRANCH  31  34
ENDBRANCH  29  30
ENDBRANCH  28  29
ENDBRANCH   1  28
TORSDOF 17
ENDMDL
MODEL 2
REMARK VINA RESULT:      -8.8      0.835      8.061
REMARK SMILES O=C(C[C@H]1C(=O)N[NH+]=C2c3ccc(F)cc3N=CN21)NCCCCCCNC(=O)c1ccc(-c2c3nc(c(-c4ccc(S(=O)(=O)[O-])cc4)c4ccc([nH]4)c(-c4ccc(S(=O)(=O)[O-])cc4)c4nc(c(-c5ccc(S(=O)(=O)[O-])cc5)c5ccc2[nH]5)C=C4)C=C3)cc1
REMARK SMILES IDX 24 1 23 2 22 3 21 4 20 5 1 6 2 7 3 9 4 10 5 11 19 12 6 13
REMARK SMILES IDX 7 14 9 15 18 16 8 17 10 19 17 20 11 22 16 23 12 24 15 25
REMARK SMILES IDX 13 26 14 27 25 28 26 29 27 30 28 31 29 33 30 34 31 35 89 36
REMARK SMILES IDX 32 37 88 38 33 39 34 40 35 41 82 42 36 43 87 44 81 45 83 46
REMARK SMILES IDX 37 47 86 48 80 49 79 50 38 52 68 53 49 54 67 55 50 56 53 57
REMARK SMILES IDX 66 58 84 59 51 60 52 61 65 63 85 64 54 65 39 66 40 67 48 68
REMARK SMILES IDX 41 69 47 70 42 71 43 72 44 73 45 74 46 75 69 76 70 77 78 78
REMARK SMILES IDX 71 79 77 80 72 81 73 82 74 83 75 84 76 85 55 86 56 87 64 88
REMARK SMILES IDX 57 89 63 90 58 91 59 92 60 93 61 94 62 95
REMARK H PARENT 20 8 7 18 8 21 27 32 83 51 53 62
REMARK Flexibility Score: inf
ROOT
ATOM      1  C   UNL A   1      35.324  33.795  30.594  1.00  0.00     0.002 C 
ENDROOT
BRANCH   1   2
ATOM      2  C   UNL A   1      34.663  33.375  31.912  1.00  0.00     0.002 C 
BRANCH   2   3
ATOM      3  C   UNL A   1      34.606  34.461  32.993  1.00  0.00     0.021 C 
BRANCH   3   4
ATOM      4  C   UNL A   1      35.133  34.014  34.357  1.00  0.00     0.116 C 
BRANCH   4   5
ATOM      5  N   UNL A   1      36.297  33.153  34.224  1.00  0.00    -0.356 N 
ATOM      6  O   UNL A   1      37.782  34.886  34.019  1.00  0.00    -0.275 OA
ATOM      7  C   UNL A   1      37.535  33.686  33.957  1.00  0.00     0.224 C 
ATOM      8  H   UNL A   1      36.198  32.179  34.326  1.00  0.00     0.163 HD
BRANCH   7   9
ATOM      9  C   UNL A   1      38.588  32.689  33.539  1.00  0.00     0.160 C 
BRANCH   9  10
ATOM     10  C   UNL A   1      38.458  31.362  34.294  1.00  0.00     0.284 C 
ATOM     11  C   UNL A   1      37.755  30.381  33.361  1.00  0.00     0.300 C 
ATOM     12  N   UNL A   1      39.766  30.871  34.759  1.00  0.00    -0.203 N 
ATOM     13  O   UNL A   1      36.618  30.594  32.935  1.00  0.00    -0.267 OA
ATOM     14  N   UNL A   1      38.442  29.263  32.972  1.00  0.00    -0.193 N 
ATOM     15  C   UNL A   1      40.297  29.721  34.194  1.00  0.00     0.309 C 
ATOM     16  C   UNL A   1      40.444  31.566  35.738  1.00  0.00     0.317 C 
ATOM     17  N   UNL A   1      39.703  28.936  33.346  1.00  0.00    -0.169 N 
ATOM     18  H   UNL A   1      37.979  28.640  32.366  1.00  0.00     0.216 HD
ATOM     19  C   UNL A   1      41.691  29.379  34.618  1.00  0.00     0.092 A 
ATOM     20  N   UNL A   1      41.635  31.307  36.171  1.00  0.00    -0.216 NA
ATOM     21  H   UNL A   1      40.150  28.136  32.990  1.00  0.00     0.340 HD
ATOM     22  C   UNL A   1      42.385  28.293  34.067  1.00  0.00     0.022 A 
ATOM     23  C   UNL A   1      42.300  30.222  35.566  1.00  0.00     0.085 A 
ATOM     24  C   UNL A   1      43.708  28.066  34.443  1.00  0.00     0.040 A 
ATOM     25  C   UNL A   1      43.626  29.980  35.929  1.00  0.00     0.068 A 
ATOM     26  C   UNL A   1      44.317  28.916  35.360  1.00  0.00     0.125 A 
ATOM     27  F   UNL A   1      45.597  28.705  35.698  1.00  0.00    -0.207 F 
ENDBRANCH   9  10
ENDBRANCH   7   9
ENDBRANCH   4   5
ENDBRANCH   3   4
ENDBRANCH   2   3
ENDBRANCH   1   2
BRANCH   1  28
ATOM     28  C   UNL A   1      34.393  33.871  29.381  1.00  0.00     0.021 C 
BRANCH  28  29
ATOM     29  C   UNL A   1      34.867  33.103  28.150  1.00  0.00     0.116 C 
BRANCH  29  30
ATOM     30  N   UNL A   1      33.942  32.052  27.750  1.00  0.00    -0.352 N 
ATOM     31  C   UNL A   1      34.172  30.704  27.590  1.00  0.00     0.251 C 
ATOM     32  H   UNL A   1      33.020  32.348  27.569  1.00  0.00     0.163 HD
ATOM     33  O   UNL A   1      33.302  29.984  27.107  1.00  0.00    -0.269 OA
BRANCH  31  34
ATOM     34  C   UNL A   1      35.485  30.134  27.968  1.00  0.00     0.039 A 
ATOM     35  C   UNL A   1      35.705  29.651  29.258  1.00  0.00     0.014 A 
ATOM     36  C   UNL A   1      36.517  30.116  27.026  1.00  0.00     0.014 A 
ATOM     37  C   UNL A   1      36.995  29.314  29.656  1.00  0.00     0.010 A 
ATOM     38  C   UNL A   1      37.798  29.699  27.407  1.00  0.00     0.010 A 
ATOM     39  C   UNL A   1      38.059  29.344  28.739  1.00  0.00    -0.014 A 
BRANCH  39  40
ATOM     40  C   UNL A   1      39.434  29.014  29.203  1.00  0.00     0.031 A 
ATOM     41  C   UNL A   1      40.070  27.695  28.851  1.00  0.00     0.074 A 
ATOM     42  C   UNL A   1      40.138  29.937  29.887  1.00  0.00     0.049 A 
ATOM     43  N   UNL A   1      41.272  27.262  29.137  1.00  0.00    -0.248 NA
ATOM     44  C   UNL A   1      39.260  26.738  28.078  1.00  0.00     0.031 C 
ATOM     45  C   UNL A   1      39.639  31.262  30.265  1.00  0.00     0.029 A 
ATOM     46  N   UNL A   1      41.429  29.923  30.354  1.00  0.00    -0.354 N 
ATOM     47  C   UNL A   1      41.361  25.987  28.590  1.00  0.00     0.074 A 
ATOM     48  C   UNL A   1      40.080  25.699  27.982  1.00  0.00     0.031 C 
ATOM     49  C   UNL A   1      40.629  31.953  30.848  1.00  0.00     0.029 A 
ATOM     50  C   UNL A   1      41.813  31.102  30.949  1.00  0.00     0.049 A 
ATOM     51  H   UNL A   1      42.024  29.142  30.272  1.00  0.00     0.167 HD
ATOM     52  C   UNL A   1      42.419  25.142  28.579  1.00  0.00     0.031 A 
ATOM     53  C   UNL A   1      42.978  31.466  31.520  1.00  0.00     0.031 A 
ATOM     54  C   UNL A   1      43.696  25.439  29.176  1.00  0.00     0.049 A 
ATOM     55  C   UNL A   1      44.120  30.491  31.545  1.00  0.00     0.074 A 
ATOM     56  C   UNL A   1      44.828  24.643  29.208  1.00  0.00     0.029 A 
ATOM     57  N   UNL A   1      44.017  26.616  29.834  1.00  0.00    -0.354 N 
ATOM     58  N   UNL A   1      44.179  29.288  31.026  1.00  0.00    -0.248 NA
ATOM     59  C   UNL A   1      45.348  30.914  32.231  1.00  0.00     0.031 C 
ATOM     60  C   UNL A   1      45.813  25.313  29.935  1.00  0.00     0.029 A 
ATOM     61  C   UNL A   1      45.320  26.558  30.297  1.00  0.00     0.049 A 
ATOM     62  H   UNL A   1      43.407  27.380  29.953  1.00  0.00     0.167 HD
ATOM     63  C   UNL A   1      45.451  28.811  31.321  1.00  0.00     0.074 A 
ATOM     64  C   UNL A   1      46.137  29.864  32.041  1.00  0.00     0.031 C 
ATOM     65  C   UNL A   1      45.993  27.605  31.023  1.00  0.00     0.031 A 
BRANCH  52  66
ATOM     66  C   UNL A   1      42.262  23.806  27.901  1.00  0.00    -0.014 A 
ATOM     67  C   UNL A   1      41.802  22.697  28.636  1.00  0.00     0.010 A 
ATOM     68  C   UNL A   1      42.690  23.616  26.575  1.00  0.00     0.010 A 
ATOM     69  C   UNL A   1      41.802  21.419  28.070  1.00  0.00     0.020 A 
ATOM     70  C   UNL A   1      42.666  22.343  25.996  1.00  0.00     0.020 A 
ATOM     71  C   UNL A   1      42.243  21.249  26.755  1.00  0.00     0.054 A 
BRANCH  71  72
ATOM     72  S   UNL A   1      42.260  19.580  26.045  1.00  0.00     0.124 S 
ATOM     73  O   UNL A   1      40.860  19.387  25.678  1.00  0.00    -0.237 OA
ATOM     74  O   UNL A   1      43.193  19.716  24.928  1.00  0.00    -0.237 OA
ATOM     75  O   UNL A   1      42.741  18.746  27.145  1.00  0.00    -0.744 OA
ENDBRANCH  71  72
ENDBRANCH  52  66
BRANCH  53  76
ATOM     76  C   UNL A   1      43.102  32.832  32.097  1.00  0.00    -0.014 A 
ATOM     77  C   UNL A   1      43.549  33.902  31.299  1.00  0.00     0.010 A 
ATOM     78  C   UNL A   1      42.877  33.050  33.468  1.00  0.00     0.010 A 
ATOM     79  C   UNL A   1      43.834  35.144  31.870  1.00  0.00     0.020 A 
ATOM     80  C   UNL A   1      43.133  34.302  34.038  1.00  0.00     0.020 A 
ATOM     81  C   UNL A   1      43.642  35.330  33.240  1.00  0.00     0.054 A 
BRANCH  81  82
ATOM     82  S   UNL A   1      44.084  36.929  33.974  1.00  0.00     0.124 S 
ATOM     83  O   UNL A   1      44.794  37.575  32.872  1.00  0.00    -0.237 OA
ATOM     84  O   UNL A   1      42.783  37.501  34.306  1.00  0.00    -0.237 OA
ATOM     85  O   UNL A   1      44.911  36.561  35.120  1.00  0.00    -0.744 OA
ENDBRANCH  81  82
ENDBRANCH  53  76
BRANCH  65  86
ATOM     86  C   UNL A   1      47.400  27.327  31.480  1.00  0.00    -0.014 A 
ATOM     87  C   UNL A   1      48.481  27.607  30.623  1.00  0.00     0.010 A 
ATOM     88  C   UNL A   1      47.642  26.660  32.693  1.00  0.00     0.010 A 
ATOM     89  C   UNL A   1      49.773  27.189  30.953  1.00  0.00     0.020 A 
ATOM     90  C   UNL A   1      48.938  26.264  33.038  1.00  0.00     0.020 A 
ATOM     91  C   UNL A   1      49.990  26.509  32.153  1.00  0.00     0.054 A 
BRANCH  91  92
ATOM     92  S   UNL A   1      51.667  25.935  32.544  1.00  0.00     0.124 S 
ATOM     93  O   UNL A   1      51.433  25.060  33.689  1.00  0.00    -0.237 OA
ATOM     94  O   UNL A   1      52.073  25.264  31.311  1.00  0.00    -0.237 OA
ATOM     95  O   UNL A   1      52.391  27.169  32.839  1.00  0.00    -0.744 OA
ENDBRANCH  91  92
ENDBRANCH  65  86
ENDBRANCH  39  40
ENDBRANCH  31  34
ENDBRANCH  29  30
ENDBRANCH  28  29
ENDBRANCH   1  28
TORSDOF 17
ENDMDL
MODEL 3
REMARK VINA RESULT:      -8.7      5.189     12.148
REMARK SMILES O=C(C[C@H]1C(=O)N[NH+]=C2c3ccc(F)cc3N=CN21)NCCCCCCNC(=O)c1ccc(-c2c3nc(c(-c4ccc(S(=O)(=O)[O-])cc4)c4ccc([nH]4)c(-c4ccc(S(=O)(=O)[O-])cc4)c4nc(c(-c5ccc(S(=O)(=O)[O-])cc5)c5ccc2[nH]5)C=C4)C=C3)cc1
REMARK SMILES IDX 24 1 23 2 22 3 21 4 20 5 1 6 2 7 3 9 4 10 5 11 19 12 6 13
REMARK SMILES IDX 7 14 9 15 18 16 8 17 10 19 17 20 11 22 16 23 12 24 15 25
REMARK SMILES IDX 13 26 14 27 25 28 26 29 27 30 28 31 29 33 30 34 31 35 89 36
REMARK SMILES IDX 32 37 88 38 33 39 34 40 35 41 82 42 36 43 87 44 81 45 83 46
REMARK SMILES IDX 37 47 86 48 80 49 79 50 38 52 68 53 49 54 67 55 50 56 53 57
REMARK SMILES IDX 66 58 84 59 51 60 52 61 65 63 85 64 54 65 39 66 40 67 48 68
REMARK SMILES IDX 41 69 47 70 42 71 43 72 44 73 45 74 46 75 69 76 70 77 78 78
REMARK SMILES IDX 71 79 77 80 72 81 73 82 74 83 75 84 76 85 55 86 56 87 64 88
REMARK SMILES IDX 57 89 63 90 58 91 59 92 60 93 61 94 62 95
REMARK H PARENT 20 8 7 18 8 21 27 32 83 51 53 62
REMARK Flexibility Score: inf
ROOT
ATOM      1  C   UNL A   1      39.882  21.690  26.231  1.00  0.00     0.002 C 
ENDROOT
BRANCH   1   2
ATOM      2  C   UNL A   1      38.535  22.412  26.105  1.00  0.00     0.002 C 
BRANCH   2   3
ATOM      3  C   UNL A   1      37.586  21.849  25.040  1.00  0.00     0.021 C 
BRANCH   3   4
ATOM      4  C   UNL A   1      36.175  21.561  25.549  1.00  0.00     0.116 C 
BRANCH   4   5
ATOM      5  N   UNL A   1      35.186  22.393  24.881  1.00  0.00    -0.356 N 
ATOM      6  O   UNL A   1      34.328  23.251  26.825  1.00  0.00    -0.275 OA
ATOM      7  C   UNL A   1      34.261  23.102  25.610  1.00  0.00     0.224 C 
ATOM      8  H   UNL A   1      35.179  22.449  23.899  1.00  0.00     0.163 HD
BRANCH   7   9
ATOM      9  C   UNL A   1      33.113  23.669  24.812  1.00  0.00     0.160 C 
BRANCH   9  10
ATOM     10  C   UNL A   1      33.589  24.618  23.708  1.00  0.00     0.284 C 
ATOM     11  C   UNL A   1      33.292  23.941  22.374  1.00  0.00     0.300 C 
ATOM     12  N   UNL A   1      32.966  25.946  23.826  1.00  0.00    -0.203 N 
ATOM     13  O   UNL A   1      33.795  22.855  22.073  1.00  0.00    -0.267 OA
ATOM     14  N   UNL A   1      32.413  24.556  21.525  1.00  0.00    -0.193 N 
ATOM     15  C   UNL A   1      32.063  26.358  22.857  1.00  0.00     0.309 C 
ATOM     16  C   UNL A   1      33.280  26.752  24.900  1.00  0.00     0.317 C 
ATOM     17  N   UNL A   1      31.775  25.728  21.758  1.00  0.00    -0.169 N 
ATOM     18  H   UNL A   1      32.226  24.106  20.670  1.00  0.00     0.216 HD
ATOM     19  C   UNL A   1      31.367  27.654  23.133  1.00  0.00     0.092 A 
ATOM     20  N   UNL A   1      32.740  27.894  25.180  1.00  0.00    -0.216 NA
ATOM     21  H   UNL A   1      31.120  26.089  21.118  1.00  0.00     0.340 HD
ATOM     22  C   UNL A   1      30.371  28.153  22.283  1.00  0.00     0.022 A 
ATOM     23  C   UNL A   1      31.724  28.338  24.310  1.00  0.00     0.085 A 
ATOM     24  C   UNL A   1      29.703  29.327  22.628  1.00  0.00     0.040 A 
ATOM     25  C   UNL A   1      31.043  29.510  24.641  1.00  0.00     0.068 A 
ATOM     26  C   UNL A   1      30.038  29.987  23.807  1.00  0.00     0.125 A 
ATOM     27  F   UNL A   1      29.374  31.102  24.144  1.00  0.00    -0.207 F 
ENDBRANCH   9  10
ENDBRANCH   7   9
ENDBRANCH   4   5
ENDBRANCH   3   4
ENDBRANCH   2   3
ENDBRANCH   1   2
BRANCH   1  28
ATOM     28  C   UNL A   1      40.594  21.846  27.577  1.00  0.00     0.021 C 
BRANCH  28  29
ATOM     29  C   UNL A   1      41.356  23.155  27.760  1.00  0.00     0.116 C 
BRANCH  29  30
ATOM     30  N   UNL A   1      41.711  23.783  26.496  1.00  0.00    -0.352 N 
ATOM     31  C   UNL A   1      41.677  25.115  26.146  1.00  0.00     0.251 C 
ATOM     32  H   UNL A   1      42.019  23.169  25.790  1.00  0.00     0.163 HD
ATOM     33  O   UNL A   1      41.878  25.450  24.981  1.00  0.00    -0.269 OA
BRANCH  31  34
ATOM     34  C   UNL A   1      41.361  26.135  27.170  1.00  0.00     0.039 A 
ATOM     35  C   UNL A   1      42.062  27.341  27.213  1.00  0.00     0.014 A 
ATOM     36  C   UNL A   1      40.372  25.865  28.121  1.00  0.00     0.014 A 
ATOM     37  C   UNL A   1      41.900  28.194  28.299  1.00  0.00     0.010 A 
ATOM     38  C   UNL A   1      40.152  26.765  29.170  1.00  0.00     0.010 A 
ATOM     39  C   UNL A   1      40.951  27.912  29.297  1.00  0.00    -0.014 A 
BRANCH  39  40
ATOM     40  C   UNL A   1      40.825  28.824  30.466  1.00  0.00     0.031 A 
ATOM     41  C   UNL A   1      39.738  29.865  30.518  1.00  0.00     0.074 A 
ATOM     42  C   UNL A   1      41.654  28.666  31.517  1.00  0.00     0.049 A 
ATOM     43  N   UNL A   1      39.459  30.712  31.476  1.00  0.00    -0.248 NA
ATOM     44  C   UNL A   1      38.846  29.971  29.350  1.00  0.00     0.031 C 
ATOM     45  C   UNL A   1      42.729  27.674  31.596  1.00  0.00     0.029 A 
ATOM     46  N   UNL A   1      41.702  29.306  32.731  1.00  0.00    -0.354 N 
ATOM     47  C   UNL A   1      38.372  31.454  31.028  1.00  0.00     0.074 A 
ATOM     48  C   UNL A   1      38.059  30.982  29.697  1.00  0.00     0.031 C 
ATOM     49  C   UNL A   1      43.288  27.730  32.813  1.00  0.00     0.029 A 
ATOM     50  C   UNL A   1      42.661  28.804  33.580  1.00  0.00     0.049 A 
ATOM     51  H   UNL A   1      41.107  30.053  32.971  1.00  0.00     0.167 HD
ATOM     52  C   UNL A   1      37.686  32.426  31.674  1.00  0.00     0.031 A 
ATOM     53  C   UNL A   1      43.008  29.162  34.832  1.00  0.00     0.031 A 
ATOM     54  C   UNL A   1      37.994  32.884  33.005  1.00  0.00     0.049 A 
ATOM     55  C   UNL A   1      42.269  30.281  35.507  1.00  0.00     0.074 A 
ATOM     56  C   UNL A   1      37.348  33.863  33.740  1.00  0.00     0.029 A 
ATOM     57  N   UNL A   1      39.021  32.400  33.799  1.00  0.00    -0.354 N 
ATOM     58  N   UNL A   1      41.247  30.972  35.062  1.00  0.00    -0.248 NA
ATOM     59  C   UNL A   1      42.725  30.674  36.847  1.00  0.00     0.031 C 
ATOM     60  C   UNL A   1      38.020  34.010  34.956  1.00  0.00     0.029 A 
ATOM     61  C   UNL A   1      39.043  33.076  35.007  1.00  0.00     0.049 A 
ATOM     62  H   UNL A   1      39.643  31.681  33.542  1.00  0.00     0.167 HD
ATOM     63  C   UNL A   1      40.936  31.880  36.068  1.00  0.00     0.074 A 
ATOM     64  C   UNL A   1      41.862  31.633  37.155  1.00  0.00     0.031 C 
ATOM     65  C   UNL A   1      39.973  32.833  36.080  1.00  0.00     0.031 A 
BRANCH  52  66
ATOM     66  C   UNL A   1      36.523  33.074  30.967  1.00  0.00    -0.014 A 
ATOM     67  C   UNL A   1      36.733  33.756  29.754  1.00  0.00     0.010 A 
ATOM     68  C   UNL A   1      35.250  33.118  31.564  1.00  0.00     0.010 A 
ATOM     69  C   UNL A   1      35.703  34.496  29.167  1.00  0.00     0.020 A 
ATOM     70  C   UNL A   1      34.210  33.836  30.966  1.00  0.00     0.020 A 
ATOM     71  C   UNL A   1      34.450  34.540  29.783  1.00  0.00     0.054 A 
BRANCH  71  72
ATOM     72  S   UNL A   1      33.132  35.525  29.020  1.00  0.00     0.124 S 
ATOM     73  O   UNL A   1      32.428  34.531  28.216  1.00  0.00    -0.237 OA
ATOM     74  O   UNL A   1      32.401  36.034  30.179  1.00  0.00    -0.237 OA
ATOM     75  O   UNL A   1      33.862  36.541  28.263  1.00  0.00    -0.744 OA
ENDBRANCH  71  72
ENDBRANCH  52  66
BRANCH  53  76
ATOM     76  C   UNL A   1      44.109  28.428  35.513  1.00  0.00    -0.014 A 
ATOM     77  C   UNL A   1      43.822  27.315  36.326  1.00  0.00     0.010 A 
ATOM     78  C   UNL A   1      45.432  28.897  35.439  1.00  0.00     0.010 A 
ATOM     79  C   UNL A   1      44.821  26.727  37.104  1.00  0.00     0.020 A 
ATOM     80  C   UNL A   1      46.442  28.291  36.195  1.00  0.00     0.020 A 
ATOM     81  C   UNL A   1      46.121  27.232  37.048  1.00  0.00     0.054 A 
BRANCH  81  82
ATOM     82  S   UNL A   1      47.389  26.498  38.119  1.00  0.00     0.124 S 
ATOM     83  O   UNL A   1      46.731  26.533  39.423  1.00  0.00    -0.237 OA
ATOM     84  O   UNL A   1      47.569  25.170  37.541  1.00  0.00    -0.237 OA
ATOM     85  O   UNL A   1      48.526  27.402  37.967  1.00  0.00    -0.744 OA
ENDBRANCH  81  82
ENDBRANCH  53  76
BRANCH  65  86
ATOM     86  C   UNL A   1      39.857  33.710  37.299  1.00  0.00    -0.014 A 
ATOM     87  C   UNL A   1      39.208  33.225  38.450  1.00  0.00     0.010 A 
ATOM     88  C   UNL A   1      40.262  35.054  37.256  1.00  0.00     0.010 A 
ATOM     89  C   UNL A   1      38.930  34.080  39.519  1.00  0.00     0.020 A 
ATOM     90  C   UNL A   1      40.010  35.906  38.335  1.00  0.00     0.020 A 
ATOM     91  C   UNL A   1      39.321  35.418  39.449  1.00  0.00     0.054 A 
BRANCH  91  92
ATOM     92  S   UNL A   1      38.914  36.524  40.829  1.00  0.00     0.124 S 
ATOM     93  O   UNL A   1      40.183  36.603  41.545  1.00  0.00    -0.237 OA
ATOM     94  O   UNL A   1      38.498  37.748  40.147  1.00  0.00    -0.237 OA
ATOM     95  O   UNL A   1      37.844  35.818  41.529  1.00  0.00    -0.744 OA
ENDBRANCH  91  92
ENDBRANCH  65  86
ENDBRANCH  39  40
ENDBRANCH  31  34
ENDBRANCH  29  30
ENDBRANCH  28  29
ENDBRANCH   1  28
TORSDOF 17
ENDMDL
