MODEL 1
REMARK VINA RESULT:     -12.4      0.000      0.000
REMARK SMILES Cc1c(CC(=O)NCCCCCCNC(=O)c2ccc(-c3c4nc(c(-c5ccc(S(=O)(=O)[O-])cc5)c5ccc([nH]5)c(-c5ccc(S(=O)(=O)[O-])cc5)c5nc(c(-c6ccc(S(=O)(=O)[O-])cc6)c6ccc3[nH]6)C=C5)C=C4)cc2)cc(-c2ccc(S(C)(=O)=O)cc2)n1-c1cccc(F)c1
REMARK SMILES IDX 10 1 9 2 8 3 7 4 5 5 6 6 4 8 3 9 1 10 2 11 89 12 77 13 78 14
REMARK SMILES IDX 90 15 91 16 96 17 92 18 94 19 93 20 95 21 79 22 80 23 88 24
REMARK SMILES IDX 81 25 87 26 82 27 83 28 84 29 85 30 86 31 11 32 12 33 13 34
REMARK SMILES IDX 14 35 15 36 16 38 17 39 18 40 76 41 19 42 75 43 20 44 21 45
REMARK SMILES IDX 22 46 69 47 23 48 74 49 68 50 70 51 24 52 73 53 67 54 66 55
REMARK SMILES IDX 25 57 55 58 36 59 54 60 37 61 40 62 53 63 71 64 38 65 39 66
REMARK SMILES IDX 52 68 72 69 41 70 26 71 27 72 35 73 28 74 34 75 29 76 30 77
REMARK SMILES IDX 31 78 32 79 33 80 56 81 57 82 65 83 58 84 64 85 59 86 60 87
REMARK SMILES IDX 61 88 62 89 63 90 42 91 43 92 51 93 44 94 50 95 45 96 46 97
REMARK SMILES IDX 47 98 48 99 49 100
REMARK H PARENT 7 7 14 37 70 56 40 67
REMARK Flexibility Score: inf
ROOT
ATOM      1  C   UNL A   1      31.763  29.082  26.355  1.00  0.00     0.002 C 
ENDROOT
BRANCH   1   2
ATOM      2  C   UNL A   1      31.746  29.739  24.968  1.00  0.00     0.021 C 
BRANCH   2   3
ATOM      3  C   UNL A   1      30.420  29.610  24.220  1.00  0.00     0.116 C 
BRANCH   3   4
ATOM      4  N   UNL A   1      30.573  28.883  22.973  1.00  0.00    -0.356 N 
ATOM      5  C   UNL A   1      30.615  27.534  22.756  1.00  0.00     0.224 C 
ATOM      6  O   UNL A   1      30.791  27.133  21.603  1.00  0.00    -0.275 OA
ATOM      7  H   UNL A   1      30.660  29.441  22.167  1.00  0.00     0.163 HD
BRANCH   5   8
ATOM      8  C   UNL A   1      30.376  26.558  23.894  1.00  0.00     0.137 C 
BRANCH   8   9
ATOM      9  C   UNL A   1      31.393  25.468  23.974  1.00  0.00    -0.017 A 
ATOM     10  C   UNL A   1      33.609  26.779  23.749  1.00  0.00     0.065 C 
ATOM     11  C   UNL A   1      32.782  25.557  23.970  1.00  0.00     0.024 A 
ATOM     12  N   UNL A   1      33.307  24.272  24.105  1.00  0.00    -0.313 N 
ATOM     13  C   UNL A   1      31.071  24.098  24.011  1.00  0.00     0.033 A 
ATOM     14  C   UNL A   1      32.241  23.380  24.100  1.00  0.00     0.053 A 
BRANCH  12  15
ATOM     15  C   UNL A   1      34.684  23.922  24.224  1.00  0.00     0.049 A 
ATOM     16  C   UNL A   1      35.346  23.265  23.174  1.00  0.00     0.027 A 
ATOM     17  C   UNL A   1      35.352  24.161  25.429  1.00  0.00     0.065 A 
ATOM     18  C   UNL A   1      36.672  22.849  23.331  1.00  0.00     0.005 A 
ATOM     19  C   UNL A   1      36.669  23.733  25.570  1.00  0.00     0.125 A 
ATOM     20  C   UNL A   1      37.333  23.080  24.536  1.00  0.00     0.039 A 
ATOM     21  F   UNL A   1      37.304  23.943  26.730  1.00  0.00    -0.207 F 
ENDBRANCH  12  15
BRANCH  14  22
ATOM     22  C   UNL A   1      32.337  21.936  24.158  1.00  0.00    -0.001 A 
ATOM     23  C   UNL A   1      32.619  21.265  25.351  1.00  0.00     0.011 A 
ATOM     24  C   UNL A   1      32.171  21.235  22.956  1.00  0.00     0.011 A 
ATOM     25  C   UNL A   1      32.856  19.899  25.314  1.00  0.00     0.021 A 
ATOM     26  C   UNL A   1      32.401  19.881  22.912  1.00  0.00     0.021 A 
ATOM     27  C   UNL A   1      32.796  19.243  24.078  1.00  0.00     0.067 A 
BRANCH  27  28
ATOM     28  S   UNL A   1      33.301  17.567  23.943  1.00  0.00     0.175 S 
ATOM     29  C   UNL A   1      32.453  16.825  25.342  1.00  0.00     0.163 C 
ATOM     30  O   UNL A   1      32.808  17.179  22.646  1.00  0.00    -0.224 OA
ATOM     31  O   UNL A   1      34.724  17.511  24.238  1.00  0.00    -0.224 OA
ENDBRANCH  27  28
ENDBRANCH  14  22
ENDBRANCH   8   9
ENDBRANCH   5   8
ENDBRANCH   3   4
ENDBRANCH   2   3
ENDBRANCH   1   2
BRANCH   1  32
ATOM     32  C   UNL A   1      33.097  29.125  27.110  1.00  0.00     0.002 C 
BRANCH  32  33
ATOM     33  C   UNL A   1      33.949  30.396  26.956  1.00  0.00     0.021 C 
BRANCH  33  34
ATOM     34  C   UNL A   1      34.911  30.747  28.104  1.00  0.00     0.116 C 
BRANCH  34  35
ATOM     35  N   UNL A   1      34.392  31.715  29.038  1.00  0.00    -0.352 N 
ATOM     36  C   UNL A   1      35.012  32.196  30.175  1.00  0.00     0.251 C 
ATOM     37  H   UNL A   1      33.495  32.074  28.844  1.00  0.00     0.163 HD
ATOM     38  O   UNL A   1      34.450  33.080  30.814  1.00  0.00    -0.269 OA
BRANCH  36  39
ATOM     39  C   UNL A   1      36.297  31.602  30.674  1.00  0.00     0.039 A 
ATOM     40  C   UNL A   1      37.469  31.899  29.991  1.00  0.00     0.014 A 
ATOM     41  C   UNL A   1      36.347  30.591  31.651  1.00  0.00     0.014 A 
ATOM     42  C   UNL A   1      38.660  31.202  30.295  1.00  0.00     0.010 A 
ATOM     43  C   UNL A   1      37.548  29.841  31.912  1.00  0.00     0.010 A 
ATOM     44  C   UNL A   1      38.737  30.101  31.213  1.00  0.00    -0.014 A 
BRANCH  44  45
ATOM     45  C   UNL A   1      39.894  29.101  30.916  1.00  0.00     0.031 A 
ATOM     46  C   UNL A   1      40.804  29.259  32.078  1.00  0.00     0.074 A 
ATOM     47  C   UNL A   1      40.498  28.403  29.892  1.00  0.00     0.049 A 
ATOM     48  N   UNL A   1      41.286  30.442  32.338  1.00  0.00    -0.248 NA
ATOM     49  C   UNL A   1      40.950  28.277  33.145  1.00  0.00     0.031 C 
ATOM     50  C   UNL A   1      40.330  28.590  28.456  1.00  0.00     0.029 A 
ATOM     51  N   UNL A   1      41.380  27.301  29.896  1.00  0.00    -0.354 N 
ATOM     52  C   UNL A   1      42.048  30.305  33.467  1.00  0.00     0.074 A 
ATOM     53  C   UNL A   1      41.633  29.019  34.024  1.00  0.00     0.031 C 
ATOM     54  C   UNL A   1      40.809  27.524  27.757  1.00  0.00     0.029 A 
ATOM     55  C   UNL A   1      41.450  26.586  28.661  1.00  0.00     0.049 A 
ATOM     56  H   UNL A   1      41.907  27.045  30.688  1.00  0.00     0.167 HD
ATOM     57  C   UNL A   1      43.317  30.799  33.386  1.00  0.00     0.031 A 
ATOM     58  C   UNL A   1      42.153  25.452  28.311  1.00  0.00     0.031 A 
ATOM     59  C   UNL A   1      44.267  29.766  33.065  1.00  0.00     0.049 A 
ATOM     60  C   UNL A   1      43.469  25.723  28.907  1.00  0.00     0.074 A 
ATOM     61  C   UNL A   1      44.529  28.526  33.607  1.00  0.00     0.029 A 
ATOM     62  N   UNL A   1      44.794  29.771  31.786  1.00  0.00    -0.354 N 
ATOM     63  N   UNL A   1      44.258  26.654  28.452  1.00  0.00    -0.248 NA
ATOM     64  C   UNL A   1      43.983  24.944  30.022  1.00  0.00     0.031 C 
ATOM     65  C   UNL A   1      44.825  27.692  32.506  1.00  0.00     0.029 A 
ATOM     66  C   UNL A   1      45.012  28.471  31.370  1.00  0.00     0.049 A 
ATOM     67  H   UNL A   1      44.985  30.577  31.254  1.00  0.00     0.167 HD
ATOM     68  C   UNL A   1      45.044  26.926  29.533  1.00  0.00     0.074 A 
ATOM     69  C   UNL A   1      45.041  25.702  30.314  1.00  0.00     0.031 C 
ATOM     70  C   UNL A   1      45.149  28.217  29.949  1.00  0.00     0.031 A 
BRANCH  57  71
ATOM     71  C   UNL A   1      43.462  32.209  32.878  1.00  0.00    -0.014 A 
ATOM     72  C   UNL A   1      44.687  32.861  33.069  1.00  0.00     0.010 A 
ATOM     73  C   UNL A   1      42.421  32.910  32.231  1.00  0.00     0.010 A 
ATOM     74  C   UNL A   1      44.858  34.187  32.651  1.00  0.00     0.020 A 
ATOM     75  C   UNL A   1      42.580  34.237  31.821  1.00  0.00     0.020 A 
ATOM     76  C   UNL A   1      43.803  34.869  32.036  1.00  0.00     0.054 A 
BRANCH  76  77
ATOM     77  S   UNL A   1      44.048  36.603  31.566  1.00  0.00     0.124 S 
ATOM     78  O   UNL A   1      43.349  36.684  30.284  1.00  0.00    -0.237 OA
ATOM     79  O   UNL A   1      43.402  37.313  32.666  1.00  0.00    -0.237 OA
ATOM     80  O   UNL A   1      45.498  36.747  31.479  1.00  0.00    -0.744 OA
ENDBRANCH  76  77
ENDBRANCH  57  71
BRANCH  58  81
ATOM     81  C   UNL A   1      42.230  24.336  27.269  1.00  0.00    -0.014 A 
ATOM     82  C   UNL A   1      42.774  24.610  25.978  1.00  0.00     0.010 A 
ATOM     83  C   UNL A   1      42.204  22.976  27.636  1.00  0.00     0.010 A 
ATOM     84  C   UNL A   1      43.390  23.630  25.175  1.00  0.00     0.020 A 
ATOM     85  C   UNL A   1      42.800  21.973  26.816  1.00  0.00     0.020 A 
ATOM     86  C   UNL A   1      43.436  22.314  25.616  1.00  0.00     0.054 A 
BRANCH  86  87
ATOM     87  S   UNL A   1      44.454  21.116  24.682  1.00  0.00     0.124 S 
ATOM     88  O   UNL A   1      43.673  19.887  24.769  1.00  0.00    -0.237 OA
ATOM     89  O   UNL A   1      44.518  21.724  23.352  1.00  0.00    -0.237 OA
ATOM     90  O   UNL A   1      45.723  21.099  25.405  1.00  0.00    -0.744 OA
ENDBRANCH  86  87
ENDBRANCH  58  81
BRANCH  70  91
ATOM     91  C   UNL A   1      45.201  29.306  28.880  1.00  0.00    -0.014 A 
ATOM     92  C   UNL A   1      46.380  29.785  28.266  1.00  0.00     0.010 A 
ATOM     93  C   UNL A   1      43.995  29.935  28.521  1.00  0.00     0.010 A 
ATOM     94  C   UNL A   1      46.371  30.900  27.412  1.00  0.00     0.020 A 
ATOM     95  C   UNL A   1      43.970  31.028  27.640  1.00  0.00     0.020 A 
ATOM     96  C   UNL A   1      45.164  31.531  27.122  1.00  0.00     0.054 A 
BRANCH  96  97
ATOM     97  S   UNL A   1      45.182  33.033  26.101  1.00  0.00     0.124 S 
ATOM     98  O   UNL A   1      44.429  33.976  26.925  1.00  0.00    -0.237 OA
ATOM     99  O   UNL A   1      46.608  33.324  25.975  1.00  0.00    -0.237 OA
ATOM    100  O   UNL A   1      44.511  32.626  24.869  1.00  0.00    -0.744 OA
ENDBRANCH  96  97
ENDBRANCH  70  91
ENDBRANCH  44  45
ENDBRANCH  36  39
ENDBRANCH  34  35
ENDBRANCH  33  34
ENDBRANCH  32  33
ENDBRANCH   1  32
TORSDOF 20
ENDMDL
MODEL 2
REMARK VINA RESULT:     -12.4      4.136      9.205
REMARK SMILES Cc1c(CC(=O)NCCCCCCNC(=O)c2ccc(-c3c4nc(c(-c5ccc(S(=O)(=O)[O-])cc5)c5ccc([nH]5)c(-c5ccc(S(=O)(=O)[O-])cc5)c5nc(c(-c6ccc(S(=O)(=O)[O-])cc6)c6ccc3[nH]6)C=C5)C=C4)cc2)cc(-c2ccc(S(C)(=O)=O)cc2)n1-c1cccc(F)c1
REMARK SMILES IDX 10 1 9 2 8 3 7 4 5 5 6 6 4 8 3 9 1 10 2 11 89 12 77 13 78 14
REMARK SMILES IDX 90 15 91 16 96 17 92 18 94 19 93 20 95 21 79 22 80 23 88 24
REMARK SMILES IDX 81 25 87 26 82 27 83 28 84 29 85 30 86 31 11 32 12 33 13 34
REMARK SMILES IDX 14 35 15 36 16 38 17 39 18 40 76 41 19 42 75 43 20 44 21 45
REMARK SMILES IDX 22 46 69 47 23 48 74 49 68 50 70 51 24 52 73 53 67 54 66 55
REMARK SMILES IDX 25 57 55 58 36 59 54 60 37 61 40 62 53 63 71 64 38 65 39 66
REMARK SMILES IDX 52 68 72 69 41 70 26 71 27 72 35 73 28 74 34 75 29 76 30 77
REMARK SMILES IDX 31 78 32 79 33 80 56 81 57 82 65 83 58 84 64 85 59 86 60 87
REMARK SMILES IDX 61 88 62 89 63 90 42 91 43 92 51 93 44 94 50 95 45 96 46 97
REMARK SMILES IDX 47 98 48 99 49 100
REMARK H PARENT 7 7 14 37 70 56 40 67
REMARK Flexibility Score: inf
ROOT
ATOM      1  C   UNL A   1      35.840  21.571  24.751  1.00  0.00     0.002 C 
ENDROOT
BRANCH   1   2
ATOM      2  C   UNL A   1      34.964  20.804  25.750  1.00  0.00     0.021 C 
BRANCH   2   3
ATOM      3  C   UNL A   1      33.941  19.865  25.110  1.00  0.00     0.116 C 
BRANCH   3   4
ATOM      4  N   UNL A   1      33.468  20.374  23.835  1.00  0.00    -0.356 N 
ATOM      5  C   UNL A   1      32.336  21.087  23.553  1.00  0.00     0.224 C 
ATOM      6  O   UNL A   1      32.114  21.387  22.377  1.00  0.00    -0.275 OA
ATOM      7  H   UNL A   1      34.045  20.176  23.062  1.00  0.00     0.163 HD
BRANCH   5   8
ATOM      8  C   UNL A   1      31.421  21.561  24.667  1.00  0.00     0.137 C 
BRANCH   8   9
ATOM      9  C   UNL A   1      31.350  23.047  24.794  1.00  0.00    -0.017 A 
ATOM     10  C   UNL A   1      32.668  23.466  26.978  1.00  0.00     0.065 C 
ATOM     11  C   UNL A   1      31.929  23.878  25.748  1.00  0.00     0.024 A 
ATOM     12  N   UNL A   1      31.616  25.200  25.431  1.00  0.00    -0.313 N 
ATOM     13  C   UNL A   1      30.591  23.870  23.940  1.00  0.00     0.033 A 
ATOM     14  C   UNL A   1      30.767  25.177  24.331  1.00  0.00     0.053 A 
BRANCH  12  15
ATOM     15  C   UNL A   1      32.074  26.369  26.105  1.00  0.00     0.049 A 
ATOM     16  C   UNL A   1      31.230  27.058  26.991  1.00  0.00     0.027 A 
ATOM     17  C   UNL A   1      33.343  26.878  25.814  1.00  0.00     0.065 A 
ATOM     18  C   UNL A   1      31.656  28.251  27.582  1.00  0.00     0.005 A 
ATOM     19  C   UNL A   1      33.748  28.071  26.405  1.00  0.00     0.125 A 
ATOM     20  C   UNL A   1      32.918  28.761  27.283  1.00  0.00     0.039 A 
ATOM     21  F   UNL A   1      34.956  28.570  26.112  1.00  0.00    -0.207 F 
ENDBRANCH  12  15
BRANCH  14  22
ATOM     22  C   UNL A   1      30.151  26.329  23.705  1.00  0.00    -0.001 A 
ATOM     23  C   UNL A   1      30.900  27.266  22.988  1.00  0.00     0.011 A 
ATOM     24  C   UNL A   1      28.770  26.489  23.880  1.00  0.00     0.011 A 
ATOM     25  C   UNL A   1      30.283  28.428  22.551  1.00  0.00     0.021 A 
ATOM     26  C   UNL A   1      28.150  27.637  23.446  1.00  0.00     0.021 A 
ATOM     27  C   UNL A   1      28.925  28.613  22.839  1.00  0.00     0.067 A 
BRANCH  27  28
ATOM     28  S   UNL A   1      28.153  30.154  22.503  1.00  0.00     0.175 S 
ATOM     29  C   UNL A   1      29.305  31.303  23.265  1.00  0.00     0.163 C 
ATOM     30  O   UNL A   1      28.106  30.190  21.064  1.00  0.00    -0.224 OA
ATOM     31  O   UNL A   1      26.927  30.211  23.283  1.00  0.00    -0.224 OA
ENDBRANCH  27  28
ENDBRANCH  14  22
ENDBRANCH   8   9
ENDBRANCH   5   8
ENDBRANCH   3   4
ENDBRANCH   2   3
ENDBRANCH   1   2
BRANCH   1  32
ATOM     32  C   UNL A   1      37.333  21.664  25.090  1.00  0.00     0.002 C 
BRANCH  32  33
ATOM     33  C   UNL A   1      37.848  23.013  25.622  1.00  0.00     0.021 C 
BRANCH  33  34
ATOM     34  C   UNL A   1      39.135  22.997  26.463  1.00  0.00     0.116 C 
BRANCH  34  35
ATOM     35  N   UNL A   1      40.154  22.104  25.971  1.00  0.00    -0.352 N 
ATOM     36  C   UNL A   1      41.521  22.222  26.138  1.00  0.00     0.251 C 
ATOM     37  H   UNL A   1      39.843  21.324  25.458  1.00  0.00     0.163 HD
ATOM     38  O   UNL A   1      42.239  21.322  25.714  1.00  0.00    -0.269 OA
BRANCH  36  39
ATOM     39  C   UNL A   1      42.129  23.453  26.745  1.00  0.00     0.039 A 
ATOM     40  C   UNL A   1      41.894  23.709  28.090  1.00  0.00     0.014 A 
ATOM     41  C   UNL A   1      42.734  24.467  25.981  1.00  0.00     0.014 A 
ATOM     42  C   UNL A   1      42.270  24.953  28.648  1.00  0.00     0.010 A 
ATOM     43  C   UNL A   1      43.055  25.754  26.540  1.00  0.00     0.010 A 
ATOM     44  C   UNL A   1      42.799  26.050  27.888  1.00  0.00    -0.014 A 
BRANCH  44  45
ATOM     45  C   UNL A   1      42.521  27.451  28.510  1.00  0.00     0.031 A 
ATOM     46  C   UNL A   1      43.877  28.022  28.711  1.00  0.00     0.074 A 
ATOM     47  C   UNL A   1      41.562  28.175  29.184  1.00  0.00     0.049 A 
ATOM     48  N   UNL A   1      44.730  27.363  29.446  1.00  0.00    -0.248 NA
ATOM     49  C   UNL A   1      44.447  29.090  27.900  1.00  0.00     0.031 C 
ATOM     50  C   UNL A   1      40.352  27.682  29.830  1.00  0.00     0.029 A 
ATOM     51  N   UNL A   1      41.413  29.561  29.406  1.00  0.00    -0.354 N 
ATOM     52  C   UNL A   1      45.891  28.088  29.428  1.00  0.00     0.074 A 
ATOM     53  C   UNL A   1      45.718  29.010  28.306  1.00  0.00     0.031 C 
ATOM     54  C   UNL A   1      39.483  28.695  30.098  1.00  0.00     0.029 A 
ATOM     55  C   UNL A   1      40.091  29.971  29.765  1.00  0.00     0.049 A 
ATOM     56  H   UNL A   1      42.161  30.196  29.322  1.00  0.00     0.167 HD
ATOM     57  C   UNL A   1      46.432  28.365  30.649  1.00  0.00     0.031 A 
ATOM     58  C   UNL A   1      39.567  31.223  30.008  1.00  0.00     0.031 A 
ATOM     59  C   UNL A   1      46.053  29.676  31.109  1.00  0.00     0.049 A 
ATOM     60  C   UNL A   1      40.616  31.826  30.845  1.00  0.00     0.074 A 
ATOM     61  C   UNL A   1      46.107  30.928  30.535  1.00  0.00     0.029 A 
ATOM     62  N   UNL A   1      45.132  29.739  32.139  1.00  0.00    -0.354 N 
ATOM     63  N   UNL A   1      40.855  31.418  32.057  1.00  0.00    -0.248 NA
ATOM     64  C   UNL A   1      41.427  32.939  30.377  1.00  0.00     0.031 C 
ATOM     65  C   UNL A   1      44.928  31.582  30.954  1.00  0.00     0.029 A 
ATOM     66  C   UNL A   1      44.327  30.851  31.971  1.00  0.00     0.049 A 
ATOM     67  H   UNL A   1      45.060  29.092  32.877  1.00  0.00     0.167 HD
ATOM     68  C   UNL A   1      42.146  31.814  32.250  1.00  0.00     0.074 A 
ATOM     69  C   UNL A   1      42.325  32.948  31.363  1.00  0.00     0.031 C 
ATOM     70  C   UNL A   1      43.052  30.887  32.662  1.00  0.00     0.031 A 
BRANCH  57  71
ATOM     71  C   UNL A   1      46.608  27.204  31.589  1.00  0.00    -0.014 A 
ATOM     72  C   UNL A   1      45.460  26.577  32.094  1.00  0.00     0.010 A 
ATOM     73  C   UNL A   1      47.871  26.721  31.997  1.00  0.00     0.010 A 
ATOM     74  C   UNL A   1      45.571  25.518  33.003  1.00  0.00     0.020 A 
ATOM     75  C   UNL A   1      47.990  25.673  32.913  1.00  0.00     0.020 A 
ATOM     76  C   UNL A   1      46.834  25.077  33.413  1.00  0.00     0.054 A 
BRANCH  76  77
ATOM     77  S   UNL A   1      46.930  23.744  34.638  1.00  0.00     0.124 S 
ATOM     78  O   UNL A   1      48.240  23.154  34.360  1.00  0.00    -0.237 OA
ATOM     79  O   UNL A   1      46.840  24.478  35.897  1.00  0.00    -0.237 OA
ATOM     80  O   UNL A   1      45.796  22.883  34.319  1.00  0.00    -0.744 OA
ENDBRANCH  76  77
ENDBRANCH  57  71
BRANCH  58  81
ATOM     81  C   UNL A   1      38.254  31.998  30.112  1.00  0.00    -0.014 A 
ATOM     82  C   UNL A   1      38.124  33.261  29.461  1.00  0.00     0.010 A 
ATOM     83  C   UNL A   1      37.040  31.361  30.436  1.00  0.00     0.010 A 
ATOM     84  C   UNL A   1      36.891  33.783  29.022  1.00  0.00     0.020 A 
ATOM     85  C   UNL A   1      35.785  31.895  30.021  1.00  0.00     0.020 A 
ATOM     86  C   UNL A   1      35.723  33.075  29.271  1.00  0.00     0.054 A 
BRANCH  86  87
ATOM     87  S   UNL A   1      34.175  33.641  28.478  1.00  0.00     0.124 S 
ATOM     88  O   UNL A   1      33.616  32.407  27.938  1.00  0.00    -0.237 OA
ATOM     89  O   UNL A   1      33.438  34.223  29.600  1.00  0.00    -0.237 OA
ATOM     90  O   UNL A   1      34.628  34.607  27.480  1.00  0.00    -0.744 OA
ENDBRANCH  86  87
ENDBRANCH  58  81
BRANCH  70  91
ATOM     91  C   UNL A   1      42.589  29.839  33.671  1.00  0.00    -0.014 A 
ATOM     92  C   UNL A   1      42.638  29.987  35.076  1.00  0.00     0.010 A 
ATOM     93  C   UNL A   1      42.141  28.601  33.177  1.00  0.00     0.010 A 
ATOM     94  C   UNL A   1      42.349  28.922  35.945  1.00  0.00     0.020 A 
ATOM     95  C   UNL A   1      41.815  27.540  34.038  1.00  0.00     0.020 A 
ATOM     96  C   UNL A   1      41.960  27.694  35.416  1.00  0.00     0.054 A 
BRANCH  96  97
ATOM     97  S   UNL A   1      41.692  26.298  36.547  1.00  0.00     0.124 S 
ATOM     98  O   UNL A   1      41.329  25.221  35.629  1.00  0.00    -0.237 OA
ATOM     99  O   UNL A   1      42.994  26.147  37.193  1.00  0.00    -0.237 OA
ATOM    100  O   UNL A   1      40.609  26.754  37.414  1.00  0.00    -0.744 OA
ENDBRANCH  96  97
ENDBRANCH  70  91
ENDBRANCH  44  45
ENDBRANCH  36  39
ENDBRANCH  34  35
ENDBRANCH  33  34
ENDBRANCH  32  33
ENDBRANCH   1  32
TORSDOF 20
ENDMDL
MODEL 3
REMARK VINA RESULT:     -11.6      3.934      7.448
REMARK SMILES Cc1c(CC(=O)NCCCCCCNC(=O)c2ccc(-c3c4nc(c(-c5ccc(S(=O)(=O)[O-])cc5)c5ccc([nH]5)c(-c5ccc(S(=O)(=O)[O-])cc5)c5nc(c(-c6ccc(S(=O)(=O)[O-])cc6)c6ccc3[nH]6)C=C5)C=C4)cc2)cc(-c2ccc(S(C)(=O)=O)cc2)n1-c1cccc(F)c1
REMARK SMILES IDX 10 1 9 2 8 3 7 4 5 5 6 6 4 8 3 9 1 10 2 11 89 12 77 13 78 14
REMARK SMILES IDX 90 15 91 16 96 17 92 18 94 19 93 20 95 21 79 22 80 23 88 24
REMARK SMILES IDX 81 25 87 26 82 27 83 28 84 29 85 30 86 31 11 32 12 33 13 34
REMARK SMILES IDX 14 35 15 36 16 38 17 39 18 40 76 41 19 42 75 43 20 44 21 45
REMARK SMILES IDX 22 46 69 47 23 48 74 49 68 50 70 51 24 52 73 53 67 54 66 55
REMARK SMILES IDX 25 57 55 58 36 59 54 60 37 61 40 62 53 63 71 64 38 65 39 66
REMARK SMILES IDX 52 68 72 69 41 70 26 71 27 72 35 73 28 74 34 75 29 76 30 77
REMARK SMILES IDX 31 78 32 79 33 80 56 81 57 82 65 83 58 84 64 85 59 86 60 87
REMARK SMILES IDX 61 88 62 89 63 90 42 91 43 92 51 93 44 94 50 95 45 96 46 97
REMARK SMILES IDX 47 98 48 99 49 100
REMARK H PARENT 7 7 14 37 70 56 40 67
REMARK Flexibility Score: inf
ROOT
ATOM      1  C   UNL A   1      35.908  22.214  24.123  1.00  0.00     0.002 C 
ENDROOT
BRANCH   1   2
ATOM      2  C   UNL A   1      35.543  21.339  25.329  1.00  0.00     0.021 C 
BRANCH   2   3
ATOM      3  C   UNL A   1      34.425  20.329  25.067  1.00  0.00     0.116 C 
BRANCH   3   4
ATOM      4  N   UNL A   1      33.756  20.583  23.804  1.00  0.00    -0.356 N 
ATOM      5  C   UNL A   1      32.493  21.053  23.572  1.00  0.00     0.224 C 
ATOM      6  O   UNL A   1      32.116  21.158  22.402  1.00  0.00    -0.275 OA
ATOM      7  H   UNL A   1      34.287  20.387  22.999  1.00  0.00     0.163 HD
BRANCH   5   8
ATOM      8  C   UNL A   1      31.610  21.505  24.720  1.00  0.00     0.137 C 
BRANCH   8   9
ATOM      9  C   UNL A   1      31.501  22.989  24.845  1.00  0.00    -0.017 A 
ATOM     10  C   UNL A   1      32.818  23.447  27.022  1.00  0.00     0.065 C 
ATOM     11  C   UNL A   1      32.063  23.837  25.795  1.00  0.00     0.024 A 
ATOM     12  N   UNL A   1      31.714  25.149  25.477  1.00  0.00    -0.313 N 
ATOM     13  C   UNL A   1      30.717  23.790  23.993  1.00  0.00     0.033 A 
ATOM     14  C   UNL A   1      30.860  25.102  24.380  1.00  0.00     0.053 A 
BRANCH  12  15
ATOM     15  C   UNL A   1      32.143  26.332  26.146  1.00  0.00     0.049 A 
ATOM     16  C   UNL A   1      31.267  27.032  26.990  1.00  0.00     0.027 A 
ATOM     17  C   UNL A   1      33.420  26.841  25.890  1.00  0.00     0.065 A 
ATOM     18  C   UNL A   1      31.667  28.237  27.575  1.00  0.00     0.005 A 
ATOM     19  C   UNL A   1      33.800  28.046  26.475  1.00  0.00     0.125 A 
ATOM     20  C   UNL A   1      32.937  28.747  27.312  1.00  0.00     0.039 A 
ATOM     21  F   UNL A   1      35.015  28.545  26.215  1.00  0.00    -0.207 F 
ENDBRANCH  12  15
BRANCH  14  22
ATOM     22  C   UNL A   1      30.210  26.236  23.755  1.00  0.00    -0.001 A 
ATOM     23  C   UNL A   1      30.926  27.172  23.003  1.00  0.00     0.011 A 
ATOM     24  C   UNL A   1      28.833  26.380  23.968  1.00  0.00     0.011 A 
ATOM     25  C   UNL A   1      30.281  28.318  22.566  1.00  0.00     0.021 A 
ATOM     26  C   UNL A   1      28.185  27.513  23.534  1.00  0.00     0.021 A 
ATOM     27  C   UNL A   1      28.929  28.490  22.891  1.00  0.00     0.067 A 
BRANCH  27  28
ATOM     28  S   UNL A   1      28.127  30.015  22.554  1.00  0.00     0.175 S 
ATOM     29  C   UNL A   1      29.135  31.164  23.498  1.00  0.00     0.163 C 
ATOM     30  O   UNL A   1      28.234  30.132  21.122  1.00  0.00    -0.224 OA
ATOM     31  O   UNL A   1      26.822  29.977  23.197  1.00  0.00    -0.224 OA
ENDBRANCH  27  28
ENDBRANCH  14  22
ENDBRANCH   8   9
ENDBRANCH   5   8
ENDBRANCH   3   4
ENDBRANCH   2   3
ENDBRANCH   1   2
BRANCH   1  32
ATOM     32  C   UNL A   1      36.684  23.501  24.428  1.00  0.00     0.002 C 
BRANCH  32  33
ATOM     33  C   UNL A   1      36.712  23.972  25.892  1.00  0.00     0.021 C 
BRANCH  33  34
ATOM     34  C   UNL A   1      38.051  23.870  26.643  1.00  0.00     0.116 C 
BRANCH  34  35
ATOM     35  N   UNL A   1      38.732  22.610  26.472  1.00  0.00    -0.352 N 
ATOM     36  C   UNL A   1      40.051  22.325  26.773  1.00  0.00     0.251 C 
ATOM     37  H   UNL A   1      38.199  21.871  26.100  1.00  0.00     0.163 HD
ATOM     38  O   UNL A   1      40.442  21.171  26.633  1.00  0.00    -0.269 OA
BRANCH  36  39
ATOM     39  C   UNL A   1      41.010  23.407  27.177  1.00  0.00     0.039 A 
ATOM     40  C   UNL A   1      41.400  24.333  26.219  1.00  0.00     0.014 A 
ATOM     41  C   UNL A   1      41.700  23.402  28.403  1.00  0.00     0.014 A 
ATOM     42  C   UNL A   1      42.452  25.236  26.497  1.00  0.00     0.010 A 
ATOM     43  C   UNL A   1      42.812  24.280  28.656  1.00  0.00     0.010 A 
ATOM     44  C   UNL A   1      43.246  25.204  27.692  1.00  0.00    -0.014 A 
BRANCH  44  45
ATOM     45  C   UNL A   1      44.682  25.782  27.521  1.00  0.00     0.031 A 
ATOM     46  C   UNL A   1      45.144  26.001  28.915  1.00  0.00     0.074 A 
ATOM     47  C   UNL A   1      45.503  26.414  26.612  1.00  0.00     0.049 A 
ATOM     48  N   UNL A   1      44.436  26.772  29.693  1.00  0.00    -0.248 NA
ATOM     49  C   UNL A   1      46.137  25.175  29.590  1.00  0.00     0.031 C 
ATOM     50  C   UNL A   1      45.132  27.044  25.351  1.00  0.00     0.029 A 
ATOM     51  N   UNL A   1      46.903  26.596  26.575  1.00  0.00    -0.354 N 
ATOM     52  C   UNL A   1      45.061  26.762  30.911  1.00  0.00     0.074 A 
ATOM     53  C   UNL A   1      45.962  25.613  30.841  1.00  0.00     0.031 C 
ATOM     54  C   UNL A   1      46.222  27.264  24.564  1.00  0.00     0.029 A 
ATOM     55  C   UNL A   1      47.431  26.913  25.286  1.00  0.00     0.049 A 
ATOM     56  H   UNL A   1      47.471  26.513  27.376  1.00  0.00     0.167 HD
ATOM     57  C   UNL A   1      45.326  27.988  31.448  1.00  0.00     0.031 A 
ATOM     58  C   UNL A   1      48.730  27.110  24.864  1.00  0.00     0.031 A 
ATOM     59  C   UNL A   1      46.676  28.405  31.171  1.00  0.00     0.049 A 
ATOM     60  C   UNL A   1      49.266  27.955  25.941  1.00  0.00     0.074 A 
ATOM     61  C   UNL A   1      47.903  27.800  31.343  1.00  0.00     0.029 A 
ATOM     62  N   UNL A   1      46.845  29.411  30.236  1.00  0.00    -0.354 N 
ATOM     63  N   UNL A   1      48.874  29.183  26.119  1.00  0.00    -0.248 NA
ATOM     64  C   UNL A   1      50.293  27.478  26.853  1.00  0.00     0.031 C 
ATOM     65  C   UNL A   1      48.665  28.173  30.214  1.00  0.00     0.029 A 
ATOM     66  C   UNL A   1      48.015  29.195  29.532  1.00  0.00     0.049 A 
ATOM     67  H   UNL A   1      46.228  30.164  30.094  1.00  0.00     0.167 HD
ATOM     68  C   UNL A   1      49.165  29.397  27.434  1.00  0.00     0.074 A 
ATOM     69  C   UNL A   1      50.255  28.484  27.728  1.00  0.00     0.031 C 
ATOM     70  C   UNL A   1      48.178  29.854  28.250  1.00  0.00     0.031 A 
BRANCH  57  71
ATOM     71  C   UNL A   1      44.181  28.963  31.505  1.00  0.00    -0.014 A 
ATOM     72  C   UNL A   1      43.056  28.623  32.270  1.00  0.00     0.010 A 
ATOM     73  C   UNL A   1      44.177  30.195  30.816  1.00  0.00     0.010 A 
ATOM     74  C   UNL A   1      41.948  29.478  32.322  1.00  0.00     0.020 A 
ATOM     75  C   UNL A   1      43.071  31.049  30.854  1.00  0.00     0.020 A 
ATOM     76  C   UNL A   1      41.959  30.681  31.609  1.00  0.00     0.054 A 
BRANCH  76  77
ATOM     77  S   UNL A   1      40.480  31.729  31.655  1.00  0.00     0.124 S 
ATOM     78  O   UNL A   1      39.834  31.420  30.379  1.00  0.00    -0.237 OA
ATOM     79  O   UNL A   1      39.783  31.224  32.835  1.00  0.00    -0.237 OA
ATOM     80  O   UNL A   1      41.007  33.086  31.758  1.00  0.00    -0.744 OA
ENDBRANCH  76  77
ENDBRANCH  57  71
BRANCH  58  81
ATOM     81  C   UNL A   1      49.615  27.163  23.618  1.00  0.00    -0.014 A 
ATOM     82  C   UNL A   1      49.024  27.402  22.341  1.00  0.00     0.010 A 
ATOM     83  C   UNL A   1      50.997  27.422  23.701  1.00  0.00     0.010 A 
ATOM     84  C   UNL A   1      49.716  28.000  21.269  1.00  0.00     0.020 A 
ATOM     85  C   UNL A   1      51.711  28.002  22.612  1.00  0.00     0.020 A 
ATOM     86  C   UNL A   1      51.054  28.336  21.422  1.00  0.00     0.054 A 
BRANCH  86  87
ATOM     87  S   UNL A   1      51.857  29.334  20.116  1.00  0.00     0.124 S 
ATOM     88  O   UNL A   1      53.237  29.428  20.581  1.00  0.00    -0.237 OA
ATOM     89  O   UNL A   1      51.653  28.515  18.921  1.00  0.00    -0.237 OA
ATOM     90  O   UNL A   1      51.110  30.589  20.129  1.00  0.00    -0.744 OA
ENDBRANCH  86  87
ENDBRANCH  58  81
BRANCH  70  91
ATOM     91  C   UNL A   1      47.201  30.879  27.679  1.00  0.00    -0.014 A 
ATOM     92  C   UNL A   1      45.828  30.646  27.439  1.00  0.00     0.010 A 
ATOM     93  C   UNL A   1      47.711  32.132  27.294  1.00  0.00     0.010 A 
ATOM     94  C   UNL A   1      45.024  31.578  26.761  1.00  0.00     0.020 A 
ATOM     95  C   UNL A   1      46.908  33.085  26.647  1.00  0.00     0.020 A 
ATOM     96  C   UNL A   1      45.579  32.786  26.347  1.00  0.00     0.054 A 
BRANCH  96  97
ATOM     97  S   UNL A   1      44.556  33.934  25.380  1.00  0.00     0.124 S 
ATOM     98  O   UNL A   1      44.351  33.194  24.136  1.00  0.00    -0.237 OA
ATOM     99  O   UNL A   1      43.365  34.088  26.211  1.00  0.00    -0.237 OA
ATOM    100  O   UNL A   1      45.393  35.125  25.252  1.00  0.00    -0.744 OA
ENDBRANCH  96  97
ENDBRANCH  70  91
ENDBRANCH  44  45
ENDBRANCH  36  39
ENDBRANCH  34  35
ENDBRANCH  33  34
ENDBRANCH  32  33
ENDBRANCH   1  32
TORSDOF 20
ENDMDL
