MODEL 1
REMARK VINA RESULT:     -11.1      0.000      0.000
REMARK SMILES Cc1ccc(N)cc1S(=O)(=O)Nc1cccc(C(=O)NCCCCCCNC(=O)c2ccc(-c3c4nc(c(-c5ccc(S(=O)(=O)[O-])cc5)c5ccc([nH]5)c(-c5ccc(S(=O)(=O)[O-])cc5)c5nc(c(-c6ccc(S(=O)(=O)[O-])cc6)c6ccc3[nH]6)C=C5)C=C4)cc2)c1
REMARK SMILES IDX 23 1 22 2 21 3 20 4 18 5 19 6 17 8 13 9 14 10 90 11 15 12
REMARK SMILES IDX 16 13 12 14 9 16 10 17 11 18 8 19 1 20 2 21 3 22 4 23 7 24
REMARK SMILES IDX 5 25 6 26 24 29 25 30 26 31 27 32 28 33 29 35 30 36 31 37
REMARK SMILES IDX 89 38 32 39 88 40 33 41 34 42 35 43 82 44 36 45 87 46 81 47
REMARK SMILES IDX 83 48 37 49 86 50 80 51 79 52 38 54 68 55 49 56 67 57 50 58
REMARK SMILES IDX 53 59 66 60 84 61 51 62 52 63 65 65 85 66 54 67 39 68 40 69
REMARK SMILES IDX 48 70 41 71 47 72 42 73 43 74 44 75 45 76 46 77 69 78 70 79
REMARK SMILES IDX 78 80 71 81 77 82 72 83 73 84 74 85 75 86 76 87 55 88 56 89
REMARK SMILES IDX 64 90 57 91 63 92 58 93 59 94 60 95 61 96 62 97
REMARK H PARENT 20 7 12 15 6 27 6 28 27 34 83 53 53 64
REMARK Flexibility Score: inf
ROOT
ATOM      1  C   UNL A   1      37.021  22.185  24.263  1.00  0.00     0.002 C 
ENDROOT
BRANCH   1   2
ATOM      2  C   UNL A   1      37.223  23.408  25.164  1.00  0.00     0.021 C 
BRANCH   2   3
ATOM      3  C   UNL A   1      35.896  24.036  25.594  1.00  0.00     0.116 C 
BRANCH   3   4
ATOM      4  N   UNL A   1      35.270  23.216  26.617  1.00  0.00    -0.352 N 
ATOM      5  C   UNL A   1      34.044  22.613  26.717  1.00  0.00     0.251 C 
ATOM      6  O   UNL A   1      33.790  22.023  27.769  1.00  0.00    -0.269 OA
ATOM      7  H   UNL A   1      35.846  23.062  27.401  1.00  0.00     0.163 HD
BRANCH   5   8
ATOM      8  C   UNL A   1      33.056  22.544  25.601  1.00  0.00     0.041 A 
ATOM      9  C   UNL A   1      31.169  23.377  24.343  1.00  0.00     0.050 A 
ATOM     10  C   UNL A   1      31.508  22.548  23.269  1.00  0.00     0.027 A 
ATOM     11  C   UNL A   1      31.865  23.272  25.545  1.00  0.00     0.040 A 
ATOM     12  C   UNL A   1      32.620  21.717  23.353  1.00  0.00     0.003 A 
ATOM     13  C   UNL A   1      33.411  21.746  24.500  1.00  0.00     0.014 A 
BRANCH   9  14
ATOM     14  N   UNL A   1      30.218  24.396  24.075  1.00  0.00    -0.280 N 
ATOM     15  H   UNL A   1      29.612  24.240  23.315  1.00  0.00     0.180 HD
BRANCH  14  16
ATOM     16  S   UNL A   1      30.014  25.829  24.902  1.00  0.00     0.262 S 
ATOM     17  O   UNL A   1      29.607  25.499  26.254  1.00  0.00    -0.201 OA
ATOM     18  O   UNL A   1      29.164  26.627  24.044  1.00  0.00    -0.201 OA
BRANCH  16  19
ATOM     19  C   UNL A   1      31.550  26.741  25.051  1.00  0.00     0.092 A 
ATOM     20  C   UNL A   1      32.546  26.445  22.675  1.00  0.00     0.046 C 
ATOM     21  C   UNL A   1      32.582  26.867  24.110  1.00  0.00    -0.030 A 
ATOM     22  C   UNL A   1      33.795  27.444  24.539  1.00  0.00     0.007 A 
ATOM     23  C   UNL A   1      33.935  28.005  25.809  1.00  0.00     0.026 A 
ATOM     24  C   UNL A   1      31.699  27.350  26.321  1.00  0.00     0.048 A 
ATOM     25  C   UNL A   1      32.855  28.041  26.681  1.00  0.00     0.033 A 
BRANCH  25  26
ATOM     26  N   UNL A   1      32.983  28.603  27.942  1.00  0.00    -0.399 N 
ATOM     27  H   UNL A   1      32.611  29.496  28.124  1.00  0.00     0.156 HD
ATOM     28  H   UNL A   1      33.447  28.108  28.656  1.00  0.00     0.156 HD
ENDBRANCH  25  26
ENDBRANCH  16  19
ENDBRANCH  14  16
ENDBRANCH   9  14
ENDBRANCH   5   8
ENDBRANCH   3   4
ENDBRANCH   2   3
ENDBRANCH   1   2
BRANCH   1  29
ATOM     29  C   UNL A   1      36.943  20.852  25.018  1.00  0.00     0.002 C 
BRANCH  29  30
ATOM     30  C   UNL A   1      38.195  19.974  24.915  1.00  0.00     0.021 C 
BRANCH  30  31
ATOM     31  C   UNL A   1      39.327  20.371  25.857  1.00  0.00     0.116 C 
BRANCH  31  32
ATOM     32  N   UNL A   1      40.310  19.308  25.997  1.00  0.00    -0.352 N 
ATOM     33  C   UNL A   1      41.672  19.407  26.140  1.00  0.00     0.251 C 
ATOM     34  H   UNL A   1      39.951  18.393  25.988  1.00  0.00     0.163 HD
ATOM     35  O   UNL A   1      42.377  18.408  26.041  1.00  0.00    -0.269 OA
BRANCH  33  36
ATOM     36  C   UNL A   1      42.283  20.728  26.398  1.00  0.00     0.039 A 
ATOM     37  C   UNL A   1      42.654  21.529  25.314  1.00  0.00     0.014 A 
ATOM     38  C   UNL A   1      42.500  21.164  27.708  1.00  0.00     0.014 A 
ATOM     39  C   UNL A   1      43.201  22.792  25.545  1.00  0.00     0.010 A 
ATOM     40  C   UNL A   1      42.994  22.445  27.935  1.00  0.00     0.010 A 
ATOM     41  C   UNL A   1      43.356  23.267  26.857  1.00  0.00    -0.014 A 
BRANCH  41  42
ATOM     42  C   UNL A   1      43.921  24.610  27.135  1.00  0.00     0.031 A 
ATOM     43  C   UNL A   1      43.016  25.718  27.597  1.00  0.00     0.074 A 
ATOM     44  C   UNL A   1      45.225  24.852  26.897  1.00  0.00     0.049 A 
ATOM     45  N   UNL A   1      43.288  26.984  27.783  1.00  0.00    -0.248 NA
ATOM     46  C   UNL A   1      41.613  25.358  27.859  1.00  0.00     0.031 C 
ATOM     47  C   UNL A   1      46.199  23.867  26.427  1.00  0.00     0.029 A 
ATOM     48  N   UNL A   1      45.949  26.012  27.007  1.00  0.00    -0.354 N 
ATOM     49  C   UNL A   1      42.087  27.576  28.154  1.00  0.00     0.074 A 
ATOM     50  C   UNL A   1      41.078  26.538  28.133  1.00  0.00     0.031 C 
ATOM     51  C   UNL A   1      47.398  24.460  26.304  1.00  0.00     0.029 A 
ATOM     52  C   UNL A   1      47.269  25.874  26.647  1.00  0.00     0.049 A 
ATOM     53  H   UNL A   1      45.562  26.863  27.315  1.00  0.00     0.167 HD
ATOM     54  C   UNL A   1      41.845  28.865  28.493  1.00  0.00     0.031 A 
ATOM     55  C   UNL A   1      48.260  26.783  26.589  1.00  0.00     0.031 A 
ATOM     56  C   UNL A   1      42.852  29.891  28.525  1.00  0.00     0.049 A 
ATOM     57  C   UNL A   1      47.971  28.208  26.971  1.00  0.00     0.074 A 
ATOM     58  C   UNL A   1      42.721  31.218  28.896  1.00  0.00     0.029 A 
ATOM     59  N   UNL A   1      44.182  29.703  28.175  1.00  0.00    -0.354 N 
ATOM     60  N   UNL A   1      46.838  28.744  27.355  1.00  0.00    -0.248 NA
ATOM     61  C   UNL A   1      49.098  29.150  26.920  1.00  0.00     0.031 C 
ATOM     62  C   UNL A   1      43.965  31.840  28.738  1.00  0.00     0.029 A 
ATOM     63  C   UNL A   1      44.880  30.890  28.312  1.00  0.00     0.049 A 
ATOM     64  H   UNL A   1      44.571  28.850  27.875  1.00  0.00     0.167 HD
ATOM     65  C   UNL A   1      47.121  30.079  27.620  1.00  0.00     0.074 A 
ATOM     66  C   UNL A   1      48.533  30.269  27.355  1.00  0.00     0.031 C 
ATOM     67  C   UNL A   1      46.287  31.058  28.050  1.00  0.00     0.031 A 
BRANCH  54  68
ATOM     68  C   UNL A   1      40.427  29.230  28.839  1.00  0.00    -0.014 A 
ATOM     69  C   UNL A   1      39.427  29.272  27.849  1.00  0.00     0.010 A 
ATOM     70  C   UNL A   1      40.089  29.542  30.167  1.00  0.00     0.010 A 
ATOM     71  C   UNL A   1      38.128  29.676  28.172  1.00  0.00     0.020 A 
ATOM     72  C   UNL A   1      38.784  29.920  30.499  1.00  0.00     0.020 A 
ATOM     73  C   UNL A   1      37.819  30.009  29.494  1.00  0.00     0.054 A 
BRANCH  73  74
ATOM     74  S   UNL A   1      36.131  30.545  29.888  1.00  0.00     0.124 S 
ATOM     75  O   UNL A   1      35.395  30.107  28.704  1.00  0.00    -0.237 OA
ATOM     76  O   UNL A   1      35.837  29.811  31.116  1.00  0.00    -0.237 OA
ATOM     77  O   UNL A   1      36.255  31.991  30.046  1.00  0.00    -0.744 OA
ENDBRANCH  73  74
ENDBRANCH  54  68
BRANCH  55  78
ATOM     78  C   UNL A   1      49.624  26.359  26.179  1.00  0.00    -0.014 A 
ATOM     79  C   UNL A   1      50.109  26.683  24.899  1.00  0.00     0.010 A 
ATOM     80  C   UNL A   1      50.460  25.670  27.075  1.00  0.00     0.010 A 
ATOM     81  C   UNL A   1      51.405  26.321  24.522  1.00  0.00     0.020 A 
ATOM     82  C   UNL A   1      51.765  25.327  26.708  1.00  0.00     0.020 A 
ATOM     83  C   UNL A   1      52.227  25.649  25.430  1.00  0.00     0.054 A 
BRANCH  83  84
ATOM     84  S   UNL A   1      53.933  25.262  24.948  1.00  0.00     0.124 S 
ATOM     85  O   UNL A   1      53.916  23.803  24.916  1.00  0.00    -0.237 OA
ATOM     86  O   UNL A   1      54.054  25.923  23.650  1.00  0.00    -0.237 OA
ATOM     87  O   UNL A   1      54.732  25.858  26.016  1.00  0.00    -0.744 OA
ENDBRANCH  83  84
ENDBRANCH  55  78
BRANCH  67  88
ATOM     88  C   UNL A   1      46.884  32.414  28.304  1.00  0.00    -0.014 A 
ATOM     89  C   UNL A   1      47.106  33.322  27.253  1.00  0.00     0.010 A 
ATOM     90  C   UNL A   1      47.162  32.810  29.625  1.00  0.00     0.010 A 
ATOM     91  C   UNL A   1      47.615  34.595  27.519  1.00  0.00     0.020 A 
ATOM     92  C   UNL A   1      47.651  34.089  29.896  1.00  0.00     0.020 A 
ATOM     93  C   UNL A   1      47.885  34.972  28.839  1.00  0.00     0.054 A 
BRANCH  93  94
ATOM     94  S   UNL A   1      48.490  36.650  29.166  1.00  0.00     0.124 S 
ATOM     95  O   UNL A   1      49.676  36.716  28.317  1.00  0.00    -0.237 OA
ATOM     96  O   UNL A   1      47.368  37.485  28.745  1.00  0.00    -0.237 OA
ATOM     97  O   UNL A   1      48.751  36.649  30.604  1.00  0.00    -0.744 OA
ENDBRANCH  93  94
ENDBRANCH  67  88
ENDBRANCH  41  42
ENDBRANCH  33  36
ENDBRANCH  31  32
ENDBRANCH  30  31
ENDBRANCH  29  30
ENDBRANCH   1  29
TORSDOF 20
ENDMDL
MODEL 2
REMARK VINA RESULT:     -10.7      1.080      8.095
REMARK SMILES Cc1ccc(N)cc1S(=O)(=O)Nc1cccc(C(=O)NCCCCCCNC(=O)c2ccc(-c3c4nc(c(-c5ccc(S(=O)(=O)[O-])cc5)c5ccc([nH]5)c(-c5ccc(S(=O)(=O)[O-])cc5)c5nc(c(-c6ccc(S(=O)(=O)[O-])cc6)c6ccc3[nH]6)C=C5)C=C4)cc2)c1
REMARK SMILES IDX 23 1 22 2 21 3 20 4 18 5 19 6 17 8 13 9 14 10 90 11 15 12
REMARK SMILES IDX 16 13 12 14 9 16 10 17 11 18 8 19 1 20 2 21 3 22 4 23 7 24
REMARK SMILES IDX 5 25 6 26 24 29 25 30 26 31 27 32 28 33 29 35 30 36 31 37
REMARK SMILES IDX 89 38 32 39 88 40 33 41 34 42 35 43 82 44 36 45 87 46 81 47
REMARK SMILES IDX 83 48 37 49 86 50 80 51 79 52 38 54 68 55 49 56 67 57 50 58
REMARK SMILES IDX 53 59 66 60 84 61 51 62 52 63 65 65 85 66 54 67 39 68 40 69
REMARK SMILES IDX 48 70 41 71 47 72 42 73 43 74 44 75 45 76 46 77 69 78 70 79
REMARK SMILES IDX 78 80 71 81 77 82 72 83 73 84 74 85 75 86 76 87 55 88 56 89
REMARK SMILES IDX 64 90 57 91 63 92 58 93 59 94 60 95 61 96 62 97
REMARK H PARENT 20 7 12 15 6 27 6 28 27 34 83 53 53 64
REMARK Flexibility Score: inf
ROOT
ATOM      1  C   UNL A   1      37.732  22.747  25.734  1.00  0.00     0.002 C 
ENDROOT
BRANCH   1   2
ATOM      2  C   UNL A   1      36.843  21.655  25.128  1.00  0.00     0.021 C 
BRANCH   2   3
ATOM      3  C   UNL A   1      35.613  21.366  25.989  1.00  0.00     0.116 C 
BRANCH   3   4
ATOM      4  N   UNL A   1      34.790  20.352  25.353  1.00  0.00    -0.352 N 
ATOM      5  C   UNL A   1      33.650  20.408  24.593  1.00  0.00     0.251 C 
ATOM      6  O   UNL A   1      33.151  19.336  24.247  1.00  0.00    -0.269 OA
ATOM      7  H   UNL A   1      35.119  19.436  25.497  1.00  0.00     0.163 HD
BRANCH   5   8
ATOM      8  C   UNL A   1      33.049  21.676  24.086  1.00  0.00     0.041 A 
ATOM      9  C   UNL A   1      31.432  23.470  24.154  1.00  0.00     0.050 A 
ATOM     10  C   UNL A   1      32.239  24.241  23.311  1.00  0.00     0.027 A 
ATOM     11  C   UNL A   1      31.779  22.148  24.425  1.00  0.00     0.040 A 
ATOM     12  C   UNL A   1      33.452  23.738  22.854  1.00  0.00     0.003 A 
ATOM     13  C   UNL A   1      33.871  22.476  23.273  1.00  0.00     0.014 A 
BRANCH   9  14
ATOM     14  N   UNL A   1      30.373  24.151  24.808  1.00  0.00    -0.280 N 
ATOM     15  H   UNL A   1      29.479  24.058  24.408  1.00  0.00     0.180 HD
BRANCH  14  16
ATOM     16  S   UNL A   1      30.476  25.095  26.178  1.00  0.00     0.262 S 
ATOM     17  O   UNL A   1      31.558  24.573  26.989  1.00  0.00    -0.201 OA
ATOM     18  O   UNL A   1      29.121  25.144  26.689  1.00  0.00    -0.201 OA
BRANCH  16  19
ATOM     19  C   UNL A   1      30.911  26.791  25.793  1.00  0.00     0.092 A 
ATOM     20  C   UNL A   1      29.685  27.127  23.532  1.00  0.00     0.046 C 
ATOM     21  C   UNL A   1      30.618  27.523  24.632  1.00  0.00    -0.030 A 
ATOM     22  C   UNL A   1      31.264  28.764  24.458  1.00  0.00     0.007 A 
ATOM     23  C   UNL A   1      32.058  29.327  25.459  1.00  0.00     0.026 A 
ATOM     24  C   UNL A   1      31.689  27.396  26.810  1.00  0.00     0.048 A 
ATOM     25  C   UNL A   1      32.205  28.685  26.680  1.00  0.00     0.033 A 
BRANCH  25  26
ATOM     26  N   UNL A   1      32.987  29.241  27.681  1.00  0.00    -0.399 N 
ATOM     27  H   UNL A   1      32.569  29.777  28.393  1.00  0.00     0.156 HD
ATOM     28  H   UNL A   1      33.961  29.098  27.681  1.00  0.00     0.156 HD
ENDBRANCH  25  26
ENDBRANCH  16  19
ENDBRANCH  14  16
ENDBRANCH   9  14
ENDBRANCH   5   8
ENDBRANCH   3   4
ENDBRANCH   2   3
ENDBRANCH   1   2
BRANCH   1  29
ATOM     29  C   UNL A   1      39.142  22.274  26.110  1.00  0.00     0.002 C 
BRANCH  29  30
ATOM     30  C   UNL A   1      39.473  20.833  25.706  1.00  0.00     0.021 C 
BRANCH  30  31
ATOM     31  C   UNL A   1      40.148  20.009  26.797  1.00  0.00     0.116 C 
BRANCH  31  32
ATOM     32  N   UNL A   1      41.220  19.182  26.264  1.00  0.00    -0.352 N 
ATOM     33  C   UNL A   1      42.457  19.563  25.808  1.00  0.00     0.251 C 
ATOM     34  H   UNL A   1      41.033  18.217  26.225  1.00  0.00     0.163 HD
ATOM     35  O   UNL A   1      43.165  18.764  25.203  1.00  0.00    -0.269 OA
BRANCH  33  36
ATOM     36  C   UNL A   1      42.923  20.946  26.038  1.00  0.00     0.039 A 
ATOM     37  C   UNL A   1      43.069  21.806  24.945  1.00  0.00     0.014 A 
ATOM     38  C   UNL A   1      43.230  21.386  27.329  1.00  0.00     0.014 A 
ATOM     39  C   UNL A   1      43.477  23.124  25.153  1.00  0.00     0.010 A 
ATOM     40  C   UNL A   1      43.582  22.715  27.540  1.00  0.00     0.010 A 
ATOM     41  C   UNL A   1      43.716  23.593  26.454  1.00  0.00    -0.014 A 
BRANCH  41  42
ATOM     42  C   UNL A   1      44.137  24.993  26.710  1.00  0.00     0.031 A 
ATOM     43  C   UNL A   1      45.576  25.385  26.518  1.00  0.00     0.074 A 
ATOM     44  C   UNL A   1      43.249  25.884  27.189  1.00  0.00     0.049 A 
ATOM     45  N   UNL A   1      46.169  26.517  26.795  1.00  0.00    -0.248 NA
ATOM     46  C   UNL A   1      46.471  24.356  25.964  1.00  0.00     0.031 C 
ATOM     47  C   UNL A   1      41.831  25.620  27.439  1.00  0.00     0.029 A 
ATOM     48  N   UNL A   1      43.415  27.194  27.565  1.00  0.00    -0.354 N 
ATOM     49  C   UNL A   1      47.509  26.329  26.478  1.00  0.00     0.074 A 
ATOM     50  C   UNL A   1      47.647  24.962  26.021  1.00  0.00     0.031 C 
ATOM     51  C   UNL A   1      41.254  26.736  27.912  1.00  0.00     0.029 A 
ATOM     52  C   UNL A   1      42.266  27.782  28.036  1.00  0.00     0.049 A 
ATOM     53  H   UNL A   1      44.276  27.668  27.503  1.00  0.00     0.167 HD
ATOM     54  C   UNL A   1      48.530  27.215  26.550  1.00  0.00     0.031 A 
ATOM     55  C   UNL A   1      42.053  29.019  28.523  1.00  0.00     0.031 A 
ATOM     56  C   UNL A   1      48.386  28.575  26.993  1.00  0.00     0.049 A 
ATOM     57  C   UNL A   1      43.200  29.988  28.593  1.00  0.00     0.074 A 
ATOM     58  C   UNL A   1      49.348  29.567  27.063  1.00  0.00     0.029 A 
ATOM     59  N   UNL A   1      47.199  29.138  27.440  1.00  0.00    -0.354 N 
ATOM     60  N   UNL A   1      44.453  29.806  28.254  1.00  0.00    -0.248 NA
ATOM     61  C   UNL A   1      42.901  31.334  29.102  1.00  0.00     0.031 C 
ATOM     62  C   UNL A   1      48.751  30.720  27.583  1.00  0.00     0.029 A 
ATOM     63  C   UNL A   1      47.406  30.459  27.795  1.00  0.00     0.049 A 
ATOM     64  H   UNL A   1      46.336  28.667  27.494  1.00  0.00     0.167 HD
ATOM     65  C   UNL A   1      45.088  31.021  28.482  1.00  0.00     0.074 A 
ATOM     66  C   UNL A   1      44.079  31.933  28.984  1.00  0.00     0.031 C 
ATOM     67  C   UNL A   1      46.388  31.354  28.287  1.00  0.00     0.031 A 
BRANCH  54  68
ATOM     68  C   UNL A   1      49.896  26.722  26.154  1.00  0.00    -0.014 A 
ATOM     69  C   UNL A   1      50.728  26.067  27.080  1.00  0.00     0.010 A 
ATOM     70  C   UNL A   1      50.357  26.922  24.841  1.00  0.00     0.010 A 
ATOM     71  C   UNL A   1      52.019  25.673  26.717  1.00  0.00     0.020 A 
ATOM     72  C   UNL A   1      51.638  26.504  24.466  1.00  0.00     0.020 A 
ATOM     73  C   UNL A   1      52.469  25.906  25.414  1.00  0.00     0.054 A 
BRANCH  73  74
ATOM     74  S   UNL A   1      54.153  25.399  24.969  1.00  0.00     0.124 S 
ATOM     75  O   UNL A   1      54.324  26.041  23.668  1.00  0.00    -0.237 OA
ATOM     76  O   UNL A   1      54.957  25.956  26.054  1.00  0.00    -0.237 OA
ATOM     77  O   UNL A   1      54.079  23.941  24.940  1.00  0.00    -0.744 OA
ENDBRANCH  73  74
ENDBRANCH  54  68
BRANCH  55  78
ATOM     78  C   UNL A   1      40.686  29.415  28.953  1.00  0.00    -0.014 A 
ATOM     79  C   UNL A   1      39.677  29.621  27.996  1.00  0.00     0.010 A 
ATOM     80  C   UNL A   1      40.373  29.544  30.318  1.00  0.00     0.010 A 
ATOM     81  C   UNL A   1      38.380  29.955  28.396  1.00  0.00     0.020 A 
ATOM     82  C   UNL A   1      39.071  29.855  30.723  1.00  0.00     0.020 A 
ATOM     83  C   UNL A   1      38.084  30.065  29.758  1.00  0.00     0.054 A 
BRANCH  83  84
ATOM     84  S   UNL A   1      36.376  30.418  30.257  1.00  0.00     0.124 S 
ATOM     85  O   UNL A   1      36.458  31.821  30.650  1.00  0.00    -0.237 OA
ATOM     86  O   UNL A   1      35.625  30.146  29.033  1.00  0.00    -0.237 OA
ATOM     87  O   UNL A   1      36.137  29.473  31.345  1.00  0.00    -0.744 OA
ENDBRANCH  83  84
ENDBRANCH  55  78
BRANCH  67  88
ATOM     88  C   UNL A   1      46.791  32.773  28.574  1.00  0.00    -0.014 A 
ATOM     89  C   UNL A   1      46.654  33.781  27.603  1.00  0.00     0.010 A 
ATOM     90  C   UNL A   1      47.250  33.114  29.860  1.00  0.00     0.010 A 
ATOM     91  C   UNL A   1      46.988  35.102  27.908  1.00  0.00     0.020 A 
ATOM     92  C   UNL A   1      47.565  34.438  30.174  1.00  0.00     0.020 A 
ATOM     93  C   UNL A   1      47.442  35.423  29.192  1.00  0.00     0.054 A 
BRANCH  93  94
ATOM     94  S   UNL A   1      47.814  37.155  29.582  1.00  0.00     0.124 S 
ATOM     95  O   UNL A   1      49.262  37.120  29.770  1.00  0.00    -0.237 OA
ATOM     96  O   UNL A   1      47.351  37.862  28.391  1.00  0.00    -0.237 OA
ATOM     97  O   UNL A   1      47.035  37.411  30.792  1.00  0.00    -0.744 OA
ENDBRANCH  93  94
ENDBRANCH  67  88
ENDBRANCH  41  42
ENDBRANCH  33  36
ENDBRANCH  31  32
ENDBRANCH  30  31
ENDBRANCH  29  30
ENDBRANCH   1  29
TORSDOF 20
ENDMDL
MODEL 3
REMARK VINA RESULT:     -10.4      1.609      8.205
REMARK SMILES Cc1ccc(N)cc1S(=O)(=O)Nc1cccc(C(=O)NCCCCCCNC(=O)c2ccc(-c3c4nc(c(-c5ccc(S(=O)(=O)[O-])cc5)c5ccc([nH]5)c(-c5ccc(S(=O)(=O)[O-])cc5)c5nc(c(-c6ccc(S(=O)(=O)[O-])cc6)c6ccc3[nH]6)C=C5)C=C4)cc2)c1
REMARK SMILES IDX 23 1 22 2 21 3 20 4 18 5 19 6 17 8 13 9 14 10 90 11 15 12
REMARK SMILES IDX 16 13 12 14 9 16 10 17 11 18 8 19 1 20 2 21 3 22 4 23 7 24
REMARK SMILES IDX 5 25 6 26 24 29 25 30 26 31 27 32 28 33 29 35 30 36 31 37
REMARK SMILES IDX 89 38 32 39 88 40 33 41 34 42 35 43 82 44 36 45 87 46 81 47
REMARK SMILES IDX 83 48 37 49 86 50 80 51 79 52 38 54 68 55 49 56 67 57 50 58
REMARK SMILES IDX 53 59 66 60 84 61 51 62 52 63 65 65 85 66 54 67 39 68 40 69
REMARK SMILES IDX 48 70 41 71 47 72 42 73 43 74 44 75 45 76 46 77 69 78 70 79
REMARK SMILES IDX 78 80 71 81 77 82 72 83 73 84 74 85 75 86 76 87 55 88 56 89
REMARK SMILES IDX 64 90 57 91 63 92 58 93 59 94 60 95 61 96 62 97
REMARK H PARENT 20 7 12 15 6 27 6 28 27 34 83 53 53 64
REMARK Flexibility Score: inf
ROOT
ATOM      1  C   UNL A   1      38.438  23.465  26.119  1.00  0.00     0.002 C 
ENDROOT
BRANCH   1   2
ATOM      2  C   UNL A   1      37.176  22.615  25.938  1.00  0.00     0.021 C 
BRANCH   2   3
ATOM      3  C   UNL A   1      35.897  23.431  26.132  1.00  0.00     0.116 C 
BRANCH   3   4
ATOM      4  N   UNL A   1      34.996  22.732  27.033  1.00  0.00    -0.352 N 
ATOM      5  C   UNL A   1      33.756  22.171  26.873  1.00  0.00     0.251 C 
ATOM      6  O   UNL A   1      33.219  21.696  27.875  1.00  0.00    -0.269 OA
ATOM      7  H   UNL A   1      35.350  22.644  27.947  1.00  0.00     0.163 HD
BRANCH   5   8
ATOM      8  C   UNL A   1      33.076  22.016  25.554  1.00  0.00     0.041 A 
ATOM      9  C   UNL A   1      32.236  22.862  23.452  1.00  0.00     0.050 A 
ATOM     10  C   UNL A   1      32.152  21.559  22.951  1.00  0.00     0.027 A 
ATOM     11  C   UNL A   1      32.570  23.069  24.788  1.00  0.00     0.040 A 
ATOM     12  C   UNL A   1      32.530  20.480  23.744  1.00  0.00     0.003 A 
ATOM     13  C   UNL A   1      33.026  20.714  25.025  1.00  0.00     0.014 A 
BRANCH   9  14
ATOM     14  N   UNL A   1      32.121  23.909  22.502  1.00  0.00    -0.280 N 
ATOM     15  H   UNL A   1      31.295  23.927  21.968  1.00  0.00     0.180 HD
BRANCH  14  16
ATOM     16  S   UNL A   1      33.231  25.114  22.188  1.00  0.00     0.262 S 
ATOM     17  O   UNL A   1      33.132  25.442  20.780  1.00  0.00    -0.201 OA
ATOM     18  O   UNL A   1      34.470  24.622  22.752  1.00  0.00    -0.201 OA
BRANCH  16  19
ATOM     19  C   UNL A   1      32.853  26.622  23.081  1.00  0.00     0.092 A 
ATOM     20  C   UNL A   1      33.904  26.113  25.398  1.00  0.00     0.046 C 
ATOM     21  C   UNL A   1      33.087  26.914  24.433  1.00  0.00    -0.030 A 
ATOM     22  C   UNL A   1      32.495  28.078  24.966  1.00  0.00     0.007 A 
ATOM     23  C   UNL A   1      31.817  28.993  24.159  1.00  0.00     0.026 A 
ATOM     24  C   UNL A   1      32.195  27.581  22.274  1.00  0.00     0.048 A 
ATOM     25  C   UNL A   1      31.738  28.794  22.788  1.00  0.00     0.033 A 
BRANCH  25  26
ATOM     26  N   UNL A   1      31.072  29.702  21.979  1.00  0.00    -0.399 N 
ATOM     27  H   UNL A   1      30.197  30.058  22.255  1.00  0.00     0.156 HD
ATOM     28  H   UNL A   1      31.475  29.990  21.128  1.00  0.00     0.156 HD
ENDBRANCH  25  26
ENDBRANCH  16  19
ENDBRANCH  14  16
ENDBRANCH   9  14
ENDBRANCH   5   8
ENDBRANCH   3   4
ENDBRANCH   2   3
ENDBRANCH   1   2
BRANCH   1  29
ATOM     29  C   UNL A   1      39.658  22.682  26.621  1.00  0.00     0.002 C 
BRANCH  29  30
ATOM     30  C   UNL A   1      39.728  21.223  26.160  1.00  0.00     0.021 C 
BRANCH  30  31
ATOM     31  C   UNL A   1      40.543  20.309  27.070  1.00  0.00     0.116 C 
BRANCH  31  32
ATOM     32  N   UNL A   1      41.568  19.587  26.331  1.00  0.00    -0.352 N 
ATOM     33  C   UNL A   1      42.699  20.075  25.725  1.00  0.00     0.251 C 
ATOM     34  H   UNL A   1      41.432  18.616  26.257  1.00  0.00     0.163 HD
ATOM     35  O   UNL A   1      43.352  19.361  24.971  1.00  0.00    -0.269 OA
BRANCH  33  36
ATOM     36  C   UNL A   1      43.114  21.471  25.975  1.00  0.00     0.039 A 
ATOM     37  C   UNL A   1      43.058  22.395  24.928  1.00  0.00     0.014 A 
ATOM     38  C   UNL A   1      43.571  21.859  27.238  1.00  0.00     0.014 A 
ATOM     39  C   UNL A   1      43.416  23.724  25.160  1.00  0.00     0.010 A 
ATOM     40  C   UNL A   1      43.874  23.196  27.481  1.00  0.00     0.010 A 
ATOM     41  C   UNL A   1      43.807  24.137  26.443  1.00  0.00    -0.014 A 
BRANCH  41  42
ATOM     42  C   UNL A   1      44.180  25.545  26.726  1.00  0.00     0.031 A 
ATOM     43  C   UNL A   1      45.578  26.018  26.434  1.00  0.00     0.074 A 
ATOM     44  C   UNL A   1      43.293  26.370  27.315  1.00  0.00     0.049 A 
ATOM     45  N   UNL A   1      46.136  27.168  26.713  1.00  0.00    -0.248 NA
ATOM     46  C   UNL A   1      46.472  25.060  25.765  1.00  0.00     0.031 C 
ATOM     47  C   UNL A   1      41.916  26.023  27.667  1.00  0.00     0.029 A 
ATOM     48  N   UNL A   1      43.427  27.670  27.734  1.00  0.00    -0.354 N 
ATOM     49  C   UNL A   1      47.452  27.061  26.280  1.00  0.00     0.074 A 
ATOM     50  C   UNL A   1      47.618  25.723  25.753  1.00  0.00     0.031 C 
ATOM     51  C   UNL A   1      41.327  27.088  28.234  1.00  0.00     0.029 A 
ATOM     52  C   UNL A   1      42.294  28.179  28.322  1.00  0.00     0.049 A 
ATOM     53  H   UNL A   1      44.256  28.189  27.622  1.00  0.00     0.167 HD
ATOM     54  C   UNL A   1      48.433  27.995  26.308  1.00  0.00     0.031 A 
ATOM     55  C   UNL A   1      42.063  29.383  28.879  1.00  0.00     0.031 A 
ATOM     56  C   UNL A   1      48.261  29.327  26.821  1.00  0.00     0.049 A 
ATOM     57  C   UNL A   1      43.164  30.406  28.899  1.00  0.00     0.074 A 
ATOM     58  C   UNL A   1      49.177  30.364  26.856  1.00  0.00     0.029 A 
ATOM     59  N   UNL A   1      47.090  29.810  27.387  1.00  0.00    -0.354 N 
ATOM     60  N   UNL A   1      44.393  30.302  28.451  1.00  0.00    -0.248 NA
ATOM     61  C   UNL A   1      42.845  31.713  29.489  1.00  0.00     0.031 C 
ATOM     62  C   UNL A   1      48.570  31.463  27.474  1.00  0.00     0.029 A 
ATOM     63  C   UNL A   1      47.262  31.125  27.783  1.00  0.00     0.049 A 
ATOM     64  H   UNL A   1      46.258  29.293  27.491  1.00  0.00     0.167 HD
ATOM     65  C   UNL A   1      44.986  31.538  28.680  1.00  0.00     0.074 A 
ATOM     66  C   UNL A   1      43.979  32.376  29.303  1.00  0.00     0.031 C 
ATOM     67  C   UNL A   1      46.247  31.945  28.395  1.00  0.00     0.031 A 
BRANCH  54  68
ATOM     68  C   UNL A   1      49.782  27.590  25.780  1.00  0.00    -0.014 A 
ATOM     69  C   UNL A   1      50.154  27.862  24.450  1.00  0.00     0.010 A 
ATOM     70  C   UNL A   1      50.690  26.922  26.621  1.00  0.00     0.010 A 
ATOM     71  C   UNL A   1      51.384  27.422  23.955  1.00  0.00     0.020 A 
ATOM     72  C   UNL A   1      51.933  26.504  26.137  1.00  0.00     0.020 A 
ATOM     73  C   UNL A   1      52.261  26.734  24.799  1.00  0.00     0.054 A 
BRANCH  73  74
ATOM     74  S   UNL A   1      53.846  26.159  24.131  1.00  0.00     0.124 S 
ATOM     75  O   UNL A   1      54.710  27.311  24.378  1.00  0.00    -0.237 OA
ATOM     76  O   UNL A   1      54.130  24.977  24.941  1.00  0.00    -0.237 OA
ATOM     77  O   UNL A   1      53.552  25.890  22.726  1.00  0.00    -0.744 OA
ENDBRANCH  73  74
ENDBRANCH  54  68
BRANCH  55  78
ATOM     78  C   UNL A   1      40.720  29.690  29.436  1.00  0.00    -0.014 A 
ATOM     79  C   UNL A   1      40.481  29.556  30.816  1.00  0.00     0.010 A 
ATOM     80  C   UNL A   1      39.688  30.157  28.604  1.00  0.00     0.010 A 
ATOM     81  C   UNL A   1      39.231  29.881  31.351  1.00  0.00     0.020 A 
ATOM     82  C   UNL A   1      38.444  30.504  29.140  1.00  0.00     0.020 A 
ATOM     83  C   UNL A   1      38.222  30.357  30.510  1.00  0.00     0.054 A 
BRANCH  83  84
ATOM     84  S   UNL A   1      36.634  30.849  31.239  1.00  0.00     0.124 S 
ATOM     85  O   UNL A   1      36.989  32.083  31.933  1.00  0.00    -0.237 OA
ATOM     86  O   UNL A   1      35.781  31.006  30.063  1.00  0.00    -0.237 OA
ATOM     87  O   UNL A   1      36.290  29.720  32.100  1.00  0.00    -0.744 OA
ENDBRANCH  83  84
ENDBRANCH  55  78
BRANCH  67  88
ATOM     88  C   UNL A   1      46.604  33.371  28.711  1.00  0.00    -0.014 A 
ATOM     89  C   UNL A   1      47.185  33.721  29.943  1.00  0.00     0.010 A 
ATOM     90  C   UNL A   1      46.415  34.363  27.732  1.00  0.00     0.010 A 
ATOM     91  C   UNL A   1      47.554  35.044  30.196  1.00  0.00     0.020 A 
ATOM     92  C   UNL A   1      46.802  35.683  27.974  1.00  0.00     0.020 A 
ATOM     93  C   UNL A   1      47.361  36.018  29.210  1.00  0.00     0.054 A 
BRANCH  93  94
ATOM     94  S   UNL A   1      47.901  37.718  29.538  1.00  0.00     0.124 S 
ATOM     95  O   UNL A   1      48.962  37.514  30.521  1.00  0.00    -0.237 OA
ATOM     96  O   UNL A   1      48.342  38.176  28.223  1.00  0.00    -0.237 OA
ATOM     97  O   UNL A   1      46.696  38.371  30.046  1.00  0.00    -0.744 OA
ENDBRANCH  93  94
ENDBRANCH  67  88
ENDBRANCH  41  42
ENDBRANCH  33  36
ENDBRANCH  31  32
ENDBRANCH  30  31
ENDBRANCH  29  30
ENDBRANCH   1  29
TORSDOF 20
ENDMDL
