MODEL 1
REMARK VINA RESULT:      -8.4      0.000      0.000
REMARK SMILES COc1ccc(-c2ccc(/C=C3\SC(=S)N([C@H](Cc4ccccc4)C(=O)NCCCCCCNC(=O)c4ccc(-c5c6nc(c(-c7ccc(S(=O)(=O)[O-])cc7)c7ccc([nH]7)c(-c7ccc(S(=O)(=O)[O-])cc7)c7nc(c(-c8ccc(S(=O)(=O)[O-])cc8)c8ccc5[nH]8)C=C7)C=C6)cc4)C3=O)o2)cc1
REMARK SMILES IDX 30 1 29 2 28 3 27 4 25 5 26 6 17 8 16 9 11 10 12 11 13 12
REMARK SMILES IDX 97 13 14 14 98 15 15 16 10 17 7 18 8 19 99 20 9 21 6 22 3 23
REMARK SMILES IDX 4 24 101 25 5 26 100 27 2 28 1 29 18 30 19 31 20 32 24 33
REMARK SMILES IDX 21 34 23 35 22 36 31 37 32 38 33 39 34 40 35 41 36 43 37 44
REMARK SMILES IDX 38 45 96 46 39 47 95 48 40 49 41 50 42 51 89 52 43 53 94 54
REMARK SMILES IDX 88 55 90 56 44 57 93 58 87 59 86 60 45 62 75 63 56 64 74 65
REMARK SMILES IDX 57 66 60 67 73 68 91 69 58 70 59 71 72 73 92 74 61 75 46 76
REMARK SMILES IDX 47 77 55 78 48 79 54 80 49 81 50 82 51 83 52 84 53 85 76 86
REMARK SMILES IDX 77 87 85 88 78 89 84 90 79 91 80 92 81 93 82 94 83 95 62 96
REMARK SMILES IDX 63 97 71 98 64 99 70 100 65 101 66 102 67 103 68 104 69 105
REMARK H PARENT 27 7 34 42 90 61 60 72
REMARK Flexibility Score: inf
ROOT
ATOM      1  C   UNL A   1      43.795  35.169  31.686  1.00  0.00     0.002 C 
ENDROOT
BRANCH   1   2
ATOM      2  C   UNL A   1      42.446  35.188  32.417  1.00  0.00     0.021 C 
BRANCH   2   3
ATOM      3  C   UNL A   1      41.414  34.224  31.844  1.00  0.00     0.116 C 
BRANCH   3   4
ATOM      4  N   UNL A   1      40.089  34.440  32.409  1.00  0.00    -0.354 N 
ATOM      5  C   UNL A   1      39.668  34.441  33.710  1.00  0.00     0.243 C 
ATOM      6  O   UNL A   1      38.547  34.904  33.944  1.00  0.00    -0.273 OA
ATOM      7  H   UNL A   1      39.381  34.612  31.746  1.00  0.00     0.163 HD
BRANCH   5   8
ATOM      8  C   UNL A   1      40.537  33.878  34.861  1.00  0.00     0.185 C 
BRANCH   8   9
ATOM      9  N   UNL A   1      40.904  32.430  34.797  1.00  0.00    -0.280 N 
ATOM     10  C   UNL A   1      43.373  30.007  33.798  1.00  0.00     0.068 C 
ATOM     11  C   UNL A   1      42.237  30.567  34.227  1.00  0.00     0.084 C 
ATOM     12  S   UNL A   1      40.683  29.880  34.409  1.00  0.00    -0.054 SA
ATOM     13  C   UNL A   1      42.203  31.997  34.620  1.00  0.00     0.267 C 
ATOM     14  C   UNL A   1      39.979  31.408  34.926  1.00  0.00     0.149 C 
ATOM     15  O   UNL A   1      43.231  32.635  34.798  1.00  0.00    -0.268 OA
ATOM     16  S   UNL A   1      38.403  31.477  35.468  1.00  0.00    -0.052 S 
BRANCH  10  17
ATOM     17  C   UNL A   1      43.477  28.680  33.314  1.00  0.00     0.128 A 
ATOM     18  C   UNL A   1      43.903  26.501  33.374  1.00  0.00     0.134 A 
ATOM     19  C   UNL A   1      43.653  26.804  32.055  1.00  0.00     0.051 A 
ATOM     20  O   UNL A   1      43.805  27.627  34.133  1.00  0.00    -0.457 OA
ATOM     21  C   UNL A   1      43.366  28.188  32.018  1.00  0.00     0.051 A 
BRANCH  18  22
ATOM     22  C   UNL A   1      44.253  25.284  34.083  1.00  0.00     0.017 A 
ATOM     23  C   UNL A   1      44.895  22.924  35.474  1.00  0.00     0.118 A 
ATOM     24  C   UNL A   1      45.007  24.166  36.101  1.00  0.00     0.047 A 
ATOM     25  C   UNL A   1      44.446  22.861  34.155  1.00  0.00     0.047 A 
ATOM     26  C   UNL A   1      44.703  25.340  35.407  1.00  0.00     0.016 A 
ATOM     27  C   UNL A   1      44.121  24.036  33.466  1.00  0.00     0.016 A 
BRANCH  23  28
ATOM     28  O   UNL A   1      45.224  21.850  36.255  1.00  0.00    -0.497 OA
ATOM     29  C   UNL A   1      45.991  22.145  37.417  1.00  0.00     0.278 C 
ENDBRANCH  23  28
ENDBRANCH  18  22
ENDBRANCH  10  17
ENDBRANCH   8   9
BRANCH   8  30
ATOM     30  C   UNL A   1      39.968  34.302  36.247  1.00  0.00     0.071 C 
BRANCH  30  31
ATOM     31  C   UNL A   1      40.874  35.229  37.030  1.00  0.00    -0.045 A 
ATOM     32  C   UNL A   1      41.985  35.828  36.418  1.00  0.00     0.004 A 
ATOM     33  C   UNL A   1      40.601  35.524  38.373  1.00  0.00     0.004 A 
ATOM     34  C   UNL A   1      42.808  36.694  37.140  1.00  0.00     0.000 A 
ATOM     35  C   UNL A   1      41.433  36.380  39.096  1.00  0.00     0.000 A 
ATOM     36  C   UNL A   1      42.535  36.965  38.479  1.00  0.00     0.000 A 
ENDBRANCH  30  31
ENDBRANCH   8  30
ENDBRANCH   5   8
ENDBRANCH   3   4
ENDBRANCH   2   3
ENDBRANCH   1   2
BRANCH   1  37
ATOM     37  C   UNL A   1      43.920  36.131  30.498  1.00  0.00     0.002 C 
BRANCH  37  38
ATOM     38  C   UNL A   1      44.925  37.273  30.670  1.00  0.00     0.021 C 
BRANCH  38  39
ATOM     39  C   UNL A   1      45.404  37.919  29.373  1.00  0.00     0.116 C 
BRANCH  39  40
ATOM     40  N   UNL A   1      46.849  38.047  29.313  1.00  0.00    -0.352 N 
ATOM     41  C   UNL A   1      47.802  37.070  29.174  1.00  0.00     0.251 C 
ATOM     42  H   UNL A   1      47.194  38.966  29.382  1.00  0.00     0.163 HD
ATOM     43  O   UNL A   1      48.991  37.353  29.288  1.00  0.00    -0.269 OA
BRANCH  41  44
ATOM     44  C   UNL A   1      47.395  35.672  28.914  1.00  0.00     0.039 A 
ATOM     45  C   UNL A   1      47.468  34.745  29.958  1.00  0.00     0.014 A 
ATOM     46  C   UNL A   1      46.955  35.270  27.648  1.00  0.00     0.014 A 
ATOM     47  C   UNL A   1      47.051  33.429  29.748  1.00  0.00     0.010 A 
ATOM     48  C   UNL A   1      46.485  33.972  27.456  1.00  0.00     0.010 A 
ATOM     49  C   UNL A   1      46.532  33.038  28.504  1.00  0.00    -0.014 A 
BRANCH  49  50
ATOM     50  C   UNL A   1      46.034  31.658  28.281  1.00  0.00     0.031 A 
ATOM     51  C   UNL A   1      44.604  31.309  28.593  1.00  0.00     0.074 A 
ATOM     52  C   UNL A   1      46.884  30.704  27.853  1.00  0.00     0.049 A 
ATOM     53  N   UNL A   1      44.003  30.151  28.512  1.00  0.00    -0.248 NA
ATOM     54  C   UNL A   1      43.746  32.400  29.083  1.00  0.00     0.031 C 
ATOM     55  C   UNL A   1      48.304  30.906  27.555  1.00  0.00     0.029 A 
ATOM     56  N   UNL A   1      46.678  29.371  27.601  1.00  0.00    -0.354 N 
ATOM     57  C   UNL A   1      42.704  30.367  28.957  1.00  0.00     0.074 A 
ATOM     58  C   UNL A   1      42.617  31.759  29.345  1.00  0.00     0.031 C 
ATOM     59  C   UNL A   1      48.835  29.744  27.143  1.00  0.00     0.029 A 
ATOM     60  C   UNL A   1      47.806  28.710  27.176  1.00  0.00     0.049 A 
ATOM     61  H   UNL A   1      45.805  28.929  27.714  1.00  0.00     0.167 HD
ATOM     62  C   UNL A   1      41.671  29.492  29.022  1.00  0.00     0.031 A 
ATOM     63  C   UNL A   1      47.993  27.416  26.851  1.00  0.00     0.031 A 
ATOM     64  C   UNL A   1      41.755  28.113  28.621  1.00  0.00     0.049 A 
ATOM     65  C   UNL A   1      46.831  26.466  26.919  1.00  0.00     0.074 A 
ATOM     66  C   UNL A   1      40.751  27.162  28.595  1.00  0.00     0.029 A 
ATOM     67  N   UNL A   1      42.909  27.488  28.175  1.00  0.00    -0.354 N 
ATOM     68  N   UNL A   1      45.594  26.704  27.286  1.00  0.00    -0.248 NA
ATOM     69  C   UNL A   1      47.085  25.076  26.515  1.00  0.00     0.031 C 
ATOM     70  C   UNL A   1      41.307  25.950  28.170  1.00  0.00     0.029 A 
ATOM     71  C   UNL A   1      42.647  26.159  27.888  1.00  0.00     0.049 A 
ATOM     72  H   UNL A   1      43.786  27.925  28.076  1.00  0.00     0.167 HD
ATOM     73  C   UNL A   1      44.918  25.498  27.138  1.00  0.00     0.074 A 
ATOM     74  C   UNL A   1      45.879  24.537  26.636  1.00  0.00     0.031 C 
ATOM     75  C   UNL A   1      43.617  25.215  27.394  1.00  0.00     0.031 A 
BRANCH  62  76
ATOM     76  C   UNL A   1      40.362  30.008  29.556  1.00  0.00    -0.014 A 
ATOM     77  C   UNL A   1      40.209  30.326  30.918  1.00  0.00     0.010 A 
ATOM     78  C   UNL A   1      39.275  30.197  28.683  1.00  0.00     0.010 A 
ATOM     79  C   UNL A   1      38.979  30.775  31.406  1.00  0.00     0.020 A 
ATOM     80  C   UNL A   1      38.050  30.670  29.163  1.00  0.00     0.020 A 
ATOM     81  C   UNL A   1      37.904  30.935  30.527  1.00  0.00     0.054 A 
BRANCH  81  82
ATOM     82  S   UNL A   1      36.318  31.520  31.184  1.00  0.00     0.124 S 
ATOM     83  O   UNL A   1      35.496  31.575  29.978  1.00  0.00    -0.237 OA
ATOM     84  O   UNL A   1      35.960  30.476  32.140  1.00  0.00    -0.237 OA
ATOM     85  O   UNL A   1      36.646  32.815  31.775  1.00  0.00    -0.744 OA
ENDBRANCH  81  82
ENDBRANCH  62  76
BRANCH  63  86
ATOM     86  C   UNL A   1      49.338  26.953  26.416  1.00  0.00    -0.014 A 
ATOM     87  C   UNL A   1      50.171  26.250  27.303  1.00  0.00     0.010 A 
ATOM     88  C   UNL A   1      49.777  27.182  25.100  1.00  0.00     0.010 A 
ATOM     89  C   UNL A   1      51.424  25.791  26.885  1.00  0.00     0.020 A 
ATOM     90  C   UNL A   1      51.019  26.705  24.671  1.00  0.00     0.020 A 
ATOM     91  C   UNL A   1      51.838  26.019  25.570  1.00  0.00     0.054 A 
BRANCH  91  92
ATOM     92  S   UNL A   1      53.435  25.351  25.021  1.00  0.00     0.124 S 
ATOM     93  O   UNL A   1      54.381  26.201  25.737  1.00  0.00    -0.237 OA
ATOM     94  O   UNL A   1      53.369  23.961  25.465  1.00  0.00    -0.237 OA
ATOM     95  O   UNL A   1      53.400  25.534  23.571  1.00  0.00    -0.744 OA
ENDBRANCH  91  92
ENDBRANCH  63  86
BRANCH  75  96
ATOM     96  C   UNL A   1      43.150  23.812  27.114  1.00  0.00    -0.014 A 
ATOM     97  C   UNL A   1      42.963  23.361  25.796  1.00  0.00     0.010 A 
ATOM     98  C   UNL A   1      42.943  22.922  28.183  1.00  0.00     0.010 A 
ATOM     99  C   UNL A   1      42.550  22.048  25.553  1.00  0.00     0.020 A 
ATOM    100  C   UNL A   1      42.552  21.603  27.942  1.00  0.00     0.020 A 
ATOM    101  C   UNL A   1      42.344  21.178  26.628  1.00  0.00     0.054 A 
BRANCH 101 102
ATOM    102  S   UNL A   1      41.850  19.467  26.288  1.00  0.00     0.124 S 
ATOM    103  O   UNL A   1      42.612  19.166  25.080  1.00  0.00    -0.237 OA
ATOM    104  O   UNL A   1      42.278  18.760  27.493  1.00  0.00    -0.237 OA
ATOM    105  O   UNL A   1      40.402  19.556  26.107  1.00  0.00    -0.744 OA
ENDBRANCH 101 102
ENDBRANCH  75  96
ENDBRANCH  49  50
ENDBRANCH  41  44
ENDBRANCH  39  40
ENDBRANCH  38  39
ENDBRANCH  37  38
ENDBRANCH   1  37
TORSDOF 22
ENDMDL
MODEL 2
REMARK VINA RESULT:      -8.3      5.218     12.770
REMARK SMILES COc1ccc(-c2ccc(/C=C3\SC(=S)N([C@H](Cc4ccccc4)C(=O)NCCCCCCNC(=O)c4ccc(-c5c6nc(c(-c7ccc(S(=O)(=O)[O-])cc7)c7ccc([nH]7)c(-c7ccc(S(=O)(=O)[O-])cc7)c7nc(c(-c8ccc(S(=O)(=O)[O-])cc8)c8ccc5[nH]8)C=C7)C=C6)cc4)C3=O)o2)cc1
REMARK SMILES IDX 30 1 29 2 28 3 27 4 25 5 26 6 17 8 16 9 11 10 12 11 13 12
REMARK SMILES IDX 97 13 14 14 98 15 15 16 10 17 7 18 8 19 99 20 9 21 6 22 3 23
REMARK SMILES IDX 4 24 101 25 5 26 100 27 2 28 1 29 18 30 19 31 20 32 24 33
REMARK SMILES IDX 21 34 23 35 22 36 31 37 32 38 33 39 34 40 35 41 36 43 37 44
REMARK SMILES IDX 38 45 96 46 39 47 95 48 40 49 41 50 42 51 89 52 43 53 94 54
REMARK SMILES IDX 88 55 90 56 44 57 93 58 87 59 86 60 45 62 75 63 56 64 74 65
REMARK SMILES IDX 57 66 60 67 73 68 91 69 58 70 59 71 72 73 92 74 61 75 46 76
REMARK SMILES IDX 47 77 55 78 48 79 54 80 49 81 50 82 51 83 52 84 53 85 76 86
REMARK SMILES IDX 77 87 85 88 78 89 84 90 79 91 80 92 81 93 82 94 83 95 62 96
REMARK SMILES IDX 63 97 71 98 64 99 70 100 65 101 66 102 67 103 68 104 69 105
REMARK H PARENT 27 7 34 42 90 61 60 72
REMARK Flexibility Score: inf
ROOT
ATOM      1  C   UNL A   1      44.666  38.199  32.543  1.00  0.00     0.002 C 
ENDROOT
BRANCH   1   2
ATOM      2  C   UNL A   1      43.460  39.014  32.057  1.00  0.00     0.021 C 
BRANCH   2   3
ATOM      3  C   UNL A   1      43.764  39.935  30.881  1.00  0.00     0.116 C 
BRANCH   3   4
ATOM      4  N   UNL A   1      42.573  40.619  30.396  1.00  0.00    -0.354 N 
ATOM      5  C   UNL A   1      41.954  40.566  29.178  1.00  0.00     0.243 C 
ATOM      6  O   UNL A   1      40.815  41.039  29.099  1.00  0.00    -0.273 OA
ATOM      7  H   UNL A   1      42.144  41.216  31.052  1.00  0.00     0.163 HD
BRANCH   5   8
ATOM      8  C   UNL A   1      42.636  39.959  27.929  1.00  0.00     0.185 C 
BRANCH   8   9
ATOM      9  N   UNL A   1      42.937  40.885  26.794  1.00  0.00    -0.280 N 
ATOM     10  C   UNL A   1      41.924  42.077  23.551  1.00  0.00     0.068 C 
ATOM     11  C   UNL A   1      42.632  41.854  24.663  1.00  0.00     0.084 C 
ATOM     12  S   UNL A   1      44.283  42.157  24.985  1.00  0.00    -0.054 SA
ATOM     13  C   UNL A   1      41.992  41.246  25.854  1.00  0.00     0.267 C 
ATOM     14  C   UNL A   1      44.179  41.467  26.600  1.00  0.00     0.149 C 
ATOM     15  O   UNL A   1      40.775  41.156  25.951  1.00  0.00    -0.268 OA
ATOM     16  S   UNL A   1      45.471  41.563  27.651  1.00  0.00    -0.052 S 
BRANCH  10  17
ATOM     17  C   UNL A   1      42.473  42.563  22.338  1.00  0.00     0.128 A 
ATOM     18  C   UNL A   1      43.764  43.799  21.020  1.00  0.00     0.134 A 
ATOM     19  C   UNL A   1      42.893  43.135  20.187  1.00  0.00     0.051 A 
ATOM     20  O   UNL A   1      43.510  43.463  22.315  1.00  0.00    -0.457 OA
ATOM     21  C   UNL A   1      42.081  42.336  21.023  1.00  0.00     0.051 A 
BRANCH  18  22
ATOM     22  C   UNL A   1      44.836  44.754  20.809  1.00  0.00     0.017 A 
ATOM     23  C   UNL A   1      46.888  46.633  20.385  1.00  0.00     0.118 A 
ATOM     24  C   UNL A   1      46.467  45.799  19.347  1.00  0.00     0.047 A 
ATOM     25  C   UNL A   1      46.271  46.538  21.632  1.00  0.00     0.047 A 
ATOM     26  C   UNL A   1      45.460  44.856  19.560  1.00  0.00     0.016 A 
ATOM     27  C   UNL A   1      45.246  45.606  21.840  1.00  0.00     0.016 A 
BRANCH  23  28
ATOM     28  O   UNL A   1      47.883  47.512  20.055  1.00  0.00    -0.497 OA
ATOM     29  C   UNL A   1      48.497  47.299  18.789  1.00  0.00     0.278 C 
ENDBRANCH  23  28
ENDBRANCH  18  22
ENDBRANCH  10  17
ENDBRANCH   8   9
BRANCH   8  30
ATOM     30  C   UNL A   1      41.914  38.656  27.477  1.00  0.00     0.071 C 
BRANCH  30  31
ATOM     31  C   UNL A   1      42.851  37.526  27.104  1.00  0.00    -0.045 A 
ATOM     32  C   UNL A   1      44.238  37.675  27.237  1.00  0.00     0.004 A 
ATOM     33  C   UNL A   1      42.344  36.303  26.645  1.00  0.00     0.004 A 
ATOM     34  C   UNL A   1      45.098  36.625  26.907  1.00  0.00     0.000 A 
ATOM     35  C   UNL A   1      43.204  35.260  26.304  1.00  0.00     0.000 A 
ATOM     36  C   UNL A   1      44.581  35.421  26.435  1.00  0.00     0.000 A 
ENDBRANCH  30  31
ENDBRANCH   8  30
ENDBRANCH   5   8
ENDBRANCH   3   4
ENDBRANCH   2   3
ENDBRANCH   1   2
BRANCH   1  37
ATOM     37  C   UNL A   1      45.867  39.018  33.033  1.00  0.00     0.002 C 
BRANCH  37  38
ATOM     38  C   UNL A   1      47.243  38.393  32.785  1.00  0.00     0.021 C 
BRANCH  38  39
ATOM     39  C   UNL A   1      47.292  37.352  31.671  1.00  0.00     0.116 C 
BRANCH  39  40
ATOM     40  N   UNL A   1      48.475  37.481  30.838  1.00  0.00    -0.352 N 
ATOM     41  C   UNL A   1      49.053  36.558  30.003  1.00  0.00     0.251 C 
ATOM     42  H   UNL A   1      48.927  38.355  30.880  1.00  0.00     0.163 HD
ATOM     43  O   UNL A   1      50.139  36.798  29.484  1.00  0.00    -0.269 OA
BRANCH  41  44
ATOM     44  C   UNL A   1      48.379  35.266  29.749  1.00  0.00     0.039 A 
ATOM     45  C   UNL A   1      47.853  35.022  28.477  1.00  0.00     0.014 A 
ATOM     46  C   UNL A   1      48.254  34.305  30.757  1.00  0.00     0.014 A 
ATOM     47  C   UNL A   1      47.249  33.794  28.201  1.00  0.00     0.010 A 
ATOM     48  C   UNL A   1      47.703  33.059  30.464  1.00  0.00     0.010 A 
ATOM     49  C   UNL A   1      47.192  32.793  29.184  1.00  0.00    -0.014 A 
BRANCH  49  50
ATOM     50  C   UNL A   1      46.602  31.463  28.889  1.00  0.00     0.031 A 
ATOM     51  C   UNL A   1      47.427  30.401  28.214  1.00  0.00     0.074 A 
ATOM     52  C   UNL A   1      45.307  31.230  29.177  1.00  0.00     0.049 A 
ATOM     53  N   UNL A   1      47.073  29.202  27.832  1.00  0.00    -0.248 NA
ATOM     54  C   UNL A   1      48.826  30.743  27.907  1.00  0.00     0.031 C 
ATOM     55  C   UNL A   1      44.390  32.192  29.794  1.00  0.00     0.029 A 
ATOM     56  N   UNL A   1      44.534  30.113  28.981  1.00  0.00    -0.354 N 
ATOM     57  C   UNL A   1      48.195  28.652  27.223  1.00  0.00     0.074 A 
ATOM     58  C   UNL A   1      49.229  29.664  27.252  1.00  0.00     0.031 C 
ATOM     59  C   UNL A   1      43.186  31.617  29.943  1.00  0.00     0.029 A 
ATOM     60  C   UNL A   1      43.235  30.260  29.406  1.00  0.00     0.049 A 
ATOM     61  H   UNL A   1      44.877  29.285  28.574  1.00  0.00     0.167 HD
ATOM     62  C   UNL A   1      48.357  27.411  26.703  1.00  0.00     0.031 A 
ATOM     63  C   UNL A   1      42.198  29.402  29.367  1.00  0.00     0.031 A 
ATOM     64  C   UNL A   1      47.333  26.401  26.690  1.00  0.00     0.049 A 
ATOM     65  C   UNL A   1      42.404  28.026  28.797  1.00  0.00     0.074 A 
ATOM     66  C   UNL A   1      47.416  25.096  26.237  1.00  0.00     0.029 A 
ATOM     67  N   UNL A   1      46.038  26.582  27.150  1.00  0.00    -0.354 N 
ATOM     68  N   UNL A   1      43.490  27.505  28.280  1.00  0.00    -0.248 NA
ATOM     69  C   UNL A   1      41.247  27.120  28.817  1.00  0.00     0.031 C 
ATOM     70  C   UNL A   1      46.160  24.500  26.388  1.00  0.00     0.029 A 
ATOM     71  C   UNL A   1      45.306  25.419  26.977  1.00  0.00     0.049 A 
ATOM     72  H   UNL A   1      45.690  27.415  27.543  1.00  0.00     0.167 HD
ATOM     73  C   UNL A   1      43.154  26.201  27.931  1.00  0.00     0.074 A 
ATOM     74  C   UNL A   1      41.768  26.011  28.309  1.00  0.00     0.031 C 
ATOM     75  C   UNL A   1      43.926  25.249  27.353  1.00  0.00     0.031 A 
BRANCH  62  76
ATOM     76  C   UNL A   1      49.696  27.086  26.097  1.00  0.00    -0.014 A 
ATOM     77  C   UNL A   1      49.882  27.093  24.702  1.00  0.00     0.010 A 
ATOM     78  C   UNL A   1      50.788  26.789  26.932  1.00  0.00     0.010 A 
ATOM     79  C   UNL A   1      51.122  26.760  24.152  1.00  0.00     0.020 A 
ATOM     80  C   UNL A   1      52.037  26.479  26.386  1.00  0.00     0.020 A 
ATOM     81  C   UNL A   1      52.191  26.446  24.998  1.00  0.00     0.054 A 
BRANCH  81  82
ATOM     82  S   UNL A   1      53.792  26.017  24.261  1.00  0.00     0.124 S 
ATOM     83  O   UNL A   1      54.694  26.937  24.947  1.00  0.00    -0.237 OA
ATOM     84  O   UNL A   1      53.943  24.608  24.615  1.00  0.00    -0.237 OA
ATOM     85  O   UNL A   1      53.597  26.280  22.837  1.00  0.00    -0.744 OA
ENDBRANCH  81  82
ENDBRANCH  62  76
BRANCH  63  86
ATOM     86  C   UNL A   1      40.875  29.820  29.903  1.00  0.00    -0.014 A 
ATOM     87  C   UNL A   1      40.516  29.518  31.228  1.00  0.00     0.010 A 
ATOM     88  C   UNL A   1      39.982  30.552  29.101  1.00  0.00     0.010 A 
ATOM     89  C   UNL A   1      39.283  29.935  31.740  1.00  0.00     0.020 A 
ATOM     90  C   UNL A   1      38.759  30.991  29.616  1.00  0.00     0.020 A 
ATOM     91  C   UNL A   1      38.414  30.672  30.931  1.00  0.00     0.054 A 
BRANCH  91  92
ATOM     92  S   UNL A   1      36.850  31.270  31.633  1.00  0.00     0.124 S 
ATOM     93  O   UNL A   1      36.066  31.547  30.434  1.00  0.00    -0.237 OA
ATOM     94  O   UNL A   1      36.404  30.131  32.433  1.00  0.00    -0.237 OA
ATOM     95  O   UNL A   1      37.251  32.442  32.408  1.00  0.00    -0.744 OA
ENDBRANCH  91  92
ENDBRANCH  63  86
BRANCH  75  96
ATOM     96  C   UNL A   1      43.295  23.904  27.112  1.00  0.00    -0.014 A 
ATOM     97  C   UNL A   1      42.860  23.526  25.830  1.00  0.00     0.010 A 
ATOM     98  C   UNL A   1      43.183  22.989  28.175  1.00  0.00     0.010 A 
ATOM     99  C   UNL A   1      42.297  22.265  25.621  1.00  0.00     0.020 A 
ATOM    100  C   UNL A   1      42.641  21.719  27.964  1.00  0.00     0.020 A 
ATOM    101  C   UNL A   1      42.188  21.370  26.690  1.00  0.00     0.054 A 
BRANCH 101 102
ATOM    102  S   UNL A   1      41.493  19.723  26.386  1.00  0.00     0.124 S 
ATOM    103  O   UNL A   1      42.394  19.198  25.364  1.00  0.00    -0.237 OA
ATOM    104  O   UNL A   1      41.589  19.084  27.696  1.00  0.00    -0.237 OA
ATOM    105  O   UNL A   1      40.131  20.001  25.934  1.00  0.00    -0.744 OA
ENDBRANCH 101 102
ENDBRANCH  75  96
ENDBRANCH  49  50
ENDBRANCH  41  44
ENDBRANCH  39  40
ENDBRANCH  38  39
ENDBRANCH  37  38
ENDBRANCH   1  37
TORSDOF 22
ENDMDL
MODEL 3
REMARK VINA RESULT:      -7.9      4.746     12.376
REMARK SMILES COc1ccc(-c2ccc(/C=C3\SC(=S)N([C@H](Cc4ccccc4)C(=O)NCCCCCCNC(=O)c4ccc(-c5c6nc(c(-c7ccc(S(=O)(=O)[O-])cc7)c7ccc([nH]7)c(-c7ccc(S(=O)(=O)[O-])cc7)c7nc(c(-c8ccc(S(=O)(=O)[O-])cc8)c8ccc5[nH]8)C=C7)C=C6)cc4)C3=O)o2)cc1
REMARK SMILES IDX 30 1 29 2 28 3 27 4 25 5 26 6 17 8 16 9 11 10 12 11 13 12
REMARK SMILES IDX 97 13 14 14 98 15 15 16 10 17 7 18 8 19 99 20 9 21 6 22 3 23
REMARK SMILES IDX 4 24 101 25 5 26 100 27 2 28 1 29 18 30 19 31 20 32 24 33
REMARK SMILES IDX 21 34 23 35 22 36 31 37 32 38 33 39 34 40 35 41 36 43 37 44
REMARK SMILES IDX 38 45 96 46 39 47 95 48 40 49 41 50 42 51 89 52 43 53 94 54
REMARK SMILES IDX 88 55 90 56 44 57 93 58 87 59 86 60 45 62 75 63 56 64 74 65
REMARK SMILES IDX 57 66 60 67 73 68 91 69 58 70 59 71 72 73 92 74 61 75 46 76
REMARK SMILES IDX 47 77 55 78 48 79 54 80 49 81 50 82 51 83 52 84 53 85 76 86
REMARK SMILES IDX 77 87 85 88 78 89 84 90 79 91 80 92 81 93 82 94 83 95 62 96
REMARK SMILES IDX 63 97 71 98 64 99 70 100 65 101 66 102 67 103 68 104 69 105
REMARK H PARENT 27 7 34 42 90 61 60 72
REMARK Flexibility Score: inf
ROOT
ATOM      1  C   UNL A   1      45.619  36.710  32.531  1.00  0.00     0.002 C 
ENDROOT
BRANCH   1   2
ATOM      2  C   UNL A   1      45.138  35.880  31.334  1.00  0.00     0.021 C 
BRANCH   2   3
ATOM      3  C   UNL A   1      43.827  36.364  30.727  1.00  0.00     0.116 C 
BRANCH   3   4
ATOM      4  N   UNL A   1      43.785  36.168  29.284  1.00  0.00    -0.354 N 
ATOM      5  C   UNL A   1      44.160  36.998  28.265  1.00  0.00     0.243 C 
ATOM      6  O   UNL A   1      44.266  36.503  27.138  1.00  0.00    -0.273 OA
ATOM      7  H   UNL A   1      43.427  35.297  28.996  1.00  0.00     0.163 HD
BRANCH   5   8
ATOM      8  C   UNL A   1      44.433  38.506  28.484  1.00  0.00     0.185 C 
BRANCH   8   9
ATOM      9  N   UNL A   1      44.186  39.422  27.328  1.00  0.00    -0.280 N 
ATOM     10  C   UNL A   1      45.659  41.364  24.677  1.00  0.00     0.068 C 
ATOM     11  C   UNL A   1      44.779  40.846  25.542  1.00  0.00     0.084 C 
ATOM     12  S   UNL A   1      43.201  41.369  25.935  1.00  0.00    -0.054 SA
ATOM     13  C   UNL A   1      45.124  39.645  26.339  1.00  0.00     0.267 C 
ATOM     14  C   UNL A   1      42.997  40.108  27.145  1.00  0.00     0.149 C 
ATOM     15  O   UNL A   1      46.098  38.955  26.068  1.00  0.00    -0.268 OA
ATOM     16  S   UNL A   1      41.525  39.879  27.896  1.00  0.00    -0.052 S 
BRANCH  10  17
ATOM     17  C   UNL A   1      45.453  42.560  23.946  1.00  0.00     0.128 A 
ATOM     18  C   UNL A   1      44.741  43.854  22.288  1.00  0.00     0.134 A 
ATOM     19  C   UNL A   1      45.542  44.650  23.075  1.00  0.00     0.051 A 
ATOM     20  O   UNL A   1      44.691  42.596  22.804  1.00  0.00    -0.457 OA
ATOM     21  C   UNL A   1      45.983  43.831  24.140  1.00  0.00     0.051 A 
BRANCH  18  22
ATOM     22  C   UNL A   1      43.991  44.071  21.065  1.00  0.00     0.017 A 
ATOM     23  C   UNL A   1      42.553  44.460  18.678  1.00  0.00     0.118 A 
ATOM     24  C   UNL A   1      43.856  44.944  18.805  1.00  0.00     0.047 A 
ATOM     25  C   UNL A   1      41.974  43.767  19.741  1.00  0.00     0.047 A 
ATOM     26  C   UNL A   1      44.566  44.766  19.994  1.00  0.00     0.016 A 
ATOM     27  C   UNL A   1      42.692  43.569  20.926  1.00  0.00     0.016 A 
BRANCH  23  28
ATOM     28  O   UNL A   1      41.961  44.700  17.467  1.00  0.00    -0.497 OA
ATOM     29  C   UNL A   1      42.804  44.550  16.330  1.00  0.00     0.278 C 
ENDBRANCH  23  28
ENDBRANCH  18  22
ENDBRANCH  10  17
ENDBRANCH   8   9
BRANCH   8  30
ATOM     30  C   UNL A   1      45.820  38.731  29.155  1.00  0.00     0.071 C 
BRANCH  30  31
ATOM     31  C   UNL A   1      45.886  39.955  30.044  1.00  0.00    -0.045 A 
ATOM     32  C   UNL A   1      44.997  40.107  31.118  1.00  0.00     0.004 A 
ATOM     33  C   UNL A   1      46.854  40.943  29.824  1.00  0.00     0.004 A 
ATOM     34  C   UNL A   1      45.072  41.230  31.945  1.00  0.00     0.000 A 
ATOM     35  C   UNL A   1      46.919  42.071  30.642  1.00  0.00     0.000 A 
ATOM     36  C   UNL A   1      46.029  42.213  31.703  1.00  0.00     0.000 A 
ENDBRANCH  30  31
ENDBRANCH   8  30
ENDBRANCH   5   8
ENDBRANCH   3   4
ENDBRANCH   2   3
ENDBRANCH   1   2
BRANCH   1  37
ATOM     37  C   UNL A   1      46.949  36.269  33.154  1.00  0.00     0.002 C 
BRANCH  37  38
ATOM     38  C   UNL A   1      48.159  37.150  32.831  1.00  0.00     0.021 C 
BRANCH  38  39
ATOM     39  C   UNL A   1      49.151  36.553  31.837  1.00  0.00     0.116 C 
BRANCH  39  40
ATOM     40  N   UNL A   1      49.177  37.270  30.574  1.00  0.00    -0.352 N 
ATOM     41  C   UNL A   1      48.818  36.837  29.323  1.00  0.00     0.251 C 
ATOM     42  H   UNL A   1      49.499  38.199  30.623  1.00  0.00     0.163 HD
ATOM     43  O   UNL A   1      49.044  37.540  28.343  1.00  0.00    -0.269 OA
BRANCH  41  44
ATOM     44  C   UNL A   1      48.182  35.512  29.153  1.00  0.00     0.039 A 
ATOM     45  C   UNL A   1      47.397  35.284  28.018  1.00  0.00     0.014 A 
ATOM     46  C   UNL A   1      48.346  34.503  30.107  1.00  0.00     0.014 A 
ATOM     47  C   UNL A   1      46.820  34.029  27.814  1.00  0.00     0.010 A 
ATOM     48  C   UNL A   1      47.817  33.235  29.874  1.00  0.00     0.010 A 
ATOM     49  C   UNL A   1      47.047  32.987  28.727  1.00  0.00    -0.014 A 
BRANCH  49  50
ATOM     50  C   UNL A   1      46.486  31.632  28.497  1.00  0.00     0.031 A 
ATOM     51  C   UNL A   1      47.321  30.569  27.836  1.00  0.00     0.074 A 
ATOM     52  C   UNL A   1      45.205  31.376  28.829  1.00  0.00     0.049 A 
ATOM     53  N   UNL A   1      46.989  29.348  27.507  1.00  0.00    -0.248 NA
ATOM     54  C   UNL A   1      48.701  30.935  27.478  1.00  0.00     0.031 C 
ATOM     55  C   UNL A   1      44.280  32.335  29.437  1.00  0.00     0.029 A 
ATOM     56  N   UNL A   1      44.459  30.233  28.695  1.00  0.00    -0.354 N 
ATOM     57  C   UNL A   1      48.108  28.806  26.887  1.00  0.00     0.074 A 
ATOM     58  C   UNL A   1      49.115  29.845  26.850  1.00  0.00     0.031 C 
ATOM     59  C   UNL A   1      43.097  31.734  29.641  1.00  0.00     0.029 A 
ATOM     60  C   UNL A   1      43.168  30.361  29.151  1.00  0.00     0.049 A 
ATOM     61  H   UNL A   1      44.813  29.400  28.308  1.00  0.00     0.167 HD
ATOM     62  C   UNL A   1      48.289  27.551  26.406  1.00  0.00     0.031 A 
ATOM     63  C   UNL A   1      42.154  29.475  29.172  1.00  0.00     0.031 A 
ATOM     64  C   UNL A   1      47.293  26.515  26.458  1.00  0.00     0.049 A 
ATOM     65  C   UNL A   1      42.381  28.085  28.645  1.00  0.00     0.074 A 
ATOM     66  C   UNL A   1      47.400  25.197  26.050  1.00  0.00     0.029 A 
ATOM     67  N   UNL A   1      46.007  26.679  26.948  1.00  0.00    -0.354 N 
ATOM     68  N   UNL A   1      43.467  27.574  28.117  1.00  0.00    -0.248 NA
ATOM     69  C   UNL A   1      41.251  27.150  28.730  1.00  0.00     0.031 C 
ATOM     70  C   UNL A   1      46.165  24.574  26.258  1.00  0.00     0.029 A 
ATOM     71  C   UNL A   1      45.303  25.491  26.838  1.00  0.00     0.049 A 
ATOM     72  H   UNL A   1      45.647  27.516  27.322  1.00  0.00     0.167 HD
ATOM     73  C   UNL A   1      43.158  26.250  27.824  1.00  0.00     0.074 A 
ATOM     74  C   UNL A   1      41.788  26.037  28.247  1.00  0.00     0.031 C 
ATOM     75  C   UNL A   1      43.939  25.299  27.258  1.00  0.00     0.031 A 
BRANCH  62  76
ATOM     76  C   UNL A   1      49.620  27.240  25.774  1.00  0.00    -0.014 A 
ATOM     77  C   UNL A   1      50.713  26.820  26.554  1.00  0.00     0.010 A 
ATOM     78  C   UNL A   1      49.775  27.350  24.381  1.00  0.00     0.010 A 
ATOM     79  C   UNL A   1      51.950  26.565  25.959  1.00  0.00     0.020 A 
ATOM     80  C   UNL A   1      51.005  27.071  23.778  1.00  0.00     0.020 A 
ATOM     81  C   UNL A   1      52.091  26.701  24.574  1.00  0.00     0.054 A 
BRANCH  81  82
ATOM     82  S   UNL A   1      53.708  26.362  23.823  1.00  0.00     0.124 S 
ATOM     83  O   UNL A   1      54.493  27.509  24.274  1.00  0.00    -0.237 OA
ATOM     84  O   UNL A   1      54.076  25.079  24.414  1.00  0.00    -0.237 OA
ATOM     85  O   UNL A   1      53.422  26.326  22.391  1.00  0.00    -0.744 OA
ENDBRANCH  81  82
ENDBRANCH  62  76
BRANCH  63  86
ATOM     86  C   UNL A   1      40.835  29.877  29.730  1.00  0.00    -0.014 A 
ATOM     87  C   UNL A   1      40.663  30.019  31.118  1.00  0.00     0.010 A 
ATOM     88  C   UNL A   1      39.755  30.154  28.873  1.00  0.00     0.010 A 
ATOM     89  C   UNL A   1      39.430  30.423  31.640  1.00  0.00     0.020 A 
ATOM     90  C   UNL A   1      38.528  30.581  29.390  1.00  0.00     0.020 A 
ATOM     91  C   UNL A   1      38.372  30.705  30.772  1.00  0.00     0.054 A 
BRANCH  91  92
ATOM     92  S   UNL A   1      36.801  31.301  31.461  1.00  0.00     0.124 S 
ATOM     93  O   UNL A   1      36.469  32.395  30.555  1.00  0.00    -0.237 OA
ATOM     94  O   UNL A   1      35.945  30.120  31.370  1.00  0.00    -0.237 OA
ATOM     95  O   UNL A   1      37.155  31.697  32.822  1.00  0.00    -0.744 OA
ENDBRANCH  91  92
ENDBRANCH  63  86
BRANCH  75  96
ATOM     96  C   UNL A   1      43.338  23.930  27.083  1.00  0.00    -0.014 A 
ATOM     97  C   UNL A   1      42.813  23.521  25.845  1.00  0.00     0.010 A 
ATOM     98  C   UNL A   1      43.347  23.025  28.160  1.00  0.00     0.010 A 
ATOM     99  C   UNL A   1      42.279  22.239  25.695  1.00  0.00     0.020 A 
ATOM    100  C   UNL A   1      42.835  21.734  28.007  1.00  0.00     0.020 A 
ATOM    101  C   UNL A   1      42.291  21.354  26.778  1.00  0.00     0.054 A 
BRANCH 101 102
ATOM    102  S   UNL A   1      41.632  19.680  26.548  1.00  0.00     0.124 S 
ATOM    103  O   UNL A   1      40.201  19.934  26.412  1.00  0.00    -0.237 OA
ATOM    104  O   UNL A   1      42.308  19.230  25.335  1.00  0.00    -0.237 OA
ATOM    105  O   UNL A   1      42.028  18.983  27.770  1.00  0.00    -0.744 OA
ENDBRANCH 101 102
ENDBRANCH  75  96
ENDBRANCH  49  50
ENDBRANCH  41  44
ENDBRANCH  39  40
ENDBRANCH  38  39
ENDBRANCH  37  38
ENDBRANCH   1  37
TORSDOF 22
ENDMDL
