MODEL 1
REMARK VINA RESULT:     -11.3      0.000      0.000
REMARK SMILES C/C(=N/OCc1ccccc1Nc1c(Cl)cccc1Cl)C(=O)NCCCCCCNC(=O)c1ccc(-c2c3nc(c(-c4ccc(S(=O)(=O)[O-])cc4)c4ccc([nH]4)c(-c4ccc(S(=O)(=O)[O-])cc4)c4nc(c(-c5ccc(S(=O)(=O)[O-])cc5)c5ccc2[nH]5)C=C4)C=C3)cc1
REMARK SMILES IDX 25 1 24 2 23 3 21 4 22 5 2 7 1 8 3 9 4 10 5 11 6 12 7 13
REMARK SMILES IDX 11 14 8 15 10 16 9 17 12 18 13 20 14 21 19 22 15 23 16 24
REMARK SMILES IDX 18 25 20 26 17 27 26 28 27 29 28 30 29 31 30 32 31 33 32 35
REMARK SMILES IDX 33 36 34 37 92 38 35 39 91 40 36 41 37 42 38 43 85 44 39 45
REMARK SMILES IDX 90 46 84 47 86 48 40 49 89 50 83 51 82 52 41 54 71 55 52 56
REMARK SMILES IDX 70 57 53 58 56 59 69 60 87 61 54 62 55 63 68 65 88 66 57 67
REMARK SMILES IDX 42 68 43 69 51 70 44 71 50 72 45 73 46 74 47 75 48 76 49 77
REMARK SMILES IDX 72 78 73 79 81 80 74 81 80 82 75 83 76 84 77 85 78 86 79 87
REMARK SMILES IDX 58 88 59 89 67 90 60 91 66 92 61 93 62 94 63 95 64 96 65 97
REMARK H PARENT 23 6 12 19 30 34 86 53 56 64
REMARK Flexibility Score: inf
ROOT
ATOM      1  C   UNL A   1      30.550  28.498  23.807  1.00  0.00     0.021 C 
ENDROOT
BRANCH   1   2
ATOM      2  C   UNL A   1      31.106  27.423  22.860  1.00  0.00     0.116 C 
BRANCH   2   3
ATOM      3  N   UNL A   1      30.553  26.136  23.223  1.00  0.00    -0.351 N 
ATOM      4  C   UNL A   1      31.109  24.884  23.217  1.00  0.00     0.268 C 
ATOM      5  O   UNL A   1      30.348  23.917  23.310  1.00  0.00    -0.268 OA
ATOM      6  H   UNL A   1      29.616  26.165  23.529  1.00  0.00     0.163 HD
BRANCH   4   7
ATOM      7  C   UNL A   1      32.600  24.580  23.252  1.00  0.00     0.141 C 
ATOM      8  C   UNL A   1      33.448  25.794  23.568  1.00  0.00     0.077 C 
ATOM      9  N   UNL A   1      33.237  23.453  23.122  1.00  0.00    -0.086 NA
BRANCH   9  10
ATOM     10  O   UNL A   1      32.432  22.360  22.832  1.00  0.00    -0.390 OA
BRANCH  10  11
ATOM     11  C   UNL A   1      32.323  21.475  23.962  1.00  0.00     0.302 C 
BRANCH  11  12
ATOM     12  C   UNL A   1      32.822  20.050  23.767  1.00  0.00     0.016 A 
ATOM     13  C   UNL A   1      32.295  19.259  22.731  1.00  0.00     0.009 A 
ATOM     14  C   UNL A   1      33.757  19.487  24.667  1.00  0.00     0.045 A 
ATOM     15  C   UNL A   1      32.618  17.905  22.638  1.00  0.00     0.001 A 
ATOM     16  C   UNL A   1      33.995  18.108  24.610  1.00  0.00     0.026 A 
ATOM     17  C   UNL A   1      33.443  17.324  23.593  1.00  0.00     0.002 A 
BRANCH  14  18
ATOM     18  N   UNL A   1      34.333  20.309  25.655  1.00  0.00    -0.353 N 
ATOM     19  H   UNL A   1      34.012  20.135  26.570  1.00  0.00     0.167 HD
BRANCH  18  20
ATOM     20  C   UNL A   1      35.291  21.338  25.561  1.00  0.00     0.076 A 
ATOM     21  C   UNL A   1      36.618  21.011  25.216  1.00  0.00     0.066 A 
ATOM     22  C   UNL A   1      35.035  22.661  25.968  1.00  0.00     0.066 A 
ATOM     23  Cl  UNL A   1      37.067  19.385  24.816  1.00  0.00    -0.082 Cl
ATOM     24  C   UNL A   1      37.626  21.980  25.190  1.00  0.00     0.023 A 
ATOM     25  C   UNL A   1      36.044  23.632  25.937  1.00  0.00     0.023 A 
ATOM     26  Cl  UNL A   1      33.494  23.159  26.581  1.00  0.00    -0.082 Cl
ATOM     27  C   UNL A   1      37.336  23.294  25.540  1.00  0.00     0.003 A 
ENDBRANCH  18  20
ENDBRANCH  14  18
ENDBRANCH  11  12
ENDBRANCH  10  11
ENDBRANCH   9  10
ENDBRANCH   4   7
ENDBRANCH   2   3
ENDBRANCH   1   2
BRANCH   1  28
ATOM     28  C   UNL A   1      31.397  28.715  25.063  1.00  0.00     0.002 C 
BRANCH  28  29
ATOM     29  C   UNL A   1      31.537  27.469  25.944  1.00  0.00     0.002 C 
BRANCH  29  30
ATOM     30  C   UNL A   1      32.317  27.673  27.247  1.00  0.00     0.021 C 
BRANCH  30  31
ATOM     31  C   UNL A   1      33.656  28.390  27.085  1.00  0.00     0.116 C 
BRANCH  31  32
ATOM     32  N   UNL A   1      33.538  29.809  27.377  1.00  0.00    -0.352 N 
ATOM     33  C   UNL A   1      34.393  30.631  28.069  1.00  0.00     0.251 C 
ATOM     34  H   UNL A   1      32.726  30.244  27.028  1.00  0.00     0.163 HD
ATOM     35  O   UNL A   1      34.007  31.731  28.450  1.00  0.00    -0.269 OA
BRANCH  33  36
ATOM     36  C   UNL A   1      35.775  30.189  28.353  1.00  0.00     0.039 A 
ATOM     37  C   UNL A   1      36.730  30.242  27.332  1.00  0.00     0.014 A 
ATOM     38  C   UNL A   1      36.120  29.690  29.613  1.00  0.00     0.014 A 
ATOM     39  C   UNL A   1      38.041  29.838  27.590  1.00  0.00     0.010 A 
ATOM     40  C   UNL A   1      37.443  29.349  29.886  1.00  0.00     0.010 A 
ATOM     41  C   UNL A   1      38.414  29.411  28.875  1.00  0.00    -0.014 A 
BRANCH  41  42
ATOM     42  C   UNL A   1      39.814  29.020  29.182  1.00  0.00     0.031 A 
ATOM     43  C   UNL A   1      40.758  30.015  29.804  1.00  0.00     0.074 A 
ATOM     44  C   UNL A   1      40.252  27.792  28.841  1.00  0.00     0.049 A 
ATOM     45  N   UNL A   1      42.029  29.879  30.086  1.00  0.00    -0.248 NA
ATOM     46  C   UNL A   1      40.208  31.341  30.129  1.00  0.00     0.031 C 
ATOM     47  C   UNL A   1      39.445  26.753  28.197  1.00  0.00     0.029 A 
ATOM     48  N   UNL A   1      41.488  27.213  28.981  1.00  0.00    -0.354 N 
ATOM     49  C   UNL A   1      42.434  31.105  30.603  1.00  0.00     0.074 A 
ATOM     50  C   UNL A   1      41.287  31.985  30.554  1.00  0.00     0.031 C 
ATOM     51  C   UNL A   1      40.200  25.658  28.019  1.00  0.00     0.029 A 
ATOM     52  C   UNL A   1      41.551  25.927  28.499  1.00  0.00     0.049 A 
ATOM     53  H   UNL A   1      42.256  27.673  29.389  1.00  0.00     0.167 HD
ATOM     54  C   UNL A   1      43.646  31.461  31.091  1.00  0.00     0.031 A 
ATOM     55  C   UNL A   1      42.584  25.063  28.441  1.00  0.00     0.031 A 
ATOM     56  C   UNL A   1      44.781  30.578  31.150  1.00  0.00     0.049 A 
ATOM     57  C   UNL A   1      43.921  25.482  28.987  1.00  0.00     0.074 A 
ATOM     58  C   UNL A   1      46.037  30.827  31.677  1.00  0.00     0.029 A 
ATOM     59  N   UNL A   1      44.800  29.279  30.665  1.00  0.00    -0.354 N 
ATOM     60  N   UNL A   1      44.267  26.625  29.529  1.00  0.00    -0.248 NA
ATOM     61  C   UNL A   1      45.002  24.488  28.925  1.00  0.00     0.031 C 
ATOM     62  C   UNL A   1      46.830  29.692  31.469  1.00  0.00     0.029 A 
ATOM     63  C   UNL A   1      46.051  28.719  30.861  1.00  0.00     0.049 A 
ATOM     64  H   UNL A   1      44.037  28.823  30.243  1.00  0.00     0.167 HD
ATOM     65  C   UNL A   1      45.600  26.480  29.896  1.00  0.00     0.074 A 
ATOM     66  C   UNL A   1      45.992  25.134  29.528  1.00  0.00     0.031 C 
ATOM     67  C   UNL A   1      46.425  27.379  30.487  1.00  0.00     0.031 A 
BRANCH  54  68
ATOM     68  C   UNL A   1      43.807  32.871  31.596  1.00  0.00    -0.014 A 
ATOM     69  C   UNL A   1      43.581  33.189  32.948  1.00  0.00     0.010 A 
ATOM     70  C   UNL A   1      44.223  33.887  30.717  1.00  0.00     0.010 A 
ATOM     71  C   UNL A   1      43.724  34.502  33.402  1.00  0.00     0.020 A 
ATOM     72  C   UNL A   1      44.395  35.198  31.173  1.00  0.00     0.020 A 
ATOM     73  C   UNL A   1      44.127  35.500  32.509  1.00  0.00     0.054 A 
BRANCH  73  74
ATOM     74  S   UNL A   1      44.324  37.193  33.128  1.00  0.00     0.124 S 
ATOM     75  O   UNL A   1      42.999  37.466  33.682  1.00  0.00    -0.237 OA
ATOM     76  O   UNL A   1      45.397  37.055  34.109  1.00  0.00    -0.237 OA
ATOM     77  O   UNL A   1      44.668  37.962  31.935  1.00  0.00    -0.744 OA
ENDBRANCH  73  74
ENDBRANCH  54  68
BRANCH  55  78
ATOM     78  C   UNL A   1      42.384  23.708  27.858  1.00  0.00    -0.014 A 
ATOM     79  C   UNL A   1      42.687  23.462  26.507  1.00  0.00     0.010 A 
ATOM     80  C   UNL A   1      41.909  22.651  28.657  1.00  0.00     0.010 A 
ATOM     81  C   UNL A   1      42.502  22.189  25.960  1.00  0.00     0.020 A 
ATOM     82  C   UNL A   1      41.749  21.371  28.120  1.00  0.00     0.020 A 
ATOM     83  C   UNL A   1      42.037  21.150  26.772  1.00  0.00     0.054 A 
BRANCH  83  84
ATOM     84  S   UNL A   1      41.859  19.492  26.057  1.00  0.00     0.124 S 
ATOM     85  O   UNL A   1      42.326  18.640  27.146  1.00  0.00    -0.237 OA
ATOM     86  O   UNL A   1      40.428  19.423  25.768  1.00  0.00    -0.237 OA
ATOM     87  O   UNL A   1      42.723  19.534  24.879  1.00  0.00    -0.744 OA
ENDBRANCH  83  84
ENDBRANCH  55  78
BRANCH  67  88
ATOM     88  C   UNL A   1      47.826  26.929  30.804  1.00  0.00    -0.014 A 
ATOM     89  C   UNL A   1      48.889  27.178  29.918  1.00  0.00     0.010 A 
ATOM     90  C   UNL A   1      48.090  26.296  32.032  1.00  0.00     0.010 A 
ATOM     91  C   UNL A   1      50.188  26.774  30.243  1.00  0.00     0.020 A 
ATOM     92  C   UNL A   1      49.390  25.916  32.372  1.00  0.00     0.020 A 
ATOM     93  C   UNL A   1      50.428  26.144  31.468  1.00  0.00     0.054 A 
BRANCH  93  94
ATOM     94  S   UNL A   1      52.129  25.671  31.887  1.00  0.00     0.124 S 
ATOM     95  O   UNL A   1      52.408  26.530  33.035  1.00  0.00    -0.237 OA
ATOM     96  O   UNL A   1      52.003  24.247  32.184  1.00  0.00    -0.237 OA
ATOM     97  O   UNL A   1      52.884  25.984  30.675  1.00  0.00    -0.744 OA
ENDBRANCH  93  94
ENDBRANCH  67  88
ENDBRANCH  41  42
ENDBRANCH  33  36
ENDBRANCH  31  32
ENDBRANCH  30  31
ENDBRANCH  29  30
ENDBRANCH  28  29
ENDBRANCH   1  28
TORSDOF 21
ENDMDL
MODEL 2
REMARK VINA RESULT:     -11.2      4.759      6.980
REMARK SMILES C/C(=N/OCc1ccccc1Nc1c(Cl)cccc1Cl)C(=O)NCCCCCCNC(=O)c1ccc(-c2c3nc(c(-c4ccc(S(=O)(=O)[O-])cc4)c4ccc([nH]4)c(-c4ccc(S(=O)(=O)[O-])cc4)c4nc(c(-c5ccc(S(=O)(=O)[O-])cc5)c5ccc2[nH]5)C=C4)C=C3)cc1
REMARK SMILES IDX 25 1 24 2 23 3 21 4 22 5 2 7 1 8 3 9 4 10 5 11 6 12 7 13
REMARK SMILES IDX 11 14 8 15 10 16 9 17 12 18 13 20 14 21 19 22 15 23 16 24
REMARK SMILES IDX 18 25 20 26 17 27 26 28 27 29 28 30 29 31 30 32 31 33 32 35
REMARK SMILES IDX 33 36 34 37 92 38 35 39 91 40 36 41 37 42 38 43 85 44 39 45
REMARK SMILES IDX 90 46 84 47 86 48 40 49 89 50 83 51 82 52 41 54 71 55 52 56
REMARK SMILES IDX 70 57 53 58 56 59 69 60 87 61 54 62 55 63 68 65 88 66 57 67
REMARK SMILES IDX 42 68 43 69 51 70 44 71 50 72 45 73 46 74 47 75 48 76 49 77
REMARK SMILES IDX 72 78 73 79 81 80 74 81 80 82 75 83 76 84 77 85 78 86 79 87
REMARK SMILES IDX 58 88 59 89 67 90 60 91 66 92 61 93 62 94 63 95 64 96 65 97
REMARK H PARENT 23 6 12 19 30 34 86 53 56 64
REMARK Flexibility Score: inf
ROOT
ATOM      1  C   UNL A   1      36.132  31.292  28.052  1.00  0.00     0.021 C 
ENDROOT
BRANCH   1   2
ATOM      2  C   UNL A   1      35.058  30.243  27.721  1.00  0.00     0.116 C 
BRANCH   2   3
ATOM      3  N   UNL A   1      33.766  30.891  27.650  1.00  0.00    -0.351 N 
ATOM      4  C   UNL A   1      32.599  30.506  27.042  1.00  0.00     0.268 C 
ATOM      5  O   UNL A   1      31.720  31.359  26.896  1.00  0.00    -0.268 OA
ATOM      6  H   UNL A   1      33.716  31.756  28.119  1.00  0.00     0.163 HD
BRANCH   4   7
ATOM      7  C   UNL A   1      32.231  29.078  26.662  1.00  0.00     0.141 C 
ATOM      8  C   UNL A   1      31.564  28.316  27.788  1.00  0.00     0.077 C 
ATOM      9  N   UNL A   1      32.337  28.451  25.528  1.00  0.00    -0.086 NA
BRANCH   9  10
ATOM     10  O   UNL A   1      32.953  29.177  24.517  1.00  0.00    -0.390 OA
BRANCH  10  11
ATOM     11  C   UNL A   1      32.347  28.912  23.239  1.00  0.00     0.302 C 
BRANCH  11  12
ATOM     12  C   UNL A   1      30.984  28.235  23.253  1.00  0.00     0.016 A 
ATOM     13  C   UNL A   1      29.830  28.977  22.944  1.00  0.00     0.009 A 
ATOM     14  C   UNL A   1      30.859  26.883  23.648  1.00  0.00     0.045 A 
ATOM     15  C   UNL A   1      28.563  28.418  23.110  1.00  0.00     0.001 A 
ATOM     16  C   UNL A   1      29.577  26.373  23.895  1.00  0.00     0.026 A 
ATOM     17  C   UNL A   1      28.436  27.128  23.613  1.00  0.00     0.002 A 
BRANCH  14  18
ATOM     18  N   UNL A   1      32.026  26.129  23.883  1.00  0.00    -0.353 N 
ATOM     19  H   UNL A   1      32.768  26.640  24.281  1.00  0.00     0.167 HD
BRANCH  18  20
ATOM     20  C   UNL A   1      32.314  24.771  23.647  1.00  0.00     0.076 A 
ATOM     21  C   UNL A   1      32.397  23.886  24.742  1.00  0.00     0.066 A 
ATOM     22  C   UNL A   1      32.702  24.279  22.387  1.00  0.00     0.066 A 
ATOM     23  Cl  UNL A   1      32.058  24.422  26.355  1.00  0.00    -0.082 Cl
ATOM     24  C   UNL A   1      32.762  22.547  24.572  1.00  0.00     0.023 A 
ATOM     25  C   UNL A   1      33.063  22.936  22.217  1.00  0.00     0.023 A 
ATOM     26  Cl  UNL A   1      32.814  25.297  20.990  1.00  0.00    -0.082 Cl
ATOM     27  C   UNL A   1      33.084  22.069  23.307  1.00  0.00     0.003 A 
ENDBRANCH  18  20
ENDBRANCH  14  18
ENDBRANCH  11  12
ENDBRANCH  10  11
ENDBRANCH   9  10
ENDBRANCH   4   7
ENDBRANCH   2   3
ENDBRANCH   1   2
BRANCH   1  28
ATOM     28  C   UNL A   1      35.639  32.417  28.965  1.00  0.00     0.002 C 
BRANCH  28  29
ATOM     29  C   UNL A   1      35.910  33.824  28.422  1.00  0.00     0.002 C 
BRANCH  29  30
ATOM     30  C   UNL A   1      34.717  34.785  28.468  1.00  0.00     0.021 C 
BRANCH  30  31
ATOM     31  C   UNL A   1      33.427  34.175  29.012  1.00  0.00     0.116 C 
BRANCH  31  32
ATOM     32  N   UNL A   1      32.860  34.990  30.074  1.00  0.00    -0.352 N 
ATOM     33  C   UNL A   1      33.177  35.026  31.409  1.00  0.00     0.251 C 
ATOM     34  H   UNL A   1      32.144  35.606  29.795  1.00  0.00     0.163 HD
ATOM     35  O   UNL A   1      32.418  35.573  32.203  1.00  0.00    -0.269 OA
BRANCH  33  36
ATOM     36  C   UNL A   1      34.432  34.406  31.888  1.00  0.00     0.039 A 
ATOM     37  C   UNL A   1      34.413  33.074  32.313  1.00  0.00     0.014 A 
ATOM     38  C   UNL A   1      35.615  35.147  31.952  1.00  0.00     0.014 A 
ATOM     39  C   UNL A   1      35.592  32.473  32.758  1.00  0.00     0.010 A 
ATOM     40  C   UNL A   1      36.802  34.528  32.335  1.00  0.00     0.010 A 
ATOM     41  C   UNL A   1      36.801  33.187  32.749  1.00  0.00    -0.014 A 
BRANCH  41  42
ATOM     42  C   UNL A   1      38.075  32.553  33.176  1.00  0.00     0.031 A 
ATOM     43  C   UNL A   1      38.625  32.813  34.553  1.00  0.00     0.074 A 
ATOM     44  C   UNL A   1      38.767  31.796  32.302  1.00  0.00     0.049 A 
ATOM     45  N   UNL A   1      39.749  32.401  35.083  1.00  0.00    -0.248 NA
ATOM     46  C   UNL A   1      37.819  33.666  35.442  1.00  0.00     0.031 C 
ATOM     47  C   UNL A   1      38.358  31.503  30.926  1.00  0.00     0.029 A 
ATOM     48  N   UNL A   1      39.965  31.142  32.438  1.00  0.00    -0.354 N 
ATOM     49  C   UNL A   1      39.793  32.958  36.356  1.00  0.00     0.074 A 
ATOM     50  C   UNL A   1      38.607  33.773  36.503  1.00  0.00     0.031 C 
ATOM     51  C   UNL A   1      39.278  30.710  30.354  1.00  0.00     0.029 A 
ATOM     52  C   UNL A   1      40.358  30.470  31.306  1.00  0.00     0.049 A 
ATOM     53  H   UNL A   1      40.494  31.152  33.269  1.00  0.00     0.167 HD
ATOM     54  C   UNL A   1      40.728  32.793  37.322  1.00  0.00     0.031 A 
ATOM     55  C   UNL A   1      41.468  29.748  31.056  1.00  0.00     0.031 A 
ATOM     56  C   UNL A   1      41.900  31.971  37.176  1.00  0.00     0.049 A 
ATOM     57  C   UNL A   1      42.493  29.580  32.144  1.00  0.00     0.074 A 
ATOM     58  C   UNL A   1      42.879  31.694  38.116  1.00  0.00     0.029 A 
ATOM     59  N   UNL A   1      42.254  31.294  36.018  1.00  0.00    -0.354 N 
ATOM     60  N   UNL A   1      42.486  30.064  33.363  1.00  0.00    -0.248 NA
ATOM     61  C   UNL A   1      43.669  28.757  31.825  1.00  0.00     0.031 C 
ATOM     62  C   UNL A   1      43.849  30.887  37.510  1.00  0.00     0.029 A 
ATOM     63  C   UNL A   1      43.447  30.618  36.211  1.00  0.00     0.049 A 
ATOM     64  H   UNL A   1      41.735  31.297  35.183  1.00  0.00     0.167 HD
ATOM     65  C   UNL A   1      43.643  29.584  33.966  1.00  0.00     0.074 A 
ATOM     66  C   UNL A   1      44.318  28.760  32.983  1.00  0.00     0.031 C 
ATOM     67  C   UNL A   1      44.104  29.804  35.221  1.00  0.00     0.031 A 
BRANCH  54  68
ATOM     68  C   UNL A   1      40.521  33.522  38.624  1.00  0.00    -0.014 A 
ATOM     69  C   UNL A   1      39.650  33.019  39.608  1.00  0.00     0.010 A 
ATOM     70  C   UNL A   1      41.231  34.708  38.883  1.00  0.00     0.010 A 
ATOM     71  C   UNL A   1      39.459  33.710  40.807  1.00  0.00     0.020 A 
ATOM     72  C   UNL A   1      41.065  35.388  40.094  1.00  0.00     0.020 A 
ATOM     73  C   UNL A   1      40.166  34.894  41.041  1.00  0.00     0.054 A 
BRANCH  73  74
ATOM     74  S   UNL A   1      39.914  35.761  42.613  1.00  0.00     0.124 S 
ATOM     75  O   UNL A   1      40.696  34.942  43.536  1.00  0.00    -0.237 OA
ATOM     76  O   UNL A   1      40.457  37.089  42.339  1.00  0.00    -0.237 OA
ATOM     77  O   UNL A   1      38.467  35.711  42.810  1.00  0.00    -0.744 OA
ENDBRANCH  73  74
ENDBRANCH  54  68
BRANCH  55  78
ATOM     78  C   UNL A   1      41.656  29.114  29.722  1.00  0.00    -0.014 A 
ATOM     79  C   UNL A   1      42.280  29.821  28.679  1.00  0.00     0.010 A 
ATOM     80  C   UNL A   1      41.228  27.793  29.494  1.00  0.00     0.010 A 
ATOM     81  C   UNL A   1      42.459  29.224  27.428  1.00  0.00     0.020 A 
ATOM     82  C   UNL A   1      41.429  27.185  28.252  1.00  0.00     0.020 A 
ATOM     83  C   UNL A   1      42.034  27.908  27.223  1.00  0.00     0.054 A 
BRANCH  83  84
ATOM     84  S   UNL A   1      42.328  27.134  25.608  1.00  0.00     0.124 S 
ATOM     85  O   UNL A   1      41.171  26.254  25.479  1.00  0.00    -0.237 OA
ATOM     86  O   UNL A   1      42.353  28.283  24.706  1.00  0.00    -0.237 OA
ATOM     87  O   UNL A   1      43.613  26.460  25.781  1.00  0.00    -0.744 OA
ENDBRANCH  83  84
ENDBRANCH  55  78
BRANCH  67  88
ATOM     88  C   UNL A   1      45.385  29.118  35.618  1.00  0.00    -0.014 A 
ATOM     89  C   UNL A   1      46.633  29.732  35.416  1.00  0.00     0.010 A 
ATOM     90  C   UNL A   1      45.331  27.863  36.252  1.00  0.00     0.010 A 
ATOM     91  C   UNL A   1      47.808  29.088  35.815  1.00  0.00     0.020 A 
ATOM     92  C   UNL A   1      46.501  27.230  36.677  1.00  0.00     0.020 A 
ATOM     93  C   UNL A   1      47.734  27.841  36.442  1.00  0.00     0.054 A 
BRANCH  93  94
ATOM     94  S   UNL A   1      49.269  27.047  36.992  1.00  0.00     0.124 S 
ATOM     95  O   UNL A   1      50.285  27.855  36.321  1.00  0.00    -0.237 OA
ATOM     96  O   UNL A   1      49.207  27.195  38.443  1.00  0.00    -0.237 OA
ATOM     97  O   UNL A   1      49.143  25.674  36.505  1.00  0.00    -0.744 OA
ENDBRANCH  93  94
ENDBRANCH  67  88
ENDBRANCH  41  42
ENDBRANCH  33  36
ENDBRANCH  31  32
ENDBRANCH  30  31
ENDBRANCH  29  30
ENDBRANCH  28  29
ENDBRANCH   1  28
TORSDOF 21
ENDMDL
MODEL 3
REMARK VINA RESULT:     -10.9      4.182      9.257
REMARK SMILES C/C(=N/OCc1ccccc1Nc1c(Cl)cccc1Cl)C(=O)NCCCCCCNC(=O)c1ccc(-c2c3nc(c(-c4ccc(S(=O)(=O)[O-])cc4)c4ccc([nH]4)c(-c4ccc(S(=O)(=O)[O-])cc4)c4nc(c(-c5ccc(S(=O)(=O)[O-])cc5)c5ccc2[nH]5)C=C4)C=C3)cc1
REMARK SMILES IDX 25 1 24 2 23 3 21 4 22 5 2 7 1 8 3 9 4 10 5 11 6 12 7 13
REMARK SMILES IDX 11 14 8 15 10 16 9 17 12 18 13 20 14 21 19 22 15 23 16 24
REMARK SMILES IDX 18 25 20 26 17 27 26 28 27 29 28 30 29 31 30 32 31 33 32 35
REMARK SMILES IDX 33 36 34 37 92 38 35 39 91 40 36 41 37 42 38 43 85 44 39 45
REMARK SMILES IDX 90 46 84 47 86 48 40 49 89 50 83 51 82 52 41 54 71 55 52 56
REMARK SMILES IDX 70 57 53 58 56 59 69 60 87 61 54 62 55 63 68 65 88 66 57 67
REMARK SMILES IDX 42 68 43 69 51 70 44 71 50 72 45 73 46 74 47 75 48 76 49 77
REMARK SMILES IDX 72 78 73 79 81 80 74 81 80 82 75 83 76 84 77 85 78 86 79 87
REMARK SMILES IDX 58 88 59 89 67 90 60 91 66 92 61 93 62 94 63 95 64 96 65 97
REMARK H PARENT 23 6 12 19 30 34 86 53 56 64
REMARK Flexibility Score: inf
ROOT
ATOM      1  C   UNL A   1      31.946  28.975  24.494  1.00  0.00     0.021 C 
ENDROOT
BRANCH   1   2
ATOM      2  C   UNL A   1      32.334  27.504  24.715  1.00  0.00     0.116 C 
BRANCH   2   3
ATOM      3  N   UNL A   1      31.452  26.923  25.704  1.00  0.00    -0.351 N 
ATOM      4  C   UNL A   1      30.811  25.712  25.737  1.00  0.00     0.268 C 
ATOM      5  O   UNL A   1      29.902  25.565  26.557  1.00  0.00    -0.268 OA
ATOM      6  H   UNL A   1      31.284  27.495  26.488  1.00  0.00     0.163 HD
BRANCH   4   7
ATOM      7  C   UNL A   1      31.220  24.475  24.948  1.00  0.00     0.141 C 
ATOM      8  C   UNL A   1      30.616  24.428  23.560  1.00  0.00     0.077 C 
ATOM      9  N   UNL A   1      32.040  23.512  25.251  1.00  0.00    -0.086 NA
BRANCH   9  10
ATOM     10  O   UNL A   1      32.575  23.584  26.530  1.00  0.00    -0.390 OA
BRANCH  10  11
ATOM     11  C   UNL A   1      33.482  22.494  26.780  1.00  0.00     0.302 C 
BRANCH  11  12
ATOM     12  C   UNL A   1      34.775  22.480  25.977  1.00  0.00     0.016 A 
ATOM     13  C   UNL A   1      35.523  23.661  25.833  1.00  0.00     0.009 A 
ATOM     14  C   UNL A   1      35.191  21.305  25.309  1.00  0.00     0.045 A 
ATOM     15  C   UNL A   1      36.618  23.706  24.969  1.00  0.00     0.001 A 
ATOM     16  C   UNL A   1      36.235  21.397  24.380  1.00  0.00     0.026 A 
ATOM     17  C   UNL A   1      36.955  22.584  24.221  1.00  0.00     0.002 A 
BRANCH  14  18
ATOM     18  N   UNL A   1      34.476  20.109  25.520  1.00  0.00    -0.353 N 
ATOM     19  H   UNL A   1      34.346  19.874  26.468  1.00  0.00     0.167 HD
BRANCH  18  20
ATOM     20  C   UNL A   1      33.913  19.193  24.610  1.00  0.00     0.076 A 
ATOM     21  C   UNL A   1      34.577  17.973  24.365  1.00  0.00     0.066 A 
ATOM     22  C   UNL A   1      32.811  19.506  23.793  1.00  0.00     0.066 A 
ATOM     23  Cl  UNL A   1      36.016  17.546  25.232  1.00  0.00    -0.082 Cl
ATOM     24  C   UNL A   1      34.107  17.066  23.411  1.00  0.00     0.023 A 
ATOM     25  C   UNL A   1      32.339  18.594  22.840  1.00  0.00     0.023 A 
ATOM     26  Cl  UNL A   1      32.009  21.040  23.867  1.00  0.00    -0.082 Cl
ATOM     27  C   UNL A   1      32.981  17.372  22.656  1.00  0.00     0.003 A 
ENDBRANCH  18  20
ENDBRANCH  14  18
ENDBRANCH  11  12
ENDBRANCH  10  11
ENDBRANCH   9  10
ENDBRANCH   4   7
ENDBRANCH   2   3
ENDBRANCH   1   2
BRANCH   1  28
ATOM     28  C   UNL A   1      32.519  29.931  25.542  1.00  0.00     0.002 C 
BRANCH  28  29
ATOM     29  C   UNL A   1      31.464  30.551  26.464  1.00  0.00     0.002 C 
BRANCH  29  30
ATOM     30  C   UNL A   1      31.534  32.075  26.608  1.00  0.00     0.021 C 
BRANCH  30  31
ATOM     31  C   UNL A   1      32.760  32.589  27.361  1.00  0.00     0.116 C 
BRANCH  31  32
ATOM     32  N   UNL A   1      32.604  33.984  27.740  1.00  0.00    -0.352 N 
ATOM     33  C   UNL A   1      33.194  34.680  28.766  1.00  0.00     0.251 C 
ATOM     34  H   UNL A   1      31.986  34.506  27.179  1.00  0.00     0.163 HD
ATOM     35  O   UNL A   1      32.744  35.770  29.103  1.00  0.00    -0.269 OA
BRANCH  33  36
ATOM     36  C   UNL A   1      34.369  34.114  29.464  1.00  0.00     0.039 A 
ATOM     37  C   UNL A   1      35.649  34.395  28.977  1.00  0.00     0.014 A 
ATOM     38  C   UNL A   1      34.206  33.279  30.573  1.00  0.00     0.014 A 
ATOM     39  C   UNL A   1      36.768  33.875  29.633  1.00  0.00     0.010 A 
ATOM     40  C   UNL A   1      35.324  32.815  31.263  1.00  0.00     0.010 A 
ATOM     41  C   UNL A   1      36.615  33.102  30.795  1.00  0.00    -0.014 A 
BRANCH  41  42
ATOM     42  C   UNL A   1      37.793  32.578  31.533  1.00  0.00     0.031 A 
ATOM     43  C   UNL A   1      38.570  31.411  30.984  1.00  0.00     0.074 A 
ATOM     44  C   UNL A   1      38.123  33.111  32.725  1.00  0.00     0.049 A 
ATOM     45  N   UNL A   1      39.586  30.775  31.513  1.00  0.00    -0.248 NA
ATOM     46  C   UNL A   1      38.136  30.873  29.685  1.00  0.00     0.031 C 
ATOM     47  C   UNL A   1      37.424  34.219  33.380  1.00  0.00     0.029 A 
ATOM     48  N   UNL A   1      39.126  32.787  33.603  1.00  0.00    -0.354 N 
ATOM     49  C   UNL A   1      39.898  29.754  30.623  1.00  0.00     0.074 A 
ATOM     50  C   UNL A   1      38.938  29.826  29.543  1.00  0.00     0.031 C 
ATOM     51  C   UNL A   1      38.032  34.496  34.544  1.00  0.00     0.029 A 
ATOM     52  C   UNL A   1      39.139  33.564  34.737  1.00  0.00     0.049 A 
ATOM     53  H   UNL A   1      39.776  32.067  33.437  1.00  0.00     0.167 HD
ATOM     54  C   UNL A   1      40.903  28.849  30.689  1.00  0.00     0.031 A 
ATOM     55  C   UNL A   1      39.944  33.526  35.816  1.00  0.00     0.031 A 
ATOM     56  C   UNL A   1      41.864  28.790  31.758  1.00  0.00     0.049 A 
ATOM     57  C   UNL A   1      41.053  32.511  35.868  1.00  0.00     0.074 A 
ATOM     58  C   UNL A   1      42.954  27.946  31.890  1.00  0.00     0.029 A 
ATOM     59  N   UNL A   1      41.852  29.604  32.881  1.00  0.00    -0.354 N 
ATOM     60  N   UNL A   1      41.370  31.594  34.986  1.00  0.00    -0.248 NA
ATOM     61  C   UNL A   1      41.919  32.536  37.055  1.00  0.00     0.031 C 
ATOM     62  C   UNL A   1      43.573  28.220  33.115  1.00  0.00     0.029 A 
ATOM     63  C   UNL A   1      42.901  29.270  33.720  1.00  0.00     0.049 A 
ATOM     64  H   UNL A   1      41.193  30.314  33.055  1.00  0.00     0.167 HD
ATOM     65  C   UNL A   1      42.489  30.947  35.499  1.00  0.00     0.074 A 
ATOM     66  C   UNL A   1      42.801  31.589  36.761  1.00  0.00     0.031 C 
ATOM     67  C   UNL A   1      43.196  29.918  34.973  1.00  0.00     0.031 A 
BRANCH  54  68
ATOM     68  C   UNL A   1      41.011  27.845  29.571  1.00  0.00    -0.014 A 
ATOM     69  C   UNL A   1      41.967  27.995  28.549  1.00  0.00     0.010 A 
ATOM     70  C   UNL A   1      40.170  26.718  29.559  1.00  0.00     0.010 A 
ATOM     71  C   UNL A   1      42.050  27.061  27.514  1.00  0.00     0.020 A 
ATOM     72  C   UNL A   1      40.269  25.766  28.539  1.00  0.00     0.020 A 
ATOM     73  C   UNL A   1      41.197  25.953  27.513  1.00  0.00     0.054 A 
BRANCH  73  74
ATOM     74  S   UNL A   1      41.338  24.747  26.166  1.00  0.00     0.124 S 
ATOM     75  O   UNL A   1      42.327  23.815  26.702  1.00  0.00    -0.237 OA
ATOM     76  O   UNL A   1      39.978  24.225  26.058  1.00  0.00    -0.237 OA
ATOM     77  O   UNL A   1      41.789  25.546  25.029  1.00  0.00    -0.744 OA
ENDBRANCH  73  74
ENDBRANCH  54  68
BRANCH  55  78
ATOM     78  C   UNL A   1      39.741  34.495  36.928  1.00  0.00    -0.014 A 
ATOM     79  C   UNL A   1      38.944  34.152  38.035  1.00  0.00     0.010 A 
ATOM     80  C   UNL A   1      40.358  35.759  36.894  1.00  0.00     0.010 A 
ATOM     81  C   UNL A   1      38.756  35.061  39.080  1.00  0.00     0.020 A 
ATOM     82  C   UNL A   1      40.193  36.660  37.949  1.00  0.00     0.020 A 
ATOM     83  C   UNL A   1      39.384  36.309  39.032  1.00  0.00     0.054 A 
BRANCH  83  84
ATOM     84  S   UNL A   1      39.171  37.451  40.425  1.00  0.00     0.124 S 
ATOM     85  O   UNL A   1      40.527  37.957  40.613  1.00  0.00    -0.237 OA
ATOM     86  O   UNL A   1      38.204  38.413  39.902  1.00  0.00    -0.237 OA
ATOM     87  O   UNL A   1      38.668  36.593  41.496  1.00  0.00    -0.744 OA
ENDBRANCH  83  84
ENDBRANCH  55  78
BRANCH  67  88
ATOM     88  C   UNL A   1      44.398  29.439  35.742  1.00  0.00    -0.014 A 
ATOM     89  C   UNL A   1      45.658  30.037  35.571  1.00  0.00     0.010 A 
ATOM     90  C   UNL A   1      44.249  28.411  36.690  1.00  0.00     0.010 A 
ATOM     91  C   UNL A   1      46.756  29.594  36.315  1.00  0.00     0.020 A 
ATOM     92  C   UNL A   1      45.337  27.984  37.454  1.00  0.00     0.020 A 
ATOM     93  C   UNL A   1      46.588  28.569  37.251  1.00  0.00     0.054 A 
BRANCH  93  94
ATOM     94  S   UNL A   1      48.017  28.042  38.236  1.00  0.00     0.124 S 
ATOM     95  O   UNL A   1      47.599  28.396  39.590  1.00  0.00    -0.237 OA
ATOM     96  O   UNL A   1      48.092  26.611  37.955  1.00  0.00    -0.237 OA
ATOM     97  O   UNL A   1      49.120  28.836  37.697  1.00  0.00    -0.744 OA
ENDBRANCH  93  94
ENDBRANCH  67  88
ENDBRANCH  41  42
ENDBRANCH  33  36
ENDBRANCH  31  32
ENDBRANCH  30  31
ENDBRANCH  29  30
ENDBRANCH  28  29
ENDBRANCH   1  28
TORSDOF 21
ENDMDL
