MODEL 1
REMARK VINA RESULT:     -11.2      0.000      0.000
REMARK SMILES O=C(NCCCCCCNC(=O)c1ccccc1/C=C1/SC(=S)N(C2CCCC2)C1=O)c1ccc(-c2c3nc(c(-c4ccc(S(=O)(=O)[O-])cc4)c4ccc([nH]4)c(-c4ccc(S(=O)(=O)[O-])cc4)c4nc(c(-c5ccc(S(=O)(=O)[O-])cc5)c5ccc2[nH]5)C=C4)C=C3)cc1
REMARK SMILES IDX 6 1 5 2 4 3 3 4 1 5 2 6 32 8 33 9 91 10 34 11 90 12 35 13
REMARK SMILES IDX 36 14 37 15 84 16 38 17 89 18 83 19 85 20 39 21 88 22 82 23
REMARK SMILES IDX 81 24 40 26 70 27 51 28 69 29 52 30 55 31 68 32 86 33 53 34
REMARK SMILES IDX 54 35 67 37 87 38 56 39 41 40 42 41 50 42 43 43 49 44 44 45
REMARK SMILES IDX 45 46 46 47 47 48 48 49 71 50 72 51 80 52 73 53 79 54 74 55
REMARK SMILES IDX 75 56 76 57 77 58 78 59 57 60 58 61 66 62 59 63 65 64 60 65
REMARK SMILES IDX 61 66 62 67 63 68 64 69 7 70 8 71 9 72 10 73 11 74 12 76
REMARK SMILES IDX 13 77 14 78 18 79 15 80 17 81 16 82 19 83 20 84 21 85 30 86
REMARK SMILES IDX 22 87 24 88 31 89 23 90 25 91 26 92 29 93 27 94 28 95
REMARK H PARENT 3 7 85 25 55 36 10 75
REMARK Flexibility Score: inf
ROOT
ATOM      1  C   UNL A   1      40.241  21.371  26.568  1.00  0.00     0.002 C 
ENDROOT
BRANCH   1   2
ATOM      2  C   UNL A   1      40.646  19.952  26.168  1.00  0.00     0.021 C 
BRANCH   2   3
ATOM      3  C   UNL A   1      41.956  19.459  26.774  1.00  0.00     0.116 C 
BRANCH   3   4
ATOM      4  N   UNL A   1      42.872  18.949  25.770  1.00  0.00    -0.352 N 
ATOM      5  O   UNL A   1      44.350  19.058  24.074  1.00  0.00    -0.269 OA
ATOM      6  C   UNL A   1      43.777  19.631  24.997  1.00  0.00     0.251 C 
ATOM      7  H   UNL A   1      42.839  17.976  25.624  1.00  0.00     0.163 HD
BRANCH   6   8
ATOM      8  C   UNL A   1      44.043  21.059  25.266  1.00  0.00     0.039 A 
ATOM      9  C   UNL A   1      43.757  22.037  24.306  1.00  0.00     0.014 A 
ATOM     10  C   UNL A   1      44.571  21.422  26.506  1.00  0.00     0.014 A 
ATOM     11  C   UNL A   1      44.099  23.364  24.546  1.00  0.00     0.010 A 
ATOM     12  C   UNL A   1      44.849  22.764  26.770  1.00  0.00     0.010 A 
ATOM     13  C   UNL A   1      44.635  23.742  25.786  1.00  0.00    -0.014 A 
BRANCH  13  14
ATOM     14  C   UNL A   1      44.918  25.168  26.082  1.00  0.00     0.031 A 
ATOM     15  C   UNL A   1      46.313  25.713  25.960  1.00  0.00     0.074 A 
ATOM     16  C   UNL A   1      43.918  25.957  26.517  1.00  0.00     0.049 A 
ATOM     17  N   UNL A   1      46.765  26.899  26.279  1.00  0.00    -0.248 NA
ATOM     18  C   UNL A   1      47.334  24.805  25.418  1.00  0.00     0.031 C 
ATOM     19  C   UNL A   1      42.523  25.539  26.673  1.00  0.00     0.029 A 
ATOM     20  N   UNL A   1      43.922  27.265  26.929  1.00  0.00    -0.354 N 
ATOM     21  C   UNL A   1      48.126  26.873  26.008  1.00  0.00     0.074 A 
ATOM     22  C   UNL A   1      48.430  25.545  25.515  1.00  0.00     0.031 C 
ATOM     23  C   UNL A   1      41.806  26.569  27.143  1.00  0.00     0.029 A 
ATOM     24  C   UNL A   1      42.700  27.697  27.387  1.00  0.00     0.049 A 
ATOM     25  H   UNL A   1      44.722  27.839  26.899  1.00  0.00     0.167 HD
ATOM     26  C   UNL A   1      49.040  27.863  26.160  1.00  0.00     0.031 A 
ATOM     27  C   UNL A   1      42.340  28.851  27.978  1.00  0.00     0.031 A 
ATOM     28  C   UNL A   1      48.726  29.172  26.674  1.00  0.00     0.049 A 
ATOM     29  C   UNL A   1      43.373  29.920  28.185  1.00  0.00     0.074 A 
ATOM     30  C   UNL A   1      49.570  30.257  26.836  1.00  0.00     0.029 A 
ATOM     31  N   UNL A   1      47.475  29.568  27.125  1.00  0.00    -0.354 N 
ATOM     32  N   UNL A   1      44.650  29.894  27.885  1.00  0.00    -0.248 NA
ATOM     33  C   UNL A   1      42.921  31.173  28.803  1.00  0.00     0.031 C 
ATOM     34  C   UNL A   1      48.845  31.285  27.447  1.00  0.00     0.029 A 
ATOM     35  C   UNL A   1      47.530  30.870  27.594  1.00  0.00     0.049 A 
ATOM     36  H   UNL A   1      46.666  29.006  27.115  1.00  0.00     0.167 HD
ATOM     37  C   UNL A   1      45.149  31.139  28.248  1.00  0.00     0.074 A 
ATOM     38  C   UNL A   1      44.037  31.893  28.791  1.00  0.00     0.031 C 
ATOM     39  C   UNL A   1      46.413  31.613  28.128  1.00  0.00     0.031 A 
BRANCH  26  40
ATOM     40  C   UNL A   1      50.473  27.544  25.818  1.00  0.00    -0.014 A 
ATOM     41  C   UNL A   1      50.972  27.706  24.512  1.00  0.00     0.010 A 
ATOM     42  C   UNL A   1      51.338  27.075  26.824  1.00  0.00     0.010 A 
ATOM     43  C   UNL A   1      52.286  27.337  24.206  1.00  0.00     0.020 A 
ATOM     44  C   UNL A   1      52.662  26.736  26.529  1.00  0.00     0.020 A 
ATOM     45  C   UNL A   1      53.119  26.841  25.215  1.00  0.00     0.054 A 
BRANCH  45  46
ATOM     46  S   UNL A   1      54.805  26.336  24.781  1.00  0.00     0.124 S 
ATOM     47  O   UNL A   1      54.893  26.754  23.384  1.00  0.00    -0.237 OA
ATOM     48  O   UNL A   1      55.621  27.104  25.717  1.00  0.00    -0.237 OA
ATOM     49  O   UNL A   1      54.802  24.892  25.000  1.00  0.00    -0.744 OA
ENDBRANCH  45  46
ENDBRANCH  26  40
BRANCH  27  50
ATOM     50  C   UNL A   1      40.931  29.023  28.422  1.00  0.00    -0.014 A 
ATOM     51  C   UNL A   1      40.601  28.982  29.787  1.00  0.00     0.010 A 
ATOM     52  C   UNL A   1      39.927  29.326  27.483  1.00  0.00     0.010 A 
ATOM     53  C   UNL A   1      39.294  29.252  30.205  1.00  0.00     0.020 A 
ATOM     54  C   UNL A   1      38.628  29.624  27.898  1.00  0.00     0.020 A 
ATOM     55  C   UNL A   1      38.320  29.583  29.258  1.00  0.00     0.054 A 
BRANCH  55  56
ATOM     56  S   UNL A   1      36.659  30.033  29.837  1.00  0.00     0.124 S 
ATOM     57  O   UNL A   1      35.822  29.596  28.724  1.00  0.00    -0.237 OA
ATOM     58  O   UNL A   1      36.535  29.256  31.067  1.00  0.00    -0.237 OA
ATOM     59  O   UNL A   1      36.742  31.480  30.028  1.00  0.00    -0.744 OA
ENDBRANCH  55  56
ENDBRANCH  27  50
BRANCH  39  60
ATOM     60  C   UNL A   1      46.672  33.038  28.541  1.00  0.00    -0.014 A 
ATOM     61  C   UNL A   1      47.146  33.358  29.824  1.00  0.00     0.010 A 
ATOM     62  C   UNL A   1      46.541  34.061  27.583  1.00  0.00     0.010 A 
ATOM     63  C   UNL A   1      47.484  34.677  30.142  1.00  0.00     0.020 A 
ATOM     64  C   UNL A   1      46.903  35.374  27.887  1.00  0.00     0.020 A 
ATOM     65  C   UNL A   1      47.370  35.675  29.168  1.00  0.00     0.054 A 
BRANCH  65  66
ATOM     66  S   UNL A   1      47.909  37.360  29.573  1.00  0.00     0.124 S 
ATOM     67  O   UNL A   1      48.681  37.726  28.389  1.00  0.00    -0.237 OA
ATOM     68  O   UNL A   1      46.642  38.067  29.743  1.00  0.00    -0.237 OA
ATOM     69  O   UNL A   1      48.689  37.189  30.797  1.00  0.00    -0.744 OA
ENDBRANCH  65  66
ENDBRANCH  39  60
ENDBRANCH  13  14
ENDBRANCH   6   8
ENDBRANCH   3   4
ENDBRANCH   2   3
ENDBRANCH   1   2
BRANCH   1  70
ATOM     70  C   UNL A   1      38.963  21.903  25.913  1.00  0.00     0.002 C 
BRANCH  70  71
ATOM     71  C   UNL A   1      38.398  23.200  26.506  1.00  0.00     0.021 C 
BRANCH  71  72
ATOM     72  C   UNL A   1      37.106  23.692  25.863  1.00  0.00     0.116 C 
BRANCH  72  73
ATOM     73  N   UNL A   1      37.163  23.645  24.415  1.00  0.00    -0.352 N 
ATOM     74  C   UNL A   1      36.360  22.966  23.535  1.00  0.00     0.251 C 
ATOM     75  H   UNL A   1      37.882  24.177  24.004  1.00  0.00     0.163 HD
ATOM     76  O   UNL A   1      36.654  22.953  22.343  1.00  0.00    -0.269 OA
BRANCH  74  77
ATOM     77  C   UNL A   1      35.163  22.231  24.014  1.00  0.00     0.047 A 
ATOM     78  C   UNL A   1      35.409  21.138  24.858  1.00  0.00     0.014 A 
ATOM     79  C   UNL A   1      33.843  22.548  23.626  1.00  0.00    -0.012 A 
ATOM     80  C   UNL A   1      34.347  20.391  25.365  1.00  0.00     0.001 A 
ATOM     81  C   UNL A   1      32.787  21.799  24.164  1.00  0.00     0.009 A 
ATOM     82  C   UNL A   1      33.038  20.729  25.028  1.00  0.00     0.001 A 
BRANCH  79  83
ATOM     83  C   UNL A   1      33.501  23.644  22.706  1.00  0.00     0.030 C 
ATOM     84  C   UNL A   1      33.239  24.907  23.065  1.00  0.00     0.081 C 
ATOM     85  S   UNL A   1      32.558  26.065  21.998  1.00  0.00    -0.054 SA
ATOM     86  C   UNL A   1      33.394  25.506  24.416  1.00  0.00     0.266 C 
ATOM     87  C   UNL A   1      32.173  27.179  23.314  1.00  0.00     0.148 C 
ATOM     88  N   UNL A   1      32.684  26.698  24.506  1.00  0.00    -0.290 N 
ATOM     89  O   UNL A   1      34.121  25.032  25.277  1.00  0.00    -0.268 OA
ATOM     90  S   UNL A   1      31.315  28.575  22.998  1.00  0.00    -0.052 S 
BRANCH  88  91
ATOM     91  C   UNL A   1      32.669  27.351  25.820  1.00  0.00     0.092 C 
ATOM     92  C   UNL A   1      33.036  28.832  25.800  1.00  0.00     0.025 C 
ATOM     93  C   UNL A   1      31.369  27.286  26.623  1.00  0.00     0.025 C 
ATOM     94  C   UNL A   1      32.664  29.297  27.199  1.00  0.00     0.002 C 
ATOM     95  C   UNL A   1      31.468  28.442  27.621  1.00  0.00     0.002 C 
ENDBRANCH  88  91
ENDBRANCH  79  83
ENDBRANCH  74  77
ENDBRANCH  72  73
ENDBRANCH  71  72
ENDBRANCH  70  71
ENDBRANCH   1  70
TORSDOF 18
ENDMDL
MODEL 2
REMARK VINA RESULT:     -10.4      4.991     11.689
REMARK SMILES O=C(NCCCCCCNC(=O)c1ccccc1/C=C1/SC(=S)N(C2CCCC2)C1=O)c1ccc(-c2c3nc(c(-c4ccc(S(=O)(=O)[O-])cc4)c4ccc([nH]4)c(-c4ccc(S(=O)(=O)[O-])cc4)c4nc(c(-c5ccc(S(=O)(=O)[O-])cc5)c5ccc2[nH]5)C=C4)C=C3)cc1
REMARK SMILES IDX 6 1 5 2 4 3 3 4 1 5 2 6 32 8 33 9 91 10 34 11 90 12 35 13
REMARK SMILES IDX 36 14 37 15 84 16 38 17 89 18 83 19 85 20 39 21 88 22 82 23
REMARK SMILES IDX 81 24 40 26 70 27 51 28 69 29 52 30 55 31 68 32 86 33 53 34
REMARK SMILES IDX 54 35 67 37 87 38 56 39 41 40 42 41 50 42 43 43 49 44 44 45
REMARK SMILES IDX 45 46 46 47 47 48 48 49 71 50 72 51 80 52 73 53 79 54 74 55
REMARK SMILES IDX 75 56 76 57 77 58 78 59 57 60 58 61 66 62 59 63 65 64 60 65
REMARK SMILES IDX 61 66 62 67 63 68 64 69 7 70 8 71 9 72 10 73 11 74 12 76
REMARK SMILES IDX 13 77 14 78 18 79 15 80 17 81 16 82 19 83 20 84 21 85 30 86
REMARK SMILES IDX 22 87 24 88 31 89 23 90 25 91 26 92 29 93 27 94 28 95
REMARK H PARENT 3 7 85 25 55 36 10 75
REMARK Flexibility Score: inf
ROOT
ATOM      1  C   UNL A   1      38.778  33.456  29.662  1.00  0.00     0.002 C 
ENDROOT
BRANCH   1   2
ATOM      2  C   UNL A   1      37.275  33.595  29.416  1.00  0.00     0.021 C 
BRANCH   2   3
ATOM      3  C   UNL A   1      36.634  32.435  28.661  1.00  0.00     0.116 C 
BRANCH   3   4
ATOM      4  N   UNL A   1      35.994  31.482  29.550  1.00  0.00    -0.352 N 
ATOM      5  O   UNL A   1      35.694  29.510  30.595  1.00  0.00    -0.269 OA
ATOM      6  C   UNL A   1      36.445  30.258  29.978  1.00  0.00     0.251 C 
ATOM      7  H   UNL A   1      35.114  31.753  29.897  1.00  0.00     0.163 HD
BRANCH   6   8
ATOM      8  C   UNL A   1      37.829  29.839  29.673  1.00  0.00     0.039 A 
ATOM      9  C   UNL A   1      38.736  29.553  30.699  1.00  0.00     0.014 A 
ATOM     10  C   UNL A   1      38.215  29.718  28.337  1.00  0.00     0.014 A 
ATOM     11  C   UNL A   1      40.059  29.249  30.391  1.00  0.00     0.010 A 
ATOM     12  C   UNL A   1      39.524  29.344  28.030  1.00  0.00     0.010 A 
ATOM     13  C   UNL A   1      40.461  29.128  29.052  1.00  0.00    -0.014 A 
BRANCH  13  14
ATOM     14  C   UNL A   1      41.846  28.716  28.716  1.00  0.00     0.031 A 
ATOM     15  C   UNL A   1      42.955  29.728  28.663  1.00  0.00     0.074 A 
ATOM     16  C   UNL A   1      42.089  27.429  28.403  1.00  0.00     0.049 A 
ATOM     17  N   UNL A   1      44.197  29.570  28.284  1.00  0.00    -0.248 NA
ATOM     18  C   UNL A   1      42.621  31.098  29.080  1.00  0.00     0.031 C 
ATOM     19  C   UNL A   1      41.092  26.356  28.423  1.00  0.00     0.029 A 
ATOM     20  N   UNL A   1      43.238  26.808  27.988  1.00  0.00    -0.354 N 
ATOM     21  C   UNL A   1      44.788  30.823  28.385  1.00  0.00     0.074 A 
ATOM     22  C   UNL A   1      43.761  31.735  28.844  1.00  0.00     0.031 C 
ATOM     23  C   UNL A   1      41.672  25.210  28.039  1.00  0.00     0.029 A 
ATOM     24  C   UNL A   1      43.061  25.480  27.681  1.00  0.00     0.049 A 
ATOM     25  H   UNL A   1      44.105  27.269  27.916  1.00  0.00     0.167 HD
ATOM     26  C   UNL A   1      46.068  31.180  28.117  1.00  0.00     0.031 A 
ATOM     27  C   UNL A   1      43.903  24.584  27.133  1.00  0.00     0.031 A 
ATOM     28  C   UNL A   1      47.073  30.265  27.639  1.00  0.00     0.049 A 
ATOM     29  C   UNL A   1      45.302  25.007  26.794  1.00  0.00     0.074 A 
ATOM     30  C   UNL A   1      48.406  30.518  27.368  1.00  0.00     0.029 A 
ATOM     31  N   UNL A   1      46.852  28.927  27.342  1.00  0.00    -0.354 N 
ATOM     32  N   UNL A   1      45.857  26.187  26.935  1.00  0.00    -0.248 NA
ATOM     33  C   UNL A   1      46.190  23.983  26.230  1.00  0.00     0.031 C 
ATOM     34  C   UNL A   1      48.973  29.351  26.845  1.00  0.00     0.029 A 
ATOM     35  C   UNL A   1      48.015  28.349  26.863  1.00  0.00     0.049 A 
ATOM     36  H   UNL A   1      45.993  28.458  27.456  1.00  0.00     0.167 HD
ATOM     37  C   UNL A   1      47.171  26.040  26.506  1.00  0.00     0.074 A 
ATOM     38  C   UNL A   1      47.327  24.658  26.101  1.00  0.00     0.031 C 
ATOM     39  C   UNL A   1      48.159  26.968  26.467  1.00  0.00     0.031 A 
BRANCH  26  40
ATOM     40  C   UNL A   1      46.432  32.634  28.281  1.00  0.00    -0.014 A 
ATOM     41  C   UNL A   1      46.294  33.552  27.224  1.00  0.00     0.010 A 
ATOM     42  C   UNL A   1      46.917  33.091  29.520  1.00  0.00     0.010 A 
ATOM     43  C   UNL A   1      46.704  34.880  27.381  1.00  0.00     0.020 A 
ATOM     44  C   UNL A   1      47.297  34.425  29.692  1.00  0.00     0.020 A 
ATOM     45  C   UNL A   1      47.215  35.305  28.612  1.00  0.00     0.054 A 
BRANCH  45  46
ATOM     46  S   UNL A   1      47.773  37.022  28.776  1.00  0.00     0.124 S 
ATOM     47  O   UNL A   1      48.540  36.970  30.019  1.00  0.00    -0.237 OA
ATOM     48  O   UNL A   1      48.560  37.222  27.563  1.00  0.00    -0.237 OA
ATOM     49  O   UNL A   1      46.530  37.786  28.842  1.00  0.00    -0.744 OA
ENDBRANCH  45  46
ENDBRANCH  26  40
BRANCH  27  50
ATOM     50  C   UNL A   1      43.411  23.206  26.864  1.00  0.00    -0.014 A 
ATOM     51  C   UNL A   1      43.487  22.658  25.574  1.00  0.00     0.010 A 
ATOM     52  C   UNL A   1      42.953  22.402  27.925  1.00  0.00     0.010 A 
ATOM     53  C   UNL A   1      43.125  21.326  25.350  1.00  0.00     0.020 A 
ATOM     54  C   UNL A   1      42.617  21.063  27.712  1.00  0.00     0.020 A 
ATOM     55  C   UNL A   1      42.704  20.534  26.423  1.00  0.00     0.054 A 
BRANCH  55  56
ATOM     56  S   UNL A   1      42.342  18.781  26.125  1.00  0.00     0.124 S 
ATOM     57  O   UNL A   1      43.267  18.460  25.043  1.00  0.00    -0.237 OA
ATOM     58  O   UNL A   1      42.645  18.174  27.419  1.00  0.00    -0.237 OA
ATOM     59  O   UNL A   1      40.927  18.779  25.762  1.00  0.00    -0.744 OA
ENDBRANCH  55  56
ENDBRANCH  27  50
BRANCH  39  60
ATOM     60  C   UNL A   1      49.525  26.522  26.017  1.00  0.00    -0.014 A 
ATOM     61  C   UNL A   1      50.012  26.822  24.734  1.00  0.00     0.010 A 
ATOM     62  C   UNL A   1      50.374  25.886  26.943  1.00  0.00     0.010 A 
ATOM     63  C   UNL A   1      51.326  26.493  24.385  1.00  0.00     0.020 A 
ATOM     64  C   UNL A   1      51.694  25.581  26.608  1.00  0.00     0.020 A 
ATOM     65  C   UNL A   1      52.161  25.885  25.328  1.00  0.00     0.054 A 
BRANCH  65  66
ATOM     66  S   UNL A   1      53.891  25.559  24.883  1.00  0.00     0.124 S 
ATOM     67  O   UNL A   1      53.967  24.106  25.003  1.00  0.00    -0.237 OA
ATOM     68  O   UNL A   1      53.974  26.084  23.523  1.00  0.00    -0.237 OA
ATOM     69  O   UNL A   1      54.652  26.307  25.881  1.00  0.00    -0.744 OA
ENDBRANCH  65  66
ENDBRANCH  39  60
ENDBRANCH  13  14
ENDBRANCH   6   8
ENDBRANCH   3   4
ENDBRANCH   2   3
ENDBRANCH   1   2
BRANCH   1  70
ATOM     70  C   UNL A   1      39.225  33.596  31.120  1.00  0.00     0.002 C 
BRANCH  70  71
ATOM     71  C   UNL A   1      40.327  32.633  31.577  1.00  0.00     0.021 C 
BRANCH  71  72
ATOM     72  C   UNL A   1      40.662  32.696  33.063  1.00  0.00     0.116 C 
BRANCH  72  73
ATOM     73  N   UNL A   1      40.309  31.471  33.755  1.00  0.00    -0.352 N 
ATOM     74  C   UNL A   1      39.123  31.119  34.347  1.00  0.00     0.251 C 
ATOM     75  H   UNL A   1      41.023  30.797  33.808  1.00  0.00     0.163 HD
ATOM     76  O   UNL A   1      39.065  30.080  35.000  1.00  0.00    -0.269 OA
BRANCH  74  77
ATOM     77  C   UNL A   1      37.928  31.990  34.227  1.00  0.00     0.047 A 
ATOM     78  C   UNL A   1      36.959  31.583  33.300  1.00  0.00     0.014 A 
ATOM     79  C   UNL A   1      37.763  33.194  34.948  1.00  0.00    -0.012 A 
ATOM     80  C   UNL A   1      35.798  32.334  33.124  1.00  0.00     0.001 A 
ATOM     81  C   UNL A   1      36.579  33.923  34.774  1.00  0.00     0.009 A 
ATOM     82  C   UNL A   1      35.603  33.496  33.869  1.00  0.00     0.001 A 
BRANCH  79  83
ATOM     83  C   UNL A   1      38.753  33.720  35.901  1.00  0.00     0.030 C 
ATOM     84  C   UNL A   1      38.689  33.599  37.233  1.00  0.00     0.081 C 
ATOM     85  S   UNL A   1      39.698  34.481  38.306  1.00  0.00    -0.054 SA
ATOM     86  C   UNL A   1      37.721  32.788  38.015  1.00  0.00     0.266 C 
ATOM     87  C   UNL A   1      38.701  34.084  39.709  1.00  0.00     0.148 C 
ATOM     88  N   UNL A   1      37.706  33.194  39.345  1.00  0.00    -0.290 N 
ATOM     89  O   UNL A   1      37.102  31.847  37.541  1.00  0.00    -0.268 OA
ATOM     90  S   UNL A   1      39.046  34.762  41.194  1.00  0.00    -0.052 S 
BRANCH  88  91
ATOM     91  C   UNL A   1      36.722  32.541  40.216  1.00  0.00     0.092 C 
ATOM     92  C   UNL A   1      37.300  31.482  41.150  1.00  0.00     0.025 C 
ATOM     93  C   UNL A   1      35.881  33.439  41.124  1.00  0.00     0.025 C 
ATOM     94  C   UNL A   1      36.148  31.198  42.101  1.00  0.00     0.002 C 
ATOM     95  C   UNL A   1      35.379  32.512  42.233  1.00  0.00     0.002 C 
ENDBRANCH  88  91
ENDBRANCH  79  83
ENDBRANCH  74  77
ENDBRANCH  72  73
ENDBRANCH  71  72
ENDBRANCH  70  71
ENDBRANCH   1  70
TORSDOF 18
ENDMDL
MODEL 3
REMARK VINA RESULT:     -10.0      6.528     12.019
REMARK SMILES O=C(NCCCCCCNC(=O)c1ccccc1/C=C1/SC(=S)N(C2CCCC2)C1=O)c1ccc(-c2c3nc(c(-c4ccc(S(=O)(=O)[O-])cc4)c4ccc([nH]4)c(-c4ccc(S(=O)(=O)[O-])cc4)c4nc(c(-c5ccc(S(=O)(=O)[O-])cc5)c5ccc2[nH]5)C=C4)C=C3)cc1
REMARK SMILES IDX 6 1 5 2 4 3 3 4 1 5 2 6 32 8 33 9 91 10 34 11 90 12 35 13
REMARK SMILES IDX 36 14 37 15 84 16 38 17 89 18 83 19 85 20 39 21 88 22 82 23
REMARK SMILES IDX 81 24 40 26 70 27 51 28 69 29 52 30 55 31 68 32 86 33 53 34
REMARK SMILES IDX 54 35 67 37 87 38 56 39 41 40 42 41 50 42 43 43 49 44 44 45
REMARK SMILES IDX 45 46 46 47 47 48 48 49 71 50 72 51 80 52 73 53 79 54 74 55
REMARK SMILES IDX 75 56 76 57 77 58 78 59 57 60 58 61 66 62 59 63 65 64 60 65
REMARK SMILES IDX 61 66 62 67 63 68 64 69 7 70 8 71 9 72 10 73 11 74 12 76
REMARK SMILES IDX 13 77 14 78 18 79 15 80 17 81 16 82 19 83 20 84 21 85 30 86
REMARK SMILES IDX 22 87 24 88 31 89 23 90 25 91 26 92 29 93 27 94 28 95
REMARK H PARENT 3 7 85 25 55 36 10 75
REMARK Flexibility Score: inf
ROOT
ATOM      1  C   UNL A   1      32.702  30.757  26.819  1.00  0.00     0.002 C 
ENDROOT
BRANCH   1   2
ATOM      2  C   UNL A   1      33.385  32.053  27.259  1.00  0.00     0.021 C 
BRANCH   2   3
ATOM      3  C   UNL A   1      32.483  33.043  27.989  1.00  0.00     0.116 C 
BRANCH   3   4
ATOM      4  N   UNL A   1      32.905  34.419  27.799  1.00  0.00    -0.352 N 
ATOM      5  O   UNL A   1      34.055  36.307  28.232  1.00  0.00    -0.269 OA
ATOM      6  C   UNL A   1      33.950  35.093  28.381  1.00  0.00     0.251 C 
ATOM      7  H   UNL A   1      32.366  34.942  27.163  1.00  0.00     0.163 HD
BRANCH   6   8
ATOM      8  C   UNL A   1      34.932  34.355  29.202  1.00  0.00     0.039 A 
ATOM      9  C   UNL A   1      34.542  33.703  30.376  1.00  0.00     0.014 A 
ATOM     10  C   UNL A   1      36.261  34.305  28.776  1.00  0.00     0.014 A 
ATOM     11  C   UNL A   1      35.499  33.091  31.181  1.00  0.00     0.010 A 
ATOM     12  C   UNL A   1      37.206  33.632  29.550  1.00  0.00     0.010 A 
ATOM     13  C   UNL A   1      36.838  33.038  30.767  1.00  0.00    -0.014 A 
BRANCH  13  14
ATOM     14  C   UNL A   1      37.848  32.311  31.575  1.00  0.00     0.031 A 
ATOM     15  C   UNL A   1      38.248  32.812  32.933  1.00  0.00     0.074 A 
ATOM     16  C   UNL A   1      38.445  31.223  31.051  1.00  0.00     0.049 A 
ATOM     17  N   UNL A   1      39.186  32.370  33.731  1.00  0.00    -0.248 NA
ATOM     18  C   UNL A   1      37.504  33.967  33.458  1.00  0.00     0.031 C 
ATOM     19  C   UNL A   1      38.137  30.642  29.743  1.00  0.00     0.029 A 
ATOM     20  N   UNL A   1      39.448  30.427  31.541  1.00  0.00    -0.354 N 
ATOM     21  C   UNL A   1      39.169  33.208  34.839  1.00  0.00     0.074 A 
ATOM     22  C   UNL A   1      38.139  34.197  34.600  1.00  0.00     0.031 C 
ATOM     23  C   UNL A   1      38.931  29.583  29.535  1.00  0.00     0.029 A 
ATOM     24  C   UNL A   1      39.849  29.451  30.662  1.00  0.00     0.049 A 
ATOM     25  H   UNL A   1      39.842  30.544  32.437  1.00  0.00     0.167 HD
ATOM     26  C   UNL A   1      39.944  33.159  35.950  1.00  0.00     0.031 A 
ATOM     27  C   UNL A   1      40.868  28.573  30.727  1.00  0.00     0.031 A 
ATOM     28  C   UNL A   1      40.982  32.182  36.162  1.00  0.00     0.049 A 
ATOM     29  C   UNL A   1      41.749  28.564  31.941  1.00  0.00     0.074 A 
ATOM     30  C   UNL A   1      41.802  32.024  37.266  1.00  0.00     0.029 A 
ATOM     31  N   UNL A   1      41.355  31.209  35.245  1.00  0.00    -0.354 N 
ATOM     32  N   UNL A   1      41.693  29.337  32.999  1.00  0.00    -0.248 NA
ATOM     33  C   UNL A   1      42.824  27.564  31.978  1.00  0.00     0.031 C 
ATOM     34  C   UNL A   1      42.713  31.001  36.990  1.00  0.00     0.029 A 
ATOM     35  C   UNL A   1      42.413  30.467  35.745  1.00  0.00     0.049 A 
ATOM     36  H   UNL A   1      40.931  31.067  34.368  1.00  0.00     0.167 HD
ATOM     37  C   UNL A   1      42.706  28.897  33.843  1.00  0.00     0.074 A 
ATOM     38  C   UNL A   1      43.359  27.791  33.172  1.00  0.00     0.031 C 
ATOM     39  C   UNL A   1      43.051  29.363  35.068  1.00  0.00     0.031 A 
BRANCH  26  40
ATOM     40  C   UNL A   1      39.733  34.229  36.991  1.00  0.00    -0.014 A 
ATOM     41  C   UNL A   1      40.319  35.502  36.869  1.00  0.00     0.010 A 
ATOM     42  C   UNL A   1      38.928  33.955  38.113  1.00  0.00     0.010 A 
ATOM     43  C   UNL A   1      40.165  36.453  37.883  1.00  0.00     0.020 A 
ATOM     44  C   UNL A   1      38.743  34.915  39.112  1.00  0.00     0.020 A 
ATOM     45  C   UNL A   1      39.388  36.148  39.005  1.00  0.00     0.054 A 
BRANCH  45  46
ATOM     46  S   UNL A   1      39.235  37.386  40.320  1.00  0.00     0.124 S 
ATOM     47  O   UNL A   1      38.153  38.228  39.814  1.00  0.00    -0.237 OA
ATOM     48  O   UNL A   1      38.903  36.575  41.488  1.00  0.00    -0.237 OA
ATOM     49  O   UNL A   1      40.551  38.019  40.357  1.00  0.00    -0.744 OA
ENDBRANCH  45  46
ENDBRANCH  26  40
BRANCH  27  50
ATOM     50  C   UNL A   1      41.097  27.652  29.582  1.00  0.00    -0.014 A 
ATOM     51  C   UNL A   1      42.190  27.838  28.720  1.00  0.00     0.010 A 
ATOM     52  C   UNL A   1      40.272  26.524  29.409  1.00  0.00     0.010 A 
ATOM     53  C   UNL A   1      42.462  26.907  27.714  1.00  0.00     0.020 A 
ATOM     54  C   UNL A   1      40.556  25.576  28.423  1.00  0.00     0.020 A 
ATOM     55  C   UNL A   1      41.650  25.776  27.580  1.00  0.00     0.054 A 
BRANCH  55  56
ATOM     56  S   UNL A   1      42.088  24.530  26.335  1.00  0.00     0.124 S 
ATOM     57  O   UNL A   1      42.010  25.298  25.096  1.00  0.00    -0.237 OA
ATOM     58  O   UNL A   1      43.431  24.131  26.749  1.00  0.00    -0.237 OA
ATOM     59  O   UNL A   1      41.062  23.502  26.501  1.00  0.00    -0.744 OA
ENDBRANCH  55  56
ENDBRANCH  27  50
BRANCH  39  60
ATOM     60  C   UNL A   1      44.156  28.654  35.805  1.00  0.00    -0.014 A 
ATOM     61  C   UNL A   1      45.498  29.047  35.675  1.00  0.00     0.010 A 
ATOM     62  C   UNL A   1      43.822  27.646  36.729  1.00  0.00     0.010 A 
ATOM     63  C   UNL A   1      46.488  28.443  36.458  1.00  0.00     0.020 A 
ATOM     64  C   UNL A   1      44.803  27.059  37.531  1.00  0.00     0.020 A 
ATOM     65  C   UNL A   1      46.132  27.461  37.388  1.00  0.00     0.054 A 
BRANCH  65  66
ATOM     66  S   UNL A   1      47.419  26.764  38.461  1.00  0.00     0.124 S 
ATOM     67  O   UNL A   1      48.297  26.108  37.496  1.00  0.00    -0.237 OA
ATOM     68  O   UNL A   1      47.970  27.951  39.110  1.00  0.00    -0.237 OA
ATOM     69  O   UNL A   1      46.684  25.863  39.345  1.00  0.00    -0.744 OA
ENDBRANCH  65  66
ENDBRANCH  39  60
ENDBRANCH  13  14
ENDBRANCH   6   8
ENDBRANCH   3   4
ENDBRANCH   2   3
ENDBRANCH   1   2
BRANCH   1  70
ATOM     70  C   UNL A   1      33.157  29.490  27.548  1.00  0.00     0.002 C 
BRANCH  70  71
ATOM     71  C   UNL A   1      34.201  28.637  26.818  1.00  0.00     0.021 C 
BRANCH  71  72
ATOM     72  C   UNL A   1      33.662  27.818  25.650  1.00  0.00     0.116 C 
BRANCH  72  73
ATOM     73  N   UNL A   1      34.137  28.310  24.371  1.00  0.00    -0.352 N 
ATOM     74  C   UNL A   1      33.428  28.604  23.236  1.00  0.00     0.251 C 
ATOM     75  H   UNL A   1      35.109  28.452  24.310  1.00  0.00     0.163 HD
ATOM     76  O   UNL A   1      34.036  28.888  22.206  1.00  0.00    -0.269 OA
BRANCH  74  77
ATOM     77  C   UNL A   1      31.945  28.555  23.235  1.00  0.00     0.047 A 
ATOM     78  C   UNL A   1      31.293  29.641  23.837  1.00  0.00     0.014 A 
ATOM     79  C   UNL A   1      31.198  27.474  22.716  1.00  0.00    -0.012 A 
ATOM     80  C   UNL A   1      29.900  29.687  23.877  1.00  0.00     0.001 A 
ATOM     81  C   UNL A   1      29.799  27.550  22.745  1.00  0.00     0.009 A 
ATOM     82  C   UNL A   1      29.155  28.649  23.321  1.00  0.00     0.001 A 
BRANCH  79  83
ATOM     83  C   UNL A   1      31.803  26.276  22.114  1.00  0.00     0.030 C 
ATOM     84  C   UNL A   1      32.254  25.211  22.788  1.00  0.00     0.081 C 
ATOM     85  S   UNL A   1      33.215  23.983  22.072  1.00  0.00    -0.054 SA
ATOM     86  C   UNL A   1      32.099  24.937  24.241  1.00  0.00     0.266 C 
ATOM     87  C   UNL A   1      33.684  23.314  23.639  1.00  0.00     0.148 C 
ATOM     88  N   UNL A   1      33.000  23.961  24.652  1.00  0.00    -0.290 N 
ATOM     89  O   UNL A   1      31.232  25.456  24.929  1.00  0.00    -0.268 OA
ATOM     90  S   UNL A   1      34.798  22.074  23.715  1.00  0.00    -0.052 S 
BRANCH  88  91
ATOM     91  C   UNL A   1      33.024  23.659  26.088  1.00  0.00     0.092 C 
ATOM     92  C   UNL A   1      32.122  22.503  26.512  1.00  0.00     0.025 C 
ATOM     93  C   UNL A   1      34.381  23.341  26.717  1.00  0.00     0.025 C 
ATOM     94  C   UNL A   1      32.557  22.236  27.944  1.00  0.00     0.002 C 
ATOM     95  C   UNL A   1      34.047  22.577  28.000  1.00  0.00     0.002 C 
ENDBRANCH  88  91
ENDBRANCH  79  83
ENDBRANCH  74  77
ENDBRANCH  72  73
ENDBRANCH  71  72
ENDBRANCH  70  71
ENDBRANCH   1  70
TORSDOF 18
ENDMDL
