MODEL 1
REMARK VINA RESULT:      -9.7      0.000      0.000
REMARK SMILES CC(C)Oc1ccccc1NCc1cc(C(=O)NCCCCCCNC(=O)c2ccc(-c3c4nc(c(-c5ccc(S(=O)(=O)[O-])cc5)c5ccc([nH]5)c(-c5ccc(S(=O)(=O)[O-])cc5)c5nc(c(-c6ccc(S(=O)(=O)[O-])cc6)c6ccc3[nH]6)C=C5)C=C4)cc2)cs1
REMARK SMILES IDX 20 1 19 2 18 3 16 4 17 5 15 7 13 8 14 9 89 10 88 11 12 12
REMARK SMILES IDX 11 13 10 15 5 16 6 17 7 18 9 19 8 20 4 21 2 22 1 23 3 24
REMARK SMILES IDX 21 25 22 26 23 27 24 28 25 29 26 30 27 32 28 33 29 34 87 35
REMARK SMILES IDX 30 36 86 37 31 38 32 39 33 40 80 41 34 42 85 43 79 44 81 45
REMARK SMILES IDX 35 46 84 47 78 48 77 49 36 51 66 52 47 53 65 54 48 55 51 56
REMARK SMILES IDX 64 57 82 58 49 59 50 60 63 62 83 63 52 64 37 65 38 66 46 67
REMARK SMILES IDX 39 68 45 69 40 70 41 71 42 72 43 73 44 74 67 75 68 76 76 77
REMARK SMILES IDX 69 78 75 79 70 80 71 81 72 82 73 83 74 84 53 85 54 86 62 87
REMARK SMILES IDX 55 88 61 89 56 90 57 91 58 92 59 93 60 94
REMARK H PARENT 18 6 11 14 25 31 81 50 51 61
REMARK Flexibility Score: inf
ROOT
ATOM      1  C   UNL A   1      38.588  23.934  26.101  1.00  0.00     0.021 C 
ENDROOT
BRANCH   1   2
ATOM      2  C   UNL A   1      37.114  23.697  25.772  1.00  0.00     0.116 C 
BRANCH   2   3
ATOM      3  N   UNL A   1      36.810  22.282  25.704  1.00  0.00    -0.352 N 
ATOM      4  C   UNL A   1      35.663  21.628  25.337  1.00  0.00     0.252 C 
ATOM      5  O   UNL A   1      35.735  20.401  25.193  1.00  0.00    -0.269 OA
ATOM      6  H   UNL A   1      37.552  21.691  25.966  1.00  0.00     0.163 HD
BRANCH   4   7
ATOM      7  C   UNL A   1      34.415  22.348  25.071  1.00  0.00     0.050 A 
ATOM      8  C   UNL A   1      32.631  23.892  25.209  1.00  0.00     0.024 A 
ATOM      9  C   UNL A   1      33.777  23.402  25.814  1.00  0.00     0.031 A 
ATOM     10  S   UNL A   1      32.242  22.992  23.810  1.00  0.00    -0.146 S 
ATOM     11  C   UNL A   1      33.617  21.999  23.993  1.00  0.00     0.079 A 
BRANCH   8  12
ATOM     12  C   UNL A   1      31.756  25.039  25.647  1.00  0.00     0.160 C 
BRANCH  12  13
ATOM     13  N   UNL A   1      32.089  26.308  25.034  1.00  0.00    -0.377 N 
ATOM     14  H   UNL A   1      32.156  26.308  24.053  1.00  0.00     0.161 HD
BRANCH  13  15
ATOM     15  C   UNL A   1      32.323  27.519  25.658  1.00  0.00     0.077 A 
ATOM     16  C   UNL A   1      31.529  28.638  25.323  1.00  0.00     0.142 A 
ATOM     17  C   UNL A   1      31.773  29.906  25.856  1.00  0.00     0.048 A 
ATOM     18  C   UNL A   1      32.793  30.076  26.786  1.00  0.00     0.004 A 
ATOM     19  C   UNL A   1      33.315  27.712  26.625  1.00  0.00     0.029 A 
ATOM     20  C   UNL A   1      33.558  28.979  27.175  1.00  0.00     0.002 A 
BRANCH  16  21
ATOM     21  O   UNL A   1      30.563  28.526  24.357  1.00  0.00    -0.489 OA
BRANCH  21  22
ATOM     22  C   UNL A   1      30.351  29.668  23.510  1.00  0.00     0.167 C 
ATOM     23  C   UNL A   1      30.720  29.248  22.091  1.00  0.00     0.052 C 
ATOM     24  C   UNL A   1      28.983  30.356  23.520  1.00  0.00     0.052 C 
ENDBRANCH  21  22
ENDBRANCH  16  21
ENDBRANCH  13  15
ENDBRANCH  12  13
ENDBRANCH   8  12
ENDBRANCH   4   7
ENDBRANCH   2   3
ENDBRANCH   1   2
BRANCH   1  25
ATOM     25  C   UNL A   1      39.229  22.789  26.896  1.00  0.00     0.002 C 
BRANCH  25  26
ATOM     26  C   UNL A   1      40.548  22.253  26.320  1.00  0.00     0.002 C 
BRANCH  26  27
ATOM     27  C   UNL A   1      41.704  22.124  27.318  1.00  0.00     0.021 C 
BRANCH  27  28
ATOM     28  C   UNL A   1      42.678  23.299  27.340  1.00  0.00     0.116 C 
BRANCH  28  29
ATOM     29  N   UNL A   1      42.512  24.172  26.188  1.00  0.00    -0.352 N 
ATOM     30  C   UNL A   1      42.058  25.465  26.126  1.00  0.00     0.251 C 
ATOM     31  H   UNL A   1      42.763  23.774  25.323  1.00  0.00     0.163 HD
ATOM     32  O   UNL A   1      41.808  25.969  25.034  1.00  0.00    -0.269 OA
BRANCH  30  33
ATOM     33  C   UNL A   1      41.851  26.248  27.366  1.00  0.00     0.039 A 
ATOM     34  C   UNL A   1      42.722  27.305  27.648  1.00  0.00     0.014 A 
ATOM     35  C   UNL A   1      40.827  25.929  28.262  1.00  0.00     0.014 A 
ATOM     36  C   UNL A   1      42.533  28.075  28.799  1.00  0.00     0.010 A 
ATOM     37  C   UNL A   1      40.603  26.734  29.378  1.00  0.00     0.010 A 
ATOM     38  C   UNL A   1      41.454  27.814  29.659  1.00  0.00    -0.014 A 
BRANCH  38  39
ATOM     39  C   UNL A   1      41.198  28.665  30.850  1.00  0.00     0.031 A 
ATOM     40  C   UNL A   1      40.076  29.666  30.844  1.00  0.00     0.074 A 
ATOM     41  C   UNL A   1      42.017  28.576  31.916  1.00  0.00     0.049 A 
ATOM     42  N   UNL A   1      39.732  30.525  31.771  1.00  0.00    -0.248 NA
ATOM     43  C   UNL A   1      39.247  29.729  29.631  1.00  0.00     0.031 C 
ATOM     44  C   UNL A   1      43.167  27.676  32.029  1.00  0.00     0.029 A 
ATOM     45  N   UNL A   1      42.013  29.261  33.105  1.00  0.00    -0.354 N 
ATOM     46  C   UNL A   1      38.662  31.240  31.248  1.00  0.00     0.074 A 
ATOM     47  C   UNL A   1      38.440  30.744  29.906  1.00  0.00     0.031 C 
ATOM     48  C   UNL A   1      43.743  27.848  33.231  1.00  0.00     0.029 A 
ATOM     49  C   UNL A   1      43.028  28.892  33.957  1.00  0.00     0.049 A 
ATOM     50  H   UNL A   1      41.347  29.951  33.328  1.00  0.00     0.167 HD
ATOM     51  C   UNL A   1      37.920  32.211  31.835  1.00  0.00     0.031 A 
ATOM     52  C   UNL A   1      43.351  29.344  35.184  1.00  0.00     0.031 A 
ATOM     53  C   UNL A   1      38.136  32.697  33.172  1.00  0.00     0.049 A 
ATOM     54  C   UNL A   1      42.512  30.418  35.818  1.00  0.00     0.074 A 
ATOM     55  C   UNL A   1      37.401  33.634  33.877  1.00  0.00     0.029 A 
ATOM     56  N   UNL A   1      39.163  32.285  34.008  1.00  0.00    -0.354 N 
ATOM     57  N   UNL A   1      41.461  31.035  35.333  1.00  0.00    -0.248 NA
ATOM     58  C   UNL A   1      42.893  30.845  37.171  1.00  0.00     0.031 C 
ATOM     59  C   UNL A   1      38.011  33.822  35.123  1.00  0.00     0.029 A 
ATOM     60  C   UNL A   1      39.096  32.965  35.213  1.00  0.00     0.049 A 
ATOM     61  H   UNL A   1      39.842  31.609  33.778  1.00  0.00     0.167 HD
ATOM     62  C   UNL A   1      41.044  31.911  36.328  1.00  0.00     0.074 A 
ATOM     63  C   UNL A   1      41.945  31.732  37.448  1.00  0.00     0.031 C 
ATOM     64  C   UNL A   1      40.005  32.783  36.315  1.00  0.00     0.031 A 
BRANCH  51  65
ATOM     65  C   UNL A   1      36.810  32.819  31.020  1.00  0.00    -0.014 A 
ATOM     66  C   UNL A   1      35.476  32.399  31.180  1.00  0.00     0.010 A 
ATOM     67  C   UNL A   1      37.097  33.841  30.096  1.00  0.00     0.010 A 
ATOM     68  C   UNL A   1      34.460  32.950  30.396  1.00  0.00     0.020 A 
ATOM     69  C   UNL A   1      36.080  34.414  29.328  1.00  0.00     0.020 A 
ATOM     70  C   UNL A   1      34.770  33.949  29.468  1.00  0.00     0.054 A 
BRANCH  70  71
ATOM     71  S   UNL A   1      33.433  34.650  28.462  1.00  0.00     0.124 S 
ATOM     72  O   UNL A   1      32.937  33.467  27.760  1.00  0.00    -0.237 OA
ATOM     73  O   UNL A   1      32.531  35.207  29.467  1.00  0.00    -0.237 OA
ATOM     74  O   UNL A   1      34.110  35.634  27.622  1.00  0.00    -0.744 OA
ENDBRANCH  70  71
ENDBRANCH  51  65
BRANCH  52  75
ATOM     75  C   UNL A   1      44.517  28.761  35.900  1.00  0.00    -0.014 A 
ATOM     76  C   UNL A   1      44.356  27.623  36.710  1.00  0.00     0.010 A 
ATOM     77  C   UNL A   1      45.799  29.319  35.748  1.00  0.00     0.010 A 
ATOM     78  C   UNL A   1      45.456  27.056  37.361  1.00  0.00     0.020 A 
ATOM     79  C   UNL A   1      46.905  28.741  36.378  1.00  0.00     0.020 A 
ATOM     80  C   UNL A   1      46.724  27.617  37.187  1.00  0.00     0.054 A 
BRANCH  80  81
ATOM     81  S   UNL A   1      48.150  26.823  37.980  1.00  0.00     0.124 S 
ATOM     82  O   UNL A   1      47.681  26.659  39.353  1.00  0.00    -0.237 OA
ATOM     83  O   UNL A   1      48.295  25.590  37.210  1.00  0.00    -0.237 OA
ATOM     84  O   UNL A   1      49.227  27.792  37.796  1.00  0.00    -0.744 OA
ENDBRANCH  80  81
ENDBRANCH  52  75
BRANCH  64  85
ATOM     85  C   UNL A   1      39.774  33.596  37.560  1.00  0.00    -0.014 A 
ATOM     86  C   UNL A   1      40.294  34.896  37.687  1.00  0.00     0.010 A 
ATOM     87  C   UNL A   1      38.982  33.069  38.597  1.00  0.00     0.010 A 
ATOM     88  C   UNL A   1      40.053  35.643  38.843  1.00  0.00     0.020 A 
ATOM     89  C   UNL A   1      38.719  33.823  39.744  1.00  0.00     0.020 A 
ATOM     90  C   UNL A   1      39.270  35.101  39.865  1.00  0.00     0.054 A 
BRANCH  90  91
ATOM     91  S   UNL A   1      38.936  36.104  41.339  1.00  0.00     0.124 S 
ATOM     92  O   UNL A   1      37.714  35.492  41.852  1.00  0.00    -0.237 OA
ATOM     93  O   UNL A   1      40.133  35.895  42.150  1.00  0.00    -0.237 OA
ATOM     94  O   UNL A   1      38.781  37.457  40.809  1.00  0.00    -0.744 OA
ENDBRANCH  90  91
ENDBRANCH  64  85
ENDBRANCH  38  39
ENDBRANCH  30  33
ENDBRANCH  28  29
ENDBRANCH  27  28
ENDBRANCH  26  27
ENDBRANCH  25  26
ENDBRANCH   1  25
TORSDOF 21
ENDMDL
MODEL 2
REMARK VINA RESULT:      -9.5      6.452     12.333
REMARK SMILES CC(C)Oc1ccccc1NCc1cc(C(=O)NCCCCCCNC(=O)c2ccc(-c3c4nc(c(-c5ccc(S(=O)(=O)[O-])cc5)c5ccc([nH]5)c(-c5ccc(S(=O)(=O)[O-])cc5)c5nc(c(-c6ccc(S(=O)(=O)[O-])cc6)c6ccc3[nH]6)C=C5)C=C4)cc2)cs1
REMARK SMILES IDX 20 1 19 2 18 3 16 4 17 5 15 7 13 8 14 9 89 10 88 11 12 12
REMARK SMILES IDX 11 13 10 15 5 16 6 17 7 18 9 19 8 20 4 21 2 22 1 23 3 24
REMARK SMILES IDX 21 25 22 26 23 27 24 28 25 29 26 30 27 32 28 33 29 34 87 35
REMARK SMILES IDX 30 36 86 37 31 38 32 39 33 40 80 41 34 42 85 43 79 44 81 45
REMARK SMILES IDX 35 46 84 47 78 48 77 49 36 51 66 52 47 53 65 54 48 55 51 56
REMARK SMILES IDX 64 57 82 58 49 59 50 60 63 62 83 63 52 64 37 65 38 66 46 67
REMARK SMILES IDX 39 68 45 69 40 70 41 71 42 72 43 73 44 74 67 75 68 76 76 77
REMARK SMILES IDX 69 78 75 79 70 80 71 81 72 82 73 83 74 84 53 85 54 86 62 87
REMARK SMILES IDX 55 88 61 89 56 90 57 91 58 92 59 93 60 94
REMARK H PARENT 18 6 11 14 25 31 81 50 51 61
REMARK Flexibility Score: inf
ROOT
ATOM      1  C   UNL A   1      35.605  33.203  31.636  1.00  0.00     0.021 C 
ENDROOT
BRANCH   1   2
ATOM      2  C   UNL A   1      34.297  33.773  31.088  1.00  0.00     0.116 C 
BRANCH   2   3
ATOM      3  N   UNL A   1      34.539  34.681  29.984  1.00  0.00    -0.352 N 
ATOM      4  C   UNL A   1      34.249  34.567  28.650  1.00  0.00     0.252 C 
ATOM      5  O   UNL A   1      34.402  35.578  27.952  1.00  0.00    -0.269 OA
ATOM      6  H   UNL A   1      34.987  35.521  30.236  1.00  0.00     0.163 HD
BRANCH   4   7
ATOM      7  C   UNL A   1      33.729  33.323  28.077  1.00  0.00     0.050 A 
ATOM      8  C   UNL A   1      32.343  31.752  26.984  1.00  0.00     0.024 A 
ATOM      9  C   UNL A   1      32.447  33.038  27.490  1.00  0.00     0.031 A 
ATOM     10  S   UNL A   1      33.742  30.838  27.336  1.00  0.00    -0.146 S 
ATOM     11  C   UNL A   1      34.489  32.164  28.107  1.00  0.00     0.079 A 
BRANCH   8  12
ATOM     12  C   UNL A   1      31.193  31.130  26.233  1.00  0.00     0.160 C 
BRANCH  12  13
ATOM     13  N   UNL A   1      31.594  30.246  25.159  1.00  0.00    -0.377 N 
ATOM     14  H   UNL A   1      32.234  30.617  24.510  1.00  0.00     0.161 HD
BRANCH  13  15
ATOM     15  C   UNL A   1      31.190  28.943  24.933  1.00  0.00     0.077 A 
ATOM     16  C   UNL A   1      30.446  28.638  23.773  1.00  0.00     0.142 A 
ATOM     17  C   UNL A   1      29.937  27.359  23.534  1.00  0.00     0.048 A 
ATOM     18  C   UNL A   1      30.209  26.333  24.432  1.00  0.00     0.004 A 
ATOM     19  C   UNL A   1      31.480  27.883  25.798  1.00  0.00     0.029 A 
ATOM     20  C   UNL A   1      30.984  26.593  25.558  1.00  0.00     0.002 A 
BRANCH  16  21
ATOM     21  O   UNL A   1      30.097  29.638  22.902  1.00  0.00    -0.489 OA
BRANCH  21  22
ATOM     22  C   UNL A   1      28.769  30.176  23.023  1.00  0.00     0.167 C 
ATOM     23  C   UNL A   1      28.900  31.695  23.018  1.00  0.00     0.052 C 
ATOM     24  C   UNL A   1      27.695  29.732  22.026  1.00  0.00     0.052 C 
ENDBRANCH  21  22
ENDBRANCH  16  21
ENDBRANCH  13  15
ENDBRANCH  12  13
ENDBRANCH   8  12
ENDBRANCH   4   7
ENDBRANCH   2   3
ENDBRANCH   1   2
BRANCH   1  25
ATOM     25  C   UNL A   1      36.797  34.159  31.491  1.00  0.00     0.002 C 
BRANCH  25  26
ATOM     26  C   UNL A   1      38.062  33.538  30.882  1.00  0.00     0.002 C 
BRANCH  26  27
ATOM     27  C   UNL A   1      37.830  32.375  29.911  1.00  0.00     0.021 C 
BRANCH  27  28
ATOM     28  C   UNL A   1      37.637  31.009  30.566  1.00  0.00     0.116 C 
BRANCH  28  29
ATOM     29  N   UNL A   1      36.823  30.120  29.752  1.00  0.00    -0.352 N 
ATOM     30  C   UNL A   1      37.191  29.289  28.724  1.00  0.00     0.251 C 
ATOM     31  H   UNL A   1      35.863  30.114  29.972  1.00  0.00     0.163 HD
ATOM     32  O   UNL A   1      36.326  28.758  28.032  1.00  0.00    -0.269 OA
BRANCH  30  33
ATOM     33  C   UNL A   1      38.622  29.042  28.435  1.00  0.00     0.039 A 
ATOM     34  C   UNL A   1      39.125  29.388  27.177  1.00  0.00     0.014 A 
ATOM     35  C   UNL A   1      39.460  28.446  29.382  1.00  0.00     0.014 A 
ATOM     36  C   UNL A   1      40.477  29.188  26.888  1.00  0.00     0.010 A 
ATOM     37  C   UNL A   1      40.821  28.303  29.115  1.00  0.00     0.010 A 
ATOM     38  C   UNL A   1      41.343  28.671  27.865  1.00  0.00    -0.014 A 
BRANCH  38  39
ATOM     39  C   UNL A   1      42.797  28.516  27.599  1.00  0.00     0.031 A 
ATOM     40  C   UNL A   1      43.739  29.669  27.812  1.00  0.00     0.074 A 
ATOM     41  C   UNL A   1      43.260  27.350  27.105  1.00  0.00     0.049 A 
ATOM     42  N   UNL A   1      45.027  29.733  27.589  1.00  0.00    -0.248 NA
ATOM     43  C   UNL A   1      43.154  30.920  28.319  1.00  0.00     0.031 C 
ATOM     44  C   UNL A   1      42.443  26.170  26.813  1.00  0.00     0.029 A 
ATOM     45  N   UNL A   1      44.530  26.970  26.752  1.00  0.00    -0.354 N 
ATOM     46  C   UNL A   1      45.403  31.032  27.910  1.00  0.00     0.074 A 
ATOM     47  C   UNL A   1      44.200  31.734  28.303  1.00  0.00     0.031 C 
ATOM     48  C   UNL A   1      43.237  25.191  26.347  1.00  0.00     0.029 A 
ATOM     49  C   UNL A   1      44.609  25.684  26.274  1.00  0.00     0.049 A 
ATOM     50  H   UNL A   1      45.313  27.563  26.834  1.00  0.00     0.167 HD
ATOM     51  C   UNL A   1      46.639  31.587  27.894  1.00  0.00     0.031 A 
ATOM     52  C   UNL A   1      45.664  24.977  25.824  1.00  0.00     0.031 A 
ATOM     53  C   UNL A   1      47.837  30.886  27.512  1.00  0.00     0.049 A 
ATOM     54  C   UNL A   1      47.027  25.611  25.821  1.00  0.00     0.074 A 
ATOM     55  C   UNL A   1      49.143  31.344  27.522  1.00  0.00     0.029 A 
ATOM     56  N   UNL A   1      47.875  29.579  27.051  1.00  0.00    -0.354 N 
ATOM     57  N   UNL A   1      47.372  26.821  26.192  1.00  0.00    -0.248 NA
ATOM     58  C   UNL A   1      48.143  24.781  25.351  1.00  0.00     0.031 C 
ATOM     59  C   UNL A   1      49.966  30.327  27.023  1.00  0.00     0.029 A 
ATOM     60  C   UNL A   1      49.180  29.221  26.751  1.00  0.00     0.049 A 
ATOM     61  H   UNL A   1      47.090  28.992  26.950  1.00  0.00     0.167 HD
ATOM     62  C   UNL A   1      48.750  26.890  26.019  1.00  0.00     0.074 A 
ATOM     63  C   UNL A   1      49.175  25.596  25.524  1.00  0.00     0.031 C 
ATOM     64  C   UNL A   1      49.587  27.932  26.251  1.00  0.00     0.031 A 
BRANCH  51  65
ATOM     65  C   UNL A   1      46.752  33.035  28.295  1.00  0.00    -0.014 A 
ATOM     66  C   UNL A   1      46.635  34.064  27.341  1.00  0.00     0.010 A 
ATOM     67  C   UNL A   1      46.955  33.375  29.645  1.00  0.00     0.010 A 
ATOM     68  C   UNL A   1      46.772  35.401  27.722  1.00  0.00     0.020 A 
ATOM     69  C   UNL A   1      47.066  34.712  30.034  1.00  0.00     0.020 A 
ATOM     70  C   UNL A   1      46.996  35.716  29.065  1.00  0.00     0.054 A 
BRANCH  70  71
ATOM     71  S   UNL A   1      47.169  37.460  29.534  1.00  0.00     0.124 S 
ATOM     72  O   UNL A   1      46.633  38.141  28.357  1.00  0.00    -0.237 OA
ATOM     73  O   UNL A   1      46.350  37.553  30.740  1.00  0.00    -0.237 OA
ATOM     74  O   UNL A   1      48.605  37.621  29.746  1.00  0.00    -0.744 OA
ENDBRANCH  70  71
ENDBRANCH  51  65
BRANCH  52  75
ATOM     75  C   UNL A   1      45.469  23.578  25.359  1.00  0.00    -0.014 A 
ATOM     76  C   UNL A   1      45.633  22.504  26.251  1.00  0.00     0.010 A 
ATOM     77  C   UNL A   1      45.084  23.316  24.032  1.00  0.00     0.010 A 
ATOM     78  C   UNL A   1      45.422  21.190  25.822  1.00  0.00     0.020 A 
ATOM     79  C   UNL A   1      44.849  22.005  23.606  1.00  0.00     0.020 A 
ATOM     80  C   UNL A   1      45.027  20.950  24.503  1.00  0.00     0.054 A 
BRANCH  80  81
ATOM     81  S   UNL A   1      44.687  19.243  23.988  1.00  0.00     0.124 S 
ATOM     82  O   UNL A   1      45.863  18.536  24.484  1.00  0.00    -0.237 OA
ATOM     83  O   UNL A   1      43.433  18.948  24.677  1.00  0.00    -0.237 OA
ATOM     84  O   UNL A   1      44.579  19.341  22.534  1.00  0.00    -0.744 OA
ENDBRANCH  80  81
ENDBRANCH  52  75
BRANCH  64  85
ATOM     85  C   UNL A   1      51.053  27.708  25.994  1.00  0.00    -0.014 A 
ATOM     86  C   UNL A   1      51.905  27.237  27.007  1.00  0.00     0.010 A 
ATOM     87  C   UNL A   1      51.573  27.927  24.705  1.00  0.00     0.010 A 
ATOM     88  C   UNL A   1      53.260  27.017  26.744  1.00  0.00     0.020 A 
ATOM     89  C   UNL A   1      52.922  27.686  24.433  1.00  0.00     0.020 A 
ATOM     90  C   UNL A   1      53.760  27.246  25.459  1.00  0.00     0.054 A 
BRANCH  90  91
ATOM     91  S   UNL A   1      55.513  26.916  25.130  1.00  0.00     0.124 S 
ATOM     92  O   UNL A   1      55.752  27.716  23.932  1.00  0.00    -0.237 OA
ATOM     93  O   UNL A   1      56.166  27.394  26.347  1.00  0.00    -0.237 OA
ATOM     94  O   UNL A   1      55.562  25.469  24.933  1.00  0.00    -0.744 OA
ENDBRANCH  90  91
ENDBRANCH  64  85
ENDBRANCH  38  39
ENDBRANCH  30  33
ENDBRANCH  28  29
ENDBRANCH  27  28
ENDBRANCH  26  27
ENDBRANCH  25  26
ENDBRANCH   1  25
TORSDOF 21
ENDMDL
MODEL 3
REMARK VINA RESULT:      -8.4      4.129      9.800
REMARK SMILES CC(C)Oc1ccccc1NCc1cc(C(=O)NCCCCCCNC(=O)c2ccc(-c3c4nc(c(-c5ccc(S(=O)(=O)[O-])cc5)c5ccc([nH]5)c(-c5ccc(S(=O)(=O)[O-])cc5)c5nc(c(-c6ccc(S(=O)(=O)[O-])cc6)c6ccc3[nH]6)C=C5)C=C4)cc2)cs1
REMARK SMILES IDX 20 1 19 2 18 3 16 4 17 5 15 7 13 8 14 9 89 10 88 11 12 12
REMARK SMILES IDX 11 13 10 15 5 16 6 17 7 18 9 19 8 20 4 21 2 22 1 23 3 24
REMARK SMILES IDX 21 25 22 26 23 27 24 28 25 29 26 30 27 32 28 33 29 34 87 35
REMARK SMILES IDX 30 36 86 37 31 38 32 39 33 40 80 41 34 42 85 43 79 44 81 45
REMARK SMILES IDX 35 46 84 47 78 48 77 49 36 51 66 52 47 53 65 54 48 55 51 56
REMARK SMILES IDX 64 57 82 58 49 59 50 60 63 62 83 63 52 64 37 65 38 66 46 67
REMARK SMILES IDX 39 68 45 69 40 70 41 71 42 72 43 73 44 74 67 75 68 76 76 77
REMARK SMILES IDX 69 78 75 79 70 80 71 81 72 82 73 83 74 84 53 85 54 86 62 87
REMARK SMILES IDX 55 88 61 89 56 90 57 91 58 92 59 93 60 94
REMARK H PARENT 18 6 11 14 25 31 81 50 51 61
REMARK Flexibility Score: inf
ROOT
ATOM      1  C   UNL A   1      44.762  23.808  31.914  1.00  0.00     0.021 C 
ENDROOT
BRANCH   1   2
ATOM      2  C   UNL A   1      44.114  24.163  33.252  1.00  0.00     0.116 C 
BRANCH   2   3
ATOM      3  N   UNL A   1      45.084  24.706  34.181  1.00  0.00    -0.352 N 
ATOM      4  C   UNL A   1      46.064  24.091  34.916  1.00  0.00     0.252 C 
ATOM      5  O   UNL A   1      46.877  24.822  35.495  1.00  0.00    -0.269 OA
ATOM      6  H   UNL A   1      45.031  25.681  34.306  1.00  0.00     0.163 HD
BRANCH   4   7
ATOM      7  C   UNL A   1      46.182  22.632  34.975  1.00  0.00     0.050 A 
ATOM      8  C   UNL A   1      45.693  20.342  35.299  1.00  0.00     0.024 A 
ATOM      9  C   UNL A   1      45.262  21.647  35.479  1.00  0.00     0.031 A 
ATOM     10  S   UNL A   1      47.270  20.300  34.645  1.00  0.00    -0.146 S 
ATOM     11  C   UNL A   1      47.346  22.003  34.562  1.00  0.00     0.079 A 
BRANCH   8  12
ATOM     12  C   UNL A   1      44.965  19.062  35.621  1.00  0.00     0.160 C 
BRANCH  12  13
ATOM     13  N   UNL A   1      45.661  18.202  36.556  1.00  0.00    -0.377 N 
ATOM     14  H   UNL A   1      46.559  17.907  36.284  1.00  0.00     0.161 HD
BRANCH  13  15
ATOM     15  C   UNL A   1      45.219  17.746  37.783  1.00  0.00     0.077 A 
ATOM     16  C   UNL A   1      45.863  18.184  38.960  1.00  0.00     0.142 A 
ATOM     17  C   UNL A   1      45.518  17.693  40.222  1.00  0.00     0.048 A 
ATOM     18  C   UNL A   1      44.473  16.783  40.342  1.00  0.00     0.004 A 
ATOM     19  C   UNL A   1      44.147  16.861  37.939  1.00  0.00     0.029 A 
ATOM     20  C   UNL A   1      43.784  16.374  39.204  1.00  0.00     0.002 A 
BRANCH  16  21
ATOM     21  O   UNL A   1      46.944  19.024  38.876  1.00  0.00    -0.489 OA
BRANCH  21  22
ATOM     22  C   UNL A   1      47.681  19.263  40.087  1.00  0.00     0.167 C 
ATOM     23  C   UNL A   1      48.465  17.992  40.393  1.00  0.00     0.052 C 
ATOM     24  C   UNL A   1      48.601  20.486  40.166  1.00  0.00     0.052 C 
ENDBRANCH  21  22
ENDBRANCH  16  21
ENDBRANCH  13  15
ENDBRANCH  12  13
ENDBRANCH   8  12
ENDBRANCH   4   7
ENDBRANCH   2   3
ENDBRANCH   1   2
BRANCH   1  25
ATOM     25  C   UNL A   1      43.825  23.992  30.713  1.00  0.00     0.002 C 
BRANCH  25  26
ATOM     26  C   UNL A   1      44.018  22.980  29.573  1.00  0.00     0.002 C 
BRANCH  26  27
ATOM     27  C   UNL A   1      43.252  23.282  28.281  1.00  0.00     0.021 C 
BRANCH  27  28
ATOM     28  C   UNL A   1      44.002  24.138  27.264  1.00  0.00     0.116 C 
BRANCH  28  29
ATOM     29  N   UNL A   1      43.125  24.647  26.221  1.00  0.00    -0.352 N 
ATOM     30  C   UNL A   1      42.108  25.566  26.302  1.00  0.00     0.251 C 
ATOM     31  H   UNL A   1      43.285  24.278  25.323  1.00  0.00     0.163 HD
ATOM     32  O   UNL A   1      41.355  25.724  25.345  1.00  0.00    -0.269 OA
BRANCH  30  33
ATOM     33  C   UNL A   1      41.904  26.352  27.540  1.00  0.00     0.039 A 
ATOM     34  C   UNL A   1      42.747  27.437  27.796  1.00  0.00     0.014 A 
ATOM     35  C   UNL A   1      40.909  26.008  28.461  1.00  0.00     0.014 A 
ATOM     36  C   UNL A   1      42.559  28.210  28.945  1.00  0.00     0.010 A 
ATOM     37  C   UNL A   1      40.683  26.814  29.575  1.00  0.00     0.010 A 
ATOM     38  C   UNL A   1      41.507  27.922  29.830  1.00  0.00    -0.014 A 
BRANCH  38  39
ATOM     39  C   UNL A   1      41.249  28.774  31.020  1.00  0.00     0.031 A 
ATOM     40  C   UNL A   1      40.131  29.779  31.011  1.00  0.00     0.074 A 
ATOM     41  C   UNL A   1      42.065  28.684  32.089  1.00  0.00     0.049 A 
ATOM     42  N   UNL A   1      39.787  30.639  31.937  1.00  0.00    -0.248 NA
ATOM     43  C   UNL A   1      39.305  29.845  29.795  1.00  0.00     0.031 C 
ATOM     44  C   UNL A   1      43.212  27.780  32.206  1.00  0.00     0.029 A 
ATOM     45  N   UNL A   1      42.060  29.369  33.278  1.00  0.00    -0.354 N 
ATOM     46  C   UNL A   1      38.721  31.358  31.410  1.00  0.00     0.074 A 
ATOM     47  C   UNL A   1      38.501  30.863  30.068  1.00  0.00     0.031 C 
ATOM     48  C   UNL A   1      43.785  27.950  33.409  1.00  0.00     0.029 A 
ATOM     49  C   UNL A   1      43.071  28.997  34.133  1.00  0.00     0.049 A 
ATOM     50  H   UNL A   1      41.396  30.061  33.499  1.00  0.00     0.167 HD
ATOM     51  C   UNL A   1      37.980  32.331  31.994  1.00  0.00     0.031 A 
ATOM     52  C   UNL A   1      43.392  29.448  35.361  1.00  0.00     0.031 A 
ATOM     53  C   UNL A   1      38.193  32.816  33.332  1.00  0.00     0.049 A 
ATOM     54  C   UNL A   1      42.554  30.524  35.992  1.00  0.00     0.074 A 
ATOM     55  C   UNL A   1      37.459  33.757  34.035  1.00  0.00     0.029 A 
ATOM     56  N   UNL A   1      39.217  32.402  34.171  1.00  0.00    -0.354 N 
ATOM     57  N   UNL A   1      41.507  31.145  35.503  1.00  0.00    -0.248 NA
ATOM     58  C   UNL A   1      42.932  30.951  37.346  1.00  0.00     0.031 C 
ATOM     59  C   UNL A   1      38.066  33.943  35.282  1.00  0.00     0.029 A 
ATOM     60  C   UNL A   1      39.148  33.083  35.376  1.00  0.00     0.049 A 
ATOM     61  H   UNL A   1      39.894  31.724  33.943  1.00  0.00     0.167 HD
ATOM     62  C   UNL A   1      41.089  32.022  36.497  1.00  0.00     0.074 A 
ATOM     63  C   UNL A   1      41.987  31.841  37.620  1.00  0.00     0.031 C 
ATOM     64  C   UNL A   1      40.053  32.898  36.481  1.00  0.00     0.031 A 
BRANCH  51  65
ATOM     65  C   UNL A   1      36.874  32.943  31.176  1.00  0.00    -0.014 A 
ATOM     66  C   UNL A   1      37.157  33.741  30.052  1.00  0.00     0.010 A 
ATOM     67  C   UNL A   1      35.531  32.700  31.521  1.00  0.00     0.010 A 
ATOM     68  C   UNL A   1      36.121  34.327  29.321  1.00  0.00     0.020 A 
ATOM     69  C   UNL A   1      34.491  33.263  30.776  1.00  0.00     0.020 A 
ATOM     70  C   UNL A   1      34.795  34.092  29.693  1.00  0.00     0.054 A 
BRANCH  70  71
ATOM     71  S   UNL A   1      33.468  34.864  28.726  1.00  0.00     0.124 S 
ATOM     72  O   UNL A   1      34.219  35.767  27.857  1.00  0.00    -0.237 OA
ATOM     73  O   UNL A   1      32.848  33.722  28.059  1.00  0.00    -0.237 OA
ATOM     74  O   UNL A   1      32.639  35.518  29.735  1.00  0.00    -0.744 OA
ENDBRANCH  70  71
ENDBRANCH  51  65
BRANCH  52  75
ATOM     75  C   UNL A   1      44.554  28.861  36.080  1.00  0.00    -0.014 A 
ATOM     76  C   UNL A   1      45.810  29.490  36.034  1.00  0.00     0.010 A 
ATOM     77  C   UNL A   1      44.401  27.689  36.842  1.00  0.00     0.010 A 
ATOM     78  C   UNL A   1      46.896  28.955  36.734  1.00  0.00     0.020 A 
ATOM     79  C   UNL A   1      45.478  27.163  37.562  1.00  0.00     0.020 A 
ATOM     80  C   UNL A   1      46.721  27.797  37.496  1.00  0.00     0.054 A 
BRANCH  80  81
ATOM     81  S   UNL A   1      48.124  27.160  38.455  1.00  0.00     0.124 S 
ATOM     82  O   UNL A   1      48.492  28.319  39.263  1.00  0.00    -0.237 OA
ATOM     83  O   UNL A   1      47.528  26.043  39.184  1.00  0.00    -0.237 OA
ATOM     84  O   UNL A   1      49.092  26.777  37.430  1.00  0.00    -0.744 OA
ENDBRANCH  80  81
ENDBRANCH  52  75
BRANCH  64  85
ATOM     85  C   UNL A   1      39.821  33.712  37.725  1.00  0.00    -0.014 A 
ATOM     86  C   UNL A   1      40.212  35.060  37.795  1.00  0.00     0.010 A 
ATOM     87  C   UNL A   1      39.156  33.132  38.821  1.00  0.00     0.010 A 
ATOM     88  C   UNL A   1      39.971  35.806  38.952  1.00  0.00     0.020 A 
ATOM     89  C   UNL A   1      38.893  33.882  39.971  1.00  0.00     0.020 A 
ATOM     90  C   UNL A   1      39.315  35.211  40.033  1.00  0.00     0.054 A 
BRANCH  90  91
ATOM     91  S   UNL A   1      38.977  36.209  41.509  1.00  0.00     0.124 S 
ATOM     92  O   UNL A   1      38.885  37.556  40.949  1.00  0.00    -0.237 OA
ATOM     93  O   UNL A   1      37.722  35.646  42.000  1.00  0.00    -0.237 OA
ATOM     94  O   UNL A   1      40.136  35.968  42.365  1.00  0.00    -0.744 OA
ENDBRANCH  90  91
ENDBRANCH  64  85
ENDBRANCH  38  39
ENDBRANCH  30  33
ENDBRANCH  28  29
ENDBRANCH  27  28
ENDBRANCH  26  27
ENDBRANCH  25  26
ENDBRANCH   1  25
TORSDOF 21
ENDMDL
