MODEL 1
REMARK VINA RESULT:     -11.0      0.000      0.000
REMARK SMILES [NH3+][C@]1(C(=O)NCCCCCCNC(=O)c2ccc(-c3c4nc(c(-c5ccc(S(=O)(=O)[O-])cc5)c5ccc([nH]5)c(-c5ccc(S(=O)(=O)[O-])cc5)c5nc(c(-c6ccc(S(=O)(=O)[O-])cc6)c6ccc3[nH]6)C=C5)C=C4)cc2)CCC[C@@H]1CCn1cc(I)cn1
REMARK SMILES IDX 8 1 7 2 6 3 5 4 3 5 4 6 2 8 75 9 78 10 76 11 77 12 1 13
REMARK SMILES IDX 79 17 80 18 81 19 82 20 86 21 83 22 85 23 84 24 9 25 10 26
REMARK SMILES IDX 11 27 12 28 13 29 14 31 15 32 16 33 74 34 17 35 73 36 18 37
REMARK SMILES IDX 19 38 20 39 67 40 21 41 72 42 66 43 68 44 22 45 71 46 65 47
REMARK SMILES IDX 64 48 23 50 53 51 34 52 52 53 35 54 38 55 51 56 69 57 36 58
REMARK SMILES IDX 37 59 50 61 70 62 39 63 24 64 25 65 33 66 26 67 32 68 27 69
REMARK SMILES IDX 28 70 29 71 30 72 31 73 54 74 55 75 63 76 56 77 62 78 57 79
REMARK SMILES IDX 58 80 59 81 60 82 61 83 40 84 41 85 49 86 42 87 48 88 43 89
REMARK SMILES IDX 44 90 45 91 46 92 47 93
REMARK H PARENT 5 7 1 14 1 15 1 16 12 30 68 49 38 60
REMARK Flexibility Score: inf
ROOT
ATOM      1  C   UNL A   1      33.698  27.792  26.436  1.00  0.00     0.002 C 
ENDROOT
BRANCH   1   2
ATOM      2  C   UNL A   1      33.951  27.012  25.147  1.00  0.00     0.021 C 
BRANCH   2   3
ATOM      3  C   UNL A   1      33.933  25.495  25.318  1.00  0.00     0.116 C 
BRANCH   3   4
ATOM      4  N   UNL A   1      34.367  24.842  24.108  1.00  0.00    -0.351 N 
ATOM      5  C   UNL A   1      33.793  23.846  23.375  1.00  0.00     0.281 C 
ATOM      6  O   UNL A   1      34.469  23.427  22.429  1.00  0.00    -0.268 OA
ATOM      7  H   UNL A   1      35.223  25.171  23.752  1.00  0.00     0.163 HD
BRANCH   5   8
ATOM      8  C   UNL A   1      32.350  23.304  23.693  1.00  0.00     0.176 C 
ATOM      9  C   UNL A   1      32.499  22.275  24.855  1.00  0.00     0.079 C 
ATOM     10  C   UNL A   1      31.370  24.363  24.322  1.00  0.00     0.062 C 
ATOM     11  C   UNL A   1      31.160  22.262  25.559  1.00  0.00     0.008 C 
ATOM     12  C   UNL A   1      30.806  23.729  25.617  1.00  0.00     0.011 C 
BRANCH   8  13
ATOM     13  N   UNL A   1      31.889  22.530  22.537  1.00  0.00    -0.345 N 
ATOM     14  H   UNL A   1      32.664  22.394  21.888  1.00  0.00     0.345 HD
ATOM     15  H   UNL A   1      31.137  23.035  22.068  1.00  0.00     0.345 HD
ATOM     16  H   UNL A   1      31.546  21.623  22.851  1.00  0.00     0.345 HD
ENDBRANCH   8  13
BRANCH  10  17
ATOM     17  C   UNL A   1      30.242  25.102  23.552  1.00  0.00     0.034 C 
BRANCH  17  18
ATOM     18  C   UNL A   1      29.460  26.269  24.154  1.00  0.00     0.145 C 
BRANCH  18  19
ATOM     19  N   UNL A   1      29.595  27.533  23.471  1.00  0.00    -0.272 N 
ATOM     20  C   UNL A   1      28.595  28.371  23.072  1.00  0.00     0.123 A 
ATOM     21  N   UNL A   1      30.828  27.975  23.148  1.00  0.00    -0.180 NA
ATOM     22  C   UNL A   1      29.225  29.387  22.402  1.00  0.00     0.051 A 
ATOM     23  C   UNL A   1      30.595  29.122  22.502  1.00  0.00     0.149 A 
ATOM     24  I   UNL A   1      28.332  30.912  21.449  1.00  0.00    -0.041 I 
ENDBRANCH  18  19
ENDBRANCH  17  18
ENDBRANCH  10  17
ENDBRANCH   5   8
ENDBRANCH   3   4
ENDBRANCH   2   3
ENDBRANCH   1   2
BRANCH   1  25
ATOM     25  C   UNL A   1      33.567  29.309  26.250  1.00  0.00     0.002 C 
BRANCH  25  26
ATOM     26  C   UNL A   1      34.333  30.171  27.260  1.00  0.00     0.021 C 
BRANCH  26  27
ATOM     27  C   UNL A   1      35.539  29.496  27.911  1.00  0.00     0.116 C 
BRANCH  27  28
ATOM     28  N   UNL A   1      35.539  29.657  29.354  1.00  0.00    -0.352 N 
ATOM     29  C   UNL A   1      36.550  29.450  30.253  1.00  0.00     0.251 C 
ATOM     30  H   UNL A   1      34.686  29.959  29.744  1.00  0.00     0.163 HD
ATOM     31  O   UNL A   1      36.301  29.421  31.457  1.00  0.00    -0.269 OA
BRANCH  29  32
ATOM     32  C   UNL A   1      37.935  29.251  29.778  1.00  0.00     0.039 A 
ATOM     33  C   UNL A   1      38.890  28.764  30.673  1.00  0.00     0.014 A 
ATOM     34  C   UNL A   1      38.298  29.572  28.466  1.00  0.00     0.014 A 
ATOM     35  C   UNL A   1      40.202  28.558  30.239  1.00  0.00     0.010 A 
ATOM     36  C   UNL A   1      39.589  29.306  28.019  1.00  0.00     0.010 A 
ATOM     37  C   UNL A   1      40.557  28.805  28.904  1.00  0.00    -0.014 A 
BRANCH  37  38
ATOM     38  C   UNL A   1      41.937  28.554  28.419  1.00  0.00     0.031 A 
ATOM     39  C   UNL A   1      42.333  27.183  27.940  1.00  0.00     0.074 A 
ATOM     40  C   UNL A   1      42.849  29.546  28.461  1.00  0.00     0.049 A 
ATOM     41  N   UNL A   1      43.502  26.758  27.532  1.00  0.00    -0.248 NA
ATOM     42  C   UNL A   1      41.286  26.147  27.942  1.00  0.00     0.031 C 
ATOM     43  C   UNL A   1      42.598  30.907  28.940  1.00  0.00     0.029 A 
ATOM     44  N   UNL A   1      44.174  29.559  28.104  1.00  0.00    -0.354 N 
ATOM     45  C   UNL A   1      43.337  25.407  27.248  1.00  0.00     0.074 A 
ATOM     46  C   UNL A   1      41.967  25.073  27.571  1.00  0.00     0.031 C 
ATOM     47  C   UNL A   1      43.725  31.628  28.828  1.00  0.00     0.029 A 
ATOM     48  C   UNL A   1      44.787  30.773  28.306  1.00  0.00     0.049 A 
ATOM     49  H   UNL A   1      44.641  28.774  27.737  1.00  0.00     0.167 HD
ATOM     50  C   UNL A   1      44.239  24.530  26.747  1.00  0.00     0.031 A 
ATOM     51  C   UNL A   1      46.063  31.156  28.102  1.00  0.00     0.031 A 
ATOM     52  C   UNL A   1      45.595  24.872  26.410  1.00  0.00     0.049 A 
ATOM     53  C   UNL A   1      47.045  30.163  27.542  1.00  0.00     0.074 A 
ATOM     54  C   UNL A   1      46.567  24.068  25.840  1.00  0.00     0.029 A 
ATOM     55  N   UNL A   1      46.172  26.117  26.611  1.00  0.00    -0.354 N 
ATOM     56  N   UNL A   1      46.850  28.906  27.219  1.00  0.00    -0.248 NA
ATOM     57  C   UNL A   1      48.414  30.643  27.309  1.00  0.00     0.031 C 
ATOM     58  C   UNL A   1      47.747  24.813  25.744  1.00  0.00     0.029 A 
ATOM     59  C   UNL A   1      47.493  26.098  26.199  1.00  0.00     0.049 A 
ATOM     60  H   UNL A   1      45.710  26.898  26.992  1.00  0.00     0.167 HD
ATOM     61  C   UNL A   1      48.067  28.454  26.717  1.00  0.00     0.074 A 
ATOM     62  C   UNL A   1      48.983  29.574  26.768  1.00  0.00     0.031 C 
ATOM     63  C   UNL A   1      48.393  27.222  26.255  1.00  0.00     0.031 A 
BRANCH  50  64
ATOM     64  C   UNL A   1      43.789  23.107  26.538  1.00  0.00    -0.014 A 
ATOM     65  C   UNL A   1      44.321  22.320  25.501  1.00  0.00     0.010 A 
ATOM     66  C   UNL A   1      42.858  22.533  27.422  1.00  0.00     0.010 A 
ATOM     67  C   UNL A   1      43.902  20.999  25.328  1.00  0.00     0.020 A 
ATOM     68  C   UNL A   1      42.456  21.202  27.270  1.00  0.00     0.020 A 
ATOM     69  C   UNL A   1      42.970  20.449  26.213  1.00  0.00     0.054 A 
BRANCH  69  70
ATOM     70  S   UNL A   1      42.466  18.721  25.982  1.00  0.00     0.124 S 
ATOM     71  O   UNL A   1      43.294  18.317  24.848  1.00  0.00    -0.237 OA
ATOM     72  O   UNL A   1      42.813  18.111  27.262  1.00  0.00    -0.237 OA
ATOM     73  O   UNL A   1      41.034  18.812  25.706  1.00  0.00    -0.744 OA
ENDBRANCH  69  70
ENDBRANCH  50  64
BRANCH  51  74
ATOM     74  C   UNL A   1      46.481  32.547  28.420  1.00  0.00    -0.014 A 
ATOM     75  C   UNL A   1      46.308  33.579  27.481  1.00  0.00     0.010 A 
ATOM     76  C   UNL A   1      47.046  32.851  29.673  1.00  0.00     0.010 A 
ATOM     77  C   UNL A   1      46.711  34.885  27.780  1.00  0.00     0.020 A 
ATOM     78  C   UNL A   1      47.424  34.160  29.986  1.00  0.00     0.020 A 
ATOM     79  C   UNL A   1      47.266  35.166  29.031  1.00  0.00     0.054 A 
BRANCH  79  80
ATOM     80  S   UNL A   1      47.737  36.875  29.416  1.00  0.00     0.124 S 
ATOM     81  O   UNL A   1      46.489  37.424  29.937  1.00  0.00    -0.237 OA
ATOM     82  O   UNL A   1      48.807  36.696  30.395  1.00  0.00    -0.237 OA
ATOM     83  O   UNL A   1      48.168  37.409  28.126  1.00  0.00    -0.744 OA
ENDBRANCH  79  80
ENDBRANCH  51  74
BRANCH  63  84
ATOM     84  C   UNL A   1      49.790  27.025  25.732  1.00  0.00    -0.014 A 
ATOM     85  C   UNL A   1      50.810  26.510  26.552  1.00  0.00     0.010 A 
ATOM     86  C   UNL A   1      50.072  27.308  24.383  1.00  0.00     0.010 A 
ATOM     87  C   UNL A   1      52.095  26.309  26.039  1.00  0.00     0.020 A 
ATOM     88  C   UNL A   1      51.346  27.082  23.859  1.00  0.00     0.020 A 
ATOM     89  C   UNL A   1      52.354  26.597  24.695  1.00  0.00     0.054 A 
BRANCH  89  90
ATOM     90  S   UNL A   1      54.016  26.285  24.041  1.00  0.00     0.124 S 
ATOM     91  O   UNL A   1      53.765  26.199  22.604  1.00  0.00    -0.237 OA
ATOM     92  O   UNL A   1      54.760  27.463  24.479  1.00  0.00    -0.237 OA
ATOM     93  O   UNL A   1      54.411  25.032  24.681  1.00  0.00    -0.744 OA
ENDBRANCH  89  90
ENDBRANCH  63  84
ENDBRANCH  37  38
ENDBRANCH  29  32
ENDBRANCH  27  28
ENDBRANCH  26  27
ENDBRANCH  25  26
ENDBRANCH   1  25
TORSDOF 20
ENDMDL
MODEL 2
REMARK VINA RESULT:     -10.8      6.533     12.061
REMARK SMILES [NH3+][C@]1(C(=O)NCCCCCCNC(=O)c2ccc(-c3c4nc(c(-c5ccc(S(=O)(=O)[O-])cc5)c5ccc([nH]5)c(-c5ccc(S(=O)(=O)[O-])cc5)c5nc(c(-c6ccc(S(=O)(=O)[O-])cc6)c6ccc3[nH]6)C=C5)C=C4)cc2)CCC[C@@H]1CCn1cc(I)cn1
REMARK SMILES IDX 8 1 7 2 6 3 5 4 3 5 4 6 2 8 75 9 78 10 76 11 77 12 1 13
REMARK SMILES IDX 79 17 80 18 81 19 82 20 86 21 83 22 85 23 84 24 9 25 10 26
REMARK SMILES IDX 11 27 12 28 13 29 14 31 15 32 16 33 74 34 17 35 73 36 18 37
REMARK SMILES IDX 19 38 20 39 67 40 21 41 72 42 66 43 68 44 22 45 71 46 65 47
REMARK SMILES IDX 64 48 23 50 53 51 34 52 52 53 35 54 38 55 51 56 69 57 36 58
REMARK SMILES IDX 37 59 50 61 70 62 39 63 24 64 25 65 33 66 26 67 32 68 27 69
REMARK SMILES IDX 28 70 29 71 30 72 31 73 54 74 55 75 63 76 56 77 62 78 57 79
REMARK SMILES IDX 58 80 59 81 60 82 61 83 40 84 41 85 49 86 42 87 48 88 43 89
REMARK SMILES IDX 44 90 45 91 46 92 47 93
REMARK H PARENT 5 7 1 14 1 15 1 16 12 30 68 49 38 60
REMARK Flexibility Score: inf
ROOT
ATOM      1  C   UNL A   1      40.707  21.867  27.230  1.00  0.00     0.002 C 
ENDROOT
BRANCH   1   2
ATOM      2  C   UNL A   1      39.959  23.198  27.276  1.00  0.00     0.021 C 
BRANCH   2   3
ATOM      3  C   UNL A   1      38.713  23.248  26.396  1.00  0.00     0.116 C 
BRANCH   3   4
ATOM      4  N   UNL A   1      38.554  22.012  25.670  1.00  0.00    -0.351 N 
ATOM      5  C   UNL A   1      37.440  21.409  25.165  1.00  0.00     0.281 C 
ATOM      6  O   UNL A   1      37.621  20.289  24.673  1.00  0.00    -0.268 OA
ATOM      7  H   UNL A   1      39.392  21.521  25.514  1.00  0.00     0.163 HD
BRANCH   5   8
ATOM      8  C   UNL A   1      36.034  22.116  25.173  1.00  0.00     0.176 C 
ATOM      9  C   UNL A   1      36.155  23.373  24.258  1.00  0.00     0.079 C 
ATOM     10  C   UNL A   1      34.885  21.308  24.462  1.00  0.00     0.062 C 
ATOM     11  C   UNL A   1      34.753  23.650  23.761  1.00  0.00     0.008 C 
ATOM     12  C   UNL A   1      34.245  22.267  23.428  1.00  0.00     0.011 C 
BRANCH   8  13
ATOM     13  N   UNL A   1      35.790  22.632  26.522  1.00  0.00    -0.345 N 
ATOM     14  H   UNL A   1      36.681  22.767  27.001  1.00  0.00     0.345 HD
ATOM     15  H   UNL A   1      35.222  21.964  27.044  1.00  0.00     0.345 HD
ATOM     16  H   UNL A   1      35.299  23.523  26.462  1.00  0.00     0.345 HD
ENDBRANCH   8  13
BRANCH  10  17
ATOM     17  C   UNL A   1      33.782  20.496  25.194  1.00  0.00     0.034 C 
BRANCH  17  18
ATOM     18  C   UNL A   1      32.299  20.861  25.114  1.00  0.00     0.145 C 
BRANCH  18  19
ATOM     19  N   UNL A   1      31.948  22.171  25.607  1.00  0.00    -0.272 N 
ATOM     20  C   UNL A   1      31.103  23.074  25.032  1.00  0.00     0.123 A 
ATOM     21  N   UNL A   1      32.508  22.611  26.753  1.00  0.00    -0.180 NA
ATOM     22  C   UNL A   1      31.167  24.185  25.832  1.00  0.00     0.051 A 
ATOM     23  C   UNL A   1      32.014  23.845  26.894  1.00  0.00     0.149 A 
ATOM     24  I   UNL A   1      30.251  25.940  25.501  1.00  0.00    -0.041 I 
ENDBRANCH  18  19
ENDBRANCH  17  18
ENDBRANCH  10  17
ENDBRANCH   5   8
ENDBRANCH   3   4
ENDBRANCH   2   3
ENDBRANCH   1   2
BRANCH   1  25
ATOM     25  C   UNL A   1      42.194  21.982  26.872  1.00  0.00     0.002 C 
BRANCH  25  26
ATOM     26  C   UNL A   1      43.044  22.829  27.826  1.00  0.00     0.021 C 
BRANCH  26  27
ATOM     27  C   UNL A   1      43.965  23.844  27.153  1.00  0.00     0.116 C 
BRANCH  27  28
ATOM     28  N   UNL A   1      43.326  24.491  26.020  1.00  0.00    -0.352 N 
ATOM     29  C   UNL A   1      42.428  25.523  26.002  1.00  0.00     0.251 C 
ATOM     30  H   UNL A   1      43.576  24.135  25.136  1.00  0.00     0.163 HD
ATOM     31  O   UNL A   1      41.825  25.789  24.962  1.00  0.00    -0.269 OA
BRANCH  29  32
ATOM     32  C   UNL A   1      42.173  26.307  27.226  1.00  0.00     0.039 A 
ATOM     33  C   UNL A   1      42.962  27.432  27.483  1.00  0.00     0.014 A 
ATOM     34  C   UNL A   1      41.184  25.920  28.136  1.00  0.00     0.014 A 
ATOM     35  C   UNL A   1      42.728  28.193  28.631  1.00  0.00     0.010 A 
ATOM     36  C   UNL A   1      40.911  26.715  29.245  1.00  0.00     0.010 A 
ATOM     37  C   UNL A   1      41.687  27.855  29.509  1.00  0.00    -0.014 A 
BRANCH  37  38
ATOM     38  C   UNL A   1      41.401  28.677  30.712  1.00  0.00     0.031 A 
ATOM     39  C   UNL A   1      40.250  29.645  30.711  1.00  0.00     0.074 A 
ATOM     40  C   UNL A   1      42.213  28.591  31.785  1.00  0.00     0.049 A 
ATOM     41  N   UNL A   1      39.878  30.485  31.643  1.00  0.00    -0.248 NA
ATOM     42  C   UNL A   1      39.421  29.695  29.494  1.00  0.00     0.031 C 
ATOM     43  C   UNL A   1      43.385  27.718  31.893  1.00  0.00     0.029 A 
ATOM     44  N   UNL A   1      42.181  29.253  32.986  1.00  0.00    -0.354 N 
ATOM     45  C   UNL A   1      38.788  31.173  31.122  1.00  0.00     0.074 A 
ATOM     46  C   UNL A   1      38.586  30.685  29.776  1.00  0.00     0.031 C 
ATOM     47  C   UNL A   1      43.947  27.884  33.101  1.00  0.00     0.029 A 
ATOM     48  C   UNL A   1      43.201  28.899  33.838  1.00  0.00     0.049 A 
ATOM     49  H   UNL A   1      41.493  29.919  33.216  1.00  0.00     0.167 HD
ATOM     50  C   UNL A   1      38.016  32.114  31.716  1.00  0.00     0.031 A 
ATOM     51  C   UNL A   1      43.507  29.347  35.072  1.00  0.00     0.031 A 
ATOM     52  C   UNL A   1      38.211  32.584  33.063  1.00  0.00     0.049 A 
ATOM     53  C   UNL A   1      42.633  30.390  35.712  1.00  0.00     0.074 A 
ATOM     54  C   UNL A   1      37.445  33.490  33.775  1.00  0.00     0.029 A 
ATOM     55  N   UNL A   1      39.243  32.186  33.899  1.00  0.00    -0.354 N 
ATOM     56  N   UNL A   1      41.567  30.981  35.225  1.00  0.00    -0.248 NA
ATOM     57  C   UNL A   1      42.994  30.817  37.070  1.00  0.00     0.031 C 
ATOM     58  C   UNL A   1      38.044  33.678  35.025  1.00  0.00     0.029 A 
ATOM     59  C   UNL A   1      39.148  32.846  35.113  1.00  0.00     0.049 A 
ATOM     60  H   UNL A   1      39.940  31.532  33.665  1.00  0.00     0.167 HD
ATOM     61  C   UNL A   1      41.115  31.830  36.230  1.00  0.00     0.074 A 
ATOM     62  C   UNL A   1      42.014  31.664  37.353  1.00  0.00     0.031 C 
ATOM     63  C   UNL A   1      40.051  32.669  36.222  1.00  0.00     0.031 A 
BRANCH  50  64
ATOM     64  C   UNL A   1      36.890  32.706  30.910  1.00  0.00    -0.014 A 
ATOM     65  C   UNL A   1      37.095  33.830  30.089  1.00  0.00     0.010 A 
ATOM     66  C   UNL A   1      35.621  32.100  30.934  1.00  0.00     0.010 A 
ATOM     67  C   UNL A   1      36.043  34.360  29.338  1.00  0.00     0.020 A 
ATOM     68  C   UNL A   1      34.572  32.610  30.162  1.00  0.00     0.020 A 
ATOM     69  C   UNL A   1      34.787  33.747  29.382  1.00  0.00     0.054 A 
BRANCH  69  70
ATOM     70  S   UNL A   1      33.446  34.440  28.374  1.00  0.00     0.124 S 
ATOM     71  O   UNL A   1      32.539  34.955  29.397  1.00  0.00    -0.237 OA
ATOM     72  O   UNL A   1      34.133  35.453  27.578  1.00  0.00    -0.237 OA
ATOM     73  O   UNL A   1      32.948  33.292  27.622  1.00  0.00    -0.744 OA
ENDBRANCH  69  70
ENDBRANCH  50  64
BRANCH  51  74
ATOM     74  C   UNL A   1      44.693  28.801  35.786  1.00  0.00    -0.014 A 
ATOM     75  C   UNL A   1      45.947  29.426  35.673  1.00  0.00     0.010 A 
ATOM     76  C   UNL A   1      44.570  27.656  36.595  1.00  0.00     0.010 A 
ATOM     77  C   UNL A   1      47.062  28.905  36.338  1.00  0.00     0.020 A 
ATOM     78  C   UNL A   1      45.675  27.148  37.283  1.00  0.00     0.020 A 
ATOM     79  C   UNL A   1      46.918  27.769  37.140  1.00  0.00     0.054 A 
BRANCH  79  80
ATOM     80  S   UNL A   1      48.365  27.137  38.032  1.00  0.00     0.124 S 
ATOM     81  O   UNL A   1      48.392  25.738  37.614  1.00  0.00    -0.237 OA
ATOM     82  O   UNL A   1      49.445  27.974  37.515  1.00  0.00    -0.237 OA
ATOM     83  O   UNL A   1      48.028  27.366  39.435  1.00  0.00    -0.744 OA
ENDBRANCH  79  80
ENDBRANCH  51  74
BRANCH  63  84
ATOM     84  C   UNL A   1      39.774  33.450  37.479  1.00  0.00    -0.014 A 
ATOM     85  C   UNL A   1      40.056  34.825  37.560  1.00  0.00     0.010 A 
ATOM     86  C   UNL A   1      39.169  32.807  38.575  1.00  0.00     0.010 A 
ATOM     87  C   UNL A   1      39.766  35.537  38.728  1.00  0.00     0.020 A 
ATOM     88  C   UNL A   1      38.852  33.520  39.732  1.00  0.00     0.020 A 
ATOM     89  C   UNL A   1      39.166  34.879  39.806  1.00  0.00     0.054 A 
BRANCH  89  90
ATOM     90  S   UNL A   1      38.756  35.834  41.292  1.00  0.00     0.124 S 
ATOM     91  O   UNL A   1      37.425  35.330  41.620  1.00  0.00    -0.237 OA
ATOM     92  O   UNL A   1      39.818  35.454  42.221  1.00  0.00    -0.237 OA
ATOM     93  O   UNL A   1      38.803  37.221  40.837  1.00  0.00    -0.744 OA
ENDBRANCH  89  90
ENDBRANCH  63  84
ENDBRANCH  37  38
ENDBRANCH  29  32
ENDBRANCH  27  28
ENDBRANCH  26  27
ENDBRANCH  25  26
ENDBRANCH   1  25
TORSDOF 20
ENDMDL
MODEL 3
REMARK VINA RESULT:     -10.7      2.467      8.621
REMARK SMILES [NH3+][C@]1(C(=O)NCCCCCCNC(=O)c2ccc(-c3c4nc(c(-c5ccc(S(=O)(=O)[O-])cc5)c5ccc([nH]5)c(-c5ccc(S(=O)(=O)[O-])cc5)c5nc(c(-c6ccc(S(=O)(=O)[O-])cc6)c6ccc3[nH]6)C=C5)C=C4)cc2)CCC[C@@H]1CCn1cc(I)cn1
REMARK SMILES IDX 8 1 7 2 6 3 5 4 3 5 4 6 2 8 75 9 78 10 76 11 77 12 1 13
REMARK SMILES IDX 79 17 80 18 81 19 82 20 86 21 83 22 85 23 84 24 9 25 10 26
REMARK SMILES IDX 11 27 12 28 13 29 14 31 15 32 16 33 74 34 17 35 73 36 18 37
REMARK SMILES IDX 19 38 20 39 67 40 21 41 72 42 66 43 68 44 22 45 71 46 65 47
REMARK SMILES IDX 64 48 23 50 53 51 34 52 52 53 35 54 38 55 51 56 69 57 36 58
REMARK SMILES IDX 37 59 50 61 70 62 39 63 24 64 25 65 33 66 26 67 32 68 27 69
REMARK SMILES IDX 28 70 29 71 30 72 31 73 54 74 55 75 63 76 56 77 62 78 57 79
REMARK SMILES IDX 58 80 59 81 60 82 61 83 40 84 41 85 49 86 42 87 48 88 43 89
REMARK SMILES IDX 44 90 45 91 46 92 47 93
REMARK H PARENT 5 7 1 14 1 15 1 16 12 30 68 49 38 60
REMARK Flexibility Score: inf
ROOT
ATOM      1  C   UNL A   1      40.236  23.060  26.614  1.00  0.00     0.002 C 
ENDROOT
BRANCH   1   2
ATOM      2  C   UNL A   1      39.046  23.945  26.980  1.00  0.00     0.021 C 
BRANCH   2   3
ATOM      3  C   UNL A   1      37.804  23.712  26.123  1.00  0.00     0.116 C 
BRANCH   3   4
ATOM      4  N   UNL A   1      37.584  22.301  25.920  1.00  0.00    -0.351 N 
ATOM      5  C   UNL A   1      36.549  21.633  25.336  1.00  0.00     0.281 C 
ATOM      6  O   UNL A   1      36.607  20.400  25.406  1.00  0.00    -0.268 OA
ATOM      7  H   UNL A   1      38.303  21.723  26.264  1.00  0.00     0.163 HD
BRANCH   5   8
ATOM      8  C   UNL A   1      35.388  22.387  24.587  1.00  0.00     0.176 C 
ATOM      9  C   UNL A   1      34.317  21.315  24.218  1.00  0.00     0.079 C 
ATOM     10  C   UNL A   1      34.558  23.379  25.484  1.00  0.00     0.062 C 
ATOM     11  C   UNL A   1      33.009  22.068  24.116  1.00  0.00     0.008 C 
ATOM     12  C   UNL A   1      33.069  22.993  25.309  1.00  0.00     0.011 C 
BRANCH   8  13
ATOM     13  N   UNL A   1      35.912  22.877  23.309  1.00  0.00    -0.345 N 
ATOM     14  H   UNL A   1      35.217  22.727  22.577  1.00  0.00     0.345 HD
ATOM     15  H   UNL A   1      36.766  22.371  23.075  1.00  0.00     0.345 HD
ATOM     16  H   UNL A   1      36.116  23.873  23.385  1.00  0.00     0.345 HD
ENDBRANCH   8  13
BRANCH  10  17
ATOM     17  C   UNL A   1      34.715  24.924  25.485  1.00  0.00     0.034 C 
BRANCH  17  18
ATOM     18  C   UNL A   1      34.021  25.824  24.462  1.00  0.00     0.145 C 
BRANCH  18  19
ATOM     19  N   UNL A   1      33.152  26.838  25.007  1.00  0.00    -0.272 N 
ATOM     20  C   UNL A   1      33.460  28.141  25.269  1.00  0.00     0.123 A 
ATOM     21  N   UNL A   1      31.884  26.510  25.331  1.00  0.00    -0.180 NA
ATOM     22  C   UNL A   1      32.335  28.666  25.849  1.00  0.00     0.051 A 
ATOM     23  C   UNL A   1      31.382  27.641  25.837  1.00  0.00     0.149 A 
ATOM     24  I   UNL A   1      32.137  30.521  26.590  1.00  0.00    -0.041 I 
ENDBRANCH  18  19
ENDBRANCH  17  18
ENDBRANCH  10  17
ENDBRANCH   5   8
ENDBRANCH   3   4
ENDBRANCH   2   3
ENDBRANCH   1   2
BRANCH   1  25
ATOM     25  C   UNL A   1      40.820  22.258  27.783  1.00  0.00     0.002 C 
BRANCH  25  26
ATOM     26  C   UNL A   1      41.048  20.765  27.517  1.00  0.00     0.021 C 
BRANCH  26  27
ATOM     27  C   UNL A   1      40.875  20.328  26.064  1.00  0.00     0.116 C 
BRANCH  27  28
ATOM     28  N   UNL A   1      42.023  19.582  25.581  1.00  0.00    -0.352 N 
ATOM     29  C   UNL A   1      43.268  20.031  25.230  1.00  0.00     0.251 C 
ATOM     30  H   UNL A   1      41.887  18.610  25.492  1.00  0.00     0.163 HD
ATOM     31  O   UNL A   1      44.040  19.284  24.629  1.00  0.00    -0.269 OA
BRANCH  29  32
ATOM     32  C   UNL A   1      43.679  21.410  25.559  1.00  0.00     0.039 A 
ATOM     33  C   UNL A   1      43.426  22.428  24.636  1.00  0.00     0.014 A 
ATOM     34  C   UNL A   1      44.339  21.696  26.758  1.00  0.00     0.014 A 
ATOM     35  C   UNL A   1      43.798  23.741  24.935  1.00  0.00     0.010 A 
ATOM     36  C   UNL A   1      44.650  23.014  27.082  1.00  0.00     0.010 A 
ATOM     37  C   UNL A   1      44.391  24.049  26.169  1.00  0.00    -0.014 A 
BRANCH  37  38
ATOM     38  C   UNL A   1      44.755  25.445  26.517  1.00  0.00     0.031 A 
ATOM     39  C   UNL A   1      46.168  25.928  26.332  1.00  0.00     0.074 A 
ATOM     40  C   UNL A   1      43.826  26.262  27.052  1.00  0.00     0.049 A 
ATOM     41  N   UNL A   1      46.688  27.092  26.629  1.00  0.00    -0.248 NA
ATOM     42  C   UNL A   1      47.131  24.970  25.760  1.00  0.00     0.031 C 
ATOM     43  C   UNL A   1      42.431  25.899  27.317  1.00  0.00     0.029 A 
ATOM     44  N   UNL A   1      43.916  27.563  27.478  1.00  0.00    -0.354 N 
ATOM     45  C   UNL A   1      48.035  27.002  26.299  1.00  0.00     0.074 A 
ATOM     46  C   UNL A   1      48.264  25.656  25.821  1.00  0.00     0.031 C 
ATOM     47  C   UNL A   1      41.793  26.958  27.840  1.00  0.00     0.029 A 
ATOM     48  C   UNL A   1      42.738  28.061  27.983  1.00  0.00     0.049 A 
ATOM     49  H   UNL A   1      44.746  28.091  27.426  1.00  0.00     0.167 HD
ATOM     50  C   UNL A   1      48.992  27.958  26.372  1.00  0.00     0.031 A 
ATOM     51  C   UNL A   1      42.451  29.268  28.511  1.00  0.00     0.031 A 
ATOM     52  C   UNL A   1      48.756  29.301  26.833  1.00  0.00     0.049 A 
ATOM     53  C   UNL A   1      43.530  30.314  28.578  1.00  0.00     0.074 A 
ATOM     54  C   UNL A   1      49.646  30.359  26.886  1.00  0.00     0.029 A 
ATOM     55  N   UNL A   1      47.545  29.771  27.318  1.00  0.00    -0.354 N 
ATOM     56  N   UNL A   1      44.784  30.227  28.200  1.00  0.00    -0.248 NA
ATOM     57  C   UNL A   1      43.153  31.621  29.132  1.00  0.00     0.031 C 
ATOM     58  C   UNL A   1      48.987  31.455  27.452  1.00  0.00     0.029 A 
ATOM     59  C   UNL A   1      47.670  31.097  27.695  1.00  0.00     0.049 A 
ATOM     60  H   UNL A   1      46.719  29.240  27.384  1.00  0.00     0.167 HD
ATOM     61  C   UNL A   1      45.338  31.480  28.444  1.00  0.00     0.074 A 
ATOM     62  C   UNL A   1      44.280  32.306  28.989  1.00  0.00     0.031 C 
ATOM     63  C   UNL A   1      46.607  31.906  28.235  1.00  0.00     0.031 A 
BRANCH  50  64
ATOM     64  C   UNL A   1      50.389  27.583  25.950  1.00  0.00    -0.014 A 
ATOM     65  C   UNL A   1      51.294  27.008  26.861  1.00  0.00     0.010 A 
ATOM     66  C   UNL A   1      50.785  27.762  24.613  1.00  0.00     0.010 A 
ATOM     67  C   UNL A   1      52.583  26.656  26.450  1.00  0.00     0.020 A 
ATOM     68  C   UNL A   1      52.064  27.385  24.191  1.00  0.00     0.020 A 
ATOM     69  C   UNL A   1      52.960  26.848  25.118  1.00  0.00     0.054 A 
BRANCH  69  70
ATOM     70  S   UNL A   1      54.630  26.355  24.607  1.00  0.00     0.124 S 
ATOM     71  O   UNL A   1      54.631  26.724  23.193  1.00  0.00    -0.237 OA
ATOM     72  O   UNL A   1      55.483  27.168  25.469  1.00  0.00    -0.237 OA
ATOM     73  O   UNL A   1      54.664  24.919  24.875  1.00  0.00    -0.744 OA
ENDBRANCH  69  70
ENDBRANCH  50  64
BRANCH  51  74
ATOM     74  C   UNL A   1      41.078  29.553  29.007  1.00  0.00    -0.014 A 
ATOM     75  C   UNL A   1      40.854  29.841  30.365  1.00  0.00     0.010 A 
ATOM     76  C   UNL A   1      39.986  29.551  28.120  1.00  0.00     0.010 A 
ATOM     77  C   UNL A   1      39.561  30.098  30.831  1.00  0.00     0.020 A 
ATOM     78  C   UNL A   1      38.697  29.836  28.576  1.00  0.00     0.020 A 
ATOM     79  C   UNL A   1      38.490  30.095  29.932  1.00  0.00     0.054 A 
BRANCH  79  80
ATOM     80  S   UNL A   1      36.828  30.480  30.548  1.00  0.00     0.124 S 
ATOM     81  O   UNL A   1      36.439  29.221  31.177  1.00  0.00    -0.237 OA
ATOM     82  O   UNL A   1      37.078  31.594  31.459  1.00  0.00    -0.237 OA
ATOM     83  O   UNL A   1      36.089  30.831  29.337  1.00  0.00    -0.744 OA
ENDBRANCH  79  80
ENDBRANCH  51  74
BRANCH  63  84
ATOM     84  C   UNL A   1      46.919  33.342  28.562  1.00  0.00    -0.014 A 
ATOM     85  C   UNL A   1      47.415  33.712  29.825  1.00  0.00     0.010 A 
ATOM     86  C   UNL A   1      46.767  34.327  27.569  1.00  0.00     0.010 A 
ATOM     87  C   UNL A   1      47.724  35.047  30.098  1.00  0.00     0.020 A 
ATOM     88  C   UNL A   1      47.102  35.658  27.829  1.00  0.00     0.020 A 
ATOM     89  C   UNL A   1      47.565  36.012  29.097  1.00  0.00     0.054 A 
BRANCH  89  90
ATOM     90  S   UNL A   1      48.017  37.730  29.462  1.00  0.00     0.124 S 
ATOM     91  O   UNL A   1      48.885  38.060  28.335  1.00  0.00    -0.237 OA
ATOM     92  O   UNL A   1      46.722  38.406  29.477  1.00  0.00    -0.237 OA
ATOM     93  O   UNL A   1      48.683  37.645  30.759  1.00  0.00    -0.744 OA
ENDBRANCH  89  90
ENDBRANCH  63  84
ENDBRANCH  37  38
ENDBRANCH  29  32
ENDBRANCH  27  28
ENDBRANCH  26  27
ENDBRANCH  25  26
ENDBRANCH   1  25
TORSDOF 20
ENDMDL
