MODEL 1
REMARK VINA RESULT:      -8.1      0.000      0.000
REMARK SMILES CCc1cc(OC(F)(F)F)cc2c1O[C@@H](C(F)(F)F)C(C(=O)NCCCCCCNC(=O)c1ccc(-c3c4nc(c(-c5ccc(S(=O)(=O)[O-])cc5)c5ccc([nH]5)c(-c5ccc(S(=O)(=O)[O-])cc5)c5nc(c(-c6ccc(S(=O)(=O)[O-])cc6)c6ccc3[nH]6)C=C5)C=C4)cc1)=C2
REMARK SMILES IDX 27 1 26 2 25 3 24 4 23 5 21 6 22 7 20 9 3 10 4 11 13 12 5 13
REMARK SMILES IDX 12 14 14 15 11 16 93 17 15 18 2 19 1 20 6 21 7 22 8 23 9 24
REMARK SMILES IDX 10 25 16 26 17 27 18 28 19 29 28 30 29 31 30 32 31 33 32 35
REMARK SMILES IDX 33 36 34 37 92 38 35 39 91 40 36 41 37 42 38 43 85 44 39 45
REMARK SMILES IDX 90 46 84 47 86 48 40 49 89 50 83 51 82 52 41 54 71 55 52 56
REMARK SMILES IDX 70 57 53 58 56 59 69 60 87 61 54 62 55 63 68 65 88 66 57 67
REMARK SMILES IDX 42 68 43 69 51 70 44 71 50 72 45 73 46 74 47 75 48 76 49 77
REMARK SMILES IDX 72 78 73 79 81 80 74 81 80 82 75 83 76 84 77 85 78 86 79 87
REMARK SMILES IDX 58 88 59 89 67 90 60 91 66 92 61 93 62 94 63 95 64 96 65 97
REMARK H PARENT 23 8 30 34 86 53 56 64
REMARK Flexibility Score: inf
ROOT
ATOM      1  C   UNL A   1      43.441  22.169  26.418  1.00  0.00     0.002 C 
ENDROOT
BRANCH   1   2
ATOM      2  C   UNL A   1      43.687  23.435  27.246  1.00  0.00     0.002 C 
BRANCH   2   3
ATOM      3  C   UNL A   1      44.915  23.371  28.166  1.00  0.00     0.021 C 
BRANCH   3   4
ATOM      4  C   UNL A   1      45.958  24.451  27.854  1.00  0.00     0.116 C 
BRANCH   4   5
ATOM      5  N   UNL A   1      46.213  24.473  26.423  1.00  0.00    -0.352 N 
ATOM      6  C   UNL A   1      46.305  25.482  25.520  1.00  0.00     0.251 C 
ATOM      7  O   UNL A   1      46.294  25.189  24.327  1.00  0.00    -0.270 OA
ATOM      8  H   UNL A   1      46.343  23.580  26.032  1.00  0.00     0.163 HD
BRANCH   6   9
ATOM      9  C   UNL A   1      46.514  26.901  25.911  1.00  0.00     0.067 C 
ATOM     10  C   UNL A   1      47.453  30.775  27.268  1.00  0.00    -0.002 A 
ATOM     11  C   UNL A   1      46.409  31.605  27.721  1.00  0.00     0.054 A 
ATOM     12  C   UNL A   1      47.146  29.491  26.788  1.00  0.00     0.131 A 
ATOM     13  C   UNL A   1      45.084  31.172  27.687  1.00  0.00     0.130 A 
ATOM     14  C   UNL A   1      45.821  29.064  26.723  1.00  0.00     0.021 A 
ATOM     15  O   UNL A   1      48.191  28.676  26.463  1.00  0.00    -0.475 OA
ATOM     16  C   UNL A   1      44.798  29.905  27.174  1.00  0.00     0.058 A 
ATOM     17  C   UNL A   1      45.512  27.715  26.270  1.00  0.00     0.025 C 
ATOM     18  C   UNL A   1      47.929  27.443  25.735  1.00  0.00     0.314 C 
BRANCH  10  19
ATOM     19  C   UNL A   1      48.876  31.281  27.332  1.00  0.00     0.036 C 
ATOM     20  C   UNL A   1      49.324  31.563  28.757  1.00  0.00     0.009 C 
ENDBRANCH  10  19
BRANCH  13  21
ATOM     21  O   UNL A   1      43.990  31.860  28.127  1.00  0.00    -0.406 OA
BRANCH  21  22
ATOM     22  C   UNL A   1      44.006  33.273  28.019  1.00  0.00     0.573 C 
ATOM     23  F   UNL A   1      44.985  33.811  28.778  1.00  0.00    -0.132 F 
ATOM     24  F   UNL A   1      44.174  33.656  26.734  1.00  0.00    -0.132 F 
ATOM     25  F   UNL A   1      42.822  33.757  28.452  1.00  0.00    -0.132 F 
ENDBRANCH  21  22
ENDBRANCH  13  21
BRANCH  18  26
ATOM     26  C   UNL A   1      49.090  26.474  26.060  1.00  0.00     0.429 C 
ATOM     27  F   UNL A   1      48.865  25.737  27.171  1.00  0.00    -0.167 F 
ATOM     28  F   UNL A   1      49.257  25.566  25.059  1.00  0.00    -0.167 F 
ATOM     29  F   UNL A   1      50.274  27.111  26.206  1.00  0.00    -0.167 F 
ENDBRANCH  18  26
ENDBRANCH   6   9
ENDBRANCH   4   5
ENDBRANCH   3   4
ENDBRANCH   2   3
ENDBRANCH   1   2
BRANCH   1  30
ATOM     30  C   UNL A   1      42.066  22.096  25.747  1.00  0.00     0.021 C 
BRANCH  30  31
ATOM     31  C   UNL A   1      40.929  21.716  26.688  1.00  0.00     0.116 C 
BRANCH  31  32
ATOM     32  N   UNL A   1      39.632  21.910  26.060  1.00  0.00    -0.352 N 
ATOM     33  C   UNL A   1      38.755  22.955  26.193  1.00  0.00     0.251 C 
ATOM     34  H   UNL A   1      39.343  21.189  25.453  1.00  0.00     0.163 HD
ATOM     35  O   UNL A   1      37.604  22.844  25.784  1.00  0.00    -0.269 OA
BRANCH  33  36
ATOM     36  C   UNL A   1      39.199  24.213  26.832  1.00  0.00     0.039 A 
ATOM     37  C   UNL A   1      39.948  25.125  26.084  1.00  0.00     0.014 A 
ATOM     38  C   UNL A   1      38.915  24.473  28.177  1.00  0.00     0.014 A 
ATOM     39  C   UNL A   1      40.393  26.308  26.678  1.00  0.00     0.010 A 
ATOM     40  C   UNL A   1      39.299  25.683  28.746  1.00  0.00     0.010 A 
ATOM     41  C   UNL A   1      40.063  26.602  28.011  1.00  0.00    -0.014 A 
BRANCH  41  42
ATOM     42  C   UNL A   1      40.555  27.837  28.671  1.00  0.00     0.031 A 
ATOM     43  C   UNL A   1      41.967  27.892  29.193  1.00  0.00     0.074 A 
ATOM     44  C   UNL A   1      39.727  28.885  28.843  1.00  0.00     0.049 A 
ATOM     45  N   UNL A   1      42.568  28.851  29.850  1.00  0.00    -0.248 NA
ATOM     46  C   UNL A   1      42.806  26.701  28.973  1.00  0.00     0.031 C 
ATOM     47  C   UNL A   1      38.328  28.940  28.412  1.00  0.00     0.029 A 
ATOM     48  N   UNL A   1      39.942  30.105  29.432  1.00  0.00    -0.354 N 
ATOM     49  C   UNL A   1      43.841  28.372  30.139  1.00  0.00     0.074 A 
ATOM     50  C   UNL A   1      43.911  27.020  29.631  1.00  0.00     0.031 C 
ATOM     51  C   UNL A   1      37.818  30.143  28.730  1.00  0.00     0.029 A 
ATOM     52  C   UNL A   1      38.839  30.928  29.416  1.00  0.00     0.049 A 
ATOM     53  H   UNL A   1      40.804  30.369  29.828  1.00  0.00     0.167 HD
ATOM     54  C   UNL A   1      44.868  29.006  30.752  1.00  0.00     0.031 A 
ATOM     55  C   UNL A   1      38.670  32.173  29.903  1.00  0.00     0.031 A 
ATOM     56  C   UNL A   1      44.804  30.361  31.233  1.00  0.00     0.049 A 
ATOM     57  C   UNL A   1      39.831  32.863  30.567  1.00  0.00     0.074 A 
ATOM     58  C   UNL A   1      45.805  31.114  31.822  1.00  0.00     0.029 A 
ATOM     59  N   UNL A   1      43.678  31.168  31.171  1.00  0.00    -0.354 N 
ATOM     60  N   UNL A   1      41.043  32.411  30.785  1.00  0.00    -0.248 NA
ATOM     61  C   UNL A   1      39.605  34.237  31.035  1.00  0.00     0.031 C 
ATOM     62  C   UNL A   1      45.271  32.362  32.156  1.00  0.00     0.029 A 
ATOM     63  C   UNL A   1      43.955  32.406  31.722  1.00  0.00     0.049 A 
ATOM     64  H   UNL A   1      42.809  30.899  30.793  1.00  0.00     0.167 HD
ATOM     65  C   UNL A   1      41.735  33.460  31.381  1.00  0.00     0.074 A 
ATOM     66  C   UNL A   1      40.809  34.569  31.481  1.00  0.00     0.031 C 
ATOM     67  C   UNL A   1      43.023  33.503  31.803  1.00  0.00     0.031 A 
BRANCH  54  68
ATOM     68  C   UNL A   1      46.152  28.240  30.938  1.00  0.00    -0.014 A 
ATOM     69  C   UNL A   1      47.164  28.269  29.960  1.00  0.00     0.010 A 
ATOM     70  C   UNL A   1      46.367  27.512  32.122  1.00  0.00     0.010 A 
ATOM     71  C   UNL A   1      48.348  27.551  30.145  1.00  0.00     0.020 A 
ATOM     72  C   UNL A   1      47.563  26.815  32.323  1.00  0.00     0.020 A 
ATOM     73  C   UNL A   1      48.538  26.826  31.324  1.00  0.00     0.054 A 
BRANCH  73  74
ATOM     74  S   UNL A   1      50.096  25.924  31.549  1.00  0.00     0.124 S 
ATOM     75  O   UNL A   1      49.689  24.840  32.441  1.00  0.00    -0.237 OA
ATOM     76  O   UNL A   1      50.434  25.522  30.186  1.00  0.00    -0.237 OA
ATOM     77  O   UNL A   1      50.988  26.916  32.143  1.00  0.00    -0.744 OA
ENDBRANCH  73  74
ENDBRANCH  54  68
BRANCH  55  78
ATOM     78  C   UNL A   1      37.357  32.857  29.757  1.00  0.00    -0.014 A 
ATOM     79  C   UNL A   1      36.456  32.910  30.836  1.00  0.00     0.010 A 
ATOM     80  C   UNL A   1      37.000  33.462  28.539  1.00  0.00     0.010 A 
ATOM     81  C   UNL A   1      35.213  33.533  30.691  1.00  0.00     0.020 A 
ATOM     82  C   UNL A   1      35.769  34.111  28.399  1.00  0.00     0.020 A 
ATOM     83  C   UNL A   1      34.877  34.129  29.473  1.00  0.00     0.054 A 
BRANCH  83  84
ATOM     84  S   UNL A   1      33.275  34.968  29.319  1.00  0.00     0.124 S 
ATOM     85  O   UNL A   1      32.792  34.952  30.697  1.00  0.00    -0.237 OA
ATOM     86  O   UNL A   1      33.653  36.278  28.795  1.00  0.00    -0.237 OA
ATOM     87  O   UNL A   1      32.536  34.122  28.385  1.00  0.00    -0.744 OA
ENDBRANCH  83  84
ENDBRANCH  55  78
BRANCH  67  88
ATOM     88  C   UNL A   1      43.527  34.806  32.364  1.00  0.00    -0.014 A 
ATOM     89  C   UNL A   1      43.502  35.069  33.744  1.00  0.00     0.010 A 
ATOM     90  C   UNL A   1      44.083  35.760  31.492  1.00  0.00     0.010 A 
ATOM     91  C   UNL A   1      43.994  36.280  34.239  1.00  0.00     0.020 A 
ATOM     92  C   UNL A   1      44.600  36.959  31.986  1.00  0.00     0.020 A 
ATOM     93  C   UNL A   1      44.537  37.219  33.356  1.00  0.00     0.054 A 
BRANCH  93  94
ATOM     94  S   UNL A   1      45.204  38.766  34.027  1.00  0.00     0.124 S 
ATOM     95  O   UNL A   1      46.395  38.964  33.206  1.00  0.00    -0.237 OA
ATOM     96  O   UNL A   1      44.116  39.713  33.796  1.00  0.00    -0.237 OA
ATOM     97  O   UNL A   1      45.459  38.452  35.432  1.00  0.00    -0.744 OA
ENDBRANCH  93  94
ENDBRANCH  67  88
ENDBRANCH  41  42
ENDBRANCH  33  36
ENDBRANCH  31  32
ENDBRANCH  30  31
ENDBRANCH   1  30
TORSDOF 20
ENDMDL
MODEL 2
REMARK VINA RESULT:      -7.9      5.275      8.832
REMARK SMILES CCc1cc(OC(F)(F)F)cc2c1O[C@@H](C(F)(F)F)C(C(=O)NCCCCCCNC(=O)c1ccc(-c3c4nc(c(-c5ccc(S(=O)(=O)[O-])cc5)c5ccc([nH]5)c(-c5ccc(S(=O)(=O)[O-])cc5)c5nc(c(-c6ccc(S(=O)(=O)[O-])cc6)c6ccc3[nH]6)C=C5)C=C4)cc1)=C2
REMARK SMILES IDX 27 1 26 2 25 3 24 4 23 5 21 6 22 7 20 9 3 10 4 11 13 12 5 13
REMARK SMILES IDX 12 14 14 15 11 16 93 17 15 18 2 19 1 20 6 21 7 22 8 23 9 24
REMARK SMILES IDX 10 25 16 26 17 27 18 28 19 29 28 30 29 31 30 32 31 33 32 35
REMARK SMILES IDX 33 36 34 37 92 38 35 39 91 40 36 41 37 42 38 43 85 44 39 45
REMARK SMILES IDX 90 46 84 47 86 48 40 49 89 50 83 51 82 52 41 54 71 55 52 56
REMARK SMILES IDX 70 57 53 58 56 59 69 60 87 61 54 62 55 63 68 65 88 66 57 67
REMARK SMILES IDX 42 68 43 69 51 70 44 71 50 72 45 73 46 74 47 75 48 76 49 77
REMARK SMILES IDX 72 78 73 79 81 80 74 81 80 82 75 83 76 84 77 85 78 86 79 87
REMARK SMILES IDX 58 88 59 89 67 90 60 91 66 92 61 93 62 94 63 95 64 96 65 97
REMARK H PARENT 23 8 30 34 86 53 56 64
REMARK Flexibility Score: inf
ROOT
ATOM      1  C   UNL A   1      40.085  22.531  27.300  1.00  0.00     0.002 C 
ENDROOT
BRANCH   1   2
ATOM      2  C   UNL A   1      39.714  23.760  26.462  1.00  0.00     0.002 C 
BRANCH   2   3
ATOM      3  C   UNL A   1      38.228  24.145  26.513  1.00  0.00     0.021 C 
BRANCH   3   4
ATOM      4  C   UNL A   1      37.386  23.433  25.447  1.00  0.00     0.116 C 
BRANCH   4   5
ATOM      5  N   UNL A   1      36.367  22.626  26.099  1.00  0.00    -0.352 N 
ATOM      6  C   UNL A   1      35.057  22.844  26.374  1.00  0.00     0.251 C 
ATOM      7  O   UNL A   1      34.496  22.076  27.151  1.00  0.00    -0.270 OA
ATOM      8  H   UNL A   1      36.694  21.749  26.402  1.00  0.00     0.163 HD
BRANCH   6   9
ATOM      9  C   UNL A   1      34.256  23.905  25.707  1.00  0.00     0.067 C 
ATOM     10  C   UNL A   1      32.143  26.744  23.426  1.00  0.00    -0.002 A 
ATOM     11  C   UNL A   1      32.181  28.095  23.822  1.00  0.00     0.054 A 
ATOM     12  C   UNL A   1      32.822  25.786  24.196  1.00  0.00     0.131 A 
ATOM     13  C   UNL A   1      32.872  28.485  24.969  1.00  0.00     0.130 A 
ATOM     14  C   UNL A   1      33.489  26.165  25.360  1.00  0.00     0.021 A 
ATOM     15  O   UNL A   1      32.856  24.508  23.721  1.00  0.00    -0.475 OA
ATOM     16  C   UNL A   1      33.511  27.511  25.739  1.00  0.00     0.058 A 
ATOM     17  C   UNL A   1      34.231  25.176  26.129  1.00  0.00     0.025 C 
ATOM     18  C   UNL A   1      33.326  23.439  24.591  1.00  0.00     0.314 C 
BRANCH  10  19
ATOM     19  C   UNL A   1      31.391  26.367  22.170  1.00  0.00     0.036 C 
ATOM     20  C   UNL A   1      32.322  25.957  21.040  1.00  0.00     0.009 C 
ENDBRANCH  10  19
BRANCH  13  21
ATOM     21  O   UNL A   1      33.015  29.758  25.440  1.00  0.00    -0.406 OA
BRANCH  21  22
ATOM     22  C   UNL A   1      31.934  30.328  26.157  1.00  0.00     0.573 C 
ATOM     23  F   UNL A   1      31.366  29.425  26.986  1.00  0.00    -0.132 F 
ATOM     24  F   UNL A   1      32.342  31.399  26.873  1.00  0.00    -0.132 F 
ATOM     25  F   UNL A   1      30.997  30.742  25.277  1.00  0.00    -0.132 F 
ENDBRANCH  21  22
ENDBRANCH  13  21
BRANCH  18  26
ATOM     26  C   UNL A   1      33.851  22.311  23.673  1.00  0.00     0.429 C 
ATOM     27  F   UNL A   1      33.841  21.098  24.272  1.00  0.00    -0.167 F 
ATOM     28  F   UNL A   1      33.059  22.171  22.574  1.00  0.00    -0.167 F 
ATOM     29  F   UNL A   1      35.103  22.548  23.220  1.00  0.00    -0.167 F 
ENDBRANCH  18  26
ENDBRANCH   6   9
ENDBRANCH   4   5
ENDBRANCH   3   4
ENDBRANCH   2   3
ENDBRANCH   1   2
BRANCH   1  30
ATOM     30  C   UNL A   1      40.058  21.202  26.539  1.00  0.00     0.021 C 
BRANCH  30  31
ATOM     31  C   UNL A   1      40.829  20.075  27.219  1.00  0.00     0.116 C 
BRANCH  31  32
ATOM     32  N   UNL A   1      41.776  19.454  26.308  1.00  0.00    -0.352 N 
ATOM     33  C   UNL A   1      42.799  20.031  25.600  1.00  0.00     0.251 C 
ATOM     34  H   UNL A   1      41.668  18.483  26.181  1.00  0.00     0.163 HD
ATOM     35  O   UNL A   1      43.344  19.407  24.695  1.00  0.00    -0.269 OA
BRANCH  33  36
ATOM     36  C   UNL A   1      43.242  21.404  25.929  1.00  0.00     0.039 A 
ATOM     37  C   UNL A   1      43.774  21.658  27.195  1.00  0.00     0.014 A 
ATOM     38  C   UNL A   1      43.092  22.445  25.008  1.00  0.00     0.014 A 
ATOM     39  C   UNL A   1      44.178  22.952  27.530  1.00  0.00     0.010 A 
ATOM     40  C   UNL A   1      43.559  23.719  25.317  1.00  0.00     0.010 A 
ATOM     41  C   UNL A   1      44.083  23.991  26.590  1.00  0.00    -0.014 A 
BRANCH  41  42
ATOM     42  C   UNL A   1      44.474  25.381  26.937  1.00  0.00     0.031 A 
ATOM     43  C   UNL A   1      45.874  25.856  26.648  1.00  0.00     0.074 A 
ATOM     44  C   UNL A   1      43.594  26.195  27.550  1.00  0.00     0.049 A 
ATOM     45  N   UNL A   1      46.428  27.008  26.926  1.00  0.00    -0.248 NA
ATOM     46  C   UNL A   1      46.778  24.902  25.983  1.00  0.00     0.031 C 
ATOM     47  C   UNL A   1      42.220  25.839  27.914  1.00  0.00     0.029 A 
ATOM     48  N   UNL A   1      43.726  27.491  27.981  1.00  0.00    -0.354 N 
ATOM     49  C   UNL A   1      47.746  26.909  26.493  1.00  0.00     0.074 A 
ATOM     50  C   UNL A   1      47.923  25.568  25.979  1.00  0.00     0.031 C 
ATOM     51  C   UNL A   1      41.630  26.900  28.491  1.00  0.00     0.029 A 
ATOM     52  C   UNL A   1      42.590  27.996  28.570  1.00  0.00     0.049 A 
ATOM     53  H   UNL A   1      44.556  28.011  27.877  1.00  0.00     0.167 HD
ATOM     54  C   UNL A   1      48.716  27.853  26.501  1.00  0.00     0.031 A 
ATOM     55  C   UNL A   1      42.352  29.206  29.114  1.00  0.00     0.031 A 
ATOM     56  C   UNL A   1      48.529  29.193  26.989  1.00  0.00     0.049 A 
ATOM     57  C   UNL A   1      43.442  30.244  29.098  1.00  0.00     0.074 A 
ATOM     58  C   UNL A   1      49.433  30.241  26.994  1.00  0.00     0.029 A 
ATOM     59  N   UNL A   1      47.356  29.672  27.550  1.00  0.00    -0.354 N 
ATOM     60  N   UNL A   1      44.666  30.145  28.636  1.00  0.00    -0.248 NA
ATOM     61  C   UNL A   1      43.111  31.560  29.659  1.00  0.00     0.031 C 
ATOM     62  C   UNL A   1      48.819  31.342  27.599  1.00  0.00     0.029 A 
ATOM     63  C   UNL A   1      47.515  30.997  27.917  1.00  0.00     0.049 A 
ATOM     64  H   UNL A   1      46.532  29.147  27.672  1.00  0.00     0.167 HD
ATOM     65  C   UNL A   1      45.239  31.400  28.818  1.00  0.00     0.074 A 
ATOM     66  C   UNL A   1      44.226  32.239  29.423  1.00  0.00     0.031 C 
ATOM     67  C   UNL A   1      46.491  31.820  28.508  1.00  0.00     0.031 A 
BRANCH  54  68
ATOM     68  C   UNL A   1      50.071  27.467  25.964  1.00  0.00    -0.014 A 
ATOM     69  C   UNL A   1      51.096  27.032  26.824  1.00  0.00     0.010 A 
ATOM     70  C   UNL A   1      50.309  27.503  24.579  1.00  0.00     0.010 A 
ATOM     71  C   UNL A   1      52.348  26.681  26.312  1.00  0.00     0.020 A 
ATOM     72  C   UNL A   1      51.552  27.124  24.059  1.00  0.00     0.020 A 
ATOM     73  C   UNL A   1      52.568  26.732  24.933  1.00  0.00     0.054 A 
BRANCH  73  74
ATOM     74  S   UNL A   1      54.195  26.244  24.293  1.00  0.00     0.124 S 
ATOM     75  O   UNL A   1      54.287  24.856  24.739  1.00  0.00    -0.237 OA
ATOM     76  O   UNL A   1      54.043  26.433  22.853  1.00  0.00    -0.237 OA
ATOM     77  O   UNL A   1      55.115  27.170  24.948  1.00  0.00    -0.744 OA
ENDBRANCH  73  74
ENDBRANCH  54  68
BRANCH  55  78
ATOM     78  C   UNL A   1      41.017  29.509  29.697  1.00  0.00    -0.014 A 
ATOM     79  C   UNL A   1      40.773  29.302  31.067  1.00  0.00     0.010 A 
ATOM     80  C   UNL A   1      39.982  30.009  28.887  1.00  0.00     0.010 A 
ATOM     81  C   UNL A   1      39.512  29.566  31.610  1.00  0.00     0.020 A 
ATOM     82  C   UNL A   1      38.728  30.300  29.431  1.00  0.00     0.020 A 
ATOM     83  C   UNL A   1      38.497  30.063  30.788  1.00  0.00     0.054 A 
BRANCH  83  84
ATOM     84  S   UNL A   1      36.880  30.437  31.521  1.00  0.00     0.124 S 
ATOM     85  O   UNL A   1      36.085  29.286  31.105  1.00  0.00    -0.237 OA
ATOM     86  O   UNL A   1      37.188  30.513  32.947  1.00  0.00    -0.237 OA
ATOM     87  O   UNL A   1      36.512  31.710  30.904  1.00  0.00    -0.744 OA
ENDBRANCH  83  84
ENDBRANCH  55  78
BRANCH  67  88
ATOM     88  C   UNL A   1      46.821  33.266  28.767  1.00  0.00    -0.014 A 
ATOM     89  C   UNL A   1      46.465  34.274  27.854  1.00  0.00     0.010 A 
ATOM     90  C   UNL A   1      47.452  33.622  29.972  1.00  0.00     0.010 A 
ATOM     91  C   UNL A   1      46.767  35.610  28.128  1.00  0.00     0.020 A 
ATOM     92  C   UNL A   1      47.731  34.959  30.263  1.00  0.00     0.020 A 
ATOM     93  C   UNL A   1      47.401  35.944  29.330  1.00  0.00     0.054 A 
BRANCH  93  94
ATOM     94  S   UNL A   1      47.748  37.689  29.680  1.00  0.00     0.124 S 
ATOM     95  O   UNL A   1      46.481  38.142  30.250  1.00  0.00    -0.237 OA
ATOM     96  O   UNL A   1      48.868  37.614  30.615  1.00  0.00    -0.237 OA
ATOM     97  O   UNL A   1      48.076  38.246  28.368  1.00  0.00    -0.744 OA
ENDBRANCH  93  94
ENDBRANCH  67  88
ENDBRANCH  41  42
ENDBRANCH  33  36
ENDBRANCH  31  32
ENDBRANCH  30  31
ENDBRANCH   1  30
TORSDOF 20
ENDMDL
MODEL 3
REMARK VINA RESULT:      -7.9      5.558      8.429
REMARK SMILES CCc1cc(OC(F)(F)F)cc2c1O[C@@H](C(F)(F)F)C(C(=O)NCCCCCCNC(=O)c1ccc(-c3c4nc(c(-c5ccc(S(=O)(=O)[O-])cc5)c5ccc([nH]5)c(-c5ccc(S(=O)(=O)[O-])cc5)c5nc(c(-c6ccc(S(=O)(=O)[O-])cc6)c6ccc3[nH]6)C=C5)C=C4)cc1)=C2
REMARK SMILES IDX 27 1 26 2 25 3 24 4 23 5 21 6 22 7 20 9 3 10 4 11 13 12 5 13
REMARK SMILES IDX 12 14 14 15 11 16 93 17 15 18 2 19 1 20 6 21 7 22 8 23 9 24
REMARK SMILES IDX 10 25 16 26 17 27 18 28 19 29 28 30 29 31 30 32 31 33 32 35
REMARK SMILES IDX 33 36 34 37 92 38 35 39 91 40 36 41 37 42 38 43 85 44 39 45
REMARK SMILES IDX 90 46 84 47 86 48 40 49 89 50 83 51 82 52 41 54 71 55 52 56
REMARK SMILES IDX 70 57 53 58 56 59 69 60 87 61 54 62 55 63 68 65 88 66 57 67
REMARK SMILES IDX 42 68 43 69 51 70 44 71 50 72 45 73 46 74 47 75 48 76 49 77
REMARK SMILES IDX 72 78 73 79 81 80 74 81 80 82 75 83 76 84 77 85 78 86 79 87
REMARK SMILES IDX 58 88 59 89 67 90 60 91 66 92 61 93 62 94 63 95 64 96 65 97
REMARK H PARENT 23 8 30 34 86 53 56 64
REMARK Flexibility Score: inf
ROOT
ATOM      1  C   UNL A   1      40.433  21.479  27.295  1.00  0.00     0.002 C 
ENDROOT
BRANCH   1   2
ATOM      2  C   UNL A   1      39.755  22.231  26.144  1.00  0.00     0.002 C 
BRANCH   2   3
ATOM      3  C   UNL A   1      38.427  21.619  25.673  1.00  0.00     0.021 C 
BRANCH   3   4
ATOM      4  C   UNL A   1      37.231  22.560  25.860  1.00  0.00     0.116 C 
BRANCH   4   5
ATOM      5  N   UNL A   1      36.123  21.819  26.440  1.00  0.00    -0.352 N 
ATOM      6  C   UNL A   1      34.815  22.123  26.637  1.00  0.00     0.251 C 
ATOM      7  O   UNL A   1      34.158  21.388  27.370  1.00  0.00    -0.270 OA
ATOM      8  H   UNL A   1      36.370  20.919  26.750  1.00  0.00     0.163 HD
BRANCH   6   9
ATOM      9  C   UNL A   1      34.130  23.242  25.936  1.00  0.00     0.067 C 
ATOM     10  C   UNL A   1      32.320  26.212  23.564  1.00  0.00    -0.002 A 
ATOM     11  C   UNL A   1      32.514  27.564  23.907  1.00  0.00     0.054 A 
ATOM     12  C   UNL A   1      32.897  25.213  24.365  1.00  0.00     0.131 A 
ATOM     13  C   UNL A   1      33.260  27.918  25.031  1.00  0.00     0.130 A 
ATOM     14  C   UNL A   1      33.617  25.559  25.508  1.00  0.00     0.021 A 
ATOM     15  O   UNL A   1      32.781  23.922  23.940  1.00  0.00    -0.475 OA
ATOM     16  C   UNL A   1      33.796  26.907  25.834  1.00  0.00     0.058 A 
ATOM     17  C   UNL A   1      34.253  24.523  26.308  1.00  0.00     0.025 C 
ATOM     18  C   UNL A   1      33.140  22.842  24.847  1.00  0.00     0.314 C 
BRANCH  10  19
ATOM     19  C   UNL A   1      31.514  25.875  22.330  1.00  0.00     0.036 C 
ATOM     20  C   UNL A   1      32.381  25.767  21.086  1.00  0.00     0.009 C 
ENDBRANCH  10  19
BRANCH  13  21
ATOM     21  O   UNL A   1      33.551  29.183  25.451  1.00  0.00    -0.406 OA
BRANCH  21  22
ATOM     22  C   UNL A   1      32.708  29.771  26.427  1.00  0.00     0.573 C 
ATOM     23  F   UNL A   1      31.463  29.971  25.942  1.00  0.00    -0.132 F 
ATOM     24  F   UNL A   1      32.639  28.997  27.532  1.00  0.00    -0.132 F 
ATOM     25  F   UNL A   1      33.220  30.969  26.782  1.00  0.00    -0.132 F 
ENDBRANCH  21  22
ENDBRANCH  13  21
BRANCH  18  26
ATOM     26  C   UNL A   1      33.523  21.627  23.970  1.00  0.00     0.429 C 
ATOM     27  F   UNL A   1      33.172  20.445  24.525  1.00  0.00    -0.167 F 
ATOM     28  F   UNL A   1      32.870  21.667  22.775  1.00  0.00    -0.167 F 
ATOM     29  F   UNL A   1      34.845  21.586  23.687  1.00  0.00    -0.167 F 
ENDBRANCH  18  26
ENDBRANCH   6   9
ENDBRANCH   4   5
ENDBRANCH   3   4
ENDBRANCH   2   3
ENDBRANCH   1   2
BRANCH   1  30
ATOM     30  C   UNL A   1      41.952  21.658  27.374  1.00  0.00     0.021 C 
BRANCH  30  31
ATOM     31  C   UNL A   1      42.401  23.092  27.627  1.00  0.00     0.116 C 
BRANCH  31  32
ATOM     32  N   UNL A   1      42.573  23.822  26.382  1.00  0.00    -0.352 N 
ATOM     33  C   UNL A   1      42.289  25.135  26.103  1.00  0.00     0.251 C 
ATOM     34  H   UNL A   1      42.944  23.301  25.633  1.00  0.00     0.163 HD
ATOM     35  O   UNL A   1      42.266  25.522  24.940  1.00  0.00    -0.269 OA
BRANCH  33  36
ATOM     36  C   UNL A   1      42.011  26.079  27.208  1.00  0.00     0.039 A 
ATOM     37  C   UNL A   1      42.880  27.153  27.416  1.00  0.00     0.014 A 
ATOM     38  C   UNL A   1      40.921  25.881  28.062  1.00  0.00     0.014 A 
ATOM     39  C   UNL A   1      42.644  28.042  28.466  1.00  0.00     0.010 A 
ATOM     40  C   UNL A   1      40.647  26.807  29.064  1.00  0.00     0.010 A 
ATOM     41  C   UNL A   1      41.519  27.883  29.292  1.00  0.00    -0.014 A 
BRANCH  41  42
ATOM     42  C   UNL A   1      41.269  28.796  30.436  1.00  0.00     0.031 A 
ATOM     43  C   UNL A   1      42.132  28.704  31.667  1.00  0.00     0.074 A 
ATOM     44  C   UNL A   1      40.245  29.669  30.389  1.00  0.00     0.049 A 
ATOM     45  N   UNL A   1      42.041  29.367  32.791  1.00  0.00    -0.248 NA
ATOM     46  C   UNL A   1      43.226  27.717  31.642  1.00  0.00     0.031 C 
ATOM     47  C   UNL A   1      39.317  29.829  29.267  1.00  0.00     0.029 A 
ATOM     48  N   UNL A   1      39.809  30.585  31.313  1.00  0.00    -0.354 N 
ATOM     49  C   UNL A   1      43.045  28.864  33.611  1.00  0.00     0.074 A 
ATOM     50  C   UNL A   1      43.702  27.806  32.875  1.00  0.00     0.031 C 
ATOM     51  C   UNL A   1      38.438  30.802  29.559  1.00  0.00     0.029 A 
ATOM     52  C   UNL A   1      38.715  31.310  30.899  1.00  0.00     0.049 A 
ATOM     53  H   UNL A   1      40.240  30.712  32.189  1.00  0.00     0.167 HD
ATOM     54  C   UNL A   1      43.403  29.259  34.855  1.00  0.00     0.031 A 
ATOM     55  C   UNL A   1      38.015  32.272  31.530  1.00  0.00     0.031 A 
ATOM     56  C   UNL A   1      42.764  30.329  35.573  1.00  0.00     0.049 A 
ATOM     57  C   UNL A   1      38.442  32.705  32.907  1.00  0.00     0.074 A 
ATOM     58  C   UNL A   1      43.085  30.842  36.818  1.00  0.00     0.029 A 
ATOM     59  N   UNL A   1      41.680  31.056  35.107  1.00  0.00    -0.354 N 
ATOM     60  N   UNL A   1      39.428  32.251  33.645  1.00  0.00    -0.248 NA
ATOM     61  C   UNL A   1      37.673  33.792  33.528  1.00  0.00     0.031 C 
ATOM     62  C   UNL A   1      42.166  31.851  37.123  1.00  0.00     0.029 A 
ATOM     63  C   UNL A   1      41.310  32.005  36.043  1.00  0.00     0.049 A 
ATOM     64  H   UNL A   1      41.236  30.916  34.239  1.00  0.00     0.167 HD
ATOM     65  C   UNL A   1      39.420  33.024  34.801  1.00  0.00     0.074 A 
ATOM     66  C   UNL A   1      38.339  33.977  34.660  1.00  0.00     0.031 C 
ATOM     67  C   UNL A   1      40.237  32.953  35.881  1.00  0.00     0.031 A 
BRANCH  54  68
ATOM     68  C   UNL A   1      44.542  28.529  35.519  1.00  0.00    -0.014 A 
ATOM     69  C   UNL A   1      44.312  27.384  36.304  1.00  0.00     0.010 A 
ATOM     70  C   UNL A   1      45.863  28.970  35.324  1.00  0.00     0.010 A 
ATOM     71  C   UNL A   1      45.377  26.719  36.916  1.00  0.00     0.020 A 
ATOM     72  C   UNL A   1      46.935  28.289  35.911  1.00  0.00     0.020 A 
ATOM     73  C   UNL A   1      46.682  27.178  36.717  1.00  0.00     0.054 A 
BRANCH  73  74
ATOM     74  S   UNL A   1      48.049  26.279  37.503  1.00  0.00     0.124 S 
ATOM     75  O   UNL A   1      47.621  24.891  37.349  1.00  0.00    -0.237 OA
ATOM     76  O   UNL A   1      49.200  26.675  36.695  1.00  0.00    -0.237 OA
ATOM     77  O   UNL A   1      48.050  26.781  38.874  1.00  0.00    -0.744 OA
ENDBRANCH  73  74
ENDBRANCH  54  68
BRANCH  55  78
ATOM     78  C   UNL A   1      36.852  32.910  30.856  1.00  0.00    -0.014 A 
ATOM     79  C   UNL A   1      37.049  33.828  29.809  1.00  0.00     0.010 A 
ATOM     80  C   UNL A   1      35.540  32.600  31.254  1.00  0.00     0.010 A 
ATOM     81  C   UNL A   1      35.957  34.444  29.191  1.00  0.00     0.020 A 
ATOM     82  C   UNL A   1      34.444  33.192  30.620  1.00  0.00     0.020 A 
ATOM     83  C   UNL A   1      34.660  34.122  29.600  1.00  0.00     0.054 A 
BRANCH  83  84
ATOM     84  S   UNL A   1      33.256  34.902  28.757  1.00  0.00     0.124 S 
ATOM     85  O   UNL A   1      33.885  36.059  28.128  1.00  0.00    -0.237 OA
ATOM     86  O   UNL A   1      32.809  33.850  27.847  1.00  0.00    -0.237 OA
ATOM     87  O   UNL A   1      32.330  35.206  29.847  1.00  0.00    -0.744 OA
ENDBRANCH  83  84
ENDBRANCH  55  78
BRANCH  67  88
ATOM     88  C   UNL A   1      40.032  33.967  36.974  1.00  0.00    -0.014 A 
ATOM     89  C   UNL A   1      40.537  35.275  36.867  1.00  0.00     0.010 A 
ATOM     90  C   UNL A   1      39.272  33.615  38.105  1.00  0.00     0.010 A 
ATOM     91  C   UNL A   1      40.315  36.202  37.889  1.00  0.00     0.020 A 
ATOM     92  C   UNL A   1      39.025  34.547  39.115  1.00  0.00     0.020 A 
ATOM     93  C   UNL A   1      39.562  35.831  39.008  1.00  0.00     0.054 A 
BRANCH  93  94
ATOM     94  S   UNL A   1      39.255  37.063  40.302  1.00  0.00     0.124 S 
ATOM     95  O   UNL A   1      38.591  38.128  39.556  1.00  0.00    -0.237 OA
ATOM     96  O   UNL A   1      38.411  36.335  41.247  1.00  0.00    -0.237 OA
ATOM     97  O   UNL A   1      40.593  37.387  40.795  1.00  0.00    -0.744 OA
ENDBRANCH  93  94
ENDBRANCH  67  88
ENDBRANCH  41  42
ENDBRANCH  33  36
ENDBRANCH  31  32
ENDBRANCH  30  31
ENDBRANCH   1  30
TORSDOF 20
ENDMDL
