MODEL 1
REMARK VINA RESULT:     -10.8      0.000      0.000
REMARK SMILES C[C@@H]1[C@H](C(=O)NCCCCCCNC(=O)c2ccc(-c3c4nc(c(-c5ccc(S(=O)(=O)[O-])cc5)c5ccc([nH]5)c(-c5ccc(S(=O)(=O)[O-])cc5)c5nc(c(-c6ccc(S(=O)(=O)[O-])cc6)c6ccc3[nH]6)C=C5)C=C4)cc2)CCN1C(=O)COc1ccccc1O
REMARK SMILES IDX 8 1 7 2 6 3 4 4 5 5 3 7 1 8 2 9 78 10 76 11 77 12 79 13
REMARK SMILES IDX 80 14 81 15 82 16 83 17 84 18 88 19 85 20 87 21 86 22 89 23
REMARK SMILES IDX 9 25 10 26 11 27 12 28 13 29 14 30 15 32 16 33 17 34 75 35
REMARK SMILES IDX 18 36 74 37 19 38 20 39 21 40 68 41 22 42 73 43 67 44 69 45
REMARK SMILES IDX 23 46 72 47 66 48 65 49 24 51 54 52 35 53 53 54 36 55 39 56
REMARK SMILES IDX 52 57 70 58 37 59 38 60 51 62 71 63 40 64 25 65 26 66 34 67
REMARK SMILES IDX 27 68 33 69 28 70 29 71 30 72 31 73 32 74 55 75 56 76 64 77
REMARK SMILES IDX 57 78 63 79 58 80 59 81 60 82 61 83 62 84 41 85 42 86 50 87
REMARK SMILES IDX 43 88 49 89 44 90 45 91 46 92 47 93 48 94
REMARK H PARENT 6 6 89 24 13 31 69 50 39 61
REMARK Flexibility Score: inf
ROOT
ATOM      1  C   UNL A   1      31.101  28.394  24.415  1.00  0.00     0.021 C 
ENDROOT
BRANCH   1   2
ATOM      2  C   UNL A   1      30.804  27.765  23.054  1.00  0.00     0.116 C 
BRANCH   2   3
ATOM      3  N   UNL A   1      32.022  27.578  22.290  1.00  0.00    -0.356 N 
ATOM      4  C   UNL A   1      32.728  26.459  21.985  1.00  0.00     0.225 C 
ATOM      5  O   UNL A   1      33.806  26.614  21.404  1.00  0.00    -0.275 OA
ATOM      6  H   UNL A   1      32.405  28.409  21.928  1.00  0.00     0.163 HD
BRANCH   4   7
ATOM      7  C   UNL A   1      32.254  25.057  22.332  1.00  0.00     0.102 C 
ATOM      8  C   UNL A   1      33.993  25.001  24.300  1.00  0.00     0.032 C 
ATOM      9  C   UNL A   1      33.080  24.243  23.343  1.00  0.00     0.094 C 
ATOM     10  N   UNL A   1      32.087  23.428  24.062  1.00  0.00    -0.336 N 
ATOM     11  C   UNL A   1      30.785  24.935  22.730  1.00  0.00     0.037 C 
ATOM     12  C   UNL A   1      30.722  23.818  23.753  1.00  0.00     0.121 C 
BRANCH  10  13
ATOM     13  C   UNL A   1      32.288  22.421  24.998  1.00  0.00     0.260 C 
ATOM     14  O   UNL A   1      31.762  22.480  26.114  1.00  0.00    -0.271 OA
BRANCH  13  15
ATOM     15  C   UNL A   1      33.140  21.200  24.621  1.00  0.00     0.329 C 
BRANCH  15  16
ATOM     16  O   UNL A   1      32.513  20.174  23.865  1.00  0.00    -0.480 OA
BRANCH  16  17
ATOM     17  C   UNL A   1      33.145  18.964  23.853  1.00  0.00     0.161 A 
ATOM     18  C   UNL A   1      34.321  18.901  24.604  1.00  0.00     0.050 A 
ATOM     19  C   UNL A   1      32.777  17.864  23.075  1.00  0.00     0.157 A 
ATOM     20  C   UNL A   1      35.089  17.734  24.616  1.00  0.00     0.004 A 
ATOM     21  C   UNL A   1      33.523  16.688  23.110  1.00  0.00     0.050 A 
ATOM     22  C   UNL A   1      34.683  16.624  23.878  1.00  0.00     0.004 A 
BRANCH  19  23
ATOM     23  O   UNL A   1      31.745  17.877  22.186  1.00  0.00    -0.504 OA
ATOM     24  H   UNL A   1      31.891  17.630  21.294  1.00  0.00     0.293 HD
ENDBRANCH  19  23
ENDBRANCH  16  17
ENDBRANCH  15  16
ENDBRANCH  13  15
ENDBRANCH  10  13
ENDBRANCH   4   7
ENDBRANCH   2   3
ENDBRANCH   1   2
BRANCH   1  25
ATOM     25  C   UNL A   1      30.905  27.456  25.606  1.00  0.00     0.002 C 
BRANCH  25  26
ATOM     26  C   UNL A   1      31.756  27.780  26.836  1.00  0.00     0.002 C 
BRANCH  26  27
ATOM     27  C   UNL A   1      33.223  27.350  26.756  1.00  0.00     0.021 C 
BRANCH  27  28
ATOM     28  C   UNL A   1      34.199  28.434  26.302  1.00  0.00     0.116 C 
BRANCH  28  29
ATOM     29  N   UNL A   1      33.896  29.727  26.887  1.00  0.00    -0.352 N 
ATOM     30  C   UNL A   1      34.618  30.470  27.786  1.00  0.00     0.251 C 
ATOM     31  H   UNL A   1      33.048  30.130  26.594  1.00  0.00     0.163 HD
ATOM     32  O   UNL A   1      34.108  31.459  28.304  1.00  0.00    -0.269 OA
BRANCH  30  33
ATOM     33  C   UNL A   1      35.998  30.073  28.143  1.00  0.00     0.039 A 
ATOM     34  C   UNL A   1      36.235  29.560  29.421  1.00  0.00     0.014 A 
ATOM     35  C   UNL A   1      37.058  30.238  27.246  1.00  0.00     0.014 A 
ATOM     36  C   UNL A   1      37.528  29.177  29.785  1.00  0.00     0.010 A 
ATOM     37  C   UNL A   1      38.335  29.797  27.588  1.00  0.00     0.010 A 
ATOM     38  C   UNL A   1      38.586  29.276  28.866  1.00  0.00    -0.014 A 
BRANCH  38  39
ATOM     39  C   UNL A   1      39.959  28.855  29.242  1.00  0.00     0.031 A 
ATOM     40  C   UNL A   1      40.861  29.796  29.995  1.00  0.00     0.074 A 
ATOM     41  C   UNL A   1      40.404  27.635  28.882  1.00  0.00     0.049 A 
ATOM     42  N   UNL A   1      42.088  29.607  30.408  1.00  0.00    -0.248 NA
ATOM     43  C   UNL A   1      40.322  31.129  30.307  1.00  0.00     0.031 C 
ATOM     44  C   UNL A   1      39.642  26.647  28.116  1.00  0.00     0.029 A 
ATOM     45  N   UNL A   1      41.608  27.019  29.113  1.00  0.00    -0.354 N 
ATOM     46  C   UNL A   1      42.472  30.798  31.015  1.00  0.00     0.074 A 
ATOM     47  C   UNL A   1      41.365  31.718  30.875  1.00  0.00     0.031 C 
ATOM     48  C   UNL A   1      40.385  25.538  27.967  1.00  0.00     0.029 A 
ATOM     49  C   UNL A   1      41.685  25.747  28.597  1.00  0.00     0.049 A 
ATOM     50  H   UNL A   1      42.349  27.448  29.601  1.00  0.00     0.167 HD
ATOM     51  C   UNL A   1      43.631  31.092  31.650  1.00  0.00     0.031 A 
ATOM     52  C   UNL A   1      42.688  24.847  28.630  1.00  0.00     0.031 A 
ATOM     53  C   UNL A   1      44.726  30.171  31.801  1.00  0.00     0.049 A 
ATOM     54  C   UNL A   1      43.964  25.197  29.343  1.00  0.00     0.074 A 
ATOM     55  C   UNL A   1      45.921  30.357  32.475  1.00  0.00     0.029 A 
ATOM     56  N   UNL A   1      44.762  28.892  31.268  1.00  0.00    -0.354 N 
ATOM     57  N   UNL A   1      44.281  26.304  29.970  1.00  0.00    -0.248 NA
ATOM     58  C   UNL A   1      45.014  24.169  29.365  1.00  0.00     0.031 C 
ATOM     59  C   UNL A   1      46.697  29.204  32.314  1.00  0.00     0.029 A 
ATOM     60  C   UNL A   1      45.966  28.283  31.581  1.00  0.00     0.049 A 
ATOM     61  H   UNL A   1      44.038  28.477  30.745  1.00  0.00     0.167 HD
ATOM     62  C   UNL A   1      45.559  26.100  30.478  1.00  0.00     0.074 A 
ATOM     63  C   UNL A   1      45.948  24.755  30.102  1.00  0.00     0.031 C 
ATOM     64  C   UNL A   1      46.339  26.947  31.193  1.00  0.00     0.031 A 
BRANCH  51  65
ATOM     65  C   UNL A   1      43.772  32.475  32.232  1.00  0.00    -0.014 A 
ATOM     66  C   UNL A   1      44.303  33.531  31.469  1.00  0.00     0.010 A 
ATOM     67  C   UNL A   1      43.340  32.730  33.546  1.00  0.00     0.010 A 
ATOM     68  C   UNL A   1      44.440  34.806  32.024  1.00  0.00     0.020 A 
ATOM     69  C   UNL A   1      43.450  34.010  34.095  1.00  0.00     0.020 A 
ATOM     70  C   UNL A   1      44.017  35.036  33.337  1.00  0.00     0.054 A 
BRANCH  70  71
ATOM     71  S   UNL A   1      44.193  36.705  34.028  1.00  0.00     0.124 S 
ATOM     72  O   UNL A   1      45.564  37.041  33.654  1.00  0.00    -0.237 OA
ATOM     73  O   UNL A   1      43.150  37.453  33.330  1.00  0.00    -0.237 OA
ATOM     74  O   UNL A   1      43.966  36.512  35.458  1.00  0.00    -0.744 OA
ENDBRANCH  70  71
ENDBRANCH  51  65
BRANCH  52  75
ATOM     75  C   UNL A   1      42.512  23.519  27.985  1.00  0.00    -0.014 A 
ATOM     76  C   UNL A   1      43.217  23.197  26.811  1.00  0.00     0.010 A 
ATOM     77  C   UNL A   1      41.649  22.561  28.548  1.00  0.00     0.010 A 
ATOM     78  C   UNL A   1      43.050  21.950  26.203  1.00  0.00     0.020 A 
ATOM     79  C   UNL A   1      41.499  21.304  27.957  1.00  0.00     0.020 A 
ATOM     80  C   UNL A   1      42.192  21.010  26.781  1.00  0.00     0.054 A 
BRANCH  80  81
ATOM     81  S   UNL A   1      42.031  19.376  26.008  1.00  0.00     0.124 S 
ATOM     82  O   UNL A   1      42.591  18.500  27.032  1.00  0.00    -0.237 OA
ATOM     83  O   UNL A   1      40.590  19.266  25.797  1.00  0.00    -0.237 OA
ATOM     84  O   UNL A   1      42.823  19.500  24.785  1.00  0.00    -0.744 OA
ENDBRANCH  80  81
ENDBRANCH  52  75
BRANCH  64  85
ATOM     85  C   UNL A   1      47.686  26.438  31.634  1.00  0.00    -0.014 A 
ATOM     86  C   UNL A   1      47.845  25.785  32.869  1.00  0.00     0.010 A 
ATOM     87  C   UNL A   1      48.794  26.574  30.780  1.00  0.00     0.010 A 
ATOM     88  C   UNL A   1      49.098  25.305  33.257  1.00  0.00     0.020 A 
ATOM     89  C   UNL A   1      50.044  26.073  31.153  1.00  0.00     0.020 A 
ATOM     90  C   UNL A   1      50.191  25.454  32.396  1.00  0.00     0.054 A 
BRANCH  90  91
ATOM     91  S   UNL A   1      51.801  24.790  32.903  1.00  0.00     0.124 S 
ATOM     92  O   UNL A   1      51.707  23.400  32.465  1.00  0.00    -0.237 OA
ATOM     93  O   UNL A   1      52.743  25.622  32.158  1.00  0.00    -0.237 OA
ATOM     94  O   UNL A   1      51.816  24.988  34.351  1.00  0.00    -0.744 OA
ENDBRANCH  90  91
ENDBRANCH  64  85
ENDBRANCH  38  39
ENDBRANCH  30  33
ENDBRANCH  28  29
ENDBRANCH  27  28
ENDBRANCH  26  27
ENDBRANCH  25  26
ENDBRANCH   1  25
TORSDOF 21
ENDMDL
MODEL 2
REMARK VINA RESULT:     -10.7      2.417      8.239
REMARK SMILES C[C@@H]1[C@H](C(=O)NCCCCCCNC(=O)c2ccc(-c3c4nc(c(-c5ccc(S(=O)(=O)[O-])cc5)c5ccc([nH]5)c(-c5ccc(S(=O)(=O)[O-])cc5)c5nc(c(-c6ccc(S(=O)(=O)[O-])cc6)c6ccc3[nH]6)C=C5)C=C4)cc2)CCN1C(=O)COc1ccccc1O
REMARK SMILES IDX 8 1 7 2 6 3 4 4 5 5 3 7 1 8 2 9 78 10 76 11 77 12 79 13
REMARK SMILES IDX 80 14 81 15 82 16 83 17 84 18 88 19 85 20 87 21 86 22 89 23
REMARK SMILES IDX 9 25 10 26 11 27 12 28 13 29 14 30 15 32 16 33 17 34 75 35
REMARK SMILES IDX 18 36 74 37 19 38 20 39 21 40 68 41 22 42 73 43 67 44 69 45
REMARK SMILES IDX 23 46 72 47 66 48 65 49 24 51 54 52 35 53 53 54 36 55 39 56
REMARK SMILES IDX 52 57 70 58 37 59 38 60 51 62 71 63 40 64 25 65 26 66 34 67
REMARK SMILES IDX 27 68 33 69 28 70 29 71 30 72 31 73 32 74 55 75 56 76 64 77
REMARK SMILES IDX 57 78 63 79 58 80 59 81 60 82 61 83 62 84 41 85 42 86 50 87
REMARK SMILES IDX 43 88 49 89 44 90 45 91 46 92 47 93 48 94
REMARK H PARENT 6 6 89 24 13 31 69 50 39 61
REMARK Flexibility Score: inf
ROOT
ATOM      1  C   UNL A   1      31.538  27.936  24.003  1.00  0.00     0.021 C 
ENDROOT
BRANCH   1   2
ATOM      2  C   UNL A   1      30.764  27.279  22.861  1.00  0.00     0.116 C 
BRANCH   2   3
ATOM      3  N   UNL A   1      31.662  26.821  21.818  1.00  0.00    -0.356 N 
ATOM      4  C   UNL A   1      32.305  25.639  21.642  1.00  0.00     0.225 C 
ATOM      5  O   UNL A   1      33.108  25.567  20.707  1.00  0.00    -0.275 OA
ATOM      6  H   UNL A   1      31.837  27.486  21.114  1.00  0.00     0.163 HD
BRANCH   4   7
ATOM      7  C   UNL A   1      32.083  24.430  22.537  1.00  0.00     0.102 C 
ATOM      8  C   UNL A   1      34.043  25.261  24.075  1.00  0.00     0.032 C 
ATOM      9  C   UNL A   1      33.136  24.126  23.616  1.00  0.00     0.094 C 
ATOM     10  N   UNL A   1      32.366  23.552  24.734  1.00  0.00    -0.336 N 
ATOM     11  C   UNL A   1      30.707  24.337  23.193  1.00  0.00     0.037 C 
ATOM     12  C   UNL A   1      30.932  23.679  24.540  1.00  0.00     0.121 C 
BRANCH  10  13
ATOM     13  C   UNL A   1      32.824  22.987  25.918  1.00  0.00     0.260 C 
ATOM     14  O   UNL A   1      32.905  23.659  26.950  1.00  0.00    -0.271 OA
BRANCH  13  15
ATOM     15  C   UNL A   1      33.191  21.496  25.948  1.00  0.00     0.329 C 
BRANCH  15  16
ATOM     16  O   UNL A   1      34.151  21.040  25.007  1.00  0.00    -0.480 OA
BRANCH  16  17
ATOM     17  C   UNL A   1      33.953  19.785  24.505  1.00  0.00     0.161 A 
ATOM     18  C   UNL A   1      32.658  19.524  24.053  1.00  0.00     0.050 A 
ATOM     19  C   UNL A   1      34.887  18.747  24.525  1.00  0.00     0.157 A 
ATOM     20  C   UNL A   1      32.318  18.255  23.577  1.00  0.00     0.004 A 
ATOM     21  C   UNL A   1      34.561  17.490  24.023  1.00  0.00     0.050 A 
ATOM     22  C   UNL A   1      33.274  17.241  23.552  1.00  0.00     0.004 A 
BRANCH  19  23
ATOM     23  O   UNL A   1      36.120  18.849  25.094  1.00  0.00    -0.504 OA
ATOM     24  H   UNL A   1      36.311  19.557  25.677  1.00  0.00     0.293 HD
ENDBRANCH  19  23
ENDBRANCH  16  17
ENDBRANCH  15  16
ENDBRANCH  13  15
ENDBRANCH  10  13
ENDBRANCH   4   7
ENDBRANCH   2   3
ENDBRANCH   1   2
BRANCH   1  25
ATOM     25  C   UNL A   1      31.217  27.383  25.392  1.00  0.00     0.002 C 
BRANCH  25  26
ATOM     26  C   UNL A   1      31.848  28.147  26.559  1.00  0.00     0.002 C 
BRANCH  26  27
ATOM     27  C   UNL A   1      33.326  27.850  26.820  1.00  0.00     0.021 C 
BRANCH  27  28
ATOM     28  C   UNL A   1      34.307  28.892  26.290  1.00  0.00     0.116 C 
BRANCH  28  29
ATOM     29  N   UNL A   1      33.909  30.246  26.632  1.00  0.00    -0.352 N 
ATOM     30  C   UNL A   1      34.413  31.089  27.589  1.00  0.00     0.251 C 
ATOM     31  H   UNL A   1      33.169  30.612  26.098  1.00  0.00     0.163 HD
ATOM     32  O   UNL A   1      33.822  32.133  27.851  1.00  0.00    -0.269 OA
BRANCH  30  33
ATOM     33  C   UNL A   1      35.654  30.738  28.315  1.00  0.00     0.039 A 
ATOM     34  C   UNL A   1      36.815  31.467  28.046  1.00  0.00     0.014 A 
ATOM     35  C   UNL A   1      35.688  29.677  29.226  1.00  0.00     0.014 A 
ATOM     36  C   UNL A   1      37.999  31.157  28.717  1.00  0.00     0.010 A 
ATOM     37  C   UNL A   1      36.854  29.411  29.941  1.00  0.00     0.010 A 
ATOM     38  C   UNL A   1      38.025  30.139  29.683  1.00  0.00    -0.014 A 
BRANCH  38  39
ATOM     39  C   UNL A   1      39.278  29.816  30.412  1.00  0.00     0.031 A 
ATOM     40  C   UNL A   1      40.183  28.720  29.917  1.00  0.00     0.074 A 
ATOM     41  C   UNL A   1      39.588  30.491  31.536  1.00  0.00     0.049 A 
ATOM     42  N   UNL A   1      41.314  28.295  30.419  1.00  0.00    -0.248 NA
ATOM     43  C   UNL A   1      39.751  27.992  28.712  1.00  0.00     0.031 C 
ATOM     44  C   UNL A   1      38.774  31.548  32.142  1.00  0.00     0.029 A 
ATOM     45  N   UNL A   1      40.672  30.388  32.371  1.00  0.00    -0.354 N 
ATOM     46  C   UNL A   1      41.722  27.246  29.602  1.00  0.00     0.074 A 
ATOM     47  C   UNL A   1      40.694  27.068  28.601  1.00  0.00     0.031 C 
ATOM     48  C   UNL A   1      39.403  32.016  33.233  1.00  0.00     0.029 A 
ATOM     49  C   UNL A   1      40.645  31.274  33.422  1.00  0.00     0.049 A 
ATOM     50  H   UNL A   1      41.401  29.741  32.230  1.00  0.00     0.167 HD
ATOM     51  C   UNL A   1      42.858  26.512  29.667  1.00  0.00     0.031 A 
ATOM     52  C   UNL A   1      41.523  31.469  34.426  1.00  0.00     0.031 A 
ATOM     53  C   UNL A   1      43.886  26.700  30.655  1.00  0.00     0.049 A 
ATOM     54  C   UNL A   1      42.778  30.644  34.474  1.00  0.00     0.074 A 
ATOM     55  C   UNL A   1      45.100  26.043  30.771  1.00  0.00     0.029 A 
ATOM     56  N   UNL A   1      43.822  27.610  31.699  1.00  0.00    -0.354 N 
ATOM     57  N   UNL A   1      43.177  29.702  33.653  1.00  0.00    -0.248 NA
ATOM     58  C   UNL A   1      43.709  30.916  35.578  1.00  0.00     0.031 C 
ATOM     59  C   UNL A   1      45.751  26.527  31.912  1.00  0.00     0.029 A 
ATOM     60  C   UNL A   1      44.965  27.518  32.477  1.00  0.00     0.049 A 
ATOM     61  H   UNL A   1      43.075  28.229  31.864  1.00  0.00     0.167 HD
ATOM     62  C   UNL A   1      44.414  29.283  34.129  1.00  0.00     0.074 A 
ATOM     63  C   UNL A   1      44.706  30.088  35.299  1.00  0.00     0.031 C 
ATOM     64  C   UNL A   1      45.236  28.321  33.641  1.00  0.00     0.031 A 
BRANCH  51  65
ATOM     65  C   UNL A   1      43.046  25.433  28.632  1.00  0.00    -0.014 A 
ATOM     66  C   UNL A   1      42.479  24.157  28.804  1.00  0.00     0.010 A 
ATOM     67  C   UNL A   1      43.773  25.705  27.459  1.00  0.00     0.010 A 
ATOM     68  C   UNL A   1      42.671  23.161  27.844  1.00  0.00     0.020 A 
ATOM     69  C   UNL A   1      43.945  24.720  26.483  1.00  0.00     0.020 A 
ATOM     70  C   UNL A   1      43.408  23.448  26.691  1.00  0.00     0.054 A 
BRANCH  70  71
ATOM     71  S   UNL A   1      43.631  22.140  25.453  1.00  0.00     0.124 S 
ATOM     72  O   UNL A   1      45.058  21.856  25.569  1.00  0.00    -0.237 OA
ATOM     73  O   UNL A   1      42.740  21.087  25.934  1.00  0.00    -0.237 OA
ATOM     74  O   UNL A   1      43.221  22.774  24.202  1.00  0.00    -0.744 OA
ENDBRANCH  70  71
ENDBRANCH  51  65
BRANCH  52  75
ATOM     75  C   UNL A   1      41.253  32.510  35.454  1.00  0.00    -0.014 A 
ATOM     76  C   UNL A   1      41.775  33.808  35.308  1.00  0.00     0.010 A 
ATOM     77  C   UNL A   1      40.462  32.214  36.578  1.00  0.00     0.010 A 
ATOM     78  C   UNL A   1      41.523  34.786  36.275  1.00  0.00     0.020 A 
ATOM     79  C   UNL A   1      40.188  33.195  37.534  1.00  0.00     0.020 A 
ATOM     80  C   UNL A   1      40.729  34.473  37.383  1.00  0.00     0.054 A 
BRANCH  80  81
ATOM     81  S   UNL A   1      40.369  35.771  38.598  1.00  0.00     0.124 S 
ATOM     82  O   UNL A   1      39.740  36.795  37.770  1.00  0.00    -0.237 OA
ATOM     83  O   UNL A   1      39.486  35.086  39.540  1.00  0.00    -0.237 OA
ATOM     84  O   UNL A   1      41.686  36.114  39.129  1.00  0.00    -0.744 OA
ENDBRANCH  80  81
ENDBRANCH  52  75
BRANCH  64  85
ATOM     85  C   UNL A   1      46.540  28.099  34.360  1.00  0.00    -0.014 A 
ATOM     86  C   UNL A   1      47.691  28.831  34.017  1.00  0.00     0.010 A 
ATOM     87  C   UNL A   1      46.600  27.180  35.423  1.00  0.00     0.010 A 
ATOM     88  C   UNL A   1      48.889  28.622  34.705  1.00  0.00     0.020 A 
ATOM     89  C   UNL A   1      47.789  26.988  36.129  1.00  0.00     0.020 A 
ATOM     90  C   UNL A   1      48.931  27.700  35.756  1.00  0.00     0.054 A 
BRANCH  90  91
ATOM     91  S   UNL A   1      50.488  27.474  36.659  1.00  0.00     0.124 S 
ATOM     92  O   UNL A   1      51.433  27.216  35.575  1.00  0.00    -0.237 OA
ATOM     93  O   UNL A   1      50.652  28.754  37.344  1.00  0.00    -0.237 OA
ATOM     94  O   UNL A   1      50.218  26.336  37.534  1.00  0.00    -0.744 OA
ENDBRANCH  90  91
ENDBRANCH  64  85
ENDBRANCH  38  39
ENDBRANCH  30  33
ENDBRANCH  28  29
ENDBRANCH  27  28
ENDBRANCH  26  27
ENDBRANCH  25  26
ENDBRANCH   1  25
TORSDOF 21
ENDMDL
MODEL 3
REMARK VINA RESULT:     -10.6      3.320      3.982
REMARK SMILES C[C@@H]1[C@H](C(=O)NCCCCCCNC(=O)c2ccc(-c3c4nc(c(-c5ccc(S(=O)(=O)[O-])cc5)c5ccc([nH]5)c(-c5ccc(S(=O)(=O)[O-])cc5)c5nc(c(-c6ccc(S(=O)(=O)[O-])cc6)c6ccc3[nH]6)C=C5)C=C4)cc2)CCN1C(=O)COc1ccccc1O
REMARK SMILES IDX 8 1 7 2 6 3 4 4 5 5 3 7 1 8 2 9 78 10 76 11 77 12 79 13
REMARK SMILES IDX 80 14 81 15 82 16 83 17 84 18 88 19 85 20 87 21 86 22 89 23
REMARK SMILES IDX 9 25 10 26 11 27 12 28 13 29 14 30 15 32 16 33 17 34 75 35
REMARK SMILES IDX 18 36 74 37 19 38 20 39 21 40 68 41 22 42 73 43 67 44 69 45
REMARK SMILES IDX 23 46 72 47 66 48 65 49 24 51 54 52 35 53 53 54 36 55 39 56
REMARK SMILES IDX 52 57 70 58 37 59 38 60 51 62 71 63 40 64 25 65 26 66 34 67
REMARK SMILES IDX 27 68 33 69 28 70 29 71 30 72 31 73 32 74 55 75 56 76 64 77
REMARK SMILES IDX 57 78 63 79 58 80 59 81 60 82 61 83 62 84 41 85 42 86 50 87
REMARK SMILES IDX 43 88 49 89 44 90 45 91 46 92 47 93 48 94
REMARK H PARENT 6 6 89 24 13 31 69 50 39 61
REMARK Flexibility Score: inf
ROOT
ATOM      1  C   UNL A   1      33.228  28.066  26.279  1.00  0.00     0.021 C 
ENDROOT
BRANCH   1   2
ATOM      2  C   UNL A   1      32.974  27.475  24.893  1.00  0.00     0.116 C 
BRANCH   2   3
ATOM      3  N   UNL A   1      31.576  27.589  24.525  1.00  0.00    -0.356 N 
ATOM      4  C   UNL A   1      30.619  26.646  24.332  1.00  0.00     0.225 C 
ATOM      5  O   UNL A   1      29.526  27.031  23.908  1.00  0.00    -0.275 OA
ATOM      6  H   UNL A   1      31.266  28.513  24.393  1.00  0.00     0.163 HD
BRANCH   4   7
ATOM      7  C   UNL A   1      30.842  25.167  24.605  1.00  0.00     0.102 C 
ATOM      8  C   UNL A   1      32.330  25.035  22.445  1.00  0.00     0.032 C 
ATOM      9  C   UNL A   1      31.499  24.319  23.503  1.00  0.00     0.094 C 
ATOM     10  N   UNL A   1      32.289  23.312  24.233  1.00  0.00    -0.336 N 
ATOM     11  C   UNL A   1      31.538  24.836  25.923  1.00  0.00     0.037 C 
ATOM     12  C   UNL A   1      32.362  23.591  25.657  1.00  0.00     0.121 C 
BRANCH  10  13
ATOM     13  C   UNL A   1      32.986  22.216  23.740  1.00  0.00     0.260 C 
ATOM     14  O   UNL A   1      34.206  22.273  23.557  1.00  0.00    -0.271 OA
BRANCH  13  15
ATOM     15  C   UNL A   1      32.234  20.906  23.462  1.00  0.00     0.329 C 
BRANCH  15  16
ATOM     16  O   UNL A   1      32.063  20.007  24.548  1.00  0.00    -0.480 OA
BRANCH  16  17
ATOM     17  C   UNL A   1      32.666  18.789  24.421  1.00  0.00     0.161 A 
ATOM     18  C   UNL A   1      32.925  18.388  23.109  1.00  0.00     0.050 A 
ATOM     19  C   UNL A   1      32.922  17.898  25.466  1.00  0.00     0.157 A 
ATOM     20  C   UNL A   1      33.481  17.133  22.850  1.00  0.00     0.004 A 
ATOM     21  C   UNL A   1      33.506  16.659  25.214  1.00  0.00     0.050 A 
ATOM     22  C   UNL A   1      33.781  16.273  23.905  1.00  0.00     0.004 A 
BRANCH  19  23
ATOM     23  O   UNL A   1      32.558  18.123  26.759  1.00  0.00    -0.504 OA
ATOM     24  H   UNL A   1      32.441  19.000  27.068  1.00  0.00     0.293 HD
ENDBRANCH  19  23
ENDBRANCH  16  17
ENDBRANCH  15  16
ENDBRANCH  13  15
ENDBRANCH  10  13
ENDBRANCH   4   7
ENDBRANCH   2   3
ENDBRANCH   1   2
BRANCH   1  25
ATOM     25  C   UNL A   1      32.506  29.385  26.551  1.00  0.00     0.002 C 
BRANCH  25  26
ATOM     26  C   UNL A   1      33.328  30.435  27.303  1.00  0.00     0.002 C 
BRANCH  26  27
ATOM     27  C   UNL A   1      34.774  30.041  27.617  1.00  0.00     0.021 C 
BRANCH  27  28
ATOM     28  C   UNL A   1      35.600  31.102  28.339  1.00  0.00     0.116 C 
BRANCH  28  29
ATOM     29  N   UNL A   1      35.548  30.952  29.782  1.00  0.00    -0.352 N 
ATOM     30  C   UNL A   1      36.463  30.389  30.634  1.00  0.00     0.251 C 
ATOM     31  H   UNL A   1      34.738  31.307  30.211  1.00  0.00     0.163 HD
ATOM     32  O   UNL A   1      36.159  30.190  31.807  1.00  0.00    -0.269 OA
BRANCH  30  33
ATOM     33  C   UNL A   1      37.806  30.008  30.143  1.00  0.00     0.039 A 
ATOM     34  C   UNL A   1      38.813  29.757  31.078  1.00  0.00     0.014 A 
ATOM     35  C   UNL A   1      38.085  29.932  28.774  1.00  0.00     0.014 A 
ATOM     36  C   UNL A   1      40.089  29.394  30.641  1.00  0.00     0.010 A 
ATOM     37  C   UNL A   1      39.340  29.509  28.342  1.00  0.00     0.010 A 
ATOM     38  C   UNL A   1      40.359  29.249  29.271  1.00  0.00    -0.014 A 
BRANCH  38  39
ATOM     39  C   UNL A   1      41.710  28.848  28.802  1.00  0.00     0.031 A 
ATOM     40  C   UNL A   1      42.820  29.862  28.729  1.00  0.00     0.074 A 
ATOM     41  C   UNL A   1      41.930  27.576  28.415  1.00  0.00     0.049 A 
ATOM     42  N   UNL A   1      44.060  29.700  28.345  1.00  0.00    -0.248 NA
ATOM     43  C   UNL A   1      42.489  31.242  29.119  1.00  0.00     0.031 C 
ATOM     44  C   UNL A   1      40.926  26.509  28.400  1.00  0.00     0.029 A 
ATOM     45  N   UNL A   1      43.070  26.965  27.958  1.00  0.00    -0.354 N 
ATOM     46  C   UNL A   1      44.653  30.954  28.435  1.00  0.00     0.074 A 
ATOM     47  C   UNL A   1      43.624  31.876  28.863  1.00  0.00     0.031 C 
ATOM     48  C   UNL A   1      41.504  25.369  27.986  1.00  0.00     0.029 A 
ATOM     49  C   UNL A   1      42.906  25.629  27.677  1.00  0.00     0.049 A 
ATOM     50  H   UNL A   1      43.926  27.439  27.843  1.00  0.00     0.167 HD
ATOM     51  C   UNL A   1      45.940  31.304  28.202  1.00  0.00     0.031 A 
ATOM     52  C   UNL A   1      43.787  24.715  27.223  1.00  0.00     0.031 A 
ATOM     53  C   UNL A   1      46.965  30.383  27.790  1.00  0.00     0.049 A 
ATOM     54  C   UNL A   1      45.210  25.127  26.975  1.00  0.00     0.074 A 
ATOM     55  C   UNL A   1      48.312  30.630  27.581  1.00  0.00     0.029 A 
ATOM     56  N   UNL A   1      46.759  29.039  27.520  1.00  0.00    -0.354 N 
ATOM     57  N   UNL A   1      45.766  26.305  27.130  1.00  0.00    -0.248 NA
ATOM     58  C   UNL A   1      46.130  24.083  26.502  1.00  0.00     0.031 C 
ATOM     59  C   UNL A   1      48.911  29.444  27.144  1.00  0.00     0.029 A 
ATOM     60  C   UNL A   1      47.948  28.447  27.127  1.00  0.00     0.049 A 
ATOM     61  H   UNL A   1      45.894  28.574  27.596  1.00  0.00     0.167 HD
ATOM     62  C   UNL A   1      47.105  26.139  26.794  1.00  0.00     0.074 A 
ATOM     63  C   UNL A   1      47.279  24.743  26.445  1.00  0.00     0.031 C 
ATOM     64  C   UNL A   1      48.102  27.059  26.777  1.00  0.00     0.031 A 
BRANCH  51  65
ATOM     65  C   UNL A   1      46.310  32.752  28.391  1.00  0.00    -0.014 A 
ATOM     66  C   UNL A   1      46.771  33.227  29.633  1.00  0.00     0.010 A 
ATOM     67  C   UNL A   1      46.228  33.644  27.306  1.00  0.00     0.010 A 
ATOM     68  C   UNL A   1      47.099  34.574  29.799  1.00  0.00     0.020 A 
ATOM     69  C   UNL A   1      46.581  34.987  27.461  1.00  0.00     0.020 A 
ATOM     70  C   UNL A   1      46.997  35.448  28.712  1.00  0.00     0.054 A 
BRANCH  70  71
ATOM     71  S   UNL A   1      47.444  37.190  28.951  1.00  0.00     0.124 S 
ATOM     72  O   UNL A   1      48.899  37.144  28.850  1.00  0.00    -0.237 OA
ATOM     73  O   UNL A   1      46.758  37.853  27.844  1.00  0.00    -0.237 OA
ATOM     74  O   UNL A   1      46.921  37.502  30.279  1.00  0.00    -0.744 OA
ENDBRANCH  70  71
ENDBRANCH  51  65
BRANCH  52  75
ATOM     75  C   UNL A   1      43.347  23.312  26.998  1.00  0.00    -0.014 A 
ATOM     76  C   UNL A   1      43.102  22.842  25.695  1.00  0.00     0.010 A 
ATOM     77  C   UNL A   1      43.182  22.434  28.084  1.00  0.00     0.010 A 
ATOM     78  C   UNL A   1      42.686  21.525  25.483  1.00  0.00     0.020 A 
ATOM     79  C   UNL A   1      42.791  21.109  27.874  1.00  0.00     0.020 A 
ATOM     80  C   UNL A   1      42.534  20.665  26.576  1.00  0.00     0.054 A 
BRANCH  80  81
ATOM     81  S   UNL A   1      42.048  18.943  26.275  1.00  0.00     0.124 S 
ATOM     82  O   UNL A   1      42.209  18.347  27.598  1.00  0.00    -0.237 OA
ATOM     83  O   UNL A   1      40.671  19.080  25.804  1.00  0.00    -0.237 OA
ATOM     84  O   UNL A   1      43.000  18.492  25.263  1.00  0.00    -0.744 OA
ENDBRANCH  80  81
ENDBRANCH  52  75
BRANCH  64  85
ATOM     85  C   UNL A   1      49.474  26.580  26.388  1.00  0.00    -0.014 A 
ATOM     86  C   UNL A   1      49.940  26.710  25.067  1.00  0.00     0.010 A 
ATOM     87  C   UNL A   1      50.324  26.036  27.366  1.00  0.00     0.010 A 
ATOM     88  C   UNL A   1      51.223  26.274  24.726  1.00  0.00     0.020 A 
ATOM     89  C   UNL A   1      51.617  25.622  27.034  1.00  0.00     0.020 A 
ATOM     90  C   UNL A   1      52.053  25.730  25.712  1.00  0.00     0.054 A 
BRANCH  90  91
ATOM     91  S   UNL A   1      53.728  25.206  25.253  1.00  0.00     0.124 S 
ATOM     92  O   UNL A   1      53.848  25.728  23.895  1.00  0.00    -0.237 OA
ATOM     93  O   UNL A   1      54.559  25.867  26.257  1.00  0.00    -0.237 OA
ATOM     94  O   UNL A   1      53.675  23.749  25.360  1.00  0.00    -0.744 OA
ENDBRANCH  90  91
ENDBRANCH  64  85
ENDBRANCH  38  39
ENDBRANCH  30  33
ENDBRANCH  28  29
ENDBRANCH  27  28
ENDBRANCH  26  27
ENDBRANCH  25  26
ENDBRANCH   1  25
TORSDOF 21
ENDMDL
