MODEL 1
REMARK VINA RESULT:     -10.7      0.000      0.000
REMARK SMILES C[NH2+][C@@]1(C(=O)NCCCCCCNC(=O)c2ccc(-c3c4nc(c(-c5ccc(S(=O)(=O)[O-])cc5)c5ccc([nH]5)c(-c5ccc(S(=O)(=O)[O-])cc5)c5nc(c(-c6ccc(S(=O)(=O)[O-])cc6)c6ccc3[nH]6)C=C5)C=C4)cc2)CCC[C@H](Oc2cccc(OC)c2)C1
REMARK SMILES IDX 9 1 8 2 7 3 6 4 4 5 5 6 3 8 76 9 89 10 77 11 79 12 78 13
REMARK SMILES IDX 2 14 1 15 80 18 81 19 82 20 88 21 83 22 85 23 84 24 86 25
REMARK SMILES IDX 87 26 10 27 11 28 12 29 13 30 14 31 15 33 16 34 17 35 75 36
REMARK SMILES IDX 18 37 74 38 19 39 20 40 21 41 68 42 22 43 73 44 67 45 69 46
REMARK SMILES IDX 23 47 72 48 66 49 65 50 24 52 54 53 35 54 53 55 36 56 39 57
REMARK SMILES IDX 52 58 70 59 37 60 38 61 51 63 71 64 40 65 25 66 26 67 34 68
REMARK SMILES IDX 27 69 33 70 28 71 29 72 30 73 31 74 32 75 55 76 56 77 64 78
REMARK SMILES IDX 57 79 63 80 58 81 59 82 60 83 61 84 62 85 41 86 42 87 50 88
REMARK SMILES IDX 43 89 49 90 44 91 45 92 46 93 47 94 48 95
REMARK H PARENT 6 7 2 16 2 17 13 32 69 51 39 62
REMARK Flexibility Score: inf
ROOT
ATOM      1  C   UNL A   1      34.478  22.676  23.072  1.00  0.00     0.002 C 
ENDROOT
BRANCH   1   2
ATOM      2  C   UNL A   1      33.253  23.232  22.348  1.00  0.00     0.021 C 
BRANCH   2   3
ATOM      3  C   UNL A   1      32.978  24.741  22.378  1.00  0.00     0.116 C 
BRANCH   3   4
ATOM      4  N   UNL A   1      31.544  24.994  22.574  1.00  0.00    -0.351 N 
ATOM      5  C   UNL A   1      30.754  25.737  23.390  1.00  0.00     0.281 C 
ATOM      6  O   UNL A   1      29.545  25.451  23.301  1.00  0.00    -0.268 OA
ATOM      7  H   UNL A   1      31.004  24.479  21.931  1.00  0.00     0.163 HD
BRANCH   5   8
ATOM      8  C   UNL A   1      31.179  26.949  24.327  1.00  0.00     0.178 C 
ATOM      9  C   UNL A   1      32.586  27.506  24.062  1.00  0.00     0.079 C 
ATOM     10  C   UNL A   1      30.991  26.629  25.828  1.00  0.00     0.124 C 
ATOM     11  C   UNL A   1      33.663  27.131  25.079  1.00  0.00     0.011 C 
ATOM     12  C   UNL A   1      31.979  25.608  26.388  1.00  0.00     0.180 C 
ATOM     13  C   UNL A   1      33.423  25.923  25.978  1.00  0.00     0.046 C 
BRANCH   8  14
ATOM     14  N   UNL A   1      30.291  28.106  23.887  1.00  0.00    -0.336 N 
ATOM     15  C   UNL A   1      30.681  28.806  22.668  1.00  0.00     0.331 C 
ATOM     16  H   UNL A   1      29.351  27.737  23.743  1.00  0.00     0.346 HD
ATOM     17  H   UNL A   1      30.367  28.800  24.631  1.00  0.00     0.346 HD
ENDBRANCH   8  14
BRANCH  12  18
ATOM     18  O   UNL A   1      31.508  24.329  25.942  1.00  0.00    -0.490 OA
BRANCH  18  19
ATOM     19  C   UNL A   1      32.178  23.177  26.245  1.00  0.00     0.123 A 
ATOM     20  C   UNL A   1      33.271  23.065  27.099  1.00  0.00     0.047 A 
ATOM     21  C   UNL A   1      31.779  22.063  25.489  1.00  0.00     0.092 A 
ATOM     22  C   UNL A   1      34.003  21.876  27.144  1.00  0.00     0.008 A 
ATOM     23  C   UNL A   1      32.526  20.888  25.516  1.00  0.00     0.122 A 
ATOM     24  C   UNL A   1      33.636  20.790  26.346  1.00  0.00     0.046 A 
BRANCH  23  25
ATOM     25  O   UNL A   1      32.171  19.781  24.795  1.00  0.00    -0.497 OA
ATOM     26  C   UNL A   1      32.549  18.571  25.447  1.00  0.00     0.278 C 
ENDBRANCH  23  25
ENDBRANCH  18  19
ENDBRANCH  12  18
ENDBRANCH   5   8
ENDBRANCH   3   4
ENDBRANCH   2   3
ENDBRANCH   1   2
BRANCH   1  27
ATOM     27  C   UNL A   1      35.269  23.631  23.959  1.00  0.00     0.002 C 
BRANCH  27  28
ATOM     28  C   UNL A   1      36.731  23.289  24.276  1.00  0.00     0.021 C 
BRANCH  28  29
ATOM     29  C   UNL A   1      37.173  22.893  25.694  1.00  0.00     0.116 C 
BRANCH  29  30
ATOM     30  N   UNL A   1      38.231  21.914  25.838  1.00  0.00    -0.352 N 
ATOM     31  C   UNL A   1      39.472  22.106  26.423  1.00  0.00     0.251 C 
ATOM     32  H   UNL A   1      38.049  21.015  25.482  1.00  0.00     0.163 HD
ATOM     33  O   UNL A   1      40.266  21.185  26.523  1.00  0.00    -0.269 OA
BRANCH  31  34
ATOM     34  C   UNL A   1      39.849  23.464  26.894  1.00  0.00     0.039 A 
ATOM     35  C   UNL A   1      40.440  23.607  28.151  1.00  0.00     0.014 A 
ATOM     36  C   UNL A   1      39.649  24.587  26.086  1.00  0.00     0.014 A 
ATOM     37  C   UNL A   1      40.912  24.862  28.559  1.00  0.00     0.010 A 
ATOM     38  C   UNL A   1      40.150  25.832  26.480  1.00  0.00     0.010 A 
ATOM     39  C   UNL A   1      40.812  25.978  27.709  1.00  0.00    -0.014 A 
BRANCH  39  40
ATOM     40  C   UNL A   1      41.475  27.268  28.059  1.00  0.00     0.031 A 
ATOM     41  C   UNL A   1      42.962  27.451  27.918  1.00  0.00     0.074 A 
ATOM     42  C   UNL A   1      40.731  28.268  28.576  1.00  0.00     0.049 A 
ATOM     43  N   UNL A   1      43.688  28.509  28.185  1.00  0.00    -0.248 NA
ATOM     44  C   UNL A   1      43.735  26.297  27.437  1.00  0.00     0.031 C 
ATOM     45  C   UNL A   1      39.289  28.207  28.824  1.00  0.00     0.029 A 
ATOM     46  N   UNL A   1      41.085  29.529  28.993  1.00  0.00    -0.354 N 
ATOM     47  C   UNL A   1      45.003  28.150  27.910  1.00  0.00     0.074 A 
ATOM     48  C   UNL A   1      44.976  26.762  27.494  1.00  0.00     0.031 C 
ATOM     49  C   UNL A   1      38.878  29.382  29.326  1.00  0.00     0.029 A 
ATOM     50  C   UNL A   1      40.028  30.273  29.463  1.00  0.00     0.049 A 
ATOM     51  H   UNL A   1      42.008  29.868  28.958  1.00  0.00     0.167 HD
ATOM     52  C   UNL A   1      46.127  28.905  27.983  1.00  0.00     0.031 A 
ATOM     53  C   UNL A   1      39.979  31.529  29.948  1.00  0.00     0.031 A 
ATOM     54  C   UNL A   1      46.159  30.285  28.395  1.00  0.00     0.049 A 
ATOM     55  C   UNL A   1      41.235  32.353  30.006  1.00  0.00     0.074 A 
ATOM     56  C   UNL A   1      47.244  31.146  28.437  1.00  0.00     0.029 A 
ATOM     57  N   UNL A   1      45.063  31.007  28.842  1.00  0.00    -0.354 N 
ATOM     58  N   UNL A   1      42.454  32.018  29.659  1.00  0.00    -0.248 NA
ATOM     59  C   UNL A   1      41.106  33.729  30.508  1.00  0.00     0.031 C 
ATOM     60  C   UNL A   1      46.813  32.373  28.953  1.00  0.00     0.029 A 
ATOM     61  C   UNL A   1      45.449  32.294  29.184  1.00  0.00     0.049 A 
ATOM     62  H   UNL A   1      44.145  30.657  28.907  1.00  0.00     0.167 HD
ATOM     63  C   UNL A   1      43.232  33.149  29.878  1.00  0.00     0.074 A 
ATOM     64  C   UNL A   1      42.346  34.181  30.374  1.00  0.00     0.031 C 
ATOM     65  C   UNL A   1      44.564  33.316  29.682  1.00  0.00     0.031 A 
BRANCH  52  66
ATOM     66  C   UNL A   1      47.431  28.249  27.608  1.00  0.00    -0.014 A 
ATOM     67  C   UNL A   1      48.176  27.528  28.559  1.00  0.00     0.010 A 
ATOM     68  C   UNL A   1      47.894  28.313  26.281  1.00  0.00     0.010 A 
ATOM     69  C   UNL A   1      49.383  26.921  28.200  1.00  0.00     0.020 A 
ATOM     70  C   UNL A   1      49.088  27.686  25.912  1.00  0.00     0.020 A 
ATOM     71  C   UNL A   1      49.835  27.009  26.879  1.00  0.00     0.054 A 
BRANCH  71  72
ATOM     72  S   UNL A   1      51.399  26.202  26.438  1.00  0.00     0.124 S 
ATOM     73  O   UNL A   1      51.386  26.302  24.981  1.00  0.00    -0.237 OA
ATOM     74  O   UNL A   1      52.392  27.032  27.116  1.00  0.00    -0.237 OA
ATOM     75  O   UNL A   1      51.254  24.851  26.971  1.00  0.00    -0.744 OA
ENDBRANCH  71  72
ENDBRANCH  52  66
BRANCH  53  76
ATOM     76  C   UNL A   1      38.677  32.097  30.394  1.00  0.00    -0.014 A 
ATOM     77  C   UNL A   1      37.851  32.783  29.486  1.00  0.00     0.010 A 
ATOM     78  C   UNL A   1      38.249  31.936  31.723  1.00  0.00     0.010 A 
ATOM     79  C   UNL A   1      36.623  33.307  29.903  1.00  0.00     0.020 A 
ATOM     80  C   UNL A   1      37.011  32.437  32.137  1.00  0.00     0.020 A 
ATOM     81  C   UNL A   1      36.210  33.127  31.226  1.00  0.00     0.054 A 
BRANCH  81  82
ATOM     82  S   UNL A   1      34.584  33.754  31.728  1.00  0.00     0.124 S 
ATOM     83  O   UNL A   1      34.939  34.956  32.475  1.00  0.00    -0.237 OA
ATOM     84  O   UNL A   1      33.919  33.977  30.446  1.00  0.00    -0.237 OA
ATOM     85  O   UNL A   1      34.029  32.661  32.524  1.00  0.00    -0.744 OA
ENDBRANCH  81  82
ENDBRANCH  53  76
BRANCH  65  86
ATOM     86  C   UNL A   1      45.146  34.672  29.978  1.00  0.00    -0.014 A 
ATOM     87  C   UNL A   1      45.183  35.679  28.997  1.00  0.00     0.010 A 
ATOM     88  C   UNL A   1      45.615  34.960  31.273  1.00  0.00     0.010 A 
ATOM     89  C   UNL A   1      45.704  36.941  29.298  1.00  0.00     0.020 A 
ATOM     90  C   UNL A   1      46.115  36.228  31.585  1.00  0.00     0.020 A 
ATOM     91  C   UNL A   1      46.168  37.207  30.591  1.00  0.00     0.054 A 
BRANCH  91  92
ATOM     92  S   UNL A   1      46.797  38.865  30.972  1.00  0.00     0.124 S 
ATOM     93  O   UNL A   1      45.563  39.622  31.163  1.00  0.00    -0.237 OA
ATOM     94  O   UNL A   1      47.589  38.640  32.179  1.00  0.00    -0.237 OA
ATOM     95  O   UNL A   1      47.571  39.224  29.785  1.00  0.00    -0.744 OA
ENDBRANCH  91  92
ENDBRANCH  65  86
ENDBRANCH  39  40
ENDBRANCH  31  34
ENDBRANCH  29  30
ENDBRANCH  28  29
ENDBRANCH  27  28
ENDBRANCH   1  27
TORSDOF 20
ENDMDL
MODEL 2
REMARK VINA RESULT:     -10.7      5.130      6.654
REMARK SMILES C[NH2+][C@@]1(C(=O)NCCCCCCNC(=O)c2ccc(-c3c4nc(c(-c5ccc(S(=O)(=O)[O-])cc5)c5ccc([nH]5)c(-c5ccc(S(=O)(=O)[O-])cc5)c5nc(c(-c6ccc(S(=O)(=O)[O-])cc6)c6ccc3[nH]6)C=C5)C=C4)cc2)CCC[C@H](Oc2cccc(OC)c2)C1
REMARK SMILES IDX 9 1 8 2 7 3 6 4 4 5 5 6 3 8 76 9 89 10 77 11 79 12 78 13
REMARK SMILES IDX 2 14 1 15 80 18 81 19 82 20 88 21 83 22 85 23 84 24 86 25
REMARK SMILES IDX 87 26 10 27 11 28 12 29 13 30 14 31 15 33 16 34 17 35 75 36
REMARK SMILES IDX 18 37 74 38 19 39 20 40 21 41 68 42 22 43 73 44 67 45 69 46
REMARK SMILES IDX 23 47 72 48 66 49 65 50 24 52 54 53 35 54 53 55 36 56 39 57
REMARK SMILES IDX 52 58 70 59 37 60 38 61 51 63 71 64 40 65 25 66 26 67 34 68
REMARK SMILES IDX 27 69 33 70 28 71 29 72 30 73 31 74 32 75 55 76 56 77 64 78
REMARK SMILES IDX 57 79 63 80 58 81 59 82 60 83 61 84 62 85 41 86 42 87 50 88
REMARK SMILES IDX 43 89 49 90 44 91 45 92 46 93 47 94 48 95
REMARK H PARENT 6 7 2 16 2 17 13 32 69 51 39 62
REMARK Flexibility Score: inf
ROOT
ATOM      1  C   UNL A   1      38.241  23.562  26.530  1.00  0.00     0.002 C 
ENDROOT
BRANCH   1   2
ATOM      2  C   UNL A   1      37.055  23.932  25.643  1.00  0.00     0.021 C 
BRANCH   2   3
ATOM      3  C   UNL A   1      36.322  22.832  24.864  1.00  0.00     0.116 C 
BRANCH   3   4
ATOM      4  N   UNL A   1      35.503  23.422  23.796  1.00  0.00    -0.351 N 
ATOM      5  C   UNL A   1      34.214  23.804  23.608  1.00  0.00     0.281 C 
ATOM      6  O   UNL A   1      33.945  24.069  22.421  1.00  0.00    -0.268 OA
ATOM      7  H   UNL A   1      36.042  23.588  22.989  1.00  0.00     0.163 HD
BRANCH   5   8
ATOM      8  C   UNL A   1      33.091  24.036  24.710  1.00  0.00     0.178 C 
ATOM      9  C   UNL A   1      33.622  24.371  26.112  1.00  0.00     0.079 C 
ATOM     10  C   UNL A   1      32.076  22.871  24.773  1.00  0.00     0.124 C 
ATOM     11  C   UNL A   1      33.553  23.247  27.146  1.00  0.00     0.011 C 
ATOM     12  C   UNL A   1      32.635  21.573  25.351  1.00  0.00     0.180 C 
ATOM     13  C   UNL A   1      33.414  21.812  26.650  1.00  0.00     0.046 C 
BRANCH   8  14
ATOM     14  N   UNL A   1      32.418  25.341  24.305  1.00  0.00    -0.336 N 
ATOM     15  C   UNL A   1      30.991  25.279  24.011  1.00  0.00     0.331 C 
ATOM     16  H   UNL A   1      32.547  26.006  25.068  1.00  0.00     0.346 HD
ATOM     17  H   UNL A   1      32.862  25.610  23.426  1.00  0.00     0.346 HD
ENDBRANCH   8  14
BRANCH  12  18
ATOM     18  O   UNL A   1      33.414  20.985  24.300  1.00  0.00    -0.490 OA
BRANCH  18  19
ATOM     19  C   UNL A   1      33.271  19.670  23.955  1.00  0.00     0.123 A 
ATOM     20  C   UNL A   1      32.546  19.181  22.873  1.00  0.00     0.047 A 
ATOM     21  C   UNL A   1      33.801  18.769  24.891  1.00  0.00     0.092 A 
ATOM     22  C   UNL A   1      32.289  17.812  22.766  1.00  0.00     0.008 A 
ATOM     23  C   UNL A   1      33.522  17.407  24.796  1.00  0.00     0.122 A 
ATOM     24  C   UNL A   1      32.770  16.925  23.731  1.00  0.00     0.046 A 
BRANCH  23  25
ATOM     25  O   UNL A   1      34.019  16.496  25.688  1.00  0.00    -0.497 OA
ATOM     26  C   UNL A   1      35.197  15.856  25.202  1.00  0.00     0.278 C 
ENDBRANCH  23  25
ENDBRANCH  18  19
ENDBRANCH  12  18
ENDBRANCH   5   8
ENDBRANCH   3   4
ENDBRANCH   2   3
ENDBRANCH   1   2
BRANCH   1  27
ATOM     27  C   UNL A   1      38.926  22.224  26.274  1.00  0.00     0.002 C 
BRANCH  27  28
ATOM     28  C   UNL A   1      40.299  21.975  26.911  1.00  0.00     0.021 C 
BRANCH  28  29
ATOM     29  C   UNL A   1      41.335  23.103  27.049  1.00  0.00     0.116 C 
BRANCH  29  30
ATOM     30  N   UNL A   1      41.538  23.993  25.924  1.00  0.00    -0.352 N 
ATOM     31  C   UNL A   1      41.707  25.368  25.967  1.00  0.00     0.251 C 
ATOM     32  H   UNL A   1      41.558  23.576  25.032  1.00  0.00     0.163 HD
ATOM     33  O   UNL A   1      41.914  26.004  24.948  1.00  0.00    -0.269 OA
BRANCH  31  34
ATOM     34  C   UNL A   1      41.591  26.071  27.271  1.00  0.00     0.039 A 
ATOM     35  C   UNL A   1      42.688  26.786  27.756  1.00  0.00     0.014 A 
ATOM     36  C   UNL A   1      40.396  26.052  27.995  1.00  0.00     0.014 A 
ATOM     37  C   UNL A   1      42.558  27.555  28.921  1.00  0.00     0.010 A 
ATOM     38  C   UNL A   1      40.256  26.845  29.138  1.00  0.00     0.010 A 
ATOM     39  C   UNL A   1      41.327  27.628  29.599  1.00  0.00    -0.014 A 
BRANCH  39  40
ATOM     40  C   UNL A   1      41.131  28.584  30.727  1.00  0.00     0.031 A 
ATOM     41  C   UNL A   1      41.970  28.510  31.974  1.00  0.00     0.074 A 
ATOM     42  C   UNL A   1      40.135  29.490  30.652  1.00  0.00     0.049 A 
ATOM     43  N   UNL A   1      41.920  29.266  33.044  1.00  0.00    -0.248 NA
ATOM     44  C   UNL A   1      42.980  27.445  32.039  1.00  0.00     0.031 C 
ATOM     45  C   UNL A   1      39.206  29.634  29.530  1.00  0.00     0.029 A 
ATOM     46  N   UNL A   1      39.731  30.458  31.541  1.00  0.00    -0.354 N 
ATOM     47  C   UNL A   1      42.884  28.766  33.912  1.00  0.00     0.074 A 
ATOM     48  C   UNL A   1      43.476  27.617  33.257  1.00  0.00     0.031 C 
ATOM     49  C   UNL A   1      38.358  30.643  29.785  1.00  0.00     0.029 A 
ATOM     50  C   UNL A   1      38.662  31.203  31.100  1.00  0.00     0.049 A 
ATOM     51  H   UNL A   1      40.167  30.605  32.411  1.00  0.00     0.167 HD
ATOM     52  C   UNL A   1      43.254  29.225  35.132  1.00  0.00     0.031 A 
ATOM     53  C   UNL A   1      37.997  32.222  31.678  1.00  0.00     0.031 A 
ATOM     54  C   UNL A   1      42.669  30.368  35.788  1.00  0.00     0.049 A 
ATOM     55  C   UNL A   1      38.434  32.725  33.026  1.00  0.00     0.074 A 
ATOM     56  C   UNL A   1      43.025  30.942  36.997  1.00  0.00     0.029 A 
ATOM     57  N   UNL A   1      41.604  31.106  35.296  1.00  0.00    -0.354 N 
ATOM     58  N   UNL A   1      39.406  32.289  33.790  1.00  0.00    -0.248 NA
ATOM     59  C   UNL A   1      37.693  33.866  33.583  1.00  0.00     0.031 C 
ATOM     60  C   UNL A   1      42.146  31.999  37.259  1.00  0.00     0.029 A 
ATOM     61  C   UNL A   1      41.275  32.116  36.188  1.00  0.00     0.049 A 
ATOM     62  H   UNL A   1      41.148  30.939  34.440  1.00  0.00     0.167 HD
ATOM     63  C   UNL A   1      39.408  33.117  34.906  1.00  0.00     0.074 A 
ATOM     64  C   UNL A   1      38.351  34.088  34.713  1.00  0.00     0.031 C 
ATOM     65  C   UNL A   1      40.219  33.076  35.993  1.00  0.00     0.031 A 
BRANCH  52  66
ATOM     66  C   UNL A   1      44.351  28.484  35.852  1.00  0.00    -0.014 A 
ATOM     67  C   UNL A   1      45.700  28.841  35.675  1.00  0.00     0.010 A 
ATOM     68  C   UNL A   1      44.029  27.452  36.752  1.00  0.00     0.010 A 
ATOM     69  C   UNL A   1      46.710  28.150  36.350  1.00  0.00     0.020 A 
ATOM     70  C   UNL A   1      45.034  26.775  37.449  1.00  0.00     0.020 A 
ATOM     71  C   UNL A   1      46.371  27.115  37.228  1.00  0.00     0.054 A 
BRANCH  71  72
ATOM     72  S   UNL A   1      47.700  26.242  38.100  1.00  0.00     0.124 S 
ATOM     73  O   UNL A   1      48.616  25.923  37.007  1.00  0.00    -0.237 OA
ATOM     74  O   UNL A   1      48.179  27.247  39.047  1.00  0.00    -0.237 OA
ATOM     75  O   UNL A   1      47.026  25.096  38.703  1.00  0.00    -0.744 OA
ENDBRANCH  71  72
ENDBRANCH  52  66
BRANCH  53  76
ATOM     76  C   UNL A   1      36.857  32.859  30.963  1.00  0.00    -0.014 A 
ATOM     77  C   UNL A   1      35.534  32.488  31.260  1.00  0.00     0.010 A 
ATOM     78  C   UNL A   1      37.090  33.855  29.998  1.00  0.00     0.010 A 
ATOM     79  C   UNL A   1      34.463  33.095  30.597  1.00  0.00     0.020 A 
ATOM     80  C   UNL A   1      36.021  34.481  29.351  1.00  0.00     0.020 A 
ATOM     81  C   UNL A   1      34.714  34.091  29.648  1.00  0.00     0.054 A 
BRANCH  81  82
ATOM     82  S   UNL A   1      33.309  34.914  28.849  1.00  0.00     0.124 S 
ATOM     83  O   UNL A   1      33.943  36.081  28.246  1.00  0.00    -0.237 OA
ATOM     84  O   UNL A   1      32.834  33.895  27.915  1.00  0.00    -0.237 OA
ATOM     85  O   UNL A   1      32.403  35.195  29.961  1.00  0.00    -0.744 OA
ENDBRANCH  81  82
ENDBRANCH  53  76
BRANCH  65  86
ATOM     86  C   UNL A   1      40.014  34.126  37.052  1.00  0.00    -0.014 A 
ATOM     87  C   UNL A   1      40.778  35.308  37.063  1.00  0.00     0.010 A 
ATOM     88  C   UNL A   1      39.008  33.953  38.020  1.00  0.00     0.010 A 
ATOM     89  C   UNL A   1      40.556  36.284  38.040  1.00  0.00     0.020 A 
ATOM     90  C   UNL A   1      38.768  34.937  38.984  1.00  0.00     0.020 A 
ATOM     91  C   UNL A   1      39.553  36.091  38.994  1.00  0.00     0.054 A 
BRANCH  91  92
ATOM     92  S   UNL A   1      39.252  37.392  40.224  1.00  0.00     0.124 S 
ATOM     93  O   UNL A   1      38.205  38.180  39.581  1.00  0.00    -0.237 OA
ATOM     94  O   UNL A   1      38.834  36.633  41.400  1.00  0.00    -0.237 OA
ATOM     95  O   UNL A   1      40.547  38.057  40.348  1.00  0.00    -0.744 OA
ENDBRANCH  91  92
ENDBRANCH  65  86
ENDBRANCH  39  40
ENDBRANCH  31  34
ENDBRANCH  29  30
ENDBRANCH  28  29
ENDBRANCH  27  28
ENDBRANCH   1  27
TORSDOF 20
ENDMDL
MODEL 3
REMARK VINA RESULT:     -10.7      5.231      9.879
REMARK SMILES C[NH2+][C@@]1(C(=O)NCCCCCCNC(=O)c2ccc(-c3c4nc(c(-c5ccc(S(=O)(=O)[O-])cc5)c5ccc([nH]5)c(-c5ccc(S(=O)(=O)[O-])cc5)c5nc(c(-c6ccc(S(=O)(=O)[O-])cc6)c6ccc3[nH]6)C=C5)C=C4)cc2)CCC[C@H](Oc2cccc(OC)c2)C1
REMARK SMILES IDX 9 1 8 2 7 3 6 4 4 5 5 6 3 8 76 9 89 10 77 11 79 12 78 13
REMARK SMILES IDX 2 14 1 15 80 18 81 19 82 20 88 21 83 22 85 23 84 24 86 25
REMARK SMILES IDX 87 26 10 27 11 28 12 29 13 30 14 31 15 33 16 34 17 35 75 36
REMARK SMILES IDX 18 37 74 38 19 39 20 40 21 41 68 42 22 43 73 44 67 45 69 46
REMARK SMILES IDX 23 47 72 48 66 49 65 50 24 52 54 53 35 54 53 55 36 56 39 57
REMARK SMILES IDX 52 58 70 59 37 60 38 61 51 63 71 64 40 65 25 66 26 67 34 68
REMARK SMILES IDX 27 69 33 70 28 71 29 72 30 73 31 74 32 75 55 76 56 77 64 78
REMARK SMILES IDX 57 79 63 80 58 81 59 82 60 83 61 84 62 85 41 86 42 87 50 88
REMARK SMILES IDX 43 89 49 90 44 91 45 92 46 93 47 94 48 95
REMARK H PARENT 6 7 2 16 2 17 13 32 69 51 39 62
REMARK Flexibility Score: inf
ROOT
ATOM      1  C   UNL A   1      38.259  23.413  26.314  1.00  0.00     0.002 C 
ENDROOT
BRANCH   1   2
ATOM      2  C   UNL A   1      37.075  23.673  25.386  1.00  0.00     0.021 C 
BRANCH   2   3
ATOM      3  C   UNL A   1      36.828  22.737  24.196  1.00  0.00     0.116 C 
BRANCH   3   4
ATOM      4  N   UNL A   1      35.730  23.248  23.363  1.00  0.00    -0.351 N 
ATOM      5  C   UNL A   1      34.388  23.078  23.249  1.00  0.00     0.281 C 
ATOM      6  O   UNL A   1      33.910  23.596  22.222  1.00  0.00    -0.268 OA
ATOM      7  H   UNL A   1      36.062  23.898  22.702  1.00  0.00     0.163 HD
BRANCH   5   8
ATOM      8  C   UNL A   1      33.394  22.408  24.294  1.00  0.00     0.178 C 
ATOM      9  C   UNL A   1      31.924  22.369  23.852  1.00  0.00     0.079 C 
ATOM     10  C   UNL A   1      33.525  23.018  25.709  1.00  0.00     0.124 C 
ATOM     11  C   UNL A   1      30.990  23.375  24.524  1.00  0.00     0.011 C 
ATOM     12  C   UNL A   1      32.992  24.443  25.836  1.00  0.00     0.180 C 
ATOM     13  C   UNL A   1      31.604  24.596  25.201  1.00  0.00     0.046 C 
BRANCH   8  14
ATOM     14  N   UNL A   1      33.768  20.931  24.287  1.00  0.00    -0.336 N 
ATOM     15  C   UNL A   1      34.223  20.364  25.551  1.00  0.00     0.331 C 
ATOM     16  H   UNL A   1      32.945  20.405  23.991  1.00  0.00     0.346 HD
ATOM     17  H   UNL A   1      34.567  20.859  23.656  1.00  0.00     0.346 HD
ENDBRANCH   8  14
BRANCH  12  18
ATOM     18  O   UNL A   1      33.998  25.287  25.259  1.00  0.00    -0.490 OA
BRANCH  18  19
ATOM     19  C   UNL A   1      33.718  26.565  24.866  1.00  0.00     0.123 A 
ATOM     20  C   UNL A   1      33.623  27.016  23.552  1.00  0.00     0.047 A 
ATOM     21  C   UNL A   1      33.676  27.494  25.917  1.00  0.00     0.092 A 
ATOM     22  C   UNL A   1      33.560  28.387  23.288  1.00  0.00     0.008 A 
ATOM     23  C   UNL A   1      33.639  28.861  25.650  1.00  0.00     0.122 A 
ATOM     24  C   UNL A   1      33.577  29.310  24.336  1.00  0.00     0.046 A 
BRANCH  23  25
ATOM     25  O   UNL A   1      33.598  29.798  26.645  1.00  0.00    -0.497 OA
ATOM     26  C   UNL A   1      32.266  30.221  26.929  1.00  0.00     0.278 C 
ENDBRANCH  23  25
ENDBRANCH  18  19
ENDBRANCH  12  18
ENDBRANCH   5   8
ENDBRANCH   3   4
ENDBRANCH   2   3
ENDBRANCH   1   2
BRANCH   1  27
ATOM     27  C   UNL A   1      39.044  22.120  26.115  1.00  0.00     0.002 C 
BRANCH  27  28
ATOM     28  C   UNL A   1      40.424  21.997  26.773  1.00  0.00     0.021 C 
BRANCH  28  29
ATOM     29  C   UNL A   1      41.326  23.225  26.979  1.00  0.00     0.116 C 
BRANCH  29  30
ATOM     30  N   UNL A   1      41.472  24.164  25.885  1.00  0.00    -0.352 N 
ATOM     31  C   UNL A   1      41.590  25.542  25.977  1.00  0.00     0.251 C 
ATOM     32  H   UNL A   1      41.489  23.782  24.978  1.00  0.00     0.163 HD
ATOM     33  O   UNL A   1      41.752  26.223  24.979  1.00  0.00    -0.269 OA
BRANCH  31  34
ATOM     34  C   UNL A   1      41.476  26.191  27.309  1.00  0.00     0.039 A 
ATOM     35  C   UNL A   1      42.556  26.928  27.799  1.00  0.00     0.014 A 
ATOM     36  C   UNL A   1      40.298  26.100  28.055  1.00  0.00     0.014 A 
ATOM     37  C   UNL A   1      42.421  27.648  28.994  1.00  0.00     0.010 A 
ATOM     38  C   UNL A   1      40.153  26.844  29.230  1.00  0.00     0.010 A 
ATOM     39  C   UNL A   1      41.204  27.649  29.699  1.00  0.00    -0.014 A 
BRANCH  39  40
ATOM     40  C   UNL A   1      40.996  28.554  30.866  1.00  0.00     0.031 A 
ATOM     41  C   UNL A   1      39.919  29.606  30.863  1.00  0.00     0.074 A 
ATOM     42  C   UNL A   1      41.836  28.470  31.918  1.00  0.00     0.049 A 
ATOM     43  N   UNL A   1      39.615  30.472  31.798  1.00  0.00    -0.248 NA
ATOM     44  C   UNL A   1      39.093  29.713  29.652  1.00  0.00     0.031 C 
ATOM     45  C   UNL A   1      42.960  27.539  32.030  1.00  0.00     0.029 A 
ATOM     46  N   UNL A   1      41.880  29.183  33.093  1.00  0.00    -0.354 N 
ATOM     47  C   UNL A   1      38.567  31.232  31.289  1.00  0.00     0.074 A 
ATOM     48  C   UNL A   1      38.316  30.747  29.947  1.00  0.00     0.031 C 
ATOM     49  C   UNL A   1      43.567  27.720  33.214  1.00  0.00     0.029 A 
ATOM     50  C   UNL A   1      42.895  28.797  33.936  1.00  0.00     0.049 A 
ATOM     51  H   UNL A   1      41.243  29.901  33.311  1.00  0.00     0.167 HD
ATOM     52  C   UNL A   1      37.868  32.229  31.885  1.00  0.00     0.031 A 
ATOM     53  C   UNL A   1      43.252  29.250  35.154  1.00  0.00     0.031 A 
ATOM     54  C   UNL A   1      38.112  32.714  33.220  1.00  0.00     0.049 A 
ATOM     55  C   UNL A   1      42.454  30.347  35.802  1.00  0.00     0.074 A 
ATOM     56  C   UNL A   1      37.412  33.677  33.927  1.00  0.00     0.029 A 
ATOM     57  N   UNL A   1      39.137  32.281  34.047  1.00  0.00    -0.354 N 
ATOM     58  N   UNL A   1      41.413  30.992  35.335  1.00  0.00    -0.248 NA
ATOM     59  C   UNL A   1      42.871  30.768  37.148  1.00  0.00     0.031 C 
ATOM     60  C   UNL A   1      38.041  33.860  35.164  1.00  0.00     0.029 A 
ATOM     61  C   UNL A   1      39.102  32.973  35.248  1.00  0.00     0.049 A 
ATOM     62  H   UNL A   1      39.793  31.585  33.817  1.00  0.00     0.167 HD
ATOM     63  C   UNL A   1      41.035  31.877  36.338  1.00  0.00     0.074 A 
ATOM     64  C   UNL A   1      41.951  31.677  37.443  1.00  0.00     0.031 C 
ATOM     65  C   UNL A   1      40.018  32.774  36.342  1.00  0.00     0.031 A 
BRANCH  52  66
ATOM     66  C   UNL A   1      36.762  32.875  31.091  1.00  0.00    -0.014 A 
ATOM     67  C   UNL A   1      37.047  33.645  29.950  1.00  0.00     0.010 A 
ATOM     68  C   UNL A   1      35.420  32.669  31.461  1.00  0.00     0.010 A 
ATOM     69  C   UNL A   1      36.012  34.237  29.218  1.00  0.00     0.020 A 
ATOM     70  C   UNL A   1      34.381  33.237  30.717  1.00  0.00     0.020 A 
ATOM     71  C   UNL A   1      34.686  34.034  29.611  1.00  0.00     0.054 A 
BRANCH  71  72
ATOM     72  S   UNL A   1      33.362  34.804  28.637  1.00  0.00     0.124 S 
ATOM     73  O   UNL A   1      32.372  35.111  29.667  1.00  0.00    -0.237 OA
ATOM     74  O   UNL A   1      34.030  35.960  28.044  1.00  0.00    -0.237 OA
ATOM     75  O   UNL A   1      32.975  33.760  27.692  1.00  0.00    -0.744 OA
ENDBRANCH  71  72
ENDBRANCH  52  66
BRANCH  53  76
ATOM     76  C   UNL A   1      44.414  28.641  35.857  1.00  0.00    -0.014 A 
ATOM     77  C   UNL A   1      44.273  27.419  36.539  1.00  0.00     0.010 A 
ATOM     78  C   UNL A   1      45.672  29.269  35.828  1.00  0.00     0.010 A 
ATOM     79  C   UNL A   1      45.368  26.842  37.189  1.00  0.00     0.020 A 
ATOM     80  C   UNL A   1      46.774  28.682  36.456  1.00  0.00     0.020 A 
ATOM     81  C   UNL A   1      46.613  27.475  37.141  1.00  0.00     0.054 A 
BRANCH  81  82
ATOM     82  S   UNL A   1      48.035  26.675  37.932  1.00  0.00     0.124 S 
ATOM     83  O   UNL A   1      47.922  27.146  39.309  1.00  0.00    -0.237 OA
ATOM     84  O   UNL A   1      47.758  25.256  37.722  1.00  0.00    -0.237 OA
ATOM     85  O   UNL A   1      49.178  27.194  37.182  1.00  0.00    -0.744 OA
ENDBRANCH  81  82
ENDBRANCH  53  76
BRANCH  65  86
ATOM     86  C   UNL A   1      39.819  33.594  37.589  1.00  0.00    -0.014 A 
ATOM     87  C   UNL A   1      40.496  34.813  37.774  1.00  0.00     0.010 A 
ATOM     88  C   UNL A   1      38.902  33.165  38.566  1.00  0.00     0.010 A 
ATOM     89  C   UNL A   1      40.279  35.575  38.926  1.00  0.00     0.020 A 
ATOM     90  C   UNL A   1      38.666  33.935  39.708  1.00  0.00     0.020 A 
ATOM     91  C   UNL A   1      39.366  35.129  39.887  1.00  0.00     0.054 A 
BRANCH  91  92
ATOM     92  S   UNL A   1      39.066  36.156  41.353  1.00  0.00     0.124 S 
ATOM     93  O   UNL A   1      38.823  37.468  40.760  1.00  0.00    -0.237 OA
ATOM     94  O   UNL A   1      37.902  35.517  41.961  1.00  0.00    -0.237 OA
ATOM     95  O   UNL A   1      40.305  36.037  42.118  1.00  0.00    -0.744 OA
ENDBRANCH  91  92
ENDBRANCH  65  86
ENDBRANCH  39  40
ENDBRANCH  31  34
ENDBRANCH  29  30
ENDBRANCH  28  29
ENDBRANCH  27  28
ENDBRANCH   1  27
TORSDOF 20
ENDMDL
