MODEL 1
REMARK VINA RESULT:     -12.7      0.000      0.000
REMARK SMILES CC1(C)Oc2ccc(NC(=O)[C@H]3CC=CC[C@@H]3C(=O)NCCCCCCNC(=O)c3ccc(-c4c5nc(c(-c6ccc(S(=O)(=O)[O-])cc6)c6ccc([nH]6)c(-c6ccc(S(=O)(=O)[O-])cc6)c6nc(c(-c7ccc(S(=O)(=O)[O-])cc7)c7ccc4[nH]7)C=C6)C=C5)cc3)cc2NC1=O
REMARK SMILES IDX 24 1 23 2 22 3 21 4 20 5 18 6 19 7 17 9 12 10 13 11 14 12
REMARK SMILES IDX 16 13 15 14 10 15 9 16 11 18 8 19 1 20 2 21 3 22 4 23 93 24
REMARK SMILES IDX 5 25 92 26 94 27 6 28 91 29 7 31 90 32 25 33 26 34 27 35
REMARK SMILES IDX 28 36 29 38 30 39 31 40 89 41 32 42 88 43 33 44 34 45 35 46
REMARK SMILES IDX 82 47 36 48 87 49 81 50 83 51 37 52 86 53 80 54 79 55 38 57
REMARK SMILES IDX 68 58 49 59 67 60 50 61 53 62 66 63 84 64 51 65 52 66 65 68
REMARK SMILES IDX 85 69 54 70 39 71 40 72 48 73 41 74 47 75 42 76 43 77 44 78
REMARK SMILES IDX 45 79 46 80 69 81 70 82 78 83 71 84 77 85 72 86 73 87 74 88
REMARK SMILES IDX 75 89 76 90 55 91 56 92 64 93 57 94 63 95 58 96 59 97 60 98
REMARK SMILES IDX 61 99 62 100
REMARK H PARENT 20 8 9 17 92 30 27 37 83 56 53 67
REMARK Flexibility Score: inf
ROOT
ATOM      1  C   UNL A   1      32.951  29.435  27.250  1.00  0.00     0.002 C 
ENDROOT
BRANCH   1   2
ATOM      2  C   UNL A   1      32.088  28.179  27.422  1.00  0.00     0.002 C 
BRANCH   2   3
ATOM      3  C   UNL A   1      31.693  27.480  26.118  1.00  0.00     0.021 C 
BRANCH   3   4
ATOM      4  C   UNL A   1      30.631  26.403  26.314  1.00  0.00     0.116 C 
BRANCH   4   5
ATOM      5  N   UNL A   1      31.199  25.197  26.891  1.00  0.00    -0.356 N 
ATOM      6  C   UNL A   1      32.033  24.203  26.505  1.00  0.00     0.224 C 
ATOM      7  O   UNL A   1      32.200  23.339  27.378  1.00  0.00    -0.275 OA
ATOM      8  H   UNL A   1      30.894  25.067  27.817  1.00  0.00     0.163 HD
BRANCH   6   9
ATOM      9  C   UNL A   1      32.871  24.153  25.209  1.00  0.00     0.095 C 
ATOM     10  C   UNL A   1      32.148  23.956  23.867  1.00  0.00     0.095 C 
ATOM     11  C   UNL A   1      31.637  22.511  23.692  1.00  0.00     0.041 C 
ATOM     12  C   UNL A   1      32.472  21.444  24.330  1.00  0.00    -0.030 C 
ATOM     13  C   UNL A   1      34.003  23.105  25.367  1.00  0.00     0.041 C 
ATOM     14  C   UNL A   1      33.552  21.708  25.073  1.00  0.00    -0.030 C 
BRANCH  10  15
ATOM     15  C   UNL A   1      33.006  24.445  22.699  1.00  0.00     0.228 C 
ATOM     16  N   UNL A   1      32.860  25.696  22.150  1.00  0.00    -0.326 N 
ATOM     17  H   UNL A   1      33.407  25.813  21.340  1.00  0.00     0.169 HD
ATOM     18  O   UNL A   1      33.844  23.704  22.173  1.00  0.00    -0.274 OA
BRANCH  16  19
ATOM     19  C   UNL A   1      32.115  26.857  22.463  1.00  0.00     0.043 A 
ATOM     20  C   UNL A   1      27.708  31.299  23.617  1.00  0.00     0.067 C 
ATOM     21  C   UNL A   1      28.417  30.168  22.868  1.00  0.00     0.182 C 
ATOM     22  C   UNL A   1      28.329  30.439  21.356  1.00  0.00     0.067 C 
ATOM     23  O   UNL A   1      29.793  30.246  23.253  1.00  0.00    -0.476 OA
ATOM     24  C   UNL A   1      27.728  28.813  23.162  1.00  0.00     0.268 C 
ATOM     25  C   UNL A   1      30.499  29.106  23.002  1.00  0.00     0.144 A 
ATOM     26  N   UNL A   1      28.545  27.711  23.050  1.00  0.00    -0.319 N 
ATOM     27  O   UNL A   1      26.523  28.681  23.355  1.00  0.00    -0.270 OA
ATOM     28  C   UNL A   1      31.863  29.253  22.866  1.00  0.00     0.051 A 
ATOM     29  C   UNL A   1      29.925  27.841  22.888  1.00  0.00     0.086 A 
ATOM     30  H   UNL A   1      28.147  26.812  23.085  1.00  0.00     0.170 HD
ATOM     31  C   UNL A   1      32.647  28.139  22.574  1.00  0.00     0.030 A 
ATOM     32  C   UNL A   1      30.726  26.719  22.627  1.00  0.00     0.056 A 
ENDBRANCH  16  19
ENDBRANCH  10  15
ENDBRANCH   6   9
ENDBRANCH   4   5
ENDBRANCH   3   4
ENDBRANCH   2   3
ENDBRANCH   1   2
BRANCH   1  33
ATOM     33  C   UNL A   1      34.423  29.271  27.633  1.00  0.00     0.021 C 
BRANCH  33  34
ATOM     34  C   UNL A   1      35.184  30.583  27.780  1.00  0.00     0.116 C 
BRANCH  34  35
ATOM     35  N   UNL A   1      35.208  31.052  29.157  1.00  0.00    -0.352 N 
ATOM     36  C   UNL A   1      36.166  30.877  30.126  1.00  0.00     0.251 C 
ATOM     37  H   UNL A   1      34.420  31.571  29.435  1.00  0.00     0.163 HD
ATOM     38  O   UNL A   1      35.919  31.167  31.290  1.00  0.00    -0.269 OA
BRANCH  36  39
ATOM     39  C   UNL A   1      37.485  30.317  29.758  1.00  0.00     0.039 A 
ATOM     40  C   UNL A   1      38.301  29.732  30.727  1.00  0.00     0.014 A 
ATOM     41  C   UNL A   1      37.912  30.386  28.429  1.00  0.00     0.014 A 
ATOM     42  C   UNL A   1      39.606  29.382  30.406  1.00  0.00     0.010 A 
ATOM     43  C   UNL A   1      39.190  29.931  28.088  1.00  0.00     0.010 A 
ATOM     44  C   UNL A   1      40.066  29.468  29.081  1.00  0.00    -0.014 A 
BRANCH  44  45
ATOM     45  C   UNL A   1      41.455  29.040  28.771  1.00  0.00     0.031 A 
ATOM     46  C   UNL A   1      41.754  27.635  28.318  1.00  0.00     0.074 A 
ATOM     47  C   UNL A   1      42.445  29.953  28.838  1.00  0.00     0.049 A 
ATOM     48  N   UNL A   1      42.899  27.126  27.937  1.00  0.00    -0.248 NA
ATOM     49  C   UNL A   1      40.639  26.675  28.292  1.00  0.00     0.031 C 
ATOM     50  C   UNL A   1      42.273  31.345  29.266  1.00  0.00     0.029 A 
ATOM     51  N   UNL A   1      43.777  29.871  28.516  1.00  0.00    -0.354 N 
ATOM     52  C   UNL A   1      42.645  25.793  27.639  1.00  0.00     0.074 A 
ATOM     53  C   UNL A   1      41.247  25.556  27.920  1.00  0.00     0.031 C 
ATOM     54  C   UNL A   1      43.431  31.999  29.109  1.00  0.00     0.029 A 
ATOM     55  C   UNL A   1      44.450  31.064  28.648  1.00  0.00     0.049 A 
ATOM     56  H   UNL A   1      44.209  29.037  28.219  1.00  0.00     0.167 HD
ATOM     57  C   UNL A   1      43.499  24.858  27.157  1.00  0.00     0.031 A 
ATOM     58  C   UNL A   1      45.743  31.378  28.430  1.00  0.00     0.031 A 
ATOM     59  C   UNL A   1      44.887  25.112  26.858  1.00  0.00     0.049 A 
ATOM     60  C   UNL A   1      46.673  30.314  27.924  1.00  0.00     0.074 A 
ATOM     61  C   UNL A   1      45.817  24.239  26.324  1.00  0.00     0.029 A 
ATOM     62  N   UNL A   1      45.544  26.317  27.064  1.00  0.00    -0.354 N 
ATOM     63  N   UNL A   1      46.400  29.072  27.602  1.00  0.00    -0.248 NA
ATOM     64  C   UNL A   1      48.081  30.690  27.744  1.00  0.00     0.031 C 
ATOM     65  C   UNL A   1      47.053  24.886  26.284  1.00  0.00     0.029 A 
ATOM     66  C   UNL A   1      46.877  26.194  26.709  1.00  0.00     0.049 A 
ATOM     67  H   UNL A   1      45.125  27.138  27.411  1.00  0.00     0.167 HD
ATOM     68  C   UNL A   1      47.603  28.516  27.183  1.00  0.00     0.074 A 
ATOM     69  C   UNL A   1      48.595  29.571  27.250  1.00  0.00     0.031 C 
ATOM     70  C   UNL A   1      47.863  27.244  26.795  1.00  0.00     0.031 A 
BRANCH  57  71
ATOM     71  C   UNL A   1      42.979  23.466  26.897  1.00  0.00    -0.014 A 
ATOM     72  C   UNL A   1      42.910  22.540  27.957  1.00  0.00     0.010 A 
ATOM     73  C   UNL A   1      42.710  23.025  25.590  1.00  0.00     0.010 A 
ATOM     74  C   UNL A   1      42.635  21.192  27.707  1.00  0.00     0.020 A 
ATOM     75  C   UNL A   1      42.403  21.683  25.340  1.00  0.00     0.020 A 
ATOM     76  C   UNL A   1      42.398  20.770  26.398  1.00  0.00     0.054 A 
BRANCH  76  77
ATOM     77  S   UNL A   1      42.115  19.005  26.087  1.00  0.00     0.124 S 
ATOM     78  O   UNL A   1      40.691  18.972  25.771  1.00  0.00    -0.237 OA
ATOM     79  O   UNL A   1      43.017  18.731  24.971  1.00  0.00    -0.237 OA
ATOM     80  O   UNL A   1      42.490  18.371  27.348  1.00  0.00    -0.744 OA
ENDBRANCH  76  77
ENDBRANCH  57  71
BRANCH  58  81
ATOM     81  C   UNL A   1      46.203  32.774  28.682  1.00  0.00    -0.014 A 
ATOM     82  C   UNL A   1      46.186  33.724  27.643  1.00  0.00     0.010 A 
ATOM     83  C   UNL A   1      46.744  33.138  29.927  1.00  0.00     0.010 A 
ATOM     84  C   UNL A   1      46.765  34.983  27.820  1.00  0.00     0.020 A 
ATOM     85  C   UNL A   1      47.289  34.412  30.121  1.00  0.00     0.020 A 
ATOM     86  C   UNL A   1      47.327  35.313  29.054  1.00  0.00     0.054 A 
BRANCH  86  87
ATOM     87  S   UNL A   1      48.130  36.929  29.238  1.00  0.00     0.124 S 
ATOM     88  O   UNL A   1      47.938  37.509  27.912  1.00  0.00    -0.237 OA
ATOM     89  O   UNL A   1      47.360  37.547  30.313  1.00  0.00    -0.237 OA
ATOM     90  O   UNL A   1      49.510  36.588  29.577  1.00  0.00    -0.744 OA
ENDBRANCH  86  87
ENDBRANCH  58  81
BRANCH  70  91
ATOM     91  C   UNL A   1      49.285  26.894  26.433  1.00  0.00    -0.014 A 
ATOM     92  C   UNL A   1      49.726  27.013  25.101  1.00  0.00     0.010 A 
ATOM     93  C   UNL A   1      50.153  26.341  27.391  1.00  0.00     0.010 A 
ATOM     94  C   UNL A   1      50.992  26.555  24.728  1.00  0.00     0.020 A 
ATOM     95  C   UNL A   1      51.436  25.917  27.029  1.00  0.00     0.020 A 
ATOM     96  C   UNL A   1      51.836  26.004  25.695  1.00  0.00     0.054 A 
BRANCH  96  97
ATOM     97  S   UNL A   1      53.469  25.401  25.188  1.00  0.00     0.124 S 
ATOM     98  O   UNL A   1      54.364  26.172  26.045  1.00  0.00    -0.237 OA
ATOM     99  O   UNL A   1      53.388  23.972  25.484  1.00  0.00    -0.237 OA
ATOM    100  O   UNL A   1      53.531  25.729  23.765  1.00  0.00    -0.744 OA
ENDBRANCH  96  97
ENDBRANCH  70  91
ENDBRANCH  44  45
ENDBRANCH  36  39
ENDBRANCH  34  35
ENDBRANCH  33  34
ENDBRANCH   1  33
TORSDOF 18
ENDMDL
MODEL 2
REMARK VINA RESULT:     -12.5      3.862     10.084
REMARK SMILES CC1(C)Oc2ccc(NC(=O)[C@H]3CC=CC[C@@H]3C(=O)NCCCCCCNC(=O)c3ccc(-c4c5nc(c(-c6ccc(S(=O)(=O)[O-])cc6)c6ccc([nH]6)c(-c6ccc(S(=O)(=O)[O-])cc6)c6nc(c(-c7ccc(S(=O)(=O)[O-])cc7)c7ccc4[nH]7)C=C6)C=C5)cc3)cc2NC1=O
REMARK SMILES IDX 24 1 23 2 22 3 21 4 20 5 18 6 19 7 17 9 12 10 13 11 14 12
REMARK SMILES IDX 16 13 15 14 10 15 9 16 11 18 8 19 1 20 2 21 3 22 4 23 93 24
REMARK SMILES IDX 5 25 92 26 94 27 6 28 91 29 7 31 90 32 25 33 26 34 27 35
REMARK SMILES IDX 28 36 29 38 30 39 31 40 89 41 32 42 88 43 33 44 34 45 35 46
REMARK SMILES IDX 82 47 36 48 87 49 81 50 83 51 37 52 86 53 80 54 79 55 38 57
REMARK SMILES IDX 68 58 49 59 67 60 50 61 53 62 66 63 84 64 51 65 52 66 65 68
REMARK SMILES IDX 85 69 54 70 39 71 40 72 48 73 41 74 47 75 42 76 43 77 44 78
REMARK SMILES IDX 45 79 46 80 69 81 70 82 78 83 71 84 77 85 72 86 73 87 74 88
REMARK SMILES IDX 75 89 76 90 55 91 56 92 64 93 57 94 63 95 58 96 59 97 60 98
REMARK SMILES IDX 61 99 62 100
REMARK H PARENT 20 8 9 17 92 30 27 37 83 56 53 67
REMARK Flexibility Score: inf
ROOT
ATOM      1  C   UNL A   1      34.918  23.664  24.080  1.00  0.00     0.002 C 
ENDROOT
BRANCH   1   2
ATOM      2  C   UNL A   1      34.377  23.555  22.649  1.00  0.00     0.002 C 
BRANCH   2   3
ATOM      3  C   UNL A   1      32.870  23.783  22.506  1.00  0.00     0.021 C 
BRANCH   3   4
ATOM      4  C   UNL A   1      32.526  25.084  21.789  1.00  0.00     0.116 C 
BRANCH   4   5
ATOM      5  N   UNL A   1      33.290  26.199  22.319  1.00  0.00    -0.356 N 
ATOM      6  C   UNL A   1      33.248  27.015  23.399  1.00  0.00     0.224 C 
ATOM      7  O   UNL A   1      34.138  27.877  23.395  1.00  0.00    -0.275 OA
ATOM      8  H   UNL A   1      34.047  26.424  21.733  1.00  0.00     0.163 HD
BRANCH   6   9
ATOM      9  C   UNL A   1      32.340  26.858  24.638  1.00  0.00     0.095 C 
ATOM     10  C   UNL A   1      31.362  25.674  24.695  1.00  0.00     0.095 C 
ATOM     11  C   UNL A   1      30.166  25.864  23.740  1.00  0.00     0.041 C 
ATOM     12  C   UNL A   1      29.720  27.279  23.531  1.00  0.00    -0.030 C 
ATOM     13  C   UNL A   1      31.586  28.188  24.897  1.00  0.00     0.041 C 
ATOM     14  C   UNL A   1      30.348  28.331  24.067  1.00  0.00    -0.030 C 
BRANCH  10  15
ATOM     15  C   UNL A   1      30.948  25.366  26.135  1.00  0.00     0.228 C 
ATOM     16  N   UNL A   1      31.253  24.175  26.750  1.00  0.00    -0.326 N 
ATOM     17  H   UNL A   1      30.821  24.091  27.632  1.00  0.00     0.169 HD
ATOM     18  O   UNL A   1      30.280  26.172  26.790  1.00  0.00    -0.274 OA
BRANCH  16  19
ATOM     19  C   UNL A   1      32.032  23.039  26.428  1.00  0.00     0.043 A 
ATOM     20  C   UNL A   1      34.524  17.646  24.154  1.00  0.00     0.067 C 
ATOM     21  C   UNL A   1      33.463  18.577  24.744  1.00  0.00     0.182 C 
ATOM     22  C   UNL A   1      32.610  17.787  25.752  1.00  0.00     0.067 C 
ATOM     23  O   UNL A   1      34.182  19.583  25.464  1.00  0.00    -0.476 OA
ATOM     24  C   UNL A   1      32.532  19.107  23.627  1.00  0.00     0.268 C 
ATOM     25  C   UNL A   1      33.446  20.701  25.727  1.00  0.00     0.144 A 
ATOM     26  N   UNL A   1      31.948  20.325  23.889  1.00  0.00    -0.319 N 
ATOM     27  O   UNL A   1      32.213  18.463  22.632  1.00  0.00    -0.270 OA
ATOM     28  C   UNL A   1      33.861  21.463  26.799  1.00  0.00     0.051 A 
ATOM     29  C   UNL A   1      32.338  21.100  24.983  1.00  0.00     0.086 A 
ATOM     30  H   UNL A   1      31.240  20.658  23.292  1.00  0.00     0.170 HD
ATOM     31  C   UNL A   1      33.138  22.601  27.151  1.00  0.00     0.030 A 
ATOM     32  C   UNL A   1      31.635  22.267  25.324  1.00  0.00     0.056 A 
ENDBRANCH  16  19
ENDBRANCH  10  15
ENDBRANCH   6   9
ENDBRANCH   4   5
ENDBRANCH   3   4
ENDBRANCH   2   3
ENDBRANCH   1   2
BRANCH   1  33
ATOM     33  C   UNL A   1      36.319  23.088  24.294  1.00  0.00     0.021 C 
BRANCH  33  34
ATOM     34  C   UNL A   1      36.912  23.368  25.668  1.00  0.00     0.116 C 
BRANCH  34  35
ATOM     35  N   UNL A   1      38.026  22.485  25.977  1.00  0.00    -0.352 N 
ATOM     36  C   UNL A   1      39.274  22.785  26.468  1.00  0.00     0.251 C 
ATOM     37  H   UNL A   1      37.860  21.529  25.808  1.00  0.00     0.163 HD
ATOM     38  O   UNL A   1      40.152  21.933  26.469  1.00  0.00    -0.269 OA
BRANCH  36  39
ATOM     39  C   UNL A   1      39.552  24.148  26.972  1.00  0.00     0.039 A 
ATOM     40  C   UNL A   1      40.117  25.110  26.134  1.00  0.00     0.014 A 
ATOM     41  C   UNL A   1      39.252  24.462  28.300  1.00  0.00     0.014 A 
ATOM     42  C   UNL A   1      40.544  26.319  26.667  1.00  0.00     0.010 A 
ATOM     43  C   UNL A   1      39.585  25.723  28.805  1.00  0.00     0.010 A 
ATOM     44  C   UNL A   1      40.277  26.647  28.007  1.00  0.00    -0.014 A 
BRANCH  44  45
ATOM     45  C   UNL A   1      40.711  27.970  28.527  1.00  0.00     0.031 A 
ATOM     46  C   UNL A   1      39.730  29.101  28.690  1.00  0.00     0.074 A 
ATOM     47  C   UNL A   1      41.993  28.126  28.914  1.00  0.00     0.049 A 
ATOM     48  N   UNL A   1      39.933  30.290  29.200  1.00  0.00    -0.248 NA
ATOM     49  C   UNL A   1      38.351  28.882  28.223  1.00  0.00     0.031 C 
ATOM     50  C   UNL A   1      43.032  27.099  28.801  1.00  0.00     0.029 A 
ATOM     51  N   UNL A   1      42.636  29.180  29.513  1.00  0.00    -0.354 N 
ATOM     52  C   UNL A   1      38.719  30.960  29.104  1.00  0.00     0.074 A 
ATOM     53  C   UNL A   1      37.792  30.064  28.451  1.00  0.00     0.031 C 
ATOM     54  C   UNL A   1      44.156  27.545  29.378  1.00  0.00     0.029 A 
ATOM     55  C   UNL A   1      43.948  28.915  29.832  1.00  0.00     0.049 A 
ATOM     56  H   UNL A   1      42.199  30.044  29.698  1.00  0.00     0.167 HD
ATOM     57  C   UNL A   1      38.405  32.204  29.538  1.00  0.00     0.031 A 
ATOM     58  C   UNL A   1      44.888  29.683  30.417  1.00  0.00     0.031 A 
ATOM     59  C   UNL A   1      39.332  33.082  30.208  1.00  0.00     0.049 A 
ATOM     60  C   UNL A   1      44.519  31.069  30.862  1.00  0.00     0.074 A 
ATOM     61  C   UNL A   1      39.091  34.342  30.724  1.00  0.00     0.029 A 
ATOM     62  N   UNL A   1      40.668  32.799  30.456  1.00  0.00    -0.354 N 
ATOM     63  N   UNL A   1      43.351  31.664  30.806  1.00  0.00    -0.248 NA
ATOM     64  C   UNL A   1      45.586  31.886  31.454  1.00  0.00     0.031 C 
ATOM     65  C   UNL A   1      40.295  34.855  31.208  1.00  0.00     0.029 A 
ATOM     66  C   UNL A   1      41.272  33.880  31.077  1.00  0.00     0.049 A 
ATOM     67  H   UNL A   1      41.119  31.955  30.224  1.00  0.00     0.167 HD
ATOM     68  C   UNL A   1      43.543  32.927  31.353  1.00  0.00     0.074 A 
ATOM     69  C   UNL A   1      44.928  32.992  31.776  1.00  0.00     0.031 C 
ATOM     70  C   UNL A   1      42.656  33.944  31.479  1.00  0.00     0.031 A 
BRANCH  57  71
ATOM     71  C   UNL A   1      37.000  32.712  29.329  1.00  0.00    -0.014 A 
ATOM     72  C   UNL A   1      36.681  33.415  28.150  1.00  0.00     0.010 A 
ATOM     73  C   UNL A   1      36.041  32.635  30.354  1.00  0.00     0.010 A 
ATOM     74  C   UNL A   1      35.456  34.075  28.024  1.00  0.00     0.020 A 
ATOM     75  C   UNL A   1      34.800  33.267  30.218  1.00  0.00     0.020 A 
ATOM     76  C   UNL A   1      34.529  34.009  29.066  1.00  0.00     0.054 A 
BRANCH  76  77
ATOM     77  S   UNL A   1      32.974  34.932  28.912  1.00  0.00     0.124 S 
ATOM     78  O   UNL A   1      32.494  34.958  30.290  1.00  0.00    -0.237 OA
ATOM     79  O   UNL A   1      33.420  36.215  28.373  1.00  0.00    -0.237 OA
ATOM     80  O   UNL A   1      32.184  34.120  27.990  1.00  0.00    -0.744 OA
ENDBRANCH  76  77
ENDBRANCH  57  71
BRANCH  58  81
ATOM     81  C   UNL A   1      46.257  29.128  30.621  1.00  0.00    -0.014 A 
ATOM     82  C   UNL A   1      47.228  29.244  29.608  1.00  0.00     0.010 A 
ATOM     83  C   UNL A   1      46.572  28.403  31.784  1.00  0.00     0.010 A 
ATOM     84  C   UNL A   1      48.455  28.588  29.719  1.00  0.00     0.020 A 
ATOM     85  C   UNL A   1      47.816  27.778  31.917  1.00  0.00     0.020 A 
ATOM     86  C   UNL A   1      48.736  27.846  30.868  1.00  0.00     0.054 A 
BRANCH  86  87
ATOM     87  S   UNL A   1      50.311  26.951  30.960  1.00  0.00     0.124 S 
ATOM     88  O   UNL A   1      49.898  25.590  30.629  1.00  0.00    -0.237 OA
ATOM     89  O   UNL A   1      51.120  27.626  29.950  1.00  0.00    -0.237 OA
ATOM     90  O   UNL A   1      50.741  27.156  32.340  1.00  0.00    -0.744 OA
ENDBRANCH  86  87
ENDBRANCH  58  81
BRANCH  70  91
ATOM     91  C   UNL A   1      43.148  35.240  32.073  1.00  0.00    -0.014 A 
ATOM     92  C   UNL A   1      42.841  35.568  33.408  1.00  0.00     0.010 A 
ATOM     93  C   UNL A   1      43.820  36.185  31.277  1.00  0.00     0.010 A 
ATOM     94  C   UNL A   1      43.165  36.825  33.923  1.00  0.00     0.020 A 
ATOM     95  C   UNL A   1      44.181  37.430  31.801  1.00  0.00     0.020 A 
ATOM     96  C   UNL A   1      43.828  37.750  33.113  1.00  0.00     0.054 A 
BRANCH  96  97
ATOM     97  S   UNL A   1      44.225  39.383  33.795  1.00  0.00     0.124 S 
ATOM     98  O   UNL A   1      42.902  39.964  33.996  1.00  0.00    -0.237 OA
ATOM     99  O   UNL A   1      44.959  39.050  35.015  1.00  0.00    -0.237 OA
ATOM    100  O   UNL A   1      45.029  40.007  32.747  1.00  0.00    -0.744 OA
ENDBRANCH  96  97
ENDBRANCH  70  91
ENDBRANCH  44  45
ENDBRANCH  36  39
ENDBRANCH  34  35
ENDBRANCH  33  34
ENDBRANCH   1  33
TORSDOF 18
ENDMDL
MODEL 3
REMARK VINA RESULT:     -12.2      4.884      8.542
REMARK SMILES CC1(C)Oc2ccc(NC(=O)[C@H]3CC=CC[C@@H]3C(=O)NCCCCCCNC(=O)c3ccc(-c4c5nc(c(-c6ccc(S(=O)(=O)[O-])cc6)c6ccc([nH]6)c(-c6ccc(S(=O)(=O)[O-])cc6)c6nc(c(-c7ccc(S(=O)(=O)[O-])cc7)c7ccc4[nH]7)C=C6)C=C5)cc3)cc2NC1=O
REMARK SMILES IDX 24 1 23 2 22 3 21 4 20 5 18 6 19 7 17 9 12 10 13 11 14 12
REMARK SMILES IDX 16 13 15 14 10 15 9 16 11 18 8 19 1 20 2 21 3 22 4 23 93 24
REMARK SMILES IDX 5 25 92 26 94 27 6 28 91 29 7 31 90 32 25 33 26 34 27 35
REMARK SMILES IDX 28 36 29 38 30 39 31 40 89 41 32 42 88 43 33 44 34 45 35 46
REMARK SMILES IDX 82 47 36 48 87 49 81 50 83 51 37 52 86 53 80 54 79 55 38 57
REMARK SMILES IDX 68 58 49 59 67 60 50 61 53 62 66 63 84 64 51 65 52 66 65 68
REMARK SMILES IDX 85 69 54 70 39 71 40 72 48 73 41 74 47 75 42 76 43 77 44 78
REMARK SMILES IDX 45 79 46 80 69 81 70 82 78 83 71 84 77 85 72 86 73 87 74 88
REMARK SMILES IDX 75 89 76 90 55 91 56 92 64 93 57 94 63 95 58 96 59 97 60 98
REMARK SMILES IDX 61 99 62 100
REMARK H PARENT 20 8 9 17 92 30 27 37 83 56 53 67
REMARK Flexibility Score: inf
ROOT
ATOM      1  C   UNL A   1      36.791  33.152  29.326  1.00  0.00     0.002 C 
ENDROOT
BRANCH   1   2
ATOM      2  C   UNL A   1      38.055  33.845  28.802  1.00  0.00     0.002 C 
BRANCH   2   3
ATOM      3  C   UNL A   1      38.894  34.558  29.866  1.00  0.00     0.021 C 
BRANCH   3   4
ATOM      4  C   UNL A   1      38.443  34.248  31.289  1.00  0.00     0.116 C 
BRANCH   4   5
ATOM      5  N   UNL A   1      39.478  34.570  32.255  1.00  0.00    -0.356 N 
ATOM      6  C   UNL A   1      39.692  34.404  33.582  1.00  0.00     0.224 C 
ATOM      7  O   UNL A   1      40.759  34.900  33.971  1.00  0.00    -0.275 OA
ATOM      8  H   UNL A   1      40.232  35.037  31.829  1.00  0.00     0.163 HD
BRANCH   6   9
ATOM      9  C   UNL A   1      38.846  33.552  34.553  1.00  0.00     0.095 C 
ATOM     10  C   UNL A   1      38.530  34.114  35.948  1.00  0.00     0.095 C 
ATOM     11  C   UNL A   1      39.763  34.095  36.873  1.00  0.00     0.041 C 
ATOM     12  C   UNL A   1      40.727  32.970  36.649  1.00  0.00    -0.030 C 
ATOM     13  C   UNL A   1      39.468  32.137  34.674  1.00  0.00     0.041 C 
ATOM     14  C   UNL A   1      40.587  32.073  35.667  1.00  0.00    -0.030 C 
BRANCH  10  15
ATOM     15  C   UNL A   1      37.302  33.433  36.555  1.00  0.00     0.228 C 
ATOM     16  N   UNL A   1      36.076  33.432  35.932  1.00  0.00    -0.326 N 
ATOM     17  H   UNL A   1      35.371  33.049  36.503  1.00  0.00     0.169 HD
ATOM     18  O   UNL A   1      37.362  32.887  37.661  1.00  0.00    -0.274 OA
BRANCH  16  19
ATOM     19  C   UNL A   1      35.580  33.847  34.675  1.00  0.00     0.043 A 
ATOM     20  C   UNL A   1      32.958  36.806  29.690  1.00  0.00     0.067 C 
ATOM     21  C   UNL A   1      33.071  36.263  31.116  1.00  0.00     0.182 C 
ATOM     22  C   UNL A   1      31.693  35.740  31.561  1.00  0.00     0.067 C 
ATOM     23  O   UNL A   1      33.965  35.149  31.043  1.00  0.00    -0.476 OA
ATOM     24  C   UNL A   1      33.501  37.389  32.088  1.00  0.00     0.268 C 
ATOM     25  C   UNL A   1      34.487  34.783  32.248  1.00  0.00     0.144 A 
ATOM     26  N   UNL A   1      34.172  36.961  33.210  1.00  0.00    -0.319 N 
ATOM     27  O   UNL A   1      33.176  38.566  31.966  1.00  0.00    -0.270 OA
ATOM     28  C   UNL A   1      34.925  33.479  32.351  1.00  0.00     0.051 A 
ATOM     29  C   UNL A   1      34.602  35.639  33.342  1.00  0.00     0.086 A 
ATOM     30  H   UNL A   1      34.353  37.600  33.936  1.00  0.00     0.170 HD
ATOM     31  C   UNL A   1      35.438  33.022  33.563  1.00  0.00     0.030 A 
ATOM     32  C   UNL A   1      35.152  35.180  34.549  1.00  0.00     0.056 A 
ENDBRANCH  16  19
ENDBRANCH  10  15
ENDBRANCH   6   9
ENDBRANCH   4   5
ENDBRANCH   3   4
ENDBRANCH   2   3
ENDBRANCH   1   2
BRANCH   1  33
ATOM     33  C   UNL A   1      35.624  33.090  28.339  1.00  0.00     0.021 C 
BRANCH  33  34
ATOM     34  C   UNL A   1      34.361  32.450  28.898  1.00  0.00     0.116 C 
BRANCH  34  35
ATOM     35  N   UNL A   1      33.885  31.355  28.067  1.00  0.00    -0.352 N 
ATOM     36  C   UNL A   1      34.564  30.266  27.578  1.00  0.00     0.251 C 
ATOM     37  H   UNL A   1      32.934  31.404  27.816  1.00  0.00     0.163 HD
ATOM     38  O   UNL A   1      34.050  29.557  26.722  1.00  0.00    -0.269 OA
BRANCH  36  39
ATOM     39  C   UNL A   1      35.925  29.970  28.076  1.00  0.00     0.039 A 
ATOM     40  C   UNL A   1      37.036  30.155  27.252  1.00  0.00     0.014 A 
ATOM     41  C   UNL A   1      36.090  29.494  29.379  1.00  0.00     0.014 A 
ATOM     42  C   UNL A   1      38.281  29.699  27.664  1.00  0.00     0.010 A 
ATOM     43  C   UNL A   1      37.365  29.137  29.830  1.00  0.00     0.010 A 
ATOM     44  C   UNL A   1      38.465  29.192  28.961  1.00  0.00    -0.014 A 
BRANCH  44  45
ATOM     45  C   UNL A   1      39.824  28.756  29.379  1.00  0.00     0.031 A 
ATOM     46  C   UNL A   1      40.388  27.432  28.933  1.00  0.00     0.074 A 
ATOM     47  C   UNL A   1      40.577  29.598  30.116  1.00  0.00     0.049 A 
ATOM     48  N   UNL A   1      41.582  26.940  29.148  1.00  0.00    -0.248 NA
ATOM     49  C   UNL A   1      39.509  26.543  28.156  1.00  0.00     0.031 C 
ATOM     50  C   UNL A   1      40.133  30.906  30.606  1.00  0.00     0.029 A 
ATOM     51  N   UNL A   1      41.876  29.507  30.550  1.00  0.00    -0.354 N 
ATOM     52  C   UNL A   1      41.594  25.687  28.545  1.00  0.00     0.074 A 
ATOM     53  C   UNL A   1      40.277  25.473  27.990  1.00  0.00     0.031 C 
ATOM     54  C   UNL A   1      41.161  31.522  31.205  1.00  0.00     0.029 A 
ATOM     55  C   UNL A   1      42.313  30.629  31.216  1.00  0.00     0.049 A 
ATOM     56  H   UNL A   1      42.440  28.714  30.398  1.00  0.00     0.167 HD
ATOM     57  C   UNL A   1      42.618  24.807  28.451  1.00  0.00     0.031 A 
ATOM     58  C   UNL A   1      43.503  30.913  31.781  1.00  0.00     0.031 A 
ATOM     59  C   UNL A   1      43.935  25.040  28.990  1.00  0.00     0.049 A 
ATOM     60  C   UNL A   1      44.612  29.904  31.685  1.00  0.00     0.074 A 
ATOM     61  C   UNL A   1      45.048  24.224  28.902  1.00  0.00     0.029 A 
ATOM     62  N   UNL A   1      44.318  26.162  29.710  1.00  0.00    -0.354 N 
ATOM     63  N   UNL A   1      44.616  28.747  31.068  1.00  0.00    -0.248 NA
ATOM     64  C   UNL A   1      45.876  30.238  32.353  1.00  0.00     0.031 C 
ATOM     65  C   UNL A   1      46.079  24.810  29.638  1.00  0.00     0.029 A 
ATOM     66  C   UNL A   1      45.639  26.037  30.111  1.00  0.00     0.049 A 
ATOM     67  H   UNL A   1      43.739  26.933  29.908  1.00  0.00     0.167 HD
ATOM     68  C   UNL A   1      45.881  28.212  31.275  1.00  0.00     0.074 A 
ATOM     69  C   UNL A   1      46.630  29.193  32.036  1.00  0.00     0.031 C 
ATOM     70  C   UNL A   1      46.372  27.010  30.884  1.00  0.00     0.031 A 
BRANCH  57  71
ATOM     71  C   UNL A   1      42.388  23.502  27.728  1.00  0.00    -0.014 A 
ATOM     72  C   UNL A   1      41.671  22.470  28.365  1.00  0.00     0.010 A 
ATOM     73  C   UNL A   1      43.009  23.238  26.494  1.00  0.00     0.010 A 
ATOM     74  C   UNL A   1      41.624  21.188  27.810  1.00  0.00     0.020 A 
ATOM     75  C   UNL A   1      42.937  21.964  25.920  1.00  0.00     0.020 A 
ATOM     76  C   UNL A   1      42.271  20.940  26.597  1.00  0.00     0.054 A 
BRANCH  76  77
ATOM     77  S   UNL A   1      42.259  19.253  25.931  1.00  0.00     0.124 S 
ATOM     78  O   UNL A   1      42.824  18.482  27.035  1.00  0.00    -0.237 OA
ATOM     79  O   UNL A   1      40.841  19.028  25.663  1.00  0.00    -0.237 OA
ATOM     80  O   UNL A   1      43.101  19.349  24.741  1.00  0.00    -0.744 OA
ENDBRANCH  76  77
ENDBRANCH  57  71
BRANCH  58  81
ATOM     81  C   UNL A   1      43.688  32.225  32.465  1.00  0.00    -0.014 A 
ATOM     82  C   UNL A   1      44.087  33.358  31.732  1.00  0.00     0.010 A 
ATOM     83  C   UNL A   1      43.555  32.330  33.861  1.00  0.00     0.010 A 
ATOM     84  C   UNL A   1      44.421  34.547  32.383  1.00  0.00     0.020 A 
ATOM     85  C   UNL A   1      43.850  33.532  34.514  1.00  0.00     0.020 A 
ATOM     86  C   UNL A   1      44.314  34.622  33.773  1.00  0.00     0.054 A 
BRANCH  86  87
ATOM     87  S   UNL A   1      44.816  36.156  34.601  1.00  0.00     0.124 S 
ATOM     88  O   UNL A   1      45.510  36.860  33.527  1.00  0.00    -0.237 OA
ATOM     89  O   UNL A   1      43.537  36.731  35.007  1.00  0.00    -0.237 OA
ATOM     90  O   UNL A   1      45.665  35.692  35.695  1.00  0.00    -0.744 OA
ENDBRANCH  86  87
ENDBRANCH  58  81
BRANCH  70  91
ATOM     91  C   UNL A   1      47.781  26.658  31.289  1.00  0.00    -0.014 A 
ATOM     92  C   UNL A   1      48.860  26.963  30.436  1.00  0.00     0.010 A 
ATOM     93  C   UNL A   1      48.028  25.925  32.464  1.00  0.00     0.010 A 
ATOM     94  C   UNL A   1      50.149  26.513  30.732  1.00  0.00     0.020 A 
ATOM     95  C   UNL A   1      49.323  25.506  32.783  1.00  0.00     0.020 A 
ATOM     96  C   UNL A   1      50.370  25.782  31.902  1.00  0.00     0.054 A 
BRANCH  96  97
ATOM     97  S   UNL A   1      52.047  25.193  32.260  1.00  0.00     0.124 S 
ATOM     98  O   UNL A   1      52.795  25.666  31.100  1.00  0.00    -0.237 OA
ATOM     99  O   UNL A   1      52.357  25.858  33.524  1.00  0.00    -0.237 OA
ATOM    100  O   UNL A   1      51.890  23.743  32.352  1.00  0.00    -0.744 OA
ENDBRANCH  96  97
ENDBRANCH  70  91
ENDBRANCH  44  45
ENDBRANCH  36  39
ENDBRANCH  34  35
ENDBRANCH  33  34
ENDBRANCH   1  33
TORSDOF 18
ENDMDL
