MODEL 1
REMARK VINA RESULT:      -9.9      0.000      0.000
REMARK SMILES CCCNC(=O)CN(C)C(=O)C[N@H+]1CCCC[C@H]1C(=O)NCCCCCCNC(=O)c1ccc(-c2c3nc(c(-c4ccc(S(=O)(=O)[O-])cc4)c4ccc([nH]4)c(-c4ccc(S(=O)(=O)[O-])cc4)c4nc(c(-c5ccc(S(=O)(=O)[O-])cc5)c5ccc2[nH]5)C=C4)C=C3)cc1
REMARK SMILES IDX 22 1 21 2 19 3 20 4 18 6 13 7 14 8 15 10 17 11 16 12 12 13
REMARK SMILES IDX 10 14 11 15 8 16 9 17 7 18 5 19 4 20 6 22 3 23 2 24 1 25
REMARK SMILES IDX 23 26 24 27 25 28 26 29 27 30 28 31 29 32 30 34 31 35 32 36
REMARK SMILES IDX 90 37 33 38 89 39 34 40 35 41 36 42 83 43 37 44 88 45 82 46
REMARK SMILES IDX 84 47 38 48 87 49 81 50 80 51 39 53 69 54 50 55 68 56 51 57
REMARK SMILES IDX 54 58 67 59 85 60 52 61 53 62 66 64 86 65 55 66 40 67 41 68
REMARK SMILES IDX 49 69 42 70 48 71 43 72 44 73 45 74 46 75 47 76 70 77 71 78
REMARK SMILES IDX 79 79 72 80 78 81 73 82 74 83 75 84 76 85 77 86 56 87 57 88
REMARK SMILES IDX 65 89 58 90 64 91 59 92 60 93 61 94 62 95 63 96
REMARK H PARENT 21 5 13 9 4 21 28 33 84 52 54 63
REMARK Flexibility Score: inf
ROOT
ATOM      1  C   UNL A   1      36.770  23.705  25.985  1.00  0.00     0.116 C 
ENDROOT
BRANCH   1   2
ATOM      2  N   UNL A   1      36.459  23.703  24.573  1.00  0.00    -0.351 N 
ATOM      3  C   UNL A   1      35.322  23.351  23.916  1.00  0.00     0.278 C 
ATOM      4  O   UNL A   1      35.425  23.248  22.690  1.00  0.00    -0.268 OA
ATOM      5  H   UNL A   1      37.191  24.009  23.990  1.00  0.00     0.163 HD
BRANCH   3   6
ATOM      6  C   UNL A   1      33.971  23.184  24.687  1.00  0.00     0.274 C 
ATOM      7  N   UNL A   1      32.788  23.620  23.879  1.00  0.00    -0.317 N 
ATOM      8  C   UNL A   1      32.542  22.737  22.732  1.00  0.00     0.263 C 
ATOM      9  H   UNL A   1      31.975  23.533  24.488  1.00  0.00     0.349 HD
ATOM     10  C   UNL A   1      32.263  21.312  23.205  1.00  0.00     0.062 C 
ATOM     11  C   UNL A   1      33.709  21.753  25.189  1.00  0.00     0.076 C 
ATOM     12  C   UNL A   1      33.403  20.781  24.057  1.00  0.00     0.012 C 
BRANCH   7  13
ATOM     13  C   UNL A   1      32.862  25.045  23.494  1.00  0.00     0.364 C 
BRANCH  13  14
ATOM     14  C   UNL A   1      31.631  25.810  24.008  1.00  0.00     0.277 C 
ATOM     15  O   UNL A   1      30.514  25.563  23.543  1.00  0.00    -0.268 OA
BRANCH  14  16
ATOM     16  N   UNL A   1      31.801  26.750  25.023  1.00  0.00    -0.332 N 
ATOM     17  C   UNL A   1      31.575  26.459  26.428  1.00  0.00     0.147 C 
BRANCH  16  18
ATOM     18  C   UNL A   1      32.022  28.141  24.622  1.00  0.00     0.219 C 
BRANCH  18  19
ATOM     19  C   UNL A   1      33.470  28.605  24.398  1.00  0.00     0.239 C 
ATOM     20  N   UNL A   1      34.279  28.957  25.437  1.00  0.00    -0.355 N 
ATOM     21  H   UNL A   1      35.206  29.175  25.187  1.00  0.00     0.163 HD
ATOM     22  O   UNL A   1      33.878  28.864  23.259  1.00  0.00    -0.273 OA
BRANCH  20  23
ATOM     23  C   UNL A   1      33.986  29.058  26.850  1.00  0.00     0.115 C 
BRANCH  23  24
ATOM     24  C   UNL A   1      35.015  29.897  27.597  1.00  0.00     0.018 C 
ATOM     25  C   UNL A   1      34.567  31.339  27.785  1.00  0.00     0.006 C 
ENDBRANCH  23  24
ENDBRANCH  20  23
ENDBRANCH  18  19
ENDBRANCH  16  18
ENDBRANCH  14  16
ENDBRANCH  13  14
ENDBRANCH   7  13
ENDBRANCH   3   6
ENDBRANCH   1   2
BRANCH   1  26
ATOM     26  C   UNL A   1      38.285  23.575  26.180  1.00  0.00     0.021 C 
BRANCH  26  27
ATOM     27  C   UNL A   1      38.794  22.126  26.137  1.00  0.00     0.002 C 
BRANCH  27  28
ATOM     28  C   UNL A   1      40.297  21.966  26.380  1.00  0.00     0.002 C 
BRANCH  28  29
ATOM     29  C   UNL A   1      40.765  22.414  27.767  1.00  0.00     0.021 C 
BRANCH  29  30
ATOM     30  C   UNL A   1      41.805  23.528  27.743  1.00  0.00     0.116 C 
BRANCH  30  31
ATOM     31  N   UNL A   1      41.805  24.241  26.474  1.00  0.00    -0.352 N 
ATOM     32  C   UNL A   1      41.420  25.531  26.212  1.00  0.00     0.251 C 
ATOM     33  H   UNL A   1      42.124  23.726  25.698  1.00  0.00     0.163 HD
ATOM     34  O   UNL A   1      41.272  25.907  25.051  1.00  0.00    -0.269 OA
BRANCH  32  35
ATOM     35  C   UNL A   1      41.168  26.457  27.335  1.00  0.00     0.039 A 
ATOM     36  C   UNL A   1      40.118  26.187  28.216  1.00  0.00     0.014 A 
ATOM     37  C   UNL A   1      41.976  27.582  27.523  1.00  0.00     0.014 A 
ATOM     38  C   UNL A   1      39.918  27.018  29.321  1.00  0.00     0.010 A 
ATOM     39  C   UNL A   1      41.824  28.359  28.666  1.00  0.00     0.010 A 
ATOM     40  C   UNL A   1      40.791  28.088  29.575  1.00  0.00    -0.014 A 
BRANCH  40  41
ATOM     41  C   UNL A   1      40.640  28.935  30.785  1.00  0.00     0.031 A 
ATOM     42  C   UNL A   1      39.593  30.015  30.828  1.00  0.00     0.074 A 
ATOM     43  C   UNL A   1      41.483  28.769  31.824  1.00  0.00     0.049 A 
ATOM     44  N   UNL A   1      39.347  30.887  31.772  1.00  0.00    -0.248 NA
ATOM     45  C   UNL A   1      38.725  30.150  29.646  1.00  0.00     0.031 C 
ATOM     46  C   UNL A   1      42.562  27.778  31.890  1.00  0.00     0.029 A 
ATOM     47  N   UNL A   1      41.569  29.431  33.023  1.00  0.00    -0.354 N 
ATOM     48  C   UNL A   1      38.306  31.676  31.297  1.00  0.00     0.074 A 
ATOM     49  C   UNL A   1      38.007  31.219  29.958  1.00  0.00     0.031 C 
ATOM     50  C   UNL A   1      43.177  27.877  33.078  1.00  0.00     0.029 A 
ATOM     51  C   UNL A   1      42.572  28.965  33.840  1.00  0.00     0.049 A 
ATOM     52  H   UNL A   1      40.969  30.169  33.275  1.00  0.00     0.167 HD
ATOM     53  C   UNL A   1      37.644  32.677  31.926  1.00  0.00     0.031 A 
ATOM     54  C   UNL A   1      42.968  29.372  35.063  1.00  0.00     0.031 A 
ATOM     55  C   UNL A   1      37.945  33.127  33.259  1.00  0.00     0.049 A 
ATOM     56  C   UNL A   1      42.239  30.509  35.726  1.00  0.00     0.074 A 
ATOM     57  C   UNL A   1      37.305  34.106  34.001  1.00  0.00     0.029 A 
ATOM     58  N   UNL A   1      38.973  32.635  34.049  1.00  0.00    -0.354 N 
ATOM     59  N   UNL A   1      41.219  31.205  35.284  1.00  0.00    -0.248 NA
ATOM     60  C   UNL A   1      42.709  30.908  37.060  1.00  0.00     0.031 C 
ATOM     61  C   UNL A   1      37.984  34.246  35.214  1.00  0.00     0.029 A 
ATOM     62  C   UNL A   1      39.003  33.308  35.260  1.00  0.00     0.049 A 
ATOM     63  H   UNL A   1      39.591  31.915  33.788  1.00  0.00     0.167 HD
ATOM     64  C   UNL A   1      40.905  32.103  36.297  1.00  0.00     0.074 A 
ATOM     65  C   UNL A   1      41.835  31.852  37.380  1.00  0.00     0.031 C 
ATOM     66  C   UNL A   1      39.935  33.049  36.329  1.00  0.00     0.031 A 
BRANCH  53  67
ATOM     67  C   UNL A   1      36.529  33.357  31.173  1.00  0.00    -0.014 A 
ATOM     68  C   UNL A   1      35.261  33.537  31.756  1.00  0.00     0.010 A 
ATOM     69  C   UNL A   1      36.762  33.859  29.879  1.00  0.00     0.010 A 
ATOM     70  C   UNL A   1      34.237  34.169  31.045  1.00  0.00     0.020 A 
ATOM     71  C   UNL A   1      35.749  34.520  29.177  1.00  0.00     0.020 A 
ATOM     72  C   UNL A   1      34.487  34.655  29.760  1.00  0.00     0.054 A 
BRANCH  72  73
ATOM     73  S   UNL A   1      33.145  35.490  28.871  1.00  0.00     0.124 S 
ATOM     74  O   UNL A   1      32.592  34.401  28.070  1.00  0.00    -0.237 OA
ATOM     75  O   UNL A   1      32.292  35.967  29.957  1.00  0.00    -0.237 OA
ATOM     76  O   UNL A   1      33.827  36.537  28.113  1.00  0.00    -0.744 OA
ENDBRANCH  72  73
ENDBRANCH  53  67
BRANCH  54  77
ATOM     77  C   UNL A   1      44.104  28.688  35.742  1.00  0.00    -0.014 A 
ATOM     78  C   UNL A   1      45.430  29.070  35.474  1.00  0.00     0.010 A 
ATOM     79  C   UNL A   1      43.864  27.658  36.671  1.00  0.00     0.010 A 
ATOM     80  C   UNL A   1      46.495  28.423  36.108  1.00  0.00     0.020 A 
ATOM     81  C   UNL A   1      44.924  27.030  37.329  1.00  0.00     0.020 A 
ATOM     82  C   UNL A   1      46.235  27.410  37.035  1.00  0.00     0.054 A 
BRANCH  82  83
ATOM     83  S   UNL A   1      47.632  26.621  37.881  1.00  0.00     0.124 S 
ATOM     84  O   UNL A   1      48.773  27.156  37.146  1.00  0.00    -0.237 OA
ATOM     85  O   UNL A   1      47.480  27.101  39.253  1.00  0.00    -0.237 OA
ATOM     86  O   UNL A   1      47.381  25.193  37.697  1.00  0.00    -0.744 OA
ENDBRANCH  82  83
ENDBRANCH  54  77
BRANCH  66  87
ATOM     87  C   UNL A   1      39.797  33.863  37.589  1.00  0.00    -0.014 A 
ATOM     88  C   UNL A   1      40.529  35.050  37.778  1.00  0.00     0.010 A 
ATOM     89  C   UNL A   1      38.875  33.464  38.574  1.00  0.00     0.010 A 
ATOM     90  C   UNL A   1      40.362  35.804  38.943  1.00  0.00     0.020 A 
ATOM     91  C   UNL A   1      38.682  34.232  39.724  1.00  0.00     0.020 A 
ATOM     92  C   UNL A   1      39.437  35.391  39.908  1.00  0.00     0.054 A 
BRANCH  92  93
ATOM     93  S   UNL A   1      39.205  36.415  41.386  1.00  0.00     0.124 S 
ATOM     94  O   UNL A   1      40.507  36.308  42.038  1.00  0.00    -0.237 OA
ATOM     95  O   UNL A   1      38.890  37.725  40.821  1.00  0.00    -0.237 OA
ATOM     96  O   UNL A   1      38.101  35.765  42.089  1.00  0.00    -0.744 OA
ENDBRANCH  92  93
ENDBRANCH  66  87
ENDBRANCH  40  41
ENDBRANCH  32  35
ENDBRANCH  30  31
ENDBRANCH  29  30
ENDBRANCH  28  29
ENDBRANCH  27  28
ENDBRANCH  26  27
ENDBRANCH   1  26
TORSDOF 23
ENDMDL
MODEL 2
REMARK VINA RESULT:      -9.7      6.153     11.685
REMARK SMILES CCCNC(=O)CN(C)C(=O)C[N@H+]1CCCC[C@H]1C(=O)NCCCCCCNC(=O)c1ccc(-c2c3nc(c(-c4ccc(S(=O)(=O)[O-])cc4)c4ccc([nH]4)c(-c4ccc(S(=O)(=O)[O-])cc4)c4nc(c(-c5ccc(S(=O)(=O)[O-])cc5)c5ccc2[nH]5)C=C4)C=C3)cc1
REMARK SMILES IDX 22 1 21 2 19 3 20 4 18 6 13 7 14 8 15 10 17 11 16 12 12 13
REMARK SMILES IDX 10 14 11 15 8 16 9 17 7 18 5 19 4 20 6 22 3 23 2 24 1 25
REMARK SMILES IDX 23 26 24 27 25 28 26 29 27 30 28 31 29 32 30 34 31 35 32 36
REMARK SMILES IDX 90 37 33 38 89 39 34 40 35 41 36 42 83 43 37 44 88 45 82 46
REMARK SMILES IDX 84 47 38 48 87 49 81 50 80 51 39 53 69 54 50 55 68 56 51 57
REMARK SMILES IDX 54 58 67 59 85 60 52 61 53 62 66 64 86 65 55 66 40 67 41 68
REMARK SMILES IDX 49 69 42 70 48 71 43 72 44 73 45 74 46 75 47 76 70 77 71 78
REMARK SMILES IDX 79 79 72 80 78 81 73 82 74 83 75 84 76 85 77 86 56 87 57 88
REMARK SMILES IDX 65 89 58 90 64 91 59 92 60 93 61 94 62 95 63 96
REMARK H PARENT 21 5 13 9 4 21 28 33 84 52 54 63
REMARK Flexibility Score: inf
ROOT
ATOM      1  C   UNL A   1      34.648  28.860  26.778  1.00  0.00     0.116 C 
ENDROOT
BRANCH   1   2
ATOM      2  N   UNL A   1      33.340  28.367  27.151  1.00  0.00    -0.351 N 
ATOM      3  C   UNL A   1      32.276  28.008  26.383  1.00  0.00     0.278 C 
ATOM      4  O   UNL A   1      31.216  27.830  26.992  1.00  0.00    -0.268 OA
ATOM      5  H   UNL A   1      33.196  28.274  28.120  1.00  0.00     0.163 HD
BRANCH   3   6
ATOM      6  C   UNL A   1      32.444  27.759  24.849  1.00  0.00     0.274 C 
ATOM      7  N   UNL A   1      31.620  26.609  24.357  1.00  0.00    -0.317 N 
ATOM      8  C   UNL A   1      30.181  26.890  24.418  1.00  0.00     0.263 C 
ATOM      9  H   UNL A   1      31.848  26.491  23.370  1.00  0.00     0.349 HD
ATOM     10  C   UNL A   1      29.834  28.096  23.546  1.00  0.00     0.062 C 
ATOM     11  C   UNL A   1      32.124  28.987  23.975  1.00  0.00     0.076 C 
ATOM     12  C   UNL A   1      30.638  29.319  23.954  1.00  0.00     0.012 C 
BRANCH   7  13
ATOM     13  C   UNL A   1      31.979  25.336  25.016  1.00  0.00     0.364 C 
BRANCH  13  14
ATOM     14  C   UNL A   1      33.250  24.739  24.388  1.00  0.00     0.277 C 
ATOM     15  O   UNL A   1      34.307  25.375  24.416  1.00  0.00    -0.268 OA
BRANCH  14  16
ATOM     16  N   UNL A   1      33.186  23.465  23.826  1.00  0.00    -0.332 N 
ATOM     17  C   UNL A   1      34.159  22.961  22.873  1.00  0.00     0.147 C 
BRANCH  16  18
ATOM     18  C   UNL A   1      31.968  22.687  24.063  1.00  0.00     0.219 C 
BRANCH  18  19
ATOM     19  C   UNL A   1      32.100  21.353  24.816  1.00  0.00     0.239 C 
ATOM     20  N   UNL A   1      32.352  21.307  26.155  1.00  0.00    -0.355 N 
ATOM     21  H   UNL A   1      32.351  20.405  26.548  1.00  0.00     0.163 HD
ATOM     22  O   UNL A   1      32.180  20.286  24.195  1.00  0.00    -0.273 OA
BRANCH  20  23
ATOM     23  C   UNL A   1      32.619  22.380  27.088  1.00  0.00     0.115 C 
BRANCH  23  24
ATOM     24  C   UNL A   1      34.030  22.316  27.656  1.00  0.00     0.018 C 
ATOM     25  C   UNL A   1      35.089  22.159  26.574  1.00  0.00     0.006 C 
ENDBRANCH  23  24
ENDBRANCH  20  23
ENDBRANCH  18  19
ENDBRANCH  16  18
ENDBRANCH  14  16
ENDBRANCH  13  14
ENDBRANCH   7  13
ENDBRANCH   3   6
ENDBRANCH   1   2
BRANCH   1  26
ATOM     26  C   UNL A   1      35.013  30.066  27.651  1.00  0.00     0.021 C 
BRANCH  26  27
ATOM     27  C   UNL A   1      33.934  31.160  27.681  1.00  0.00     0.002 C 
BRANCH  27  28
ATOM     28  C   UNL A   1      34.355  32.458  28.375  1.00  0.00     0.002 C 
BRANCH  28  29
ATOM     29  C   UNL A   1      35.832  32.819  28.201  1.00  0.00     0.021 C 
BRANCH  29  30
ATOM     30  C   UNL A   1      36.586  33.005  29.512  1.00  0.00     0.116 C 
BRANCH  30  31
ATOM     31  N   UNL A   1      36.175  32.035  30.515  1.00  0.00    -0.352 N 
ATOM     32  C   UNL A   1      36.772  30.850  30.861  1.00  0.00     0.251 C 
ATOM     33  H   UNL A   1      35.356  32.261  31.014  1.00  0.00     0.163 HD
ATOM     34  O   UNL A   1      36.176  30.043  31.572  1.00  0.00    -0.269 OA
BRANCH  32  35
ATOM     35  C   UNL A   1      38.126  30.543  30.358  1.00  0.00     0.039 A 
ATOM     36  C   UNL A   1      39.199  30.546  31.251  1.00  0.00     0.014 A 
ATOM     37  C   UNL A   1      38.331  30.242  29.008  1.00  0.00     0.014 A 
ATOM     38  C   UNL A   1      40.471  30.188  30.799  1.00  0.00     0.010 A 
ATOM     39  C   UNL A   1      39.581  29.809  28.580  1.00  0.00     0.010 A 
ATOM     40  C   UNL A   1      40.665  29.781  29.469  1.00  0.00    -0.014 A 
BRANCH  40  41
ATOM     41  C   UNL A   1      41.994  29.323  28.989  1.00  0.00     0.031 A 
ATOM     42  C   UNL A   1      43.139  30.295  28.889  1.00  0.00     0.074 A 
ATOM     43  C   UNL A   1      42.154  28.046  28.589  1.00  0.00     0.049 A 
ATOM     44  N   UNL A   1      44.353  30.095  28.444  1.00  0.00    -0.248 NA
ATOM     45  C   UNL A   1      42.880  31.678  29.323  1.00  0.00     0.031 C 
ATOM     46  C   UNL A   1      41.111  27.016  28.605  1.00  0.00     0.029 A 
ATOM     47  N   UNL A   1      43.253  27.395  28.087  1.00  0.00    -0.354 N 
ATOM     48  C   UNL A   1      44.998  31.322  28.536  1.00  0.00     0.074 A 
ATOM     49  C   UNL A   1      44.025  32.275  29.023  1.00  0.00     0.031 C 
ATOM     50  C   UNL A   1      41.630  25.858  28.167  1.00  0.00     0.029 A 
ATOM     51  C   UNL A   1      43.025  26.071  27.794  1.00  0.00     0.049 A 
ATOM     52  H   UNL A   1      44.123  27.834  27.951  1.00  0.00     0.167 HD
ATOM     53  C   UNL A   1      46.289  31.626  28.262  1.00  0.00     0.031 A 
ATOM     54  C   UNL A   1      43.843  25.134  27.275  1.00  0.00     0.031 A 
ATOM     55  C   UNL A   1      47.254  30.675  27.778  1.00  0.00     0.049 A 
ATOM     56  C   UNL A   1      45.263  25.504  26.946  1.00  0.00     0.074 A 
ATOM     57  C   UNL A   1      48.597  30.873  27.510  1.00  0.00     0.029 A 
ATOM     58  N   UNL A   1      46.981  29.346  27.487  1.00  0.00    -0.354 N 
ATOM     59  N   UNL A   1      45.870  26.658  27.094  1.00  0.00    -0.248 NA
ATOM     60  C   UNL A   1      46.112  24.442  26.387  1.00  0.00     0.031 C 
ATOM     61  C   UNL A   1      49.121  29.682  26.999  1.00  0.00     0.029 A 
ATOM     62  C   UNL A   1      48.123  28.720  27.015  1.00  0.00     0.049 A 
ATOM     63  H   UNL A   1      46.104  28.912  27.598  1.00  0.00     0.167 HD
ATOM     64  C   UNL A   1      47.181  26.452  26.677  1.00  0.00     0.074 A 
ATOM     65  C   UNL A   1      47.280  25.061  26.285  1.00  0.00     0.031 C 
ATOM     66  C   UNL A   1      48.208  27.335  26.626  1.00  0.00     0.031 A 
BRANCH  53  67
ATOM     67  C   UNL A   1      46.731  33.052  28.473  1.00  0.00    -0.014 A 
ATOM     68  C   UNL A   1      46.624  34.007  27.445  1.00  0.00     0.010 A 
ATOM     69  C   UNL A   1      47.222  33.453  29.729  1.00  0.00     0.010 A 
ATOM     70  C   UNL A   1      47.039  35.325  27.656  1.00  0.00     0.020 A 
ATOM     71  C   UNL A   1      47.608  34.779  29.954  1.00  0.00     0.020 A 
ATOM     72  C   UNL A   1      47.529  35.702  28.908  1.00  0.00     0.054 A 
BRANCH  72  73
ATOM     73  S   UNL A   1      48.038  37.424  29.158  1.00  0.00     0.124 S 
ATOM     74  O   UNL A   1      49.343  37.450  28.502  1.00  0.00    -0.237 OA
ATOM     75  O   UNL A   1      46.981  38.171  28.481  1.00  0.00    -0.237 OA
ATOM     76  O   UNL A   1      48.069  37.572  30.612  1.00  0.00    -0.744 OA
ENDBRANCH  72  73
ENDBRANCH  53  67
BRANCH  54  77
ATOM     77  C   UNL A   1      43.339  23.750  27.050  1.00  0.00    -0.014 A 
ATOM     78  C   UNL A   1      43.075  23.290  25.748  1.00  0.00     0.010 A 
ATOM     79  C   UNL A   1      43.131  22.881  28.136  1.00  0.00     0.010 A 
ATOM     80  C   UNL A   1      42.597  21.993  25.538  1.00  0.00     0.020 A 
ATOM     81  C   UNL A   1      42.682  21.574  27.928  1.00  0.00     0.020 A 
ATOM     82  C   UNL A   1      42.407  21.142  26.630  1.00  0.00     0.054 A 
BRANCH  82  83
ATOM     83  S   UNL A   1      41.833  19.448  26.326  1.00  0.00     0.124 S 
ATOM     84  O   UNL A   1      42.302  18.751  27.520  1.00  0.00    -0.237 OA
ATOM     85  O   UNL A   1      40.386  19.621  26.221  1.00  0.00    -0.237 OA
ATOM     86  O   UNL A   1      42.502  19.079  25.081  1.00  0.00    -0.744 OA
ENDBRANCH  82  83
ENDBRANCH  54  77
BRANCH  66  87
ATOM     87  C   UNL A   1      49.546  26.820  26.164  1.00  0.00    -0.014 A 
ATOM     88  C   UNL A   1      50.009  27.053  24.856  1.00  0.00     0.010 A 
ATOM     89  C   UNL A   1      50.379  26.141  27.073  1.00  0.00     0.010 A 
ATOM     90  C   UNL A   1      51.268  26.591  24.459  1.00  0.00     0.020 A 
ATOM     91  C   UNL A   1      51.649  25.706  26.690  1.00  0.00     0.020 A 
ATOM     92  C   UNL A   1      52.081  25.922  25.380  1.00  0.00     0.054 A 
BRANCH  92  93
ATOM     93  S   UNL A   1      53.728  25.377  24.852  1.00  0.00     0.124 S 
ATOM     94  O   UNL A   1      53.837  25.978  23.526  1.00  0.00    -0.237 OA
ATOM     95  O   UNL A   1      54.597  25.949  25.877  1.00  0.00    -0.237 OA
ATOM     96  O   UNL A   1      53.632  23.919  24.868  1.00  0.00    -0.744 OA
ENDBRANCH  92  93
ENDBRANCH  66  87
ENDBRANCH  40  41
ENDBRANCH  32  35
ENDBRANCH  30  31
ENDBRANCH  29  30
ENDBRANCH  28  29
ENDBRANCH  27  28
ENDBRANCH  26  27
ENDBRANCH   1  26
TORSDOF 23
ENDMDL
MODEL 3
REMARK VINA RESULT:      -9.6      2.618      9.383
REMARK SMILES CCCNC(=O)CN(C)C(=O)C[N@H+]1CCCC[C@H]1C(=O)NCCCCCCNC(=O)c1ccc(-c2c3nc(c(-c4ccc(S(=O)(=O)[O-])cc4)c4ccc([nH]4)c(-c4ccc(S(=O)(=O)[O-])cc4)c4nc(c(-c5ccc(S(=O)(=O)[O-])cc5)c5ccc2[nH]5)C=C4)C=C3)cc1
REMARK SMILES IDX 22 1 21 2 19 3 20 4 18 6 13 7 14 8 15 10 17 11 16 12 12 13
REMARK SMILES IDX 10 14 11 15 8 16 9 17 7 18 5 19 4 20 6 22 3 23 2 24 1 25
REMARK SMILES IDX 23 26 24 27 25 28 26 29 27 30 28 31 29 32 30 34 31 35 32 36
REMARK SMILES IDX 90 37 33 38 89 39 34 40 35 41 36 42 83 43 37 44 88 45 82 46
REMARK SMILES IDX 84 47 38 48 87 49 81 50 80 51 39 53 69 54 50 55 68 56 51 57
REMARK SMILES IDX 54 58 67 59 85 60 52 61 53 62 66 64 86 65 55 66 40 67 41 68
REMARK SMILES IDX 49 69 42 70 48 71 43 72 44 73 45 74 46 75 47 76 70 77 71 78
REMARK SMILES IDX 79 79 72 80 78 81 73 82 74 83 75 84 76 85 77 86 56 87 57 88
REMARK SMILES IDX 65 89 58 90 64 91 59 92 60 93 61 94 62 95 63 96
REMARK H PARENT 21 5 13 9 4 21 28 33 84 52 54 63
REMARK Flexibility Score: inf
ROOT
ATOM      1  C   UNL A   1      35.225  29.259  27.593  1.00  0.00     0.116 C 
ENDROOT
BRANCH   1   2
ATOM      2  N   UNL A   1      33.823  29.043  27.872  1.00  0.00    -0.351 N 
ATOM      3  C   UNL A   1      32.808  28.644  27.059  1.00  0.00     0.278 C 
ATOM      4  O   UNL A   1      31.672  28.757  27.531  1.00  0.00    -0.268 OA
ATOM      5  H   UNL A   1      33.558  29.211  28.805  1.00  0.00     0.163 HD
BRANCH   3   6
ATOM      6  C   UNL A   1      33.105  28.005  25.663  1.00  0.00     0.274 C 
ATOM      7  N   UNL A   1      32.369  26.718  25.450  1.00  0.00    -0.317 N 
ATOM      8  C   UNL A   1      30.919  26.918  25.340  1.00  0.00     0.263 C 
ATOM      9  H   UNL A   1      32.678  26.355  24.548  1.00  0.00     0.349 HD
ATOM     10  C   UNL A   1      30.592  27.824  24.154  1.00  0.00     0.062 C 
ATOM     11  C   UNL A   1      32.804  28.933  24.472  1.00  0.00     0.076 C 
ATOM     12  C   UNL A   1      31.312  29.157  24.266  1.00  0.00     0.012 C 
BRANCH   7  13
ATOM     13  C   UNL A   1      32.727  25.691  26.450  1.00  0.00     0.364 C 
BRANCH  13  14
ATOM     14  C   UNL A   1      33.198  24.401  25.758  1.00  0.00     0.277 C 
ATOM     15  O   UNL A   1      34.285  24.377  25.173  1.00  0.00    -0.268 OA
BRANCH  14  16
ATOM     16  N   UNL A   1      32.393  23.265  25.837  1.00  0.00    -0.332 N 
ATOM     17  C   UNL A   1      31.101  23.245  26.498  1.00  0.00     0.147 C 
BRANCH  16  18
ATOM     18  C   UNL A   1      32.981  21.994  25.407  1.00  0.00     0.219 C 
BRANCH  18  19
ATOM     19  C   UNL A   1      32.460  21.363  24.105  1.00  0.00     0.239 C 
ATOM     20  N   UNL A   1      32.425  20.012  23.927  1.00  0.00    -0.355 N 
ATOM     21  H   UNL A   1      32.013  19.714  23.085  1.00  0.00     0.163 HD
ATOM     22  O   UNL A   1      32.246  22.064  23.109  1.00  0.00    -0.273 OA
BRANCH  20  23
ATOM     23  C   UNL A   1      32.899  18.949  24.785  1.00  0.00     0.115 C 
BRANCH  23  24
ATOM     24  C   UNL A   1      34.167  18.296  24.252  1.00  0.00     0.018 C 
ATOM     25  C   UNL A   1      33.889  16.987  23.526  1.00  0.00     0.006 C 
ENDBRANCH  23  24
ENDBRANCH  20  23
ENDBRANCH  18  19
ENDBRANCH  16  18
ENDBRANCH  14  16
ENDBRANCH  13  14
ENDBRANCH   7  13
ENDBRANCH   3   6
ENDBRANCH   1   2
BRANCH   1  26
ATOM     26  C   UNL A   1      35.717  30.499  28.347  1.00  0.00     0.021 C 
BRANCH  26  27
ATOM     27  C   UNL A   1      35.338  31.826  27.673  1.00  0.00     0.002 C 
BRANCH  27  28
ATOM     28  C   UNL A   1      35.961  33.071  28.310  1.00  0.00     0.002 C 
BRANCH  28  29
ATOM     29  C   UNL A   1      35.009  34.262  28.437  1.00  0.00     0.021 C 
BRANCH  29  30
ATOM     30  C   UNL A   1      33.549  33.873  28.638  1.00  0.00     0.116 C 
BRANCH  30  31
ATOM     31  N   UNL A   1      32.878  34.760  29.576  1.00  0.00    -0.352 N 
ATOM     32  C   UNL A   1      33.108  34.926  30.918  1.00  0.00     0.251 C 
ATOM     33  H   UNL A   1      32.160  35.316  29.195  1.00  0.00     0.163 HD
ATOM     34  O   UNL A   1      32.306  35.551  31.609  1.00  0.00    -0.269 OA
BRANCH  32  35
ATOM     35  C   UNL A   1      34.316  34.334  31.527  1.00  0.00     0.039 A 
ATOM     36  C   UNL A   1      34.333  32.967  31.813  1.00  0.00     0.014 A 
ATOM     37  C   UNL A   1      35.433  35.127  31.803  1.00  0.00     0.014 A 
ATOM     38  C   UNL A   1      35.496  32.386  32.323  1.00  0.00     0.010 A 
ATOM     39  C   UNL A   1      36.613  34.531  32.234  1.00  0.00     0.010 A 
ATOM     40  C   UNL A   1      36.656  33.156  32.504  1.00  0.00    -0.014 A 
BRANCH  40  41
ATOM     41  C   UNL A   1      37.924  32.540  32.971  1.00  0.00     0.031 A 
ATOM     42  C   UNL A   1      38.435  32.821  34.359  1.00  0.00     0.074 A 
ATOM     43  C   UNL A   1      38.644  31.775  32.127  1.00  0.00     0.049 A 
ATOM     44  N   UNL A   1      39.544  32.420  34.925  1.00  0.00    -0.248 NA
ATOM     45  C   UNL A   1      37.604  33.685  35.214  1.00  0.00     0.031 C 
ATOM     46  C   UNL A   1      38.272  31.456  30.746  1.00  0.00     0.029 A 
ATOM     47  N   UNL A   1      39.842  31.127  32.304  1.00  0.00    -0.354 N 
ATOM     48  C   UNL A   1      39.549  32.986  36.194  1.00  0.00     0.074 A 
ATOM     49  C   UNL A   1      38.362  33.807  36.294  1.00  0.00     0.031 C 
ATOM     50  C   UNL A   1      39.204  30.648  30.215  1.00  0.00     0.029 A 
ATOM     51  C   UNL A   1      40.262  30.430  31.196  1.00  0.00     0.049 A 
ATOM     52  H   UNL A   1      40.351  31.159  33.146  1.00  0.00     0.167 HD
ATOM     53  C   UNL A   1      40.447  32.822  37.194  1.00  0.00     0.031 A 
ATOM     54  C   UNL A   1      41.378  29.703  30.989  1.00  0.00     0.031 A 
ATOM     55  C   UNL A   1      41.626  32.004  37.090  1.00  0.00     0.049 A 
ATOM     56  C   UNL A   1      42.378  29.563  32.104  1.00  0.00     0.074 A 
ATOM     57  C   UNL A   1      42.577  31.739  38.061  1.00  0.00     0.029 A 
ATOM     58  N   UNL A   1      42.020  31.321  35.949  1.00  0.00    -0.354 N 
ATOM     59  N   UNL A   1      42.335  30.061  33.317  1.00  0.00    -0.248 NA
ATOM     60  C   UNL A   1      43.573  28.755  31.824  1.00  0.00     0.031 C 
ATOM     61  C   UNL A   1      43.576  30.946  37.488  1.00  0.00     0.029 A 
ATOM     62  C   UNL A   1      43.213  30.658  36.182  1.00  0.00     0.049 A 
ATOM     63  H   UNL A   1      41.524  31.310  35.098  1.00  0.00     0.167 HD
ATOM     64  C   UNL A   1      43.481  29.600  33.956  1.00  0.00     0.074 A 
ATOM     65  C   UNL A   1      44.188  28.773  32.999  1.00  0.00     0.031 C 
ATOM     66  C   UNL A   1      43.908  29.839  35.220  1.00  0.00     0.031 A 
BRANCH  53  67
ATOM     67  C   UNL A   1      40.190  33.550  38.489  1.00  0.00    -0.014 A 
ATOM     68  C   UNL A   1      40.646  34.866  38.688  1.00  0.00     0.010 A 
ATOM     69  C   UNL A   1      39.447  32.924  39.508  1.00  0.00     0.010 A 
ATOM     70  C   UNL A   1      40.401  35.527  39.895  1.00  0.00     0.020 A 
ATOM     71  C   UNL A   1      39.173  33.594  40.705  1.00  0.00     0.020 A 
ATOM     72  C   UNL A   1      39.667  34.887  40.896  1.00  0.00     0.054 A 
BRANCH  72  73
ATOM     73  S   UNL A   1      39.346  35.778  42.442  1.00  0.00     0.124 S 
ATOM     74  O   UNL A   1      40.271  35.123  43.364  1.00  0.00    -0.237 OA
ATOM     75  O   UNL A   1      39.681  37.156  42.091  1.00  0.00    -0.237 OA
ATOM     76  O   UNL A   1      37.930  35.530  42.700  1.00  0.00    -0.744 OA
ENDBRANCH  72  73
ENDBRANCH  53  67
BRANCH  54  77
ATOM     77  C   UNL A   1      41.598  29.039  29.673  1.00  0.00    -0.014 A 
ATOM     78  C   UNL A   1      41.984  29.792  28.550  1.00  0.00     0.010 A 
ATOM     79  C   UNL A   1      41.434  27.648  29.539  1.00  0.00     0.010 A 
ATOM     80  C   UNL A   1      42.185  29.168  27.315  1.00  0.00     0.020 A 
ATOM     81  C   UNL A   1      41.663  27.017  28.314  1.00  0.00     0.020 A 
ATOM     82  C   UNL A   1      42.027  27.784  27.206  1.00  0.00     0.054 A 
BRANCH  82  83
ATOM     83  S   UNL A   1      42.342  26.993  25.604  1.00  0.00     0.124 S 
ATOM     84  O   UNL A   1      41.113  26.235  25.393  1.00  0.00    -0.237 OA
ATOM     85  O   UNL A   1      42.539  28.140  24.721  1.00  0.00    -0.237 OA
ATOM     86  O   UNL A   1      43.539  26.192  25.849  1.00  0.00    -0.744 OA
ENDBRANCH  82  83
ENDBRANCH  54  77
BRANCH  66  87
ATOM     87  C   UNL A   1      45.182  29.169  35.663  1.00  0.00    -0.014 A 
ATOM     88  C   UNL A   1      45.174  27.881  36.228  1.00  0.00     0.010 A 
ATOM     89  C   UNL A   1      46.413  29.817  35.455  1.00  0.00     0.010 A 
ATOM     90  C   UNL A   1      46.373  27.267  36.604  1.00  0.00     0.020 A 
ATOM     91  C   UNL A   1      47.615  29.194  35.800  1.00  0.00     0.020 A 
ATOM     92  C   UNL A   1      47.586  27.927  36.385  1.00  0.00     0.054 A 
BRANCH  92  93
ATOM     93  S   UNL A   1      49.128  27.087  36.837  1.00  0.00     0.124 S 
ATOM     94  O   UNL A   1      49.651  27.955  37.888  1.00  0.00    -0.237 OA
ATOM     95  O   UNL A   1      48.660  25.776  37.279  1.00  0.00    -0.237 OA
ATOM     96  O   UNL A   1      49.897  27.082  35.594  1.00  0.00    -0.744 OA
ENDBRANCH  92  93
ENDBRANCH  66  87
ENDBRANCH  40  41
ENDBRANCH  32  35
ENDBRANCH  30  31
ENDBRANCH  29  30
ENDBRANCH  28  29
ENDBRANCH  27  28
ENDBRANCH  26  27
ENDBRANCH   1  26
TORSDOF 23
ENDMDL
