MODEL 1
REMARK VINA RESULT:     -11.9      0.000      0.000
REMARK SMILES COc1ccc(S(=O)(=O)N2CCCC[C@@H]2C(=O)NCCCCCCNC(=O)c2ccc(-c3c4nc(c(-c5ccc(S(=O)(=O)[O-])cc5)c5ccc([nH]5)c(-c5ccc(S(=O)(=O)[O-])cc5)c5nc(c(-c6ccc(S(=O)(=O)[O-])cc6)c6ccc3[nH]6)C=C5)C=C4)cc2)cc1C
REMARK SMILES IDX 21 1 20 2 19 3 18 4 16 5 17 6 15 8 10 9 11 10 12 11 14 12
REMARK SMILES IDX 13 13 7 14 8 15 9 16 6 17 3 18 4 19 89 20 5 21 88 22 90 23
REMARK SMILES IDX 2 24 1 25 22 26 23 27 24 28 25 29 26 30 27 32 28 33 29 34
REMARK SMILES IDX 87 35 30 36 86 37 31 38 32 39 33 40 80 41 34 42 85 43 79 44
REMARK SMILES IDX 81 45 35 46 84 47 78 48 77 49 36 51 66 52 47 53 65 54 48 55
REMARK SMILES IDX 51 56 64 57 82 58 49 59 50 60 63 62 83 63 52 64 37 65 38 66
REMARK SMILES IDX 46 67 39 68 45 69 40 70 41 71 42 72 43 73 44 74 67 75 68 76
REMARK SMILES IDX 76 77 69 78 75 79 70 80 71 81 72 82 73 83 74 84 53 85 54 86
REMARK SMILES IDX 62 87 55 88 61 89 56 90 57 91 58 92 59 93 60 94
REMARK H PARENT 18 7 25 31 81 50 51 61
REMARK Flexibility Score: inf
ROOT
ATOM      1  C   UNL A   1      31.048  29.020  23.559  1.00  0.00     0.002 C 
ENDROOT
BRANCH   1   2
ATOM      2  C   UNL A   1      30.664  27.556  23.306  1.00  0.00     0.021 C 
BRANCH   2   3
ATOM      3  C   UNL A   1      31.820  26.572  23.481  1.00  0.00     0.116 C 
BRANCH   3   4
ATOM      4  N   UNL A   1      31.438  25.262  22.995  1.00  0.00    -0.355 N 
ATOM      5  C   UNL A   1      31.588  24.042  23.581  1.00  0.00     0.238 C 
ATOM      6  O   UNL A   1      31.303  23.031  22.933  1.00  0.00    -0.273 OA
ATOM      7  H   UNL A   1      31.005  25.252  22.110  1.00  0.00     0.163 HD
BRANCH   5   8
ATOM      8  C   UNL A   1      32.123  23.918  25.010  1.00  0.00     0.162 C 
ATOM      9  N   UNL A   1      33.446  23.202  25.096  1.00  0.00    -0.185 NA
ATOM     10  C   UNL A   1      33.876  22.665  26.414  1.00  0.00     0.103 C 
ATOM     11  C   UNL A   1      32.733  22.059  27.208  1.00  0.00     0.017 C 
ATOM     12  C   UNL A   1      31.043  23.344  25.937  1.00  0.00     0.030 C 
ATOM     13  C   UNL A   1      31.574  23.030  27.325  1.00  0.00     0.004 C 
BRANCH   9  14
ATOM     14  S   UNL A   1      34.744  23.826  24.144  1.00  0.00     0.243 S 
ATOM     15  O   UNL A   1      34.859  25.253  24.384  1.00  0.00    -0.207 OA
ATOM     16  O   UNL A   1      34.581  23.320  22.801  1.00  0.00    -0.207 OA
BRANCH  14  17
ATOM     17  C   UNL A   1      36.256  23.094  24.755  1.00  0.00     0.083 A 
ATOM     18  C   UNL A   1      38.601  21.998  25.828  1.00  0.00     0.121 A 
ATOM     19  C   UNL A   1      38.262  23.334  26.075  1.00  0.00     0.048 A 
ATOM     20  C   UNL A   1      37.744  21.185  25.077  1.00  0.00    -0.008 A 
ATOM     21  C   UNL A   1      37.089  23.883  25.550  1.00  0.00     0.025 A 
ATOM     22  C   UNL A   1      36.605  21.767  24.503  1.00  0.00     0.029 A 
ATOM     23  C   UNL A   1      37.946  19.712  24.867  1.00  0.00     0.048 C 
BRANCH  18  24
ATOM     24  O   UNL A   1      39.743  21.554  26.441  1.00  0.00    -0.496 OA
ATOM     25  C   UNL A   1      40.275  22.470  27.395  1.00  0.00     0.278 C 
ENDBRANCH  18  24
ENDBRANCH  14  17
ENDBRANCH   9  14
ENDBRANCH   5   8
ENDBRANCH   3   4
ENDBRANCH   2   3
ENDBRANCH   1   2
BRANCH   1  26
ATOM     26  C   UNL A   1      32.294  29.244  24.433  1.00  0.00     0.002 C 
BRANCH  26  27
ATOM     27  C   UNL A   1      32.043  29.347  25.939  1.00  0.00     0.021 C 
BRANCH  27  28
ATOM     28  C   UNL A   1      33.311  29.380  26.765  1.00  0.00     0.116 C 
BRANCH  28  29
ATOM     29  N   UNL A   1      34.003  30.659  26.755  1.00  0.00    -0.352 N 
ATOM     30  C   UNL A   1      34.799  31.091  27.811  1.00  0.00     0.251 C 
ATOM     31  H   UNL A   1      33.904  31.243  25.969  1.00  0.00     0.163 HD
ATOM     32  O   UNL A   1      34.711  32.189  28.341  1.00  0.00    -0.269 OA
BRANCH  30  33
ATOM     33  C   UNL A   1      35.874  30.154  28.197  1.00  0.00     0.039 A 
ATOM     34  C   UNL A   1      35.869  29.619  29.490  1.00  0.00     0.014 A 
ATOM     35  C   UNL A   1      37.005  30.093  27.391  1.00  0.00     0.014 A 
ATOM     36  C   UNL A   1      37.069  29.212  30.054  1.00  0.00     0.010 A 
ATOM     37  C   UNL A   1      38.205  29.862  27.995  1.00  0.00     0.010 A 
ATOM     38  C   UNL A   1      38.229  29.448  29.329  1.00  0.00    -0.014 A 
BRANCH  38  39
ATOM     39  C   UNL A   1      39.568  29.165  29.780  1.00  0.00     0.031 A 
ATOM     40  C   UNL A   1      40.124  27.874  29.352  1.00  0.00     0.074 A 
ATOM     41  C   UNL A   1      40.288  30.202  30.251  1.00  0.00     0.049 A 
ATOM     42  N   UNL A   1      41.227  27.391  29.783  1.00  0.00    -0.248 NA
ATOM     43  C   UNL A   1      39.446  26.988  28.400  1.00  0.00     0.031 C 
ATOM     44  C   UNL A   1      41.732  30.363  30.340  1.00  0.00     0.029 A 
ATOM     45  N   UNL A   1      39.785  31.288  30.961  1.00  0.00    -0.354 N 
ATOM     46  C   UNL A   1      41.577  26.371  28.926  1.00  0.00     0.074 A 
ATOM     47  C   UNL A   1      40.383  26.062  28.183  1.00  0.00     0.031 C 
ATOM     48  C   UNL A   1      42.005  31.305  31.265  1.00  0.00     0.029 A 
ATOM     49  C   UNL A   1      40.748  31.640  31.921  1.00  0.00     0.049 A 
ATOM     50  H   UNL A   1      38.916  31.727  30.817  1.00  0.00     0.167 HD
ATOM     51  C   UNL A   1      42.893  26.044  28.843  1.00  0.00     0.031 A 
ATOM     52  C   UNL A   1      40.469  31.373  33.237  1.00  0.00     0.031 A 
ATOM     53  C   UNL A   1      43.658  26.787  29.849  1.00  0.00     0.049 A 
ATOM     54  C   UNL A   1      41.318  30.244  33.810  1.00  0.00     0.074 A 
ATOM     55  C   UNL A   1      44.481  27.898  29.805  1.00  0.00     0.029 A 
ATOM     56  N   UNL A   1      43.295  26.633  31.178  1.00  0.00    -0.354 N 
ATOM     57  N   UNL A   1      42.074  29.450  33.099  1.00  0.00    -0.248 NA
ATOM     58  C   UNL A   1      41.366  29.907  35.230  1.00  0.00     0.031 C 
ATOM     59  C   UNL A   1      44.572  28.428  31.129  1.00  0.00     0.029 A 
ATOM     60  C   UNL A   1      43.835  27.619  31.975  1.00  0.00     0.049 A 
ATOM     61  H   UNL A   1      42.721  25.906  31.512  1.00  0.00     0.167 HD
ATOM     62  C   UNL A   1      42.693  28.527  33.902  1.00  0.00     0.074 A 
ATOM     63  C   UNL A   1      42.188  28.840  35.230  1.00  0.00     0.031 C 
ATOM     64  C   UNL A   1      43.552  27.581  33.407  1.00  0.00     0.031 A 
BRANCH  51  65
ATOM     65  C   UNL A   1      43.533  25.251  27.730  1.00  0.00    -0.014 A 
ATOM     66  C   UNL A   1      44.837  24.755  27.930  1.00  0.00     0.010 A 
ATOM     67  C   UNL A   1      42.964  25.003  26.464  1.00  0.00     0.010 A 
ATOM     68  C   UNL A   1      45.551  24.099  26.919  1.00  0.00     0.020 A 
ATOM     69  C   UNL A   1      43.666  24.345  25.441  1.00  0.00     0.020 A 
ATOM     70  C   UNL A   1      44.963  23.905  25.673  1.00  0.00     0.054 A 
BRANCH  70  71
ATOM     71  S   UNL A   1      45.914  23.073  24.378  1.00  0.00     0.124 S 
ATOM     72  O   UNL A   1      44.894  22.805  23.367  1.00  0.00    -0.237 OA
ATOM     73  O   UNL A   1      46.907  24.083  24.020  1.00  0.00    -0.237 OA
ATOM     74  O   UNL A   1      46.448  21.888  25.045  1.00  0.00    -0.744 OA
ENDBRANCH  70  71
ENDBRANCH  51  65
BRANCH  52  75
ATOM     75  C   UNL A   1      39.024  31.660  33.562  1.00  0.00    -0.014 A 
ATOM     76  C   UNL A   1      38.669  33.021  33.743  1.00  0.00     0.010 A 
ATOM     77  C   UNL A   1      38.014  30.755  33.187  1.00  0.00     0.010 A 
ATOM     78  C   UNL A   1      37.415  33.496  33.338  1.00  0.00     0.020 A 
ATOM     79  C   UNL A   1      36.745  31.230  32.807  1.00  0.00     0.020 A 
ATOM     80  C   UNL A   1      36.488  32.605  32.802  1.00  0.00     0.054 A 
BRANCH  80  81
ATOM     81  S   UNL A   1      35.041  33.288  31.927  1.00  0.00     0.124 S 
ATOM     82  O   UNL A   1      34.390  32.084  31.418  1.00  0.00    -0.237 OA
ATOM     83  O   UNL A   1      34.326  33.991  32.996  1.00  0.00    -0.237 OA
ATOM     84  O   UNL A   1      35.634  34.151  30.913  1.00  0.00    -0.744 OA
ENDBRANCH  80  81
ENDBRANCH  52  75
BRANCH  64  85
ATOM     85  C   UNL A   1      44.197  26.466  34.208  1.00  0.00    -0.014 A 
ATOM     86  C   UNL A   1      45.569  26.381  34.473  1.00  0.00     0.010 A 
ATOM     87  C   UNL A   1      43.401  25.384  34.668  1.00  0.00     0.010 A 
ATOM     88  C   UNL A   1      46.094  25.336  35.250  1.00  0.00     0.020 A 
ATOM     89  C   UNL A   1      43.909  24.331  35.424  1.00  0.00     0.020 A 
ATOM     90  C   UNL A   1      45.256  24.328  35.735  1.00  0.00     0.054 A 
BRANCH  90  91
ATOM     91  S   UNL A   1      45.953  22.993  36.730  1.00  0.00     0.124 S 
ATOM     92  O   UNL A   1      45.348  21.807  36.128  1.00  0.00    -0.237 OA
ATOM     93  O   UNL A   1      47.385  23.158  36.495  1.00  0.00    -0.237 OA
ATOM     94  O   UNL A   1      45.507  23.295  38.087  1.00  0.00    -0.744 OA
ENDBRANCH  90  91
ENDBRANCH  64  85
ENDBRANCH  38  39
ENDBRANCH  30  33
ENDBRANCH  28  29
ENDBRANCH  27  28
ENDBRANCH  26  27
ENDBRANCH   1  26
TORSDOF 19
ENDMDL
MODEL 2
REMARK VINA RESULT:     -11.8      1.782      2.568
REMARK SMILES COc1ccc(S(=O)(=O)N2CCCC[C@@H]2C(=O)NCCCCCCNC(=O)c2ccc(-c3c4nc(c(-c5ccc(S(=O)(=O)[O-])cc5)c5ccc([nH]5)c(-c5ccc(S(=O)(=O)[O-])cc5)c5nc(c(-c6ccc(S(=O)(=O)[O-])cc6)c6ccc3[nH]6)C=C5)C=C4)cc2)cc1C
REMARK SMILES IDX 21 1 20 2 19 3 18 4 16 5 17 6 15 8 10 9 11 10 12 11 14 12
REMARK SMILES IDX 13 13 7 14 8 15 9 16 6 17 3 18 4 19 89 20 5 21 88 22 90 23
REMARK SMILES IDX 2 24 1 25 22 26 23 27 24 28 25 29 26 30 27 32 28 33 29 34
REMARK SMILES IDX 87 35 30 36 86 37 31 38 32 39 33 40 80 41 34 42 85 43 79 44
REMARK SMILES IDX 81 45 35 46 84 47 78 48 77 49 36 51 66 52 47 53 65 54 48 55
REMARK SMILES IDX 51 56 64 57 82 58 49 59 50 60 63 62 83 63 52 64 37 65 38 66
REMARK SMILES IDX 46 67 39 68 45 69 40 70 41 71 42 72 43 73 44 74 67 75 68 76
REMARK SMILES IDX 76 77 69 78 75 79 70 80 71 81 72 82 73 83 74 84 53 85 54 86
REMARK SMILES IDX 62 87 55 88 61 89 56 90 57 91 58 92 59 93 60 94
REMARK H PARENT 18 7 25 31 81 50 51 61
REMARK Flexibility Score: inf
ROOT
ATOM      1  C   UNL A   1      30.743  28.653  24.024  1.00  0.00     0.002 C 
ENDROOT
BRANCH   1   2
ATOM      2  C   UNL A   1      31.076  27.471  23.104  1.00  0.00     0.021 C 
BRANCH   2   3
ATOM      3  C   UNL A   1      30.457  26.146  23.548  1.00  0.00     0.116 C 
BRANCH   3   4
ATOM      4  N   UNL A   1      30.518  26.025  24.990  1.00  0.00    -0.355 N 
ATOM      5  C   UNL A   1      31.453  25.416  25.770  1.00  0.00     0.238 C 
ATOM      6  O   UNL A   1      31.246  25.321  26.983  1.00  0.00    -0.273 OA
ATOM      7  H   UNL A   1      29.775  26.447  25.478  1.00  0.00     0.163 HD
BRANCH   5   8
ATOM      8  C   UNL A   1      32.730  24.833  25.157  1.00  0.00     0.162 C 
ATOM      9  N   UNL A   1      32.849  23.340  25.324  1.00  0.00    -0.185 NA
ATOM     10  C   UNL A   1      34.185  22.714  25.144  1.00  0.00     0.103 C 
ATOM     11  C   UNL A   1      35.313  23.545  25.726  1.00  0.00     0.017 C 
ATOM     12  C   UNL A   1      33.959  25.614  25.639  1.00  0.00     0.030 C 
ATOM     13  C   UNL A   1      35.264  24.970  25.207  1.00  0.00     0.004 C 
BRANCH   9  14
ATOM     14  S   UNL A   1      31.544  22.374  24.738  1.00  0.00     0.243 S 
ATOM     15  O   UNL A   1      31.224  22.787  23.384  1.00  0.00    -0.207 OA
ATOM     16  O   UNL A   1      30.523  22.356  25.759  1.00  0.00    -0.207 OA
BRANCH  14  17
ATOM     17  C   UNL A   1      32.136  20.691  24.619  1.00  0.00     0.083 A 
ATOM     18  C   UNL A   1      32.987  18.022  24.531  1.00  0.00     0.121 A 
ATOM     19  C   UNL A   1      32.905  18.704  25.752  1.00  0.00     0.048 A 
ATOM     20  C   UNL A   1      32.600  18.660  23.346  1.00  0.00    -0.008 A 
ATOM     21  C   UNL A   1      32.473  20.032  25.802  1.00  0.00     0.025 A 
ATOM     22  C   UNL A   1      32.231  20.011  23.404  1.00  0.00     0.029 A 
ATOM     23  C   UNL A   1      32.524  17.981  22.009  1.00  0.00     0.048 C 
BRANCH  18  24
ATOM     24  O   UNL A   1      33.369  16.710  24.610  1.00  0.00    -0.496 OA
ATOM     25  C   UNL A   1      34.782  16.521  24.588  1.00  0.00     0.278 C 
ENDBRANCH  18  24
ENDBRANCH  14  17
ENDBRANCH   9  14
ENDBRANCH   5   8
ENDBRANCH   3   4
ENDBRANCH   2   3
ENDBRANCH   1   2
BRANCH   1  26
ATOM     26  C   UNL A   1      31.918  29.215  24.843  1.00  0.00     0.002 C 
BRANCH  26  27
ATOM     27  C   UNL A   1      31.756  29.165  26.363  1.00  0.00     0.021 C 
BRANCH  27  28
ATOM     28  C   UNL A   1      33.061  29.311  27.118  1.00  0.00     0.116 C 
BRANCH  28  29
ATOM     29  N   UNL A   1      33.782  30.542  26.840  1.00  0.00    -0.352 N 
ATOM     30  C   UNL A   1      34.710  31.085  27.724  1.00  0.00     0.251 C 
ATOM     31  H   UNL A   1      33.606  31.012  25.993  1.00  0.00     0.163 HD
ATOM     32  O   UNL A   1      34.716  32.250  28.093  1.00  0.00    -0.269 OA
BRANCH  30  33
ATOM     33  C   UNL A   1      35.797  30.165  28.119  1.00  0.00     0.039 A 
ATOM     34  C   UNL A   1      35.856  29.723  29.445  1.00  0.00     0.014 A 
ATOM     35  C   UNL A   1      36.883  30.035  27.261  1.00  0.00     0.014 A 
ATOM     36  C   UNL A   1      37.081  29.344  29.973  1.00  0.00     0.010 A 
ATOM     37  C   UNL A   1      38.112  29.834  27.816  1.00  0.00     0.010 A 
ATOM     38  C   UNL A   1      38.203  29.515  29.174  1.00  0.00    -0.014 A 
BRANCH  38  39
ATOM     39  C   UNL A   1      39.562  29.249  29.573  1.00  0.00     0.031 A 
ATOM     40  C   UNL A   1      40.082  27.922  29.217  1.00  0.00     0.074 A 
ATOM     41  C   UNL A   1      40.316  30.311  29.923  1.00  0.00     0.049 A 
ATOM     42  N   UNL A   1      41.202  27.459  29.625  1.00  0.00    -0.248 NA
ATOM     43  C   UNL A   1      39.344  26.975  28.375  1.00  0.00     0.031 C 
ATOM     44  C   UNL A   1      41.764  30.458  29.922  1.00  0.00     0.029 A 
ATOM     45  N   UNL A   1      39.862  31.454  30.573  1.00  0.00    -0.354 N 
ATOM     46  C   UNL A   1      41.495  26.371  28.832  1.00  0.00     0.074 A 
ATOM     47  C   UNL A   1      40.260  26.023  28.180  1.00  0.00     0.031 C 
ATOM     48  C   UNL A   1      42.095  31.465  30.755  1.00  0.00     0.029 A 
ATOM     49  C   UNL A   1      40.879  31.867  31.449  1.00  0.00     0.049 A 
ATOM     50  H   UNL A   1      38.991  31.893  30.442  1.00  0.00     0.167 HD
ATOM     51  C   UNL A   1      42.802  26.022  28.705  1.00  0.00     0.031 A 
ATOM     52  C   UNL A   1      40.670  31.706  32.795  1.00  0.00     0.031 A 
ATOM     53  C   UNL A   1      43.627  26.829  29.608  1.00  0.00     0.049 A 
ATOM     54  C   UNL A   1      41.538  30.612  33.408  1.00  0.00     0.074 A 
ATOM     55  C   UNL A   1      44.457  27.923  29.433  1.00  0.00     0.029 A 
ATOM     56  N   UNL A   1      43.336  26.783  30.962  1.00  0.00    -0.354 N 
ATOM     57  N   UNL A   1      42.247  29.755  32.722  1.00  0.00    -0.248 NA
ATOM     58  C   UNL A   1      41.660  30.385  34.846  1.00  0.00     0.031 C 
ATOM     59  C   UNL A   1      44.625  28.552  30.706  1.00  0.00     0.029 A 
ATOM     60  C   UNL A   1      43.927  27.821  31.650  1.00  0.00     0.049 A 
ATOM     61  H   UNL A   1      42.774  26.092  31.381  1.00  0.00     0.167 HD
ATOM     62  C   UNL A   1      42.900  28.889  33.559  1.00  0.00     0.074 A 
ATOM     63  C   UNL A   1      42.470  29.310  34.884  1.00  0.00     0.031 C 
ATOM     64  C   UNL A   1      43.722  27.896  33.094  1.00  0.00     0.031 A 
BRANCH  51  65
ATOM     65  C   UNL A   1      43.373  25.137  27.624  1.00  0.00    -0.014 A 
ATOM     66  C   UNL A   1      44.598  24.486  27.874  1.00  0.00     0.010 A 
ATOM     67  C   UNL A   1      42.818  24.941  26.343  1.00  0.00     0.010 A 
ATOM     68  C   UNL A   1      45.256  23.730  26.896  1.00  0.00     0.020 A 
ATOM     69  C   UNL A   1      43.465  24.183  25.353  1.00  0.00     0.020 A 
ATOM     70  C   UNL A   1      44.689  23.589  25.634  1.00  0.00     0.054 A 
BRANCH  70  71
ATOM     71  S   UNL A   1      45.569  22.624  24.382  1.00  0.00     0.124 S 
ATOM     72  O   UNL A   1      46.544  23.588  23.875  1.00  0.00    -0.237 OA
ATOM     73  O   UNL A   1      46.121  21.522  25.165  1.00  0.00    -0.237 OA
ATOM     74  O   UNL A   1      44.523  22.247  23.434  1.00  0.00    -0.744 OA
ENDBRANCH  70  71
ENDBRANCH  51  65
BRANCH  52  75
ATOM     75  C   UNL A   1      39.247  32.036  33.174  1.00  0.00    -0.014 A 
ATOM     76  C   UNL A   1      38.911  33.411  33.251  1.00  0.00     0.010 A 
ATOM     77  C   UNL A   1      38.213  31.111  32.939  1.00  0.00     0.010 A 
ATOM     78  C   UNL A   1      37.639  33.862  32.875  1.00  0.00     0.020 A 
ATOM     79  C   UNL A   1      36.926  31.564  32.589  1.00  0.00     0.020 A 
ATOM     80  C   UNL A   1      36.677  32.936  32.475  1.00  0.00     0.054 A 
BRANCH  80  81
ATOM     81  S   UNL A   1      35.187  33.553  31.625  1.00  0.00     0.124 S 
ATOM     82  O   UNL A   1      35.746  34.156  30.418  1.00  0.00    -0.237 OA
ATOM     83  O   UNL A   1      34.409  32.328  31.418  1.00  0.00    -0.237 OA
ATOM     84  O   UNL A   1      34.613  34.492  32.581  1.00  0.00    -0.744 OA
ENDBRANCH  80  81
ENDBRANCH  52  75
BRANCH  64  85
ATOM     85  C   UNL A   1      44.399  26.838  33.943  1.00  0.00    -0.014 A 
ATOM     86  C   UNL A   1      45.784  26.743  34.125  1.00  0.00     0.010 A 
ATOM     87  C   UNL A   1      43.616  25.818  34.545  1.00  0.00     0.010 A 
ATOM     88  C   UNL A   1      46.341  25.755  34.952  1.00  0.00     0.020 A 
ATOM     89  C   UNL A   1      44.155  24.820  35.354  1.00  0.00     0.020 A 
ATOM     90  C   UNL A   1      45.520  24.811  35.575  1.00  0.00     0.054 A 
BRANCH  90  91
ATOM     91  S   UNL A   1      46.258  23.549  36.633  1.00  0.00     0.124 S 
ATOM     92  O   UNL A   1      46.477  22.447  35.698  1.00  0.00    -0.237 OA
ATOM     93  O   UNL A   1      47.464  24.221  37.108  1.00  0.00    -0.237 OA
ATOM     94  O   UNL A   1      45.241  23.304  37.652  1.00  0.00    -0.744 OA
ENDBRANCH  90  91
ENDBRANCH  64  85
ENDBRANCH  38  39
ENDBRANCH  30  33
ENDBRANCH  28  29
ENDBRANCH  27  28
ENDBRANCH  26  27
ENDBRANCH   1  26
TORSDOF 19
ENDMDL
MODEL 3
REMARK VINA RESULT:     -11.7      1.474      3.390
REMARK SMILES COc1ccc(S(=O)(=O)N2CCCC[C@@H]2C(=O)NCCCCCCNC(=O)c2ccc(-c3c4nc(c(-c5ccc(S(=O)(=O)[O-])cc5)c5ccc([nH]5)c(-c5ccc(S(=O)(=O)[O-])cc5)c5nc(c(-c6ccc(S(=O)(=O)[O-])cc6)c6ccc3[nH]6)C=C5)C=C4)cc2)cc1C
REMARK SMILES IDX 21 1 20 2 19 3 18 4 16 5 17 6 15 8 10 9 11 10 12 11 14 12
REMARK SMILES IDX 13 13 7 14 8 15 9 16 6 17 3 18 4 19 89 20 5 21 88 22 90 23
REMARK SMILES IDX 2 24 1 25 22 26 23 27 24 28 25 29 26 30 27 32 28 33 29 34
REMARK SMILES IDX 87 35 30 36 86 37 31 38 32 39 33 40 80 41 34 42 85 43 79 44
REMARK SMILES IDX 81 45 35 46 84 47 78 48 77 49 36 51 66 52 47 53 65 54 48 55
REMARK SMILES IDX 51 56 64 57 82 58 49 59 50 60 63 62 83 63 52 64 37 65 38 66
REMARK SMILES IDX 46 67 39 68 45 69 40 70 41 71 42 72 43 73 44 74 67 75 68 76
REMARK SMILES IDX 76 77 69 78 75 79 70 80 71 81 72 82 73 83 74 84 53 85 54 86
REMARK SMILES IDX 62 87 55 88 61 89 56 90 57 91 58 92 59 93 60 94
REMARK H PARENT 18 7 25 31 81 50 51 61
REMARK Flexibility Score: inf
ROOT
ATOM      1  C   UNL A   1      31.752  28.291  27.289  1.00  0.00     0.002 C 
ENDROOT
BRANCH   1   2
ATOM      2  C   UNL A   1      31.362  26.861  26.890  1.00  0.00     0.021 C 
BRANCH   2   3
ATOM      3  C   UNL A   1      32.472  26.092  26.174  1.00  0.00     0.116 C 
BRANCH   3   4
ATOM      4  N   UNL A   1      32.238  24.667  26.278  1.00  0.00    -0.355 N 
ATOM      5  C   UNL A   1      32.943  23.631  25.744  1.00  0.00     0.238 C 
ATOM      6  O   UNL A   1      32.495  22.487  25.852  1.00  0.00    -0.273 OA
ATOM      7  H   UNL A   1      31.453  24.408  26.813  1.00  0.00     0.163 HD
BRANCH   5   8
ATOM      8  C   UNL A   1      34.259  23.878  25.000  1.00  0.00     0.162 C 
ATOM      9  N   UNL A   1      34.357  23.137  23.691  1.00  0.00    -0.185 NA
ATOM     10  C   UNL A   1      35.698  22.964  23.076  1.00  0.00     0.103 C 
ATOM     11  C   UNL A   1      36.785  22.671  24.095  1.00  0.00     0.017 C 
ATOM     12  C   UNL A   1      35.453  23.650  25.936  1.00  0.00     0.030 C 
ATOM     13  C   UNL A   1      36.784  23.704  25.205  1.00  0.00     0.004 C 
BRANCH   9  14
ATOM     14  S   UNL A   1      33.093  23.393  22.544  1.00  0.00     0.243 S 
ATOM     15  O   UNL A   1      31.919  22.649  22.963  1.00  0.00    -0.207 OA
ATOM     16  O   UNL A   1      33.654  23.196  21.228  1.00  0.00    -0.207 OA
BRANCH  14  17
ATOM     17  C   UNL A   1      32.643  25.121  22.622  1.00  0.00     0.083 A 
ATOM     18  C   UNL A   1      31.859  27.803  22.844  1.00  0.00     0.121 A 
ATOM     19  C   UNL A   1      30.906  26.777  22.880  1.00  0.00     0.048 A 
ATOM     20  C   UNL A   1      33.220  27.491  22.741  1.00  0.00    -0.008 A 
ATOM     21  C   UNL A   1      31.292  25.438  22.779  1.00  0.00     0.025 A 
ATOM     22  C   UNL A   1      33.587  26.148  22.575  1.00  0.00     0.029 A 
ATOM     23  C   UNL A   1      34.327  28.502  22.827  1.00  0.00     0.048 C 
BRANCH  18  24
ATOM     24  O   UNL A   1      31.370  29.072  23.009  1.00  0.00    -0.496 OA
ATOM     25  C   UNL A   1      30.024  29.229  22.567  1.00  0.00     0.278 C 
ENDBRANCH  18  24
ENDBRANCH  14  17
ENDBRANCH   9  14
ENDBRANCH   5   8
ENDBRANCH   3   4
ENDBRANCH   2   3
ENDBRANCH   1   2
BRANCH   1  26
ATOM     26  C   UNL A   1      31.431  29.385  26.258  1.00  0.00     0.002 C 
BRANCH  26  27
ATOM     27  C   UNL A   1      32.504  30.458  26.067  1.00  0.00     0.021 C 
BRANCH  27  28
ATOM     28  C   UNL A   1      33.770  30.198  26.857  1.00  0.00     0.116 C 
BRANCH  28  29
ATOM     29  N   UNL A   1      34.483  31.398  27.262  1.00  0.00    -0.352 N 
ATOM     30  C   UNL A   1      35.192  31.484  28.458  1.00  0.00     0.251 C 
ATOM     31  H   UNL A   1      34.463  32.183  26.669  1.00  0.00     0.163 HD
ATOM     32  O   UNL A   1      35.077  32.392  29.267  1.00  0.00    -0.269 OA
BRANCH  30  33
ATOM     33  C   UNL A   1      36.212  30.432  28.646  1.00  0.00     0.039 A 
ATOM     34  C   UNL A   1      36.198  29.684  29.829  1.00  0.00     0.014 A 
ATOM     35  C   UNL A   1      37.321  30.443  27.807  1.00  0.00     0.014 A 
ATOM     36  C   UNL A   1      37.380  29.117  30.279  1.00  0.00     0.010 A 
ATOM     37  C   UNL A   1      38.515  30.041  28.327  1.00  0.00     0.010 A 
ATOM     38  C   UNL A   1      38.538  29.403  29.571  1.00  0.00    -0.014 A 
BRANCH  38  39
ATOM     39  C   UNL A   1      39.865  28.968  29.926  1.00  0.00     0.031 A 
ATOM     40  C   UNL A   1      40.269  27.660  29.394  1.00  0.00     0.074 A 
ATOM     41  C   UNL A   1      40.707  29.902  30.413  1.00  0.00     0.049 A 
ATOM     42  N   UNL A   1      41.341  27.049  29.732  1.00  0.00    -0.248 NA
ATOM     43  C   UNL A   1      39.459  26.903  28.434  1.00  0.00     0.031 C 
ATOM     44  C   UNL A   1      42.162  29.920  30.426  1.00  0.00     0.029 A 
ATOM     45  N   UNL A   1      40.350  30.984  31.211  1.00  0.00    -0.354 N 
ATOM     46  C   UNL A   1      41.544  26.056  28.799  1.00  0.00     0.074 A 
ATOM     47  C   UNL A   1      40.290  25.908  28.111  1.00  0.00     0.031 C 
ATOM     48  C   UNL A   1      42.573  30.773  31.386  1.00  0.00     0.029 A 
ATOM     49  C   UNL A   1      41.391  31.184  32.132  1.00  0.00     0.049 A 
ATOM     50  H   UNL A   1      39.521  31.511  31.143  1.00  0.00     0.167 HD
ATOM     51  C   UNL A   1      42.816  25.612  28.622  1.00  0.00     0.031 A 
ATOM     52  C   UNL A   1      41.156  30.863  33.445  1.00  0.00     0.031 A 
ATOM     53  C   UNL A   1      43.701  26.216  29.623  1.00  0.00     0.049 A 
ATOM     54  C   UNL A   1      41.920  29.625  33.903  1.00  0.00     0.074 A 
ATOM     55  C   UNL A   1      44.626  27.245  29.594  1.00  0.00     0.029 A 
ATOM     56  N   UNL A   1      43.396  26.014  30.959  1.00  0.00    -0.354 N 
ATOM     57  N   UNL A   1      42.557  28.809  33.105  1.00  0.00    -0.248 NA
ATOM     58  C   UNL A   1      42.009  29.197  35.296  1.00  0.00     0.031 C 
ATOM     59  C   UNL A   1      44.837  27.681  30.939  1.00  0.00     0.029 A 
ATOM     60  C   UNL A   1      44.070  26.894  31.779  1.00  0.00     0.049 A 
ATOM     61  H   UNL A   1      42.772  25.326  31.284  1.00  0.00     0.167 HD
ATOM     62  C   UNL A   1      43.124  27.784  33.817  1.00  0.00     0.074 A 
ATOM     63  C   UNL A   1      42.722  28.060  35.187  1.00  0.00     0.031 C 
ATOM     64  C   UNL A   1      43.860  26.794  33.220  1.00  0.00     0.031 A 
BRANCH  51  65
ATOM     65  C   UNL A   1      43.317  24.834  27.430  1.00  0.00    -0.014 A 
ATOM     66  C   UNL A   1      43.257  23.426  27.480  1.00  0.00     0.010 A 
ATOM     67  C   UNL A   1      43.904  25.387  26.274  1.00  0.00     0.010 A 
ATOM     68  C   UNL A   1      43.791  22.618  26.470  1.00  0.00     0.020 A 
ATOM     69  C   UNL A   1      44.442  24.589  25.250  1.00  0.00     0.020 A 
ATOM     70  C   UNL A   1      44.392  23.205  25.361  1.00  0.00     0.054 A 
BRANCH  70  71
ATOM     71  S   UNL A   1      45.093  22.139  24.079  1.00  0.00     0.124 S 
ATOM     72  O   UNL A   1      44.153  22.321  22.974  1.00  0.00    -0.237 OA
ATOM     73  O   UNL A   1      46.419  22.717  23.880  1.00  0.00    -0.237 OA
ATOM     74  O   UNL A   1      45.081  20.810  24.686  1.00  0.00    -0.744 OA
ENDBRANCH  70  71
ENDBRANCH  51  65
BRANCH  52  75
ATOM     75  C   UNL A   1      39.765  31.263  33.869  1.00  0.00    -0.014 A 
ATOM     76  C   UNL A   1      39.598  32.593  34.331  1.00  0.00     0.010 A 
ATOM     77  C   UNL A   1      38.640  30.593  33.354  1.00  0.00     0.010 A 
ATOM     78  C   UNL A   1      38.417  33.301  34.072  1.00  0.00     0.020 A 
ATOM     79  C   UNL A   1      37.444  31.298  33.119  1.00  0.00     0.020 A 
ATOM     80  C   UNL A   1      37.375  32.666  33.400  1.00  0.00     0.054 A 
BRANCH  80  81
ATOM     81  S   UNL A   1      36.028  33.697  32.728  1.00  0.00     0.124 S 
ATOM     82  O   UNL A   1      36.611  34.197  31.487  1.00  0.00    -0.237 OA
ATOM     83  O   UNL A   1      34.937  32.730  32.572  1.00  0.00    -0.237 OA
ATOM     84  O   UNL A   1      35.817  34.699  33.766  1.00  0.00    -0.744 OA
ENDBRANCH  80  81
ENDBRANCH  52  75
BRANCH  64  85
ATOM     85  C   UNL A   1      44.434  25.576  33.917  1.00  0.00    -0.014 A 
ATOM     86  C   UNL A   1      43.832  24.935  35.006  1.00  0.00     0.010 A 
ATOM     87  C   UNL A   1      45.700  25.072  33.515  1.00  0.00     0.010 A 
ATOM     88  C   UNL A   1      44.405  23.790  35.582  1.00  0.00     0.020 A 
ATOM     89  C   UNL A   1      46.291  23.949  34.089  1.00  0.00     0.020 A 
ATOM     90  C   UNL A   1      45.623  23.296  35.107  1.00  0.00     0.054 A 
BRANCH  90  91
ATOM     91  S   UNL A   1      46.342  21.824  35.865  1.00  0.00     0.124 S 
ATOM     92  O   UNL A   1      46.026  20.784  34.889  1.00  0.00    -0.237 OA
ATOM     93  O   UNL A   1      47.752  22.192  35.960  1.00  0.00    -0.237 OA
ATOM     94  O   UNL A   1      45.642  21.708  37.142  1.00  0.00    -0.744 OA
ENDBRANCH  90  91
ENDBRANCH  64  85
ENDBRANCH  38  39
ENDBRANCH  30  33
ENDBRANCH  28  29
ENDBRANCH  27  28
ENDBRANCH  26  27
ENDBRANCH   1  26
TORSDOF 19
ENDMDL
