MODEL 1
REMARK VINA RESULT:     -10.3      0.000      0.000
REMARK SMILES COc1cc(C(=O)NCCCCCCNC(=O)c2ccc(-c3c4nc(c(-c5ccc(S(=O)(=O)[O-])cc5)c5ccc([nH]5)c(-c5ccc(S(=O)(=O)[O-])cc5)c5nc(c(-c6ccc(S(=O)(=O)[O-])cc6)c6ccc3[nH]6)C=C5)C=C4)cc2)cc(OC)c1OCc1csc(C)n1
REMARK SMILES IDX 11 1 10 2 9 3 8 4 6 5 7 6 5 8 3 9 4 10 82 11 79 12 78 13
REMARK SMILES IDX 2 14 1 15 83 16 84 17 85 18 86 19 90 20 87 21 88 22 89 23
REMARK SMILES IDX 80 24 81 25 12 26 13 27 14 28 15 29 16 30 17 32 18 33 19 34
REMARK SMILES IDX 77 35 20 36 76 37 21 38 22 39 23 40 70 41 24 42 75 43 69 44
REMARK SMILES IDX 71 45 25 46 74 47 68 48 67 49 26 51 56 52 37 53 55 54 38 55
REMARK SMILES IDX 41 56 54 57 72 58 39 59 40 60 53 62 73 63 42 64 27 65 28 66
REMARK SMILES IDX 36 67 29 68 35 69 30 70 31 71 32 72 33 73 34 74 57 75 58 76
REMARK SMILES IDX 66 77 59 78 65 79 60 80 61 81 62 82 63 83 64 84 43 85 44 86
REMARK SMILES IDX 52 87 45 88 51 89 46 90 47 91 48 92 49 93 50 94
REMARK H PARENT 8 7 15 31 71 50 41 61
REMARK Flexibility Score: inf
ROOT
ATOM      1  C   UNL A   1      37.237  22.396  25.229  1.00  0.00     0.002 C 
ENDROOT
BRANCH   1   2
ATOM      2  C   UNL A   1      36.496  23.536  24.529  1.00  0.00     0.021 C 
BRANCH   2   3
ATOM      3  C   UNL A   1      35.539  24.354  25.389  1.00  0.00     0.116 C 
BRANCH   3   4
ATOM      4  N   UNL A   1      34.474  23.573  26.004  1.00  0.00    -0.352 N 
ATOM      5  C   UNL A   1      33.108  23.763  26.003  1.00  0.00     0.251 C 
ATOM      6  O   UNL A   1      32.392  22.987  26.635  1.00  0.00    -0.269 OA
ATOM      7  H   UNL A   1      34.779  22.781  26.501  1.00  0.00     0.163 HD
BRANCH   5   8
ATOM      8  C   UNL A   1      32.485  24.914  25.301  1.00  0.00     0.047 A 
ATOM      9  C   UNL A   1      31.813  27.251  25.331  1.00  0.00     0.165 A 
ATOM     10  C   UNL A   1      32.303  26.117  25.998  1.00  0.00     0.064 A 
ATOM     11  C   UNL A   1      31.549  27.202  23.953  1.00  0.00     0.203 A 
ATOM     12  C   UNL A   1      31.742  25.990  23.267  1.00  0.00     0.165 A 
ATOM     13  C   UNL A   1      32.109  24.837  23.961  1.00  0.00     0.064 A 
BRANCH   9  14
ATOM     14  O   UNL A   1      31.734  28.441  26.010  1.00  0.00    -0.493 OA
ATOM     15  C   UNL A   1      32.227  28.341  27.348  1.00  0.00     0.278 C 
ENDBRANCH   9  14
BRANCH  11  16
ATOM     16  O   UNL A   1      31.117  28.252  23.194  1.00  0.00    -0.480 OA
BRANCH  16  17
ATOM     17  C   UNL A   1      29.718  28.535  23.092  1.00  0.00     0.287 C 
BRANCH  17  18
ATOM     18  C   UNL A   1      29.294  29.941  22.754  1.00  0.00     0.089 A 
ATOM     19  C   UNL A   1      29.101  30.953  23.678  1.00  0.00     0.094 A 
ATOM     20  N   UNL A   1      28.958  30.303  21.456  1.00  0.00    -0.243 NA
ATOM     21  S   UNL A   1      28.467  32.352  22.916  1.00  0.00    -0.127 S 
ATOM     22  C   UNL A   1      28.488  31.527  21.413  1.00  0.00     0.090 A 
ATOM     23  C   UNL A   1      27.947  32.167  20.185  1.00  0.00     0.079 C 
ENDBRANCH  17  18
ENDBRANCH  16  17
ENDBRANCH  11  16
BRANCH  12  24
ATOM     24  O   UNL A   1      31.583  25.793  21.916  1.00  0.00    -0.493 OA
ATOM     25  C   UNL A   1      32.794  25.627  21.180  1.00  0.00     0.278 C 
ENDBRANCH  12  24
ENDBRANCH   5   8
ENDBRANCH   3   4
ENDBRANCH   2   3
ENDBRANCH   1   2
BRANCH   1  26
ATOM     26  C   UNL A   1      37.130  21.015  24.578  1.00  0.00     0.002 C 
BRANCH  26  27
ATOM     27  C   UNL A   1      38.033  19.920  25.152  1.00  0.00     0.021 C 
BRANCH  27  28
ATOM     28  C   UNL A   1      39.342  20.395  25.776  1.00  0.00     0.116 C 
BRANCH  28  29
ATOM     29  N   UNL A   1      40.318  19.326  25.921  1.00  0.00    -0.352 N 
ATOM     30  C   UNL A   1      41.669  19.399  26.151  1.00  0.00     0.251 C 
ATOM     31  H   UNL A   1      39.955  18.414  25.845  1.00  0.00     0.163 HD
ATOM     32  O   UNL A   1      42.353  18.375  26.090  1.00  0.00    -0.269 OA
BRANCH  30  33
ATOM     33  C   UNL A   1      42.314  20.698  26.447  1.00  0.00     0.039 A 
ATOM     34  C   UNL A   1      42.893  21.417  25.397  1.00  0.00     0.014 A 
ATOM     35  C   UNL A   1      42.365  21.204  27.748  1.00  0.00     0.014 A 
ATOM     36  C   UNL A   1      43.463  22.670  25.641  1.00  0.00     0.010 A 
ATOM     37  C   UNL A   1      42.869  22.484  27.978  1.00  0.00     0.010 A 
ATOM     38  C   UNL A   1      43.424  23.231  26.928  1.00  0.00    -0.014 A 
BRANCH  38  39
ATOM     39  C   UNL A   1      43.949  24.599  27.189  1.00  0.00     0.031 A 
ATOM     40  C   UNL A   1      43.022  25.700  27.633  1.00  0.00     0.074 A 
ATOM     41  C   UNL A   1      45.254  24.865  26.973  1.00  0.00     0.049 A 
ATOM     42  N   UNL A   1      43.289  26.962  27.857  1.00  0.00    -0.248 NA
ATOM     43  C   UNL A   1      41.607  25.343  27.833  1.00  0.00     0.031 C 
ATOM     44  C   UNL A   1      46.250  23.896  26.505  1.00  0.00     0.029 A 
ATOM     45  N   UNL A   1      45.967  26.031  27.107  1.00  0.00    -0.354 N 
ATOM     46  C   UNL A   1      42.078  27.551  28.205  1.00  0.00     0.074 A 
ATOM     47  C   UNL A   1      41.068  26.520  28.120  1.00  0.00     0.031 C 
ATOM     48  C   UNL A   1      47.446  24.501  26.418  1.00  0.00     0.029 A 
ATOM     49  C   UNL A   1      47.298  25.907  26.776  1.00  0.00     0.049 A 
ATOM     50  H   UNL A   1      45.566  26.875  27.413  1.00  0.00     0.167 HD
ATOM     51  C   UNL A   1      41.833  28.829  28.579  1.00  0.00     0.031 A 
ATOM     52  C   UNL A   1      48.286  26.823  26.751  1.00  0.00     0.031 A 
ATOM     53  C   UNL A   1      42.843  29.850  28.675  1.00  0.00     0.049 A 
ATOM     54  C   UNL A   1      47.982  28.242  27.155  1.00  0.00     0.074 A 
ATOM     55  C   UNL A   1      42.701  31.160  29.101  1.00  0.00     0.029 A 
ATOM     56  N   UNL A   1      44.178  29.682  28.339  1.00  0.00    -0.354 N 
ATOM     57  N   UNL A   1      46.843  28.760  27.550  1.00  0.00    -0.248 NA
ATOM     58  C   UNL A   1      49.100  29.196  27.123  1.00  0.00     0.031 C 
ATOM     59  C   UNL A   1      43.936  31.800  28.965  1.00  0.00     0.029 A 
ATOM     60  C   UNL A   1      44.864  30.871  28.521  1.00  0.00     0.049 A 
ATOM     61  H   UNL A   1      44.579  28.842  28.018  1.00  0.00     0.167 HD
ATOM     62  C   UNL A   1      47.116  30.092  27.843  1.00  0.00     0.074 A 
ATOM     63  C   UNL A   1      48.528  30.295  27.597  1.00  0.00     0.031 C 
ATOM     64  C   UNL A   1      46.272  31.059  28.277  1.00  0.00     0.031 A 
BRANCH  51  65
ATOM     65  C   UNL A   1      40.412  29.207  28.911  1.00  0.00    -0.014 A 
ATOM     66  C   UNL A   1      40.006  29.416  30.242  1.00  0.00     0.010 A 
ATOM     67  C   UNL A   1      39.488  29.427  27.872  1.00  0.00     0.010 A 
ATOM     68  C   UNL A   1      38.697  29.811  30.529  1.00  0.00     0.020 A 
ATOM     69  C   UNL A   1      38.186  29.851  28.154  1.00  0.00     0.020 A 
ATOM     70  C   UNL A   1      37.795  30.029  29.483  1.00  0.00     0.054 A 
BRANCH  70  71
ATOM     71  S   UNL A   1      36.118  30.589  29.884  1.00  0.00     0.124 S 
ATOM     72  O   UNL A   1      35.579  29.435  30.601  1.00  0.00    -0.237 OA
ATOM     73  O   UNL A   1      36.364  31.775  30.701  1.00  0.00    -0.237 OA
ATOM     74  O   UNL A   1      35.515  30.848  28.580  1.00  0.00    -0.744 OA
ENDBRANCH  70  71
ENDBRANCH  51  65
BRANCH  52  75
ATOM     75  C   UNL A   1      49.660  26.433  26.325  1.00  0.00    -0.014 A 
ATOM     76  C   UNL A   1      50.058  26.559  24.982  1.00  0.00     0.010 A 
ATOM     77  C   UNL A   1      50.577  25.921  27.262  1.00  0.00     0.010 A 
ATOM     78  C   UNL A   1      51.332  26.148  24.578  1.00  0.00     0.020 A 
ATOM     79  C   UNL A   1      51.862  25.542  26.868  1.00  0.00     0.020 A 
ATOM     80  C   UNL A   1      52.227  25.641  25.525  1.00  0.00     0.054 A 
BRANCH  80  81
ATOM     81  S   UNL A   1      53.885  25.141  24.983  1.00  0.00     0.124 S 
ATOM     82  O   UNL A   1      54.722  25.638  26.071  1.00  0.00    -0.237 OA
ATOM     83  O   UNL A   1      53.761  23.688  24.892  1.00  0.00    -0.237 OA
ATOM     84  O   UNL A   1      54.047  25.826  23.703  1.00  0.00    -0.744 OA
ENDBRANCH  80  81
ENDBRANCH  52  75
BRANCH  64  85
ATOM     85  C   UNL A   1      46.856  32.420  28.558  1.00  0.00    -0.014 A 
ATOM     86  C   UNL A   1      46.778  33.461  27.616  1.00  0.00     0.010 A 
ATOM     87  C   UNL A   1      47.445  32.673  29.811  1.00  0.00     0.010 A 
ATOM     88  C   UNL A   1      47.308  34.719  27.910  1.00  0.00     0.020 A 
ATOM     89  C   UNL A   1      47.947  33.939  30.120  1.00  0.00     0.020 A 
ATOM     90  C   UNL A   1      47.888  34.952  29.162  1.00  0.00     0.054 A 
BRANCH  90  91
ATOM     91  S   UNL A   1      48.528  36.607  29.533  1.00  0.00     0.124 S 
ATOM     92  O   UNL A   1      48.922  37.086  28.211  1.00  0.00    -0.237 OA
ATOM     93  O   UNL A   1      47.368  37.273  30.122  1.00  0.00    -0.237 OA
ATOM     94  O   UNL A   1      49.630  36.355  30.458  1.00  0.00    -0.744 OA
ENDBRANCH  90  91
ENDBRANCH  64  85
ENDBRANCH  38  39
ENDBRANCH  30  33
ENDBRANCH  28  29
ENDBRANCH  27  28
ENDBRANCH  26  27
ENDBRANCH   1  26
TORSDOF 21
ENDMDL
MODEL 2
REMARK VINA RESULT:      -9.6      5.136      9.421
REMARK SMILES COc1cc(C(=O)NCCCCCCNC(=O)c2ccc(-c3c4nc(c(-c5ccc(S(=O)(=O)[O-])cc5)c5ccc([nH]5)c(-c5ccc(S(=O)(=O)[O-])cc5)c5nc(c(-c6ccc(S(=O)(=O)[O-])cc6)c6ccc3[nH]6)C=C5)C=C4)cc2)cc(OC)c1OCc1csc(C)n1
REMARK SMILES IDX 11 1 10 2 9 3 8 4 6 5 7 6 5 8 3 9 4 10 82 11 79 12 78 13
REMARK SMILES IDX 2 14 1 15 83 16 84 17 85 18 86 19 90 20 87 21 88 22 89 23
REMARK SMILES IDX 80 24 81 25 12 26 13 27 14 28 15 29 16 30 17 32 18 33 19 34
REMARK SMILES IDX 77 35 20 36 76 37 21 38 22 39 23 40 70 41 24 42 75 43 69 44
REMARK SMILES IDX 71 45 25 46 74 47 68 48 67 49 26 51 56 52 37 53 55 54 38 55
REMARK SMILES IDX 41 56 54 57 72 58 39 59 40 60 53 62 73 63 42 64 27 65 28 66
REMARK SMILES IDX 36 67 29 68 35 69 30 70 31 71 32 72 33 73 34 74 57 75 58 76
REMARK SMILES IDX 66 77 59 78 65 79 60 80 61 81 62 82 63 83 64 84 43 85 44 86
REMARK SMILES IDX 52 87 45 88 51 89 46 90 47 91 48 92 49 93 50 94
REMARK H PARENT 8 7 15 31 71 50 41 61
REMARK Flexibility Score: inf
ROOT
ATOM      1  C   UNL A   1      37.506  23.549  25.432  1.00  0.00     0.002 C 
ENDROOT
BRANCH   1   2
ATOM      2  C   UNL A   1      36.617  22.440  24.868  1.00  0.00     0.021 C 
BRANCH   2   3
ATOM      3  C   UNL A   1      35.740  21.695  25.870  1.00  0.00     0.116 C 
BRANCH   3   4
ATOM      4  N   UNL A   1      35.222  20.426  25.380  1.00  0.00    -0.352 N 
ATOM      5  C   UNL A   1      34.046  20.131  24.723  1.00  0.00     0.251 C 
ATOM      6  O   UNL A   1      33.792  18.961  24.437  1.00  0.00    -0.269 OA
ATOM      7  H   UNL A   1      35.806  19.651  25.546  1.00  0.00     0.163 HD
BRANCH   5   8
ATOM      8  C   UNL A   1      33.052  21.187  24.399  1.00  0.00     0.047 A 
ATOM      9  C   UNL A   1      31.090  22.465  25.054  1.00  0.00     0.165 A 
ATOM     10  C   UNL A   1      31.984  21.406  25.280  1.00  0.00     0.064 A 
ATOM     11  C   UNL A   1      31.287  23.339  23.973  1.00  0.00     0.203 A 
ATOM     12  C   UNL A   1      32.367  23.108  23.102  1.00  0.00     0.165 A 
ATOM     13  C   UNL A   1      33.175  21.983  23.263  1.00  0.00     0.064 A 
BRANCH   9  14
ATOM     14  O   UNL A   1      30.109  22.718  25.980  1.00  0.00    -0.493 OA
ATOM     15  C   UNL A   1      30.643  23.052  27.264  1.00  0.00     0.278 C 
ENDBRANCH   9  14
BRANCH  11  16
ATOM     16  O   UNL A   1      30.513  24.426  23.684  1.00  0.00    -0.480 OA
BRANCH  16  17
ATOM     17  C   UNL A   1      30.749  25.670  24.351  1.00  0.00     0.287 C 
BRANCH  17  18
ATOM     18  C   UNL A   1      30.315  26.942  23.669  1.00  0.00     0.089 A 
ATOM     19  C   UNL A   1      31.173  27.921  23.197  1.00  0.00     0.094 A 
ATOM     20  N   UNL A   1      28.973  27.278  23.552  1.00  0.00    -0.243 NA
ATOM     21  S   UNL A   1      30.289  29.278  22.635  1.00  0.00    -0.127 S 
ATOM     22  C   UNL A   1      28.828  28.483  23.053  1.00  0.00     0.090 A 
ATOM     23  C   UNL A   1      27.517  29.168  22.901  1.00  0.00     0.079 C 
ENDBRANCH  17  18
ENDBRANCH  16  17
ENDBRANCH  11  16
BRANCH  12  24
ATOM     24  O   UNL A   1      32.727  23.898  22.037  1.00  0.00    -0.493 OA
ATOM     25  C   UNL A   1      33.496  25.054  22.371  1.00  0.00     0.278 C 
ENDBRANCH  12  24
ENDBRANCH   5   8
ENDBRANCH   3   4
ENDBRANCH   2   3
ENDBRANCH   1   2
BRANCH   1  26
ATOM     26  C   UNL A   1      38.715  23.096  26.255  1.00  0.00     0.002 C 
BRANCH  26  27
ATOM     27  C   UNL A   1      39.269  21.703  25.943  1.00  0.00     0.021 C 
BRANCH  27  28
ATOM     28  C   UNL A   1      40.662  21.403  26.487  1.00  0.00     0.116 C 
BRANCH  28  29
ATOM     29  N   UNL A   1      41.714  21.661  25.516  1.00  0.00    -0.352 N 
ATOM     30  C   UNL A   1      42.615  22.695  25.455  1.00  0.00     0.251 C 
ATOM     31  H   UNL A   1      41.793  20.994  24.796  1.00  0.00     0.163 HD
ATOM     32  O   UNL A   1      43.333  22.818  24.460  1.00  0.00    -0.269 OA
BRANCH  30  33
ATOM     33  C   UNL A   1      42.712  23.676  26.559  1.00  0.00     0.039 A 
ATOM     34  C   UNL A   1      43.181  24.963  26.278  1.00  0.00     0.014 A 
ATOM     35  C   UNL A   1      42.361  23.334  27.867  1.00  0.00     0.014 A 
ATOM     36  C   UNL A   1      43.234  25.922  27.293  1.00  0.00     0.010 A 
ATOM     37  C   UNL A   1      42.346  24.311  28.862  1.00  0.00     0.010 A 
ATOM     38  C   UNL A   1      42.783  25.616  28.587  1.00  0.00    -0.014 A 
BRANCH  38  39
ATOM     39  C   UNL A   1      42.752  26.648  29.658  1.00  0.00     0.031 A 
ATOM     40  C   UNL A   1      43.795  26.650  30.745  1.00  0.00     0.074 A 
ATOM     41  C   UNL A   1      41.751  27.553  29.684  1.00  0.00     0.049 A 
ATOM     42  N   UNL A   1      43.897  27.436  31.787  1.00  0.00    -0.248 NA
ATOM     43  C   UNL A   1      44.848  25.624  30.664  1.00  0.00     0.031 C 
ATOM     44  C   UNL A   1      40.658  27.634  28.712  1.00  0.00     0.029 A 
ATOM     45  N   UNL A   1      41.484  28.571  30.566  1.00  0.00    -0.354 N 
ATOM     46  C   UNL A   1      45.010  26.991  32.492  1.00  0.00     0.074 A 
ATOM     47  C   UNL A   1      45.524  25.839  31.785  1.00  0.00     0.031 C 
ATOM     48  C   UNL A   1      39.856  28.661  29.036  1.00  0.00     0.029 A 
ATOM     49  C   UNL A   1      40.346  29.283  30.261  1.00  0.00     0.049 A 
ATOM     50  H   UNL A   1      42.053  28.773  31.343  1.00  0.00     0.167 HD
ATOM     51  C   UNL A   1      45.565  27.505  33.615  1.00  0.00     0.031 A 
ATOM     52  C   UNL A   1      39.755  30.312  30.900  1.00  0.00     0.031 A 
ATOM     53  C   UNL A   1      45.059  28.661  34.309  1.00  0.00     0.049 A 
ATOM     54  C   UNL A   1      40.384  30.853  32.157  1.00  0.00     0.074 A 
ATOM     55  C   UNL A   1      45.588  29.291  35.423  1.00  0.00     0.029 A 
ATOM     56  N   UNL A   1      43.911  29.356  33.964  1.00  0.00    -0.354 N 
ATOM     57  N   UNL A   1      41.478  30.461  32.766  1.00  0.00    -0.248 NA
ATOM     58  C   UNL A   1      39.705  31.984  32.805  1.00  0.00     0.031 C 
ATOM     59  C   UNL A   1      44.726  30.330  35.786  1.00  0.00     0.029 A 
ATOM     60  C   UNL A   1      43.698  30.391  34.859  1.00  0.00     0.049 A 
ATOM     61  H   UNL A   1      43.332  29.145  33.196  1.00  0.00     0.167 HD
ATOM     62  C   UNL A   1      41.634  31.318  33.850  1.00  0.00     0.074 A 
ATOM     63  C   UNL A   1      40.535  32.259  33.803  1.00  0.00     0.031 C 
ATOM     64  C   UNL A   1      42.603  31.325  34.798  1.00  0.00     0.031 A 
BRANCH  51  65
ATOM     65  C   UNL A   1      46.787  26.822  34.175  1.00  0.00    -0.014 A 
ATOM     66  C   UNL A   1      46.673  25.787  35.121  1.00  0.00     0.010 A 
ATOM     67  C   UNL A   1      48.062  27.170  33.693  1.00  0.00     0.010 A 
ATOM     68  C   UNL A   1      47.813  25.132  35.595  1.00  0.00     0.020 A 
ATOM     69  C   UNL A   1      49.203  26.498  34.143  1.00  0.00     0.020 A 
ATOM     70  C   UNL A   1      49.071  25.490  35.101  1.00  0.00     0.054 A 
BRANCH  70  71
ATOM     71  S   UNL A   1      50.527  24.589  35.699  1.00  0.00     0.124 S 
ATOM     72  O   UNL A   1      51.524  24.920  34.683  1.00  0.00    -0.237 OA
ATOM     73  O   UNL A   1      50.751  25.183  37.015  1.00  0.00    -0.237 OA
ATOM     74  O   UNL A   1      50.093  23.195  35.713  1.00  0.00    -0.744 OA
ENDBRANCH  70  71
ENDBRANCH  51  65
BRANCH  52  75
ATOM     75  C   UNL A   1      38.493  30.901  30.368  1.00  0.00    -0.014 A 
ATOM     76  C   UNL A   1      37.245  30.356  30.713  1.00  0.00     0.010 A 
ATOM     77  C   UNL A   1      38.537  32.007  29.499  1.00  0.00     0.010 A 
ATOM     78  C   UNL A   1      36.066  30.882  30.175  1.00  0.00     0.020 A 
ATOM     79  C   UNL A   1      37.360  32.558  28.986  1.00  0.00     0.020 A 
ATOM     80  C   UNL A   1      36.132  31.981  29.313  1.00  0.00     0.054 A 
BRANCH  80  81
ATOM     81  S   UNL A   1      34.589  32.666  28.648  1.00  0.00     0.124 S 
ATOM     82  O   UNL A   1      33.932  31.474  28.120  1.00  0.00    -0.237 OA
ATOM     83  O   UNL A   1      33.971  33.259  29.832  1.00  0.00    -0.237 OA
ATOM     84  O   UNL A   1      35.046  33.626  27.646  1.00  0.00    -0.744 OA
ENDBRANCH  80  81
ENDBRANCH  52  75
BRANCH  64  85
ATOM     85  C   UNL A   1      42.546  32.409  35.844  1.00  0.00    -0.014 A 
ATOM     86  C   UNL A   1      41.827  32.238  37.039  1.00  0.00     0.010 A 
ATOM     87  C   UNL A   1      43.275  33.597  35.646  1.00  0.00     0.010 A 
ATOM     88  C   UNL A   1      41.809  33.250  38.003  1.00  0.00     0.020 A 
ATOM     89  C   UNL A   1      43.285  34.597  36.621  1.00  0.00     0.020 A 
ATOM     90  C   UNL A   1      42.540  34.423  37.789  1.00  0.00     0.054 A 
BRANCH  90  91
ATOM     91  S   UNL A   1      42.536  35.701  39.075  1.00  0.00     0.124 S 
ATOM     92  O   UNL A   1      41.123  36.063  39.141  1.00  0.00    -0.237 OA
ATOM     93  O   UNL A   1      43.057  34.985  40.238  1.00  0.00    -0.237 OA
ATOM     94  O   UNL A   1      43.419  36.736  38.540  1.00  0.00    -0.744 OA
ENDBRANCH  90  91
ENDBRANCH  64  85
ENDBRANCH  38  39
ENDBRANCH  30  33
ENDBRANCH  28  29
ENDBRANCH  27  28
ENDBRANCH  26  27
ENDBRANCH   1  26
TORSDOF 21
ENDMDL
MODEL 3
REMARK VINA RESULT:      -9.5      1.708      8.313
REMARK SMILES COc1cc(C(=O)NCCCCCCNC(=O)c2ccc(-c3c4nc(c(-c5ccc(S(=O)(=O)[O-])cc5)c5ccc([nH]5)c(-c5ccc(S(=O)(=O)[O-])cc5)c5nc(c(-c6ccc(S(=O)(=O)[O-])cc6)c6ccc3[nH]6)C=C5)C=C4)cc2)cc(OC)c1OCc1csc(C)n1
REMARK SMILES IDX 11 1 10 2 9 3 8 4 6 5 7 6 5 8 3 9 4 10 82 11 79 12 78 13
REMARK SMILES IDX 2 14 1 15 83 16 84 17 85 18 86 19 90 20 87 21 88 22 89 23
REMARK SMILES IDX 80 24 81 25 12 26 13 27 14 28 15 29 16 30 17 32 18 33 19 34
REMARK SMILES IDX 77 35 20 36 76 37 21 38 22 39 23 40 70 41 24 42 75 43 69 44
REMARK SMILES IDX 71 45 25 46 74 47 68 48 67 49 26 51 56 52 37 53 55 54 38 55
REMARK SMILES IDX 41 56 54 57 72 58 39 59 40 60 53 62 73 63 42 64 27 65 28 66
REMARK SMILES IDX 36 67 29 68 35 69 30 70 31 71 32 72 33 73 34 74 57 75 58 76
REMARK SMILES IDX 66 77 59 78 65 79 60 80 61 81 62 82 63 83 64 84 43 85 44 86
REMARK SMILES IDX 52 87 45 88 51 89 46 90 47 91 48 92 49 93 50 94
REMARK H PARENT 8 7 15 31 71 50 41 61
REMARK Flexibility Score: inf
ROOT
ATOM      1  C   UNL A   1      37.391  22.837  25.239  1.00  0.00     0.002 C 
ENDROOT
BRANCH   1   2
ATOM      2  C   UNL A   1      36.566  21.654  24.732  1.00  0.00     0.021 C 
BRANCH   2   3
ATOM      3  C   UNL A   1      35.599  21.022  25.728  1.00  0.00     0.116 C 
BRANCH   3   4
ATOM      4  N   UNL A   1      34.708  20.029  25.146  1.00  0.00    -0.352 N 
ATOM      5  C   UNL A   1      33.404  20.139  24.711  1.00  0.00     0.251 C 
ATOM      6  O   UNL A   1      32.824  19.141  24.286  1.00  0.00    -0.269 OA
ATOM      7  H   UNL A   1      35.101  19.132  25.046  1.00  0.00     0.163 HD
BRANCH   5   8
ATOM      8  C   UNL A   1      32.664  21.425  24.794  1.00  0.00     0.047 A 
ATOM      9  C   UNL A   1      31.306  22.961  26.101  1.00  0.00     0.165 A 
ATOM     10  C   UNL A   1      31.928  21.711  25.952  1.00  0.00     0.064 A 
ATOM     11  C   UNL A   1      31.457  23.948  25.114  1.00  0.00     0.203 A 
ATOM     12  C   UNL A   1      32.203  23.647  23.961  1.00  0.00     0.165 A 
ATOM     13  C   UNL A   1      32.712  22.364  23.765  1.00  0.00     0.064 A 
BRANCH   9  14
ATOM     14  O   UNL A   1      30.672  23.253  27.283  1.00  0.00    -0.493 OA
ATOM     15  C   UNL A   1      29.331  22.760  27.320  1.00  0.00     0.278 C 
ENDBRANCH   9  14
BRANCH  11  16
ATOM     16  O   UNL A   1      30.939  25.210  25.174  1.00  0.00    -0.480 OA
BRANCH  16  17
ATOM     17  C   UNL A   1      29.928  25.615  24.246  1.00  0.00     0.287 C 
BRANCH  17  18
ATOM     18  C   UNL A   1      29.874  27.062  23.830  1.00  0.00     0.089 A 
ATOM     19  C   UNL A   1      30.876  27.990  24.056  1.00  0.00     0.094 A 
ATOM     20  N   UNL A   1      28.732  27.607  23.257  1.00  0.00    -0.243 NA
ATOM     21  S   UNL A   1      30.367  29.556  23.577  1.00  0.00    -0.127 S 
ATOM     22  C   UNL A   1      28.854  28.904  23.102  1.00  0.00     0.090 A 
ATOM     23  C   UNL A   1      27.765  29.789  22.611  1.00  0.00     0.079 C 
ENDBRANCH  17  18
ENDBRANCH  16  17
ENDBRANCH  11  16
BRANCH  12  24
ATOM     24  O   UNL A   1      32.489  24.516  22.935  1.00  0.00    -0.493 OA
ATOM     25  C   UNL A   1      33.056  23.915  21.771  1.00  0.00     0.278 C 
ENDBRANCH  12  24
ENDBRANCH   5   8
ENDBRANCH   3   4
ENDBRANCH   2   3
ENDBRANCH   1   2
BRANCH   1  26
ATOM     26  C   UNL A   1      38.727  22.498  25.907  1.00  0.00     0.002 C 
BRANCH  26  27
ATOM     27  C   UNL A   1      39.256  21.078  25.686  1.00  0.00     0.021 C 
BRANCH  27  28
ATOM     28  C   UNL A   1      40.278  20.583  26.705  1.00  0.00     0.116 C 
BRANCH  28  29
ATOM     29  N   UNL A   1      41.438  19.963  26.085  1.00  0.00    -0.352 N 
ATOM     30  C   UNL A   1      42.643  20.519  25.731  1.00  0.00     0.251 C 
ATOM     31  H   UNL A   1      41.347  19.003  25.892  1.00  0.00     0.163 HD
ATOM     32  O   UNL A   1      43.447  19.857  25.072  1.00  0.00    -0.269 OA
BRANCH  30  33
ATOM     33  C   UNL A   1      42.972  21.910  26.111  1.00  0.00     0.039 A 
ATOM     34  C   UNL A   1      43.428  22.165  27.408  1.00  0.00     0.014 A 
ATOM     35  C   UNL A   1      42.822  22.965  25.208  1.00  0.00     0.014 A 
ATOM     36  C   UNL A   1      43.794  23.462  27.776  1.00  0.00     0.010 A 
ATOM     37  C   UNL A   1      43.255  24.245  25.553  1.00  0.00     0.010 A 
ATOM     38  C   UNL A   1      43.746  24.509  26.840  1.00  0.00    -0.014 A 
BRANCH  38  39
ATOM     39  C   UNL A   1      44.212  25.878  27.189  1.00  0.00     0.031 A 
ATOM     40  C   UNL A   1      45.630  26.297  26.903  1.00  0.00     0.074 A 
ATOM     41  C   UNL A   1      43.373  26.729  27.817  1.00  0.00     0.049 A 
ATOM     42  N   UNL A   1      46.228  27.427  27.183  1.00  0.00    -0.248 NA
ATOM     43  C   UNL A   1      46.496  25.312  26.232  1.00  0.00     0.031 C 
ATOM     44  C   UNL A   1      41.986  26.432  28.186  1.00  0.00     0.029 A 
ATOM     45  N   UNL A   1      43.565  28.013  28.264  1.00  0.00    -0.354 N 
ATOM     46  C   UNL A   1      47.539  27.284  26.741  1.00  0.00     0.074 A 
ATOM     47  C   UNL A   1      47.662  25.943  26.214  1.00  0.00     0.031 C 
ATOM     48  C   UNL A   1      41.447  27.510  28.778  1.00  0.00     0.029 A 
ATOM     49  C   UNL A   1      42.457  28.558  28.874  1.00  0.00     0.049 A 
ATOM     50  H   UNL A   1      44.413  28.499  28.157  1.00  0.00     0.167 HD
ATOM     51  C   UNL A   1      48.543  28.192  26.755  1.00  0.00     0.031 A 
ATOM     52  C   UNL A   1      42.277  29.760  29.457  1.00  0.00     0.031 A 
ATOM     53  C   UNL A   1      48.413  29.531  27.268  1.00  0.00     0.049 A 
ATOM     54  C   UNL A   1      43.417  30.744  29.474  1.00  0.00     0.074 A 
ATOM     55  C   UNL A   1      49.359  30.543  27.273  1.00  0.00     0.029 A 
ATOM     56  N   UNL A   1      47.275  30.046  27.870  1.00  0.00    -0.354 N 
ATOM     57  N   UNL A   1      44.627  30.613  28.985  1.00  0.00    -0.248 NA
ATOM     58  C   UNL A   1      43.161  32.044  30.110  1.00  0.00     0.031 C 
ATOM     59  C   UNL A   1      48.812  31.649  27.931  1.00  0.00     0.029 A 
ATOM     60  C   UNL A   1      47.503  31.350  28.275  1.00  0.00     0.049 A 
ATOM     61  H   UNL A   1      46.429  29.556  27.991  1.00  0.00     0.167 HD
ATOM     62  C   UNL A   1      45.265  31.825  29.228  1.00  0.00     0.074 A 
ATOM     63  C   UNL A   1      44.303  32.681  29.889  1.00  0.00     0.031 C 
ATOM     64  C   UNL A   1      46.535  32.194  28.928  1.00  0.00     0.031 A 
BRANCH  51  65
ATOM     65  C   UNL A   1      49.881  27.773  26.203  1.00  0.00    -0.014 A 
ATOM     66  C   UNL A   1      50.176  27.899  24.834  1.00  0.00     0.010 A 
ATOM     67  C   UNL A   1      50.884  27.315  27.079  1.00  0.00     0.010 A 
ATOM     68  C   UNL A   1      51.438  27.550  24.346  1.00  0.00     0.020 A 
ATOM     69  C   UNL A   1      52.157  26.992  26.599  1.00  0.00     0.020 A 
ATOM     70  C   UNL A   1      52.422  27.101  25.232  1.00  0.00     0.054 A 
BRANCH  70  71
ATOM     71  S   UNL A   1      54.065  26.702  24.576  1.00  0.00     0.124 S 
ATOM     72  O   UNL A   1      53.850  25.368  24.018  1.00  0.00    -0.237 OA
ATOM     73  O   UNL A   1      54.284  27.763  23.597  1.00  0.00    -0.237 OA
ATOM     74  O   UNL A   1      54.931  26.752  25.751  1.00  0.00    -0.744 OA
ENDBRANCH  70  71
ENDBRANCH  51  65
BRANCH  52  75
ATOM     75  C   UNL A   1      40.967  30.104  30.078  1.00  0.00    -0.014 A 
ATOM     76  C   UNL A   1      40.781  29.998  31.467  1.00  0.00     0.010 A 
ATOM     77  C   UNL A   1      39.891  30.528  29.277  1.00  0.00     0.010 A 
ATOM     78  C   UNL A   1      39.536  30.277  32.041  1.00  0.00     0.020 A 
ATOM     79  C   UNL A   1      38.655  30.841  29.849  1.00  0.00     0.020 A 
ATOM     80  C   UNL A   1      38.480  30.697  31.226  1.00  0.00     0.054 A 
BRANCH  80  81
ATOM     81  S   UNL A   1      36.882  31.080  31.994  1.00  0.00     0.124 S 
ATOM     82  O   UNL A   1      37.285  31.865  33.157  1.00  0.00    -0.237 OA
ATOM     83  O   UNL A   1      36.193  31.818  30.938  1.00  0.00    -0.237 OA
ATOM     84  O   UNL A   1      36.321  29.764  32.290  1.00  0.00    -0.744 OA
ENDBRANCH  80  81
ENDBRANCH  52  75
BRANCH  64  85
ATOM     85  C   UNL A   1      46.950  33.601  29.273  1.00  0.00    -0.014 A 
ATOM     86  C   UNL A   1      47.383  33.943  30.566  1.00  0.00     0.010 A 
ATOM     87  C   UNL A   1      46.960  34.585  28.265  1.00  0.00     0.010 A 
ATOM     88  C   UNL A   1      47.785  35.250  30.853  1.00  0.00     0.020 A 
ATOM     89  C   UNL A   1      47.391  35.884  28.542  1.00  0.00     0.020 A 
ATOM     90  C   UNL A   1      47.788  36.212  29.839  1.00  0.00     0.054 A 
BRANCH  90  91
ATOM     91  S   UNL A   1      48.357  37.889  30.229  1.00  0.00     0.124 S 
ATOM     92  O   UNL A   1      49.041  38.274  28.997  1.00  0.00    -0.237 OA
ATOM     93  O   UNL A   1      47.107  38.596  30.500  1.00  0.00    -0.237 OA
ATOM     94  O   UNL A   1      49.224  37.702  31.390  1.00  0.00    -0.744 OA
ENDBRANCH  90  91
ENDBRANCH  64  85
ENDBRANCH  38  39
ENDBRANCH  30  33
ENDBRANCH  28  29
ENDBRANCH  27  28
ENDBRANCH  26  27
ENDBRANCH   1  26
TORSDOF 21
ENDMDL
