MODEL 1
REMARK VINA RESULT:      -8.3      0.000      0.000
REMARK SMILES Cc1c(CC(=O)N[C@@H](CCO)C(=O)NCCCCCCNC(=O)c2ccc(-c3c4nc(c(-c5ccc(S(=O)(=O)[O-])cc5)c5ccc([nH]5)c(-c5ccc(S(=O)(=O)[O-])cc5)c5nc(c(-c6ccc(S(=O)(=O)[O-])cc6)c6ccc3[nH]6)C=C5)C=C4)cc2)cc(-c2ccc(S(C)(=O)=O)cc2)n1-c1ccc(F)cc1
REMARK SMILES IDX 16 1 15 2 14 3 12 4 13 5 8 7 7 8 5 9 6 10 4 12 3 13 1 14
REMARK SMILES IDX 2 15 96 16 84 17 85 18 97 19 98 20 103 21 99 22 102 23
REMARK SMILES IDX 100 24 101 25 86 26 87 27 95 28 88 29 94 30 89 31 90 32
REMARK SMILES IDX 91 33 92 34 93 35 9 36 10 37 11 38 17 40 18 41 19 42 20 43
REMARK SMILES IDX 21 44 22 45 23 47 24 48 25 49 83 50 26 51 82 52 27 53 28 54
REMARK SMILES IDX 29 55 76 56 30 57 81 58 75 59 77 60 31 61 80 62 74 63 73 64
REMARK SMILES IDX 32 66 62 67 43 68 61 69 44 70 47 71 60 72 78 73 45 74 46 75
REMARK SMILES IDX 59 77 79 78 48 79 33 80 34 81 42 82 35 83 41 84 36 85 37 86
REMARK SMILES IDX 38 87 39 88 40 89 63 90 64 91 72 92 65 93 71 94 66 95 67 96
REMARK SMILES IDX 68 97 69 98 70 99 49 100 50 101 58 102 51 103 57 104 52 105
REMARK SMILES IDX 53 106 54 107 55 108 56 109
REMARK H PARENT 14 6 7 11 11 39 21 46 77 65 47 76
REMARK Flexibility Score: inf
ROOT
ATOM      1  C   UNL A   1      47.026  24.535  26.165  1.00  0.00     0.021 C 
ENDROOT
BRANCH   1   2
ATOM      2  C   UNL A   1      46.060  23.365  26.190  1.00  0.00     0.116 C 
BRANCH   2   3
ATOM      3  N   UNL A   1      45.336  23.223  24.947  1.00  0.00    -0.354 N 
ATOM      4  C   UNL A   1      44.291  22.425  24.596  1.00  0.00     0.242 C 
ATOM      5  O   UNL A   1      43.783  22.635  23.490  1.00  0.00    -0.273 OA
ATOM      6  H   UNL A   1      45.656  23.809  24.223  1.00  0.00     0.163 HD
BRANCH   4   7
ATOM      7  C   UNL A   1      43.635  21.424  25.568  1.00  0.00     0.173 C 
BRANCH   7   8
ATOM      8  N   UNL A   1      42.171  21.422  25.535  1.00  0.00    -0.344 N 
ATOM      9  C   UNL A   1      41.297  21.970  26.434  1.00  0.00     0.225 C 
ATOM     10  O   UNL A   1      40.101  21.977  26.135  1.00  0.00    -0.275 OA
ATOM     11  H   UNL A   1      41.762  20.964  24.766  1.00  0.00     0.164 HD
BRANCH   9  12
ATOM     12  C   UNL A   1      41.788  22.554  27.752  1.00  0.00     0.137 C 
BRANCH  12  13
ATOM     13  C   UNL A   1      41.811  24.054  27.734  1.00  0.00    -0.017 A 
ATOM     14  C   UNL A   1      39.310  24.566  28.157  1.00  0.00     0.065 C 
ATOM     15  C   UNL A   1      40.752  24.919  27.970  1.00  0.00     0.024 A 
ATOM     16  N   UNL A   1      41.244  26.221  27.980  1.00  0.00    -0.314 N 
ATOM     17  C   UNL A   1      42.956  24.858  27.506  1.00  0.00     0.033 A 
ATOM     18  C   UNL A   1      42.617  26.180  27.726  1.00  0.00     0.053 A 
BRANCH  16  19
ATOM     19  C   UNL A   1      40.490  27.401  28.233  1.00  0.00     0.046 A 
ATOM     20  C   UNL A   1      40.065  28.188  27.153  1.00  0.00     0.029 A 
ATOM     21  C   UNL A   1      40.209  27.788  29.549  1.00  0.00     0.029 A 
ATOM     22  C   UNL A   1      39.353  29.362  27.395  1.00  0.00     0.041 A 
ATOM     23  C   UNL A   1      39.510  28.973  29.782  1.00  0.00     0.041 A 
ATOM     24  C   UNL A   1      39.088  29.746  28.705  1.00  0.00     0.123 A 
ATOM     25  F   UNL A   1      38.421  30.885  28.932  1.00  0.00    -0.207 F 
ENDBRANCH  16  19
BRANCH  18  26
ATOM     26  C   UNL A   1      43.545  27.311  27.845  1.00  0.00    -0.001 A 
ATOM     27  C   UNL A   1      44.405  27.420  28.949  1.00  0.00     0.011 A 
ATOM     28  C   UNL A   1      43.621  28.267  26.824  1.00  0.00     0.011 A 
ATOM     29  C   UNL A   1      45.307  28.482  29.049  1.00  0.00     0.021 A 
ATOM     30  C   UNL A   1      44.516  29.335  26.918  1.00  0.00     0.021 A 
ATOM     31  C   UNL A   1      45.348  29.442  28.036  1.00  0.00     0.067 A 
BRANCH  31  32
ATOM     32  S   UNL A   1      46.501  30.787  28.160  1.00  0.00     0.175 S 
ATOM     33  C   UNL A   1      47.979  30.033  28.785  1.00  0.00     0.163 C 
ATOM     34  O   UNL A   1      46.765  31.249  26.807  1.00  0.00    -0.224 OA
ATOM     35  O   UNL A   1      46.015  31.698  29.175  1.00  0.00    -0.224 OA
ENDBRANCH  31  32
ENDBRANCH  18  26
ENDBRANCH  12  13
ENDBRANCH   9  12
ENDBRANCH   7   8
BRANCH   7  36
ATOM     36  C   UNL A   1      44.265  20.015  25.571  1.00  0.00     0.063 C 
BRANCH  36  37
ATOM     37  C   UNL A   1      43.393  18.805  25.873  1.00  0.00     0.158 C 
BRANCH  37  38
ATOM     38  O   UNL A   1      44.075  17.815  26.628  1.00  0.00    -0.396 OA
ATOM     39  H   UNL A   1      43.495  17.490  27.333  1.00  0.00     0.210 HD
ENDBRANCH  37  38
ENDBRANCH  36  37
ENDBRANCH   7  36
ENDBRANCH   4   7
ENDBRANCH   2   3
ENDBRANCH   1   2
BRANCH   1  40
ATOM     40  C   UNL A   1      46.367  25.908  25.999  1.00  0.00     0.002 C 
BRANCH  40  41
ATOM     41  C   UNL A   1      47.291  27.129  25.891  1.00  0.00     0.002 C 
BRANCH  41  42
ATOM     42  C   UNL A   1      47.896  27.483  24.521  1.00  0.00     0.021 C 
BRANCH  42  43
ATOM     43  C   UNL A   1      48.623  26.380  23.736  1.00  0.00     0.116 C 
BRANCH  43  44
ATOM     44  N   UNL A   1      49.722  26.837  22.931  1.00  0.00    -0.352 N 
ATOM     45  C   UNL A   1      50.996  27.147  23.367  1.00  0.00     0.251 C 
ATOM     46  H   UNL A   1      49.549  26.939  21.969  1.00  0.00     0.163 HD
ATOM     47  O   UNL A   1      51.824  27.493  22.530  1.00  0.00    -0.269 OA
BRANCH  45  48
ATOM     48  C   UNL A   1      51.344  27.178  24.829  1.00  0.00     0.039 A 
ATOM     49  C   UNL A   1      51.262  25.986  25.544  1.00  0.00     0.014 A 
ATOM     50  C   UNL A   1      51.499  28.365  25.562  1.00  0.00     0.014 A 
ATOM     51  C   UNL A   1      51.327  25.982  26.962  1.00  0.00     0.010 A 
ATOM     52  C   UNL A   1      51.511  28.364  27.001  1.00  0.00     0.010 A 
ATOM     53  C   UNL A   1      51.385  27.173  27.749  1.00  0.00    -0.014 A 
BRANCH  53  54
ATOM     54  C   UNL A   1      50.626  27.110  29.108  1.00  0.00     0.031 A 
ATOM     55  C   UNL A   1      51.513  27.854  30.048  1.00  0.00     0.074 A 
ATOM     56  C   UNL A   1      49.481  26.578  29.658  1.00  0.00     0.049 A 
ATOM     57  N   UNL A   1      52.751  27.497  30.236  1.00  0.00    -0.248 NA
ATOM     58  C   UNL A   1      51.177  29.201  30.507  1.00  0.00     0.031 C 
ATOM     59  C   UNL A   1      48.467  25.739  29.010  1.00  0.00     0.029 A 
ATOM     60  N   UNL A   1      48.942  26.685  30.960  1.00  0.00    -0.354 N 
ATOM     61  C   UNL A   1      53.306  28.460  31.045  1.00  0.00     0.074 A 
ATOM     62  C   UNL A   1      52.359  29.568  31.009  1.00  0.00     0.031 C 
ATOM     63  C   UNL A   1      47.402  25.533  29.838  1.00  0.00     0.029 A 
ATOM     64  C   UNL A   1      47.632  26.152  31.140  1.00  0.00     0.049 A 
ATOM     65  H   UNL A   1      49.441  27.104  31.699  1.00  0.00     0.167 HD
ATOM     66  C   UNL A   1      54.018  28.031  32.125  1.00  0.00     0.031 A 
ATOM     67  C   UNL A   1      46.818  26.159  32.254  1.00  0.00     0.031 A 
ATOM     68  C   UNL A   1      53.234  28.082  33.330  1.00  0.00     0.049 A 
ATOM     69  C   UNL A   1      47.683  26.371  33.427  1.00  0.00     0.074 A 
ATOM     70  C   UNL A   1      52.493  29.076  33.934  1.00  0.00     0.029 A 
ATOM     71  N   UNL A   1      52.776  26.875  33.825  1.00  0.00    -0.354 N 
ATOM     72  N   UNL A   1      48.452  25.436  33.892  1.00  0.00    -0.248 NA
ATOM     73  C   UNL A   1      47.658  27.608  34.201  1.00  0.00     0.031 C 
ATOM     74  C   UNL A   1      51.334  28.427  34.420  1.00  0.00     0.029 A 
ATOM     75  C   UNL A   1      51.513  27.049  34.356  1.00  0.00     0.049 A 
ATOM     76  H   UNL A   1      53.273  26.026  33.802  1.00  0.00     0.167 HD
ATOM     77  C   UNL A   1      49.334  26.113  34.684  1.00  0.00     0.074 A 
ATOM     78  C   UNL A   1      48.652  27.339  35.049  1.00  0.00     0.031 C 
ATOM     79  C   UNL A   1      50.660  25.885  34.496  1.00  0.00     0.031 A 
BRANCH  66  80
ATOM     80  C   UNL A   1      55.042  26.963  31.870  1.00  0.00    -0.014 A 
ATOM     81  C   UNL A   1      54.911  25.737  32.535  1.00  0.00     0.010 A 
ATOM     82  C   UNL A   1      56.150  27.157  31.020  1.00  0.00     0.010 A 
ATOM     83  C   UNL A   1      55.887  24.746  32.387  1.00  0.00     0.020 A 
ATOM     84  C   UNL A   1      57.135  26.179  30.879  1.00  0.00     0.020 A 
ATOM     85  C   UNL A   1      56.999  24.977  31.570  1.00  0.00     0.054 A 
BRANCH  85  86
ATOM     86  S   UNL A   1      58.286  23.704  31.474  1.00  0.00     0.124 S 
ATOM     87  O   UNL A   1      59.511  24.497  31.377  1.00  0.00    -0.237 OA
ATOM     88  O   UNL A   1      58.109  22.992  32.737  1.00  0.00    -0.237 OA
ATOM     89  O   UNL A   1      57.951  22.952  30.268  1.00  0.00    -0.744 OA
ENDBRANCH  85  86
ENDBRANCH  66  80
BRANCH  67  90
ATOM     90  C   UNL A   1      45.376  25.900  32.698  1.00  0.00    -0.014 A 
ATOM     91  C   UNL A   1      45.059  24.643  33.311  1.00  0.00     0.010 A 
ATOM     92  C   UNL A   1      44.450  26.929  32.919  1.00  0.00     0.010 A 
ATOM     93  C   UNL A   1      43.996  24.470  34.216  1.00  0.00     0.020 A 
ATOM     94  C   UNL A   1      43.348  26.750  33.803  1.00  0.00     0.020 A 
ATOM     95  C   UNL A   1      43.161  25.543  34.488  1.00  0.00     0.054 A 
BRANCH  95  96
ATOM     96  S   UNL A   1      41.945  25.382  35.844  1.00  0.00     0.124 S 
ATOM     97  O   UNL A   1      41.413  24.037  35.647  1.00  0.00    -0.237 OA
ATOM     98  O   UNL A   1      42.773  25.561  37.035  1.00  0.00    -0.237 OA
ATOM     99  O   UNL A   1      41.001  26.469  35.588  1.00  0.00    -0.744 OA
ENDBRANCH  95  96
ENDBRANCH  67  90
BRANCH  79 100
ATOM    100  C   UNL A   1      51.089  24.443  34.240  1.00  0.00    -0.014 A 
ATOM    101  C   UNL A   1      50.996  23.386  35.179  1.00  0.00     0.010 A 
ATOM    102  C   UNL A   1      51.719  24.150  33.018  1.00  0.00     0.010 A 
ATOM    103  C   UNL A   1      51.608  22.143  34.960  1.00  0.00     0.020 A 
ATOM    104  C   UNL A   1      52.292  22.893  32.770  1.00  0.00     0.020 A 
ATOM    105  C   UNL A   1      52.275  21.911  33.761  1.00  0.00     0.054 A 
BRANCH 105 106
ATOM    106  S   UNL A   1      53.161  20.343  33.540  1.00  0.00     0.124 S 
ATOM    107  O   UNL A   1      54.304  20.504  34.438  1.00  0.00    -0.237 OA
ATOM    108  O   UNL A   1      52.176  19.351  33.960  1.00  0.00    -0.237 OA
ATOM    109  O   UNL A   1      53.499  20.331  32.119  1.00  0.00    -0.744 OA
ENDBRANCH 105 106
ENDBRANCH  79 100
ENDBRANCH  53  54
ENDBRANCH  45  48
ENDBRANCH  43  44
ENDBRANCH  42  43
ENDBRANCH  41  42
ENDBRANCH  40  41
ENDBRANCH   1  40
TORSDOF 25
ENDMDL
MODEL 2
REMARK VINA RESULT:      -8.2      2.655      4.019
REMARK SMILES Cc1c(CC(=O)N[C@@H](CCO)C(=O)NCCCCCCNC(=O)c2ccc(-c3c4nc(c(-c5ccc(S(=O)(=O)[O-])cc5)c5ccc([nH]5)c(-c5ccc(S(=O)(=O)[O-])cc5)c5nc(c(-c6ccc(S(=O)(=O)[O-])cc6)c6ccc3[nH]6)C=C5)C=C4)cc2)cc(-c2ccc(S(C)(=O)=O)cc2)n1-c1ccc(F)cc1
REMARK SMILES IDX 16 1 15 2 14 3 12 4 13 5 8 7 7 8 5 9 6 10 4 12 3 13 1 14
REMARK SMILES IDX 2 15 96 16 84 17 85 18 97 19 98 20 103 21 99 22 102 23
REMARK SMILES IDX 100 24 101 25 86 26 87 27 95 28 88 29 94 30 89 31 90 32
REMARK SMILES IDX 91 33 92 34 93 35 9 36 10 37 11 38 17 40 18 41 19 42 20 43
REMARK SMILES IDX 21 44 22 45 23 47 24 48 25 49 83 50 26 51 82 52 27 53 28 54
REMARK SMILES IDX 29 55 76 56 30 57 81 58 75 59 77 60 31 61 80 62 74 63 73 64
REMARK SMILES IDX 32 66 62 67 43 68 61 69 44 70 47 71 60 72 78 73 45 74 46 75
REMARK SMILES IDX 59 77 79 78 48 79 33 80 34 81 42 82 35 83 41 84 36 85 37 86
REMARK SMILES IDX 38 87 39 88 40 89 63 90 64 91 72 92 65 93 71 94 66 95 67 96
REMARK SMILES IDX 68 97 69 98 70 99 49 100 50 101 58 102 51 103 57 104 52 105
REMARK SMILES IDX 53 106 54 107 55 108 56 109
REMARK H PARENT 14 6 7 11 11 39 21 46 77 65 47 76
REMARK Flexibility Score: inf
ROOT
ATOM      1  C   UNL A   1      46.087  24.594  27.357  1.00  0.00     0.021 C 
ENDROOT
BRANCH   1   2
ATOM      2  C   UNL A   1      45.187  23.396  27.119  1.00  0.00     0.116 C 
BRANCH   2   3
ATOM      3  N   UNL A   1      44.757  23.296  25.742  1.00  0.00    -0.354 N 
ATOM      4  C   UNL A   1      43.821  22.512  25.142  1.00  0.00     0.242 C 
ATOM      5  O   UNL A   1      43.570  22.758  23.958  1.00  0.00    -0.273 OA
ATOM      6  H   UNL A   1      45.227  23.904  25.127  1.00  0.00     0.163 HD
BRANCH   4   7
ATOM      7  C   UNL A   1      42.972  21.480  25.912  1.00  0.00     0.173 C 
BRANCH   7   8
ATOM      8  N   UNL A   1      41.527  21.699  25.820  1.00  0.00    -0.344 N 
ATOM      9  C   UNL A   1      40.727  22.463  26.626  1.00  0.00     0.225 C 
ATOM     10  O   UNL A   1      39.555  22.624  26.280  1.00  0.00    -0.275 OA
ATOM     11  H   UNL A   1      41.070  21.235  25.082  1.00  0.00     0.164 HD
BRANCH   9  12
ATOM     12  C   UNL A   1      41.271  23.095  27.901  1.00  0.00     0.137 C 
BRANCH  12  13
ATOM     13  C   UNL A   1      41.193  24.593  27.870  1.00  0.00    -0.017 A 
ATOM     14  C   UNL A   1      38.821  24.957  28.838  1.00  0.00     0.065 C 
ATOM     15  C   UNL A   1      40.159  25.395  28.332  1.00  0.00     0.024 A 
ATOM     16  N   UNL A   1      40.555  26.725  28.224  1.00  0.00    -0.314 N 
ATOM     17  C   UNL A   1      42.204  25.461  27.388  1.00  0.00     0.033 A 
ATOM     18  C   UNL A   1      41.837  26.764  27.671  1.00  0.00     0.053 A 
BRANCH  16  19
ATOM     19  C   UNL A   1      39.802  27.860  28.632  1.00  0.00     0.046 A 
ATOM     20  C   UNL A   1      39.221  28.685  27.658  1.00  0.00     0.029 A 
ATOM     21  C   UNL A   1      39.675  28.169  29.993  1.00  0.00     0.029 A 
ATOM     22  C   UNL A   1      38.507  29.816  28.050  1.00  0.00     0.041 A 
ATOM     23  C   UNL A   1      38.973  29.313  30.375  1.00  0.00     0.041 A 
ATOM     24  C   UNL A   1      38.396  30.123  29.402  1.00  0.00     0.123 A 
ATOM     25  F   UNL A   1      37.726  31.223  29.771  1.00  0.00    -0.207 F 
ENDBRANCH  16  19
BRANCH  18  26
ATOM     26  C   UNL A   1      42.693  27.952  27.574  1.00  0.00    -0.001 A 
ATOM     27  C   UNL A   1      43.431  28.398  28.682  1.00  0.00     0.011 A 
ATOM     28  C   UNL A   1      42.827  28.623  26.351  1.00  0.00     0.011 A 
ATOM     29  C   UNL A   1      44.266  29.513  28.582  1.00  0.00     0.021 A 
ATOM     30  C   UNL A   1      43.657  29.742  26.243  1.00  0.00     0.021 A 
ATOM     31  C   UNL A   1      44.364  30.186  27.364  1.00  0.00     0.067 A 
BRANCH  31  32
ATOM     32  S   UNL A   1      45.433  31.599  27.235  1.00  0.00     0.175 S 
ATOM     33  C   UNL A   1      44.373  32.976  27.590  1.00  0.00     0.163 C 
ATOM     34  O   UNL A   1      46.412  31.492  28.303  1.00  0.00    -0.224 OA
ATOM     35  O   UNL A   1      45.850  31.718  25.853  1.00  0.00    -0.224 OA
ENDBRANCH  31  32
ENDBRANCH  18  26
ENDBRANCH  12  13
ENDBRANCH   9  12
ENDBRANCH   7   8
BRANCH   7  36
ATOM     36  C   UNL A   1      43.398  20.010  25.712  1.00  0.00     0.063 C 
BRANCH  36  37
ATOM     37  C   UNL A   1      42.398  18.896  25.987  1.00  0.00     0.158 C 
BRANCH  37  38
ATOM     38  O   UNL A   1      41.973  18.867  27.341  1.00  0.00    -0.396 OA
ATOM     39  H   UNL A   1      42.597  19.371  27.886  1.00  0.00     0.210 HD
ENDBRANCH  37  38
ENDBRANCH  36  37
ENDBRANCH   7  36
ENDBRANCH   4   7
ENDBRANCH   2   3
ENDBRANCH   1   2
BRANCH   1  40
ATOM     40  C   UNL A   1      45.730  25.838  26.537  1.00  0.00     0.002 C 
BRANCH  40  41
ATOM     41  C   UNL A   1      46.639  27.067  26.681  1.00  0.00     0.002 C 
BRANCH  41  42
ATOM     42  C   UNL A   1      47.863  27.196  25.756  1.00  0.00     0.021 C 
BRANCH  42  43
ATOM     43  C   UNL A   1      48.554  25.911  25.275  1.00  0.00     0.116 C 
BRANCH  43  44
ATOM     44  N   UNL A   1      49.949  26.057  24.963  1.00  0.00    -0.352 N 
ATOM     45  C   UNL A   1      51.012  25.937  25.838  1.00  0.00     0.251 C 
ATOM     46  H   UNL A   1      50.170  26.263  24.027  1.00  0.00     0.163 HD
ATOM     47  O   UNL A   1      52.147  26.062  25.387  1.00  0.00    -0.269 OA
BRANCH  45  48
ATOM     48  C   UNL A   1      50.800  25.774  27.317  1.00  0.00     0.039 A 
ATOM     49  C   UNL A   1      49.775  24.932  27.740  1.00  0.00     0.014 A 
ATOM     50  C   UNL A   1      51.400  26.602  28.279  1.00  0.00     0.014 A 
ATOM     51  C   UNL A   1      49.355  24.923  29.096  1.00  0.00     0.010 A 
ATOM     52  C   UNL A   1      50.936  26.630  29.640  1.00  0.00     0.010 A 
ATOM     53  C   UNL A   1      49.869  25.818  30.084  1.00  0.00    -0.014 A 
BRANCH  53  54
ATOM     54  C   UNL A   1      48.839  26.292  31.153  1.00  0.00     0.031 A 
ATOM     55  C   UNL A   1      49.676  26.574  32.354  1.00  0.00     0.074 A 
ATOM     56  C   UNL A   1      47.484  26.476  31.309  1.00  0.00     0.049 A 
ATOM     57  N   UNL A   1      50.440  25.659  32.878  1.00  0.00    -0.248 NA
ATOM     58  C   UNL A   1      49.969  27.945  32.773  1.00  0.00     0.031 C 
ATOM     59  C   UNL A   1      46.413  26.207  30.343  1.00  0.00     0.029 A 
ATOM     60  N   UNL A   1      46.736  26.978  32.398  1.00  0.00    -0.354 N 
ATOM     61  C   UNL A   1      51.158  26.284  33.870  1.00  0.00     0.074 A 
ATOM     62  C   UNL A   1      50.973  27.709  33.622  1.00  0.00     0.031 C 
ATOM     63  C   UNL A   1      45.211  26.658  30.806  1.00  0.00     0.029 A 
ATOM     64  C   UNL A   1      45.350  27.206  32.152  1.00  0.00     0.049 A 
ATOM     65  H   UNL A   1      47.148  27.158  33.274  1.00  0.00     0.167 HD
ATOM     66  C   UNL A   1      51.209  25.668  35.084  1.00  0.00     0.031 A 
ATOM     67  C   UNL A   1      44.381  27.743  32.975  1.00  0.00     0.031 A 
ATOM     68  C   UNL A   1      50.261  26.237  36.006  1.00  0.00     0.049 A 
ATOM     69  C   UNL A   1      44.860  27.606  34.361  1.00  0.00     0.074 A 
ATOM     70  C   UNL A   1      50.004  27.526  36.422  1.00  0.00     0.029 A 
ATOM     71  N   UNL A   1      49.128  25.489  36.272  1.00  0.00    -0.354 N 
ATOM     72  N   UNL A   1      44.869  26.465  34.977  1.00  0.00    -0.248 NA
ATOM     73  C   UNL A   1      45.259  28.757  35.165  1.00  0.00     0.031 C 
ATOM     74  C   UNL A   1      48.594  27.611  36.506  1.00  0.00     0.029 A 
ATOM     75  C   UNL A   1      48.046  26.335  36.416  1.00  0.00     0.049 A 
ATOM     76  H   UNL A   1      49.099  24.508  36.347  1.00  0.00     0.167 HD
ATOM     77  C   UNL A   1      45.708  26.678  36.032  1.00  0.00     0.074 A 
ATOM     78  C   UNL A   1      45.686  28.110  36.251  1.00  0.00     0.031 C 
ATOM     79  C   UNL A   1      46.716  25.789  36.230  1.00  0.00     0.031 A 
BRANCH  66  80
ATOM     80  C   UNL A   1      51.558  24.209  35.080  1.00  0.00    -0.014 A 
ATOM     81  C   UNL A   1      52.461  23.739  34.116  1.00  0.00     0.010 A 
ATOM     82  C   UNL A   1      50.986  23.285  35.979  1.00  0.00     0.010 A 
ATOM     83  C   UNL A   1      52.751  22.373  34.027  1.00  0.00     0.020 A 
ATOM     84  C   UNL A   1      51.260  21.920  35.886  1.00  0.00     0.020 A 
ATOM     85  C   UNL A   1      52.140  21.471  34.904  1.00  0.00     0.054 A 
BRANCH  85  86
ATOM     86  S   UNL A   1      52.473  19.701  34.701  1.00  0.00     0.124 S 
ATOM     87  O   UNL A   1      53.229  19.662  33.449  1.00  0.00    -0.237 OA
ATOM     88  O   UNL A   1      53.248  19.394  35.900  1.00  0.00    -0.237 OA
ATOM     89  O   UNL A   1      51.146  19.096  34.630  1.00  0.00    -0.744 OA
ENDBRANCH  85  86
ENDBRANCH  66  80
BRANCH  67  90
ATOM     90  C   UNL A   1      42.955  28.300  32.959  1.00  0.00    -0.014 A 
ATOM     91  C   UNL A   1      41.992  27.756  33.870  1.00  0.00     0.010 A 
ATOM     92  C   UNL A   1      42.634  29.553  32.418  1.00  0.00     0.010 A 
ATOM     93  C   UNL A   1      40.880  28.477  34.342  1.00  0.00     0.020 A 
ATOM     94  C   UNL A   1      41.488  30.273  32.860  1.00  0.00     0.020 A 
ATOM     95  C   UNL A   1      40.652  29.757  33.859  1.00  0.00     0.054 A 
BRANCH  95  96
ATOM     96  S   UNL A   1      39.360  30.775  34.656  1.00  0.00     0.124 S 
ATOM     97  O   UNL A   1      39.232  30.164  35.976  1.00  0.00    -0.237 OA
ATOM     98  O   UNL A   1      39.952  32.111  34.637  1.00  0.00    -0.237 OA
ATOM     99  O   UNL A   1      38.202  30.607  33.779  1.00  0.00    -0.744 OA
ENDBRANCH  95  96
ENDBRANCH  67  90
BRANCH  79 100
ATOM    100  C   UNL A   1      46.392  24.311  36.027  1.00  0.00    -0.014 A 
ATOM    101  C   UNL A   1      45.918  23.435  37.034  1.00  0.00     0.010 A 
ATOM    102  C   UNL A   1      46.676  23.740  34.774  1.00  0.00     0.010 A 
ATOM    103  C   UNL A   1      45.852  22.048  36.840  1.00  0.00     0.020 A 
ATOM    104  C   UNL A   1      46.566  22.358  34.555  1.00  0.00     0.020 A 
ATOM    105  C   UNL A   1      46.199  21.513  35.603  1.00  0.00     0.054 A 
BRANCH 105 106
ATOM    106  S   UNL A   1      46.221  19.710  35.402  1.00  0.00     0.124 S 
ATOM    107  O   UNL A   1      47.273  19.522  34.404  1.00  0.00    -0.237 OA
ATOM    108  O   UNL A   1      46.547  19.237  36.745  1.00  0.00    -0.237 OA
ATOM    109  O   UNL A   1      44.873  19.395  34.934  1.00  0.00    -0.744 OA
ENDBRANCH 105 106
ENDBRANCH  79 100
ENDBRANCH  53  54
ENDBRANCH  45  48
ENDBRANCH  43  44
ENDBRANCH  42  43
ENDBRANCH  41  42
ENDBRANCH  40  41
ENDBRANCH   1  40
TORSDOF 25
ENDMDL
MODEL 3
REMARK VINA RESULT:      -8.0      4.576     10.903
REMARK SMILES Cc1c(CC(=O)N[C@@H](CCO)C(=O)NCCCCCCNC(=O)c2ccc(-c3c4nc(c(-c5ccc(S(=O)(=O)[O-])cc5)c5ccc([nH]5)c(-c5ccc(S(=O)(=O)[O-])cc5)c5nc(c(-c6ccc(S(=O)(=O)[O-])cc6)c6ccc3[nH]6)C=C5)C=C4)cc2)cc(-c2ccc(S(C)(=O)=O)cc2)n1-c1ccc(F)cc1
REMARK SMILES IDX 16 1 15 2 14 3 12 4 13 5 8 7 7 8 5 9 6 10 4 12 3 13 1 14
REMARK SMILES IDX 2 15 96 16 84 17 85 18 97 19 98 20 103 21 99 22 102 23
REMARK SMILES IDX 100 24 101 25 86 26 87 27 95 28 88 29 94 30 89 31 90 32
REMARK SMILES IDX 91 33 92 34 93 35 9 36 10 37 11 38 17 40 18 41 19 42 20 43
REMARK SMILES IDX 21 44 22 45 23 47 24 48 25 49 83 50 26 51 82 52 27 53 28 54
REMARK SMILES IDX 29 55 76 56 30 57 81 58 75 59 77 60 31 61 80 62 74 63 73 64
REMARK SMILES IDX 32 66 62 67 43 68 61 69 44 70 47 71 60 72 78 73 45 74 46 75
REMARK SMILES IDX 59 77 79 78 48 79 33 80 34 81 42 82 35 83 41 84 36 85 37 86
REMARK SMILES IDX 38 87 39 88 40 89 63 90 64 91 72 92 65 93 71 94 66 95 67 96
REMARK SMILES IDX 68 97 69 98 70 99 49 100 50 101 58 102 51 103 57 104 52 105
REMARK SMILES IDX 53 106 54 107 55 108 56 109
REMARK H PARENT 14 6 7 11 11 39 21 46 77 65 47 76
REMARK Flexibility Score: inf
ROOT
ATOM      1  C   UNL A   1      40.704  29.012  27.794  1.00  0.00     0.021 C 
ENDROOT
BRANCH   1   2
ATOM      2  C   UNL A   1      40.541  27.836  26.850  1.00  0.00     0.116 C 
BRANCH   2   3
ATOM      3  N   UNL A   1      40.495  26.571  27.550  1.00  0.00    -0.354 N 
ATOM      4  C   UNL A   1      41.375  25.534  27.601  1.00  0.00     0.242 C 
ATOM      5  O   UNL A   1      41.125  24.638  28.414  1.00  0.00    -0.273 OA
ATOM      6  H   UNL A   1      39.681  26.436  28.087  1.00  0.00     0.163 HD
BRANCH   4   7
ATOM      7  C   UNL A   1      42.711  25.527  26.832  1.00  0.00     0.173 C 
BRANCH   7   8
ATOM      8  N   UNL A   1      42.689  24.748  25.592  1.00  0.00    -0.344 N 
ATOM      9  C   UNL A   1      43.433  23.647  25.263  1.00  0.00     0.225 C 
ATOM     10  O   UNL A   1      43.148  23.058  24.218  1.00  0.00    -0.275 OA
ATOM     11  H   UNL A   1      42.056  25.056  24.905  1.00  0.00     0.164 HD
BRANCH   9  12
ATOM     12  C   UNL A   1      44.567  23.169  26.160  1.00  0.00     0.137 C 
BRANCH  12  13
ATOM     13  C   UNL A   1      45.652  24.194  26.299  1.00  0.00    -0.017 A 
ATOM     14  C   UNL A   1      45.806  24.365  28.877  1.00  0.00     0.065 C 
ATOM     15  C   UNL A   1      46.227  24.663  27.472  1.00  0.00     0.024 A 
ATOM     16  N   UNL A   1      47.280  25.510  27.137  1.00  0.00    -0.314 N 
ATOM     17  C   UNL A   1      46.316  24.843  25.228  1.00  0.00     0.033 A 
ATOM     18  C   UNL A   1      47.356  25.594  25.745  1.00  0.00     0.053 A 
BRANCH  16  19
ATOM     19  C   UNL A   1      48.154  26.163  28.048  1.00  0.00     0.046 A 
ATOM     20  C   UNL A   1      49.214  25.442  28.617  1.00  0.00     0.029 A 
ATOM     21  C   UNL A   1      47.934  27.500  28.400  1.00  0.00     0.029 A 
ATOM     22  C   UNL A   1      50.057  26.067  29.535  1.00  0.00     0.041 A 
ATOM     23  C   UNL A   1      48.773  28.112  29.332  1.00  0.00     0.041 A 
ATOM     24  C   UNL A   1      49.825  27.392  29.889  1.00  0.00     0.123 A 
ATOM     25  F   UNL A   1      50.626  27.981  30.787  1.00  0.00    -0.207 F 
ENDBRANCH  16  19
BRANCH  18  26
ATOM     26  C   UNL A   1      48.442  26.221  24.982  1.00  0.00    -0.001 A 
ATOM     27  C   UNL A   1      49.782  26.046  25.366  1.00  0.00     0.011 A 
ATOM     28  C   UNL A   1      48.155  26.957  23.826  1.00  0.00     0.011 A 
ATOM     29  C   UNL A   1      50.817  26.621  24.625  1.00  0.00     0.021 A 
ATOM     30  C   UNL A   1      49.183  27.539  23.081  1.00  0.00     0.021 A 
ATOM     31  C   UNL A   1      50.509  27.376  23.492  1.00  0.00     0.067 A 
BRANCH  31  32
ATOM     32  S   UNL A   1      51.826  28.100  22.545  1.00  0.00     0.175 S 
ATOM     33  C   UNL A   1      53.293  27.660  23.440  1.00  0.00     0.163 C 
ATOM     34  O   UNL A   1      51.856  27.417  21.263  1.00  0.00    -0.224 OA
ATOM     35  O   UNL A   1      51.689  29.539  22.618  1.00  0.00    -0.224 OA
ENDBRANCH  31  32
ENDBRANCH  18  26
ENDBRANCH  12  13
ENDBRANCH   9  12
ENDBRANCH   7   8
BRANCH   7  36
ATOM     36  C   UNL A   1      43.387  26.907  26.694  1.00  0.00     0.063 C 
BRANCH  36  37
ATOM     37  C   UNL A   1      43.907  27.354  25.334  1.00  0.00     0.158 C 
BRANCH  37  38
ATOM     38  O   UNL A   1      42.868  27.535  24.385  1.00  0.00    -0.396 OA
ATOM     39  H   UNL A   1      42.015  27.326  24.797  1.00  0.00     0.210 HD
ENDBRANCH  37  38
ENDBRANCH  36  37
ENDBRANCH   7  36
ENDBRANCH   4   7
ENDBRANCH   2   3
ENDBRANCH   1   2
BRANCH   1  40
ATOM     40  C   UNL A   1      39.425  29.431  28.525  1.00  0.00     0.002 C 
BRANCH  40  41
ATOM     41  C   UNL A   1      38.088  28.931  27.959  1.00  0.00     0.002 C 
BRANCH  41  42
ATOM     42  C   UNL A   1      36.916  29.922  27.842  1.00  0.00     0.021 C 
BRANCH  42  43
ATOM     43  C   UNL A   1      35.852  29.929  28.951  1.00  0.00     0.116 C 
BRANCH  43  44
ATOM     44  N   UNL A   1      34.964  31.058  28.927  1.00  0.00    -0.352 N 
ATOM     45  C   UNL A   1      35.175  32.291  29.513  1.00  0.00     0.251 C 
ATOM     46  H   UNL A   1      34.116  30.940  28.441  1.00  0.00     0.163 HD
ATOM     47  O   UNL A   1      34.316  33.156  29.362  1.00  0.00    -0.269 OA
BRANCH  45  48
ATOM     48  C   UNL A   1      36.356  32.548  30.406  1.00  0.00     0.039 A 
ATOM     49  C   UNL A   1      37.587  32.793  29.804  1.00  0.00     0.014 A 
ATOM     50  C   UNL A   1      36.344  32.311  31.789  1.00  0.00     0.014 A 
ATOM     51  C   UNL A   1      38.783  32.793  30.569  1.00  0.00     0.010 A 
ATOM     52  C   UNL A   1      37.563  32.257  32.552  1.00  0.00     0.010 A 
ATOM     53  C   UNL A   1      38.828  32.458  31.957  1.00  0.00    -0.014 A 
BRANCH  53  54
ATOM     54  C   UNL A   1      40.105  31.692  32.416  1.00  0.00     0.031 A 
ATOM     55  C   UNL A   1      40.969  32.757  33.003  1.00  0.00     0.074 A 
ATOM     56  C   UNL A   1      40.640  30.424  32.405  1.00  0.00     0.049 A 
ATOM     57  N   UNL A   1      41.326  33.799  32.308  1.00  0.00    -0.248 NA
ATOM     58  C   UNL A   1      41.147  32.882  34.449  1.00  0.00     0.031 C 
ATOM     59  C   UNL A   1      40.068  29.201  31.830  1.00  0.00     0.029 A 
ATOM     60  N   UNL A   1      41.849  29.923  32.939  1.00  0.00    -0.354 N 
ATOM     61  C   UNL A   1      41.993  34.626  33.179  1.00  0.00     0.074 A 
ATOM     62  C   UNL A   1      41.675  34.108  34.503  1.00  0.00     0.031 C 
ATOM     63  C   UNL A   1      40.823  28.111  32.150  1.00  0.00     0.029 A 
ATOM     64  C   UNL A   1      42.007  28.507  32.907  1.00  0.00     0.049 A 
ATOM     65  H   UNL A   1      42.540  30.517  33.311  1.00  0.00     0.167 HD
ATOM     66  C   UNL A   1      43.190  35.129  32.765  1.00  0.00     0.031 A 
ATOM     67  C   UNL A   1      43.026  27.717  33.400  1.00  0.00     0.031 A 
ATOM     68  C   UNL A   1      44.294  34.381  33.308  1.00  0.00     0.049 A 
ATOM     69  C   UNL A   1      44.212  28.577  33.549  1.00  0.00     0.074 A 
ATOM     70  C   UNL A   1      44.642  34.004  34.588  1.00  0.00     0.029 A 
ATOM     71  N   UNL A   1      44.957  33.534  32.439  1.00  0.00    -0.354 N 
ATOM     72  N   UNL A   1      44.904  28.977  32.528  1.00  0.00    -0.248 NA
ATOM     73  C   UNL A   1      44.745  28.952  34.855  1.00  0.00     0.031 C 
ATOM     74  C   UNL A   1      45.133  32.684  34.462  1.00  0.00     0.029 A 
ATOM     75  C   UNL A   1      45.335  32.391  33.116  1.00  0.00     0.049 A 
ATOM     76  H   UNL A   1      45.131  33.718  31.488  1.00  0.00     0.167 HD
ATOM     77  C   UNL A   1      45.635  30.018  33.025  1.00  0.00     0.074 A 
ATOM     78  C   UNL A   1      45.711  29.779  34.452  1.00  0.00     0.031 C 
ATOM     79  C   UNL A   1      45.608  31.194  32.345  1.00  0.00     0.031 A 
BRANCH  66  80
ATOM     80  C   UNL A   1      43.223  35.740  31.396  1.00  0.00    -0.014 A 
ATOM     81  C   UNL A   1      42.607  35.053  30.340  1.00  0.00     0.010 A 
ATOM     82  C   UNL A   1      43.881  36.957  31.119  1.00  0.00     0.010 A 
ATOM     83  C   UNL A   1      42.685  35.549  29.035  1.00  0.00     0.020 A 
ATOM     84  C   UNL A   1      43.974  37.449  29.816  1.00  0.00     0.020 A 
ATOM     85  C   UNL A   1      43.378  36.737  28.778  1.00  0.00     0.054 A 
BRANCH  85  86
ATOM     86  S   UNL A   1      43.531  37.301  27.063  1.00  0.00     0.124 S 
ATOM     87  O   UNL A   1      42.882  36.224  26.315  1.00  0.00    -0.237 OA
ATOM     88  O   UNL A   1      42.799  38.564  27.088  1.00  0.00    -0.237 OA
ATOM     89  O   UNL A   1      44.972  37.405  26.851  1.00  0.00    -0.744 OA
ENDBRANCH  85  86
ENDBRANCH  66  80
BRANCH  67  90
ATOM     90  C   UNL A   1      43.382  26.263  33.718  1.00  0.00    -0.014 A 
ATOM     91  C   UNL A   1      44.451  25.642  32.993  1.00  0.00     0.010 A 
ATOM     92  C   UNL A   1      43.021  25.634  34.918  1.00  0.00     0.010 A 
ATOM     93  C   UNL A   1      45.220  24.580  33.506  1.00  0.00     0.020 A 
ATOM     94  C   UNL A   1      43.769  24.534  35.426  1.00  0.00     0.020 A 
ATOM     95  C   UNL A   1      44.896  24.052  34.747  1.00  0.00     0.054 A 
BRANCH  95  96
ATOM     96  S   UNL A   1      46.043  22.852  35.513  1.00  0.00     0.124 S 
ATOM     97  O   UNL A   1      47.103  22.733  34.516  1.00  0.00    -0.237 OA
ATOM     98  O   UNL A   1      46.421  23.523  36.755  1.00  0.00    -0.237 OA
ATOM     99  O   UNL A   1      45.219  21.657  35.691  1.00  0.00    -0.744 OA
ENDBRANCH  95  96
ENDBRANCH  67  90
BRANCH  79 100
ATOM    100  C   UNL A   1      45.655  31.119  30.822  1.00  0.00    -0.014 A 
ATOM    101  C   UNL A   1      46.828  31.229  30.036  1.00  0.00     0.010 A 
ATOM    102  C   UNL A   1      44.434  31.036  30.129  1.00  0.00     0.010 A 
ATOM    103  C   UNL A   1      46.777  31.374  28.642  1.00  0.00     0.020 A 
ATOM    104  C   UNL A   1      44.377  31.131  28.729  1.00  0.00     0.020 A 
ATOM    105  C   UNL A   1      45.545  31.347  27.997  1.00  0.00     0.054 A 
BRANCH 105 106
ATOM    106  S   UNL A   1      45.485  31.653  26.209  1.00  0.00     0.124 S 
ATOM    107  O   UNL A   1      46.217  30.507  25.673  1.00  0.00    -0.237 OA
ATOM    108  O   UNL A   1      44.052  31.661  25.928  1.00  0.00    -0.237 OA
ATOM    109  O   UNL A   1      46.164  32.938  26.053  1.00  0.00    -0.744 OA
ENDBRANCH 105 106
ENDBRANCH  79 100
ENDBRANCH  53  54
ENDBRANCH  45  48
ENDBRANCH  43  44
ENDBRANCH  42  43
ENDBRANCH  41  42
ENDBRANCH  40  41
ENDBRANCH   1  40
TORSDOF 25
ENDMDL
