MODEL 1
REMARK VINA RESULT:     -11.5      0.000      0.000
REMARK SMILES CCOC(=O)c1c(NC(=O)[C@@H]2[C@@H](C(=O)NCCCCCCNC(=O)c3ccc(-c4c5nc(c(-c6ccc(S(=O)(=O)[O-])cc6)c6ccc([nH]6)c(-c6ccc(S(=O)(=O)[O-])cc6)c6nc(c(-c7ccc(S(=O)(=O)[O-])cc7)c7ccc4[nH]7)C=C6)C=C5)cc3)[C@@H]3C=C[C@H]2CC3)sc2c1CCC2
REMARK SMILES IDX 17 1 16 2 15 3 13 4 14 5 12 7 11 8 88 9 85 10 87 11 89 12
REMARK SMILES IDX 86 13 90 14 9 15 8 16 10 18 7 19 6 20 93 21 91 22 92 23
REMARK SMILES IDX 94 24 96 25 95 26 4 27 5 28 3 29 2 30 1 31 18 32 19 33 20 34
REMARK SMILES IDX 21 35 22 36 23 37 24 39 25 40 26 41 84 42 27 43 83 44 28 45
REMARK SMILES IDX 29 46 30 47 77 48 31 49 82 50 76 51 78 52 32 53 81 54 75 55
REMARK SMILES IDX 74 56 33 58 63 59 44 60 62 61 45 62 48 63 61 64 79 65 46 66
REMARK SMILES IDX 47 67 60 69 80 70 49 71 34 72 35 73 43 74 36 75 42 76 37 77
REMARK SMILES IDX 38 78 39 79 40 80 41 81 64 82 65 83 73 84 66 85 72 86 67 87
REMARK SMILES IDX 68 88 69 89 70 90 71 91 50 92 51 93 59 94 52 95 58 96 53 97
REMARK SMILES IDX 54 98 55 99 56 100 57 101
REMARK H PARENT 15 6 8 17 22 38 78 57 48 68
REMARK Flexibility Score: inf
ROOT
ATOM      1  C   UNL A   1      37.246  24.140  26.627  1.00  0.00     0.021 C 
ENDROOT
BRANCH   1   2
ATOM      2  C   UNL A   1      36.837  23.548  25.283  1.00  0.00     0.116 C 
BRANCH   2   3
ATOM      3  N   UNL A   1      37.005  22.102  25.223  1.00  0.00    -0.356 N 
ATOM      4  C   UNL A   1      36.144  21.113  24.828  1.00  0.00     0.224 C 
ATOM      5  O   UNL A   1      36.512  19.948  24.969  1.00  0.00    -0.275 OA
ATOM      6  H   UNL A   1      37.888  21.780  25.519  1.00  0.00     0.163 HD
BRANCH   4   7
ATOM      7  C   UNL A   1      34.785  21.488  24.241  1.00  0.00     0.098 C 
ATOM      8  C   UNL A   1      34.346  22.907  24.588  1.00  0.00     0.099 C 
ATOM      9  C   UNL A   1      33.046  22.836  25.449  1.00  0.00     0.025 C 
ATOM     10  C   UNL A   1      33.627  20.483  24.537  1.00  0.00     0.025 C 
ATOM     11  C   UNL A   1      31.968  22.263  24.567  1.00  0.00    -0.027 C 
ATOM     12  C   UNL A   1      33.230  21.802  26.614  1.00  0.00     0.009 C 
ATOM     13  C   UNL A   1      32.277  21.051  24.074  1.00  0.00    -0.027 C 
ATOM     14  C   UNL A   1      33.433  20.369  26.051  1.00  0.00     0.009 C 
BRANCH   8  15
ATOM     15  C   UNL A   1      34.248  23.900  23.392  1.00  0.00     0.229 C 
ATOM     16  N   UNL A   1      33.888  25.223  23.337  1.00  0.00    -0.317 N 
ATOM     17  H   UNL A   1      33.888  25.570  22.415  1.00  0.00     0.170 HD
ATOM     18  O   UNL A   1      34.664  23.456  22.305  1.00  0.00    -0.274 OA
BRANCH  16  19
ATOM     19  C   UNL A   1      33.524  26.194  24.261  1.00  0.00     0.110 A 
ATOM     20  C   UNL A   1      32.484  27.137  24.197  1.00  0.00     0.098 A 
ATOM     21  C   UNL A   1      32.791  28.176  25.135  1.00  0.00    -0.017 A 
ATOM     22  S   UNL A   1      33.965  26.119  25.925  1.00  0.00    -0.122 S 
ATOM     23  C   UNL A   1      33.724  27.751  26.040  1.00  0.00     0.011 A 
ATOM     24  C   UNL A   1      32.358  29.546  25.501  1.00  0.00     0.038 C 
ATOM     25  C   UNL A   1      34.200  28.751  27.007  1.00  0.00     0.047 C 
ATOM     26  C   UNL A   1      33.549  30.030  26.407  1.00  0.00     0.010 C 
BRANCH  20  27
ATOM     27  C   UNL A   1      31.371  27.001  23.279  1.00  0.00     0.341 C 
ATOM     28  O   UNL A   1      31.513  26.449  22.192  1.00  0.00    -0.246 OA
BRANCH  27  29
ATOM     29  O   UNL A   1      30.185  27.444  23.773  1.00  0.00    -0.462 OA
BRANCH  29  30
ATOM     30  C   UNL A   1      29.677  28.653  23.178  1.00  0.00     0.230 C 
ATOM     31  C   UNL A   1      28.180  28.644  22.909  1.00  0.00     0.049 C 
ENDBRANCH  29  30
ENDBRANCH  27  29
ENDBRANCH  20  27
ENDBRANCH  16  19
ENDBRANCH   8  15
ENDBRANCH   4   7
ENDBRANCH   2   3
ENDBRANCH   1   2
BRANCH   1  32
ATOM     32  C   UNL A   1      38.685  24.648  26.705  1.00  0.00     0.002 C 
BRANCH  32  33
ATOM     33  C   UNL A   1      39.532  24.095  27.861  1.00  0.00     0.002 C 
BRANCH  33  34
ATOM     34  C   UNL A   1      40.529  22.980  27.515  1.00  0.00     0.021 C 
BRANCH  34  35
ATOM     35  C   UNL A   1      40.554  22.614  26.041  1.00  0.00     0.116 C 
BRANCH  35  36
ATOM     36  N   UNL A   1      41.914  22.482  25.503  1.00  0.00    -0.352 N 
ATOM     37  C   UNL A   1      42.841  23.482  25.248  1.00  0.00     0.251 C 
ATOM     38  H   UNL A   1      42.207  21.565  25.298  1.00  0.00     0.163 HD
ATOM     39  O   UNL A   1      43.786  23.292  24.492  1.00  0.00    -0.269 OA
BRANCH  37  40
ATOM     40  C   UNL A   1      42.670  24.777  25.929  1.00  0.00     0.039 A 
ATOM     41  C   UNL A   1      41.824  25.791  25.465  1.00  0.00     0.014 A 
ATOM     42  C   UNL A   1      43.386  24.940  27.106  1.00  0.00     0.014 A 
ATOM     43  C   UNL A   1      41.670  26.943  26.240  1.00  0.00     0.010 A 
ATOM     44  C   UNL A   1      43.033  25.925  27.974  1.00  0.00     0.010 A 
ATOM     45  C   UNL A   1      42.284  26.992  27.498  1.00  0.00    -0.014 A 
BRANCH  45  46
ATOM     46  C   UNL A   1      42.175  28.118  28.415  1.00  0.00     0.031 A 
ATOM     47  C   UNL A   1      43.242  29.146  28.264  1.00  0.00     0.074 A 
ATOM     48  C   UNL A   1      40.995  28.342  29.045  1.00  0.00     0.049 A 
ATOM     49  N   UNL A   1      44.091  29.551  29.148  1.00  0.00    -0.248 NA
ATOM     50  C   UNL A   1      43.487  29.697  26.917  1.00  0.00     0.031 C 
ATOM     51  C   UNL A   1      39.750  27.556  28.944  1.00  0.00     0.029 A 
ATOM     52  N   UNL A   1      40.589  29.418  29.763  1.00  0.00    -0.354 N 
ATOM     53  C   UNL A   1      44.828  30.565  28.536  1.00  0.00     0.074 A 
ATOM     54  C   UNL A   1      44.561  30.458  27.126  1.00  0.00     0.031 C 
ATOM     55  C   UNL A   1      38.699  28.315  29.326  1.00  0.00     0.029 A 
ATOM     56  C   UNL A   1      39.204  29.563  29.865  1.00  0.00     0.049 A 
ATOM     57  H   UNL A   1      41.220  30.048  30.180  1.00  0.00     0.167 HD
ATOM     58  C   UNL A   1      45.389  31.579  29.254  1.00  0.00     0.031 A 
ATOM     59  C   UNL A   1      38.526  30.652  30.312  1.00  0.00     0.031 A 
ATOM     60  C   UNL A   1      45.372  31.292  30.665  1.00  0.00     0.049 A 
ATOM     61  C   UNL A   1      39.506  31.479  31.061  1.00  0.00     0.074 A 
ATOM     62  C   UNL A   1      45.925  30.315  31.466  1.00  0.00     0.029 A 
ATOM     63  N   UNL A   1      44.348  31.852  31.396  1.00  0.00    -0.354 N 
ATOM     64  N   UNL A   1      40.098  31.074  32.152  1.00  0.00    -0.248 NA
ATOM     65  C   UNL A   1      40.201  32.527  30.330  1.00  0.00     0.031 C 
ATOM     66  C   UNL A   1      44.910  30.009  32.420  1.00  0.00     0.029 A 
ATOM     67  C   UNL A   1      43.832  30.872  32.206  1.00  0.00     0.049 A 
ATOM     68  H   UNL A   1      44.042  32.786  31.348  1.00  0.00     0.167 HD
ATOM     69  C   UNL A   1      41.418  31.485  32.017  1.00  0.00     0.074 A 
ATOM     70  C   UNL A   1      41.400  32.451  30.917  1.00  0.00     0.031 C 
ATOM     71  C   UNL A   1      42.440  30.792  32.603  1.00  0.00     0.031 A 
BRANCH  58  72
ATOM     72  C   UNL A   1      45.571  32.990  28.740  1.00  0.00    -0.014 A 
ATOM     73  C   UNL A   1      46.821  33.616  28.923  1.00  0.00     0.010 A 
ATOM     74  C   UNL A   1      44.499  33.816  28.342  1.00  0.00     0.010 A 
ATOM     75  C   UNL A   1      46.966  35.005  28.805  1.00  0.00     0.020 A 
ATOM     76  C   UNL A   1      44.643  35.196  28.178  1.00  0.00     0.020 A 
ATOM     77  C   UNL A   1      45.868  35.787  28.451  1.00  0.00     0.054 A 
BRANCH  77  78
ATOM     78  S   UNL A   1      46.032  37.589  28.427  1.00  0.00     0.124 S 
ATOM     79  O   UNL A   1      47.150  37.775  27.508  1.00  0.00    -0.237 OA
ATOM     80  O   UNL A   1      44.724  38.011  27.932  1.00  0.00    -0.237 OA
ATOM     81  O   UNL A   1      46.304  37.926  29.822  1.00  0.00    -0.744 OA
ENDBRANCH  77  78
ENDBRANCH  58  72
BRANCH  59  82
ATOM     82  C   UNL A   1      37.214  31.180  29.844  1.00  0.00    -0.014 A 
ATOM     83  C   UNL A   1      36.235  31.633  30.750  1.00  0.00     0.010 A 
ATOM     84  C   UNL A   1      37.029  31.498  28.481  1.00  0.00     0.010 A 
ATOM     85  C   UNL A   1      35.145  32.415  30.317  1.00  0.00     0.020 A 
ATOM     86  C   UNL A   1      35.946  32.274  28.042  1.00  0.00     0.020 A 
ATOM     87  C   UNL A   1      35.018  32.747  28.966  1.00  0.00     0.054 A 
BRANCH  87  88
ATOM     88  S   UNL A   1      33.706  33.897  28.442  1.00  0.00     0.124 S 
ATOM     89  O   UNL A   1      34.453  34.896  27.683  1.00  0.00    -0.237 OA
ATOM     90  O   UNL A   1      32.825  33.038  27.656  1.00  0.00    -0.237 OA
ATOM     91  O   UNL A   1      33.140  34.370  29.703  1.00  0.00    -0.744 OA
ENDBRANCH  87  88
ENDBRANCH  59  82
BRANCH  71  92
ATOM     92  C   UNL A   1      42.098  29.693  33.588  1.00  0.00    -0.014 A 
ATOM     93  C   UNL A   1      41.893  28.346  33.224  1.00  0.00     0.010 A 
ATOM     94  C   UNL A   1      42.177  30.008  34.954  1.00  0.00     0.010 A 
ATOM     95  C   UNL A   1      41.757  27.348  34.204  1.00  0.00     0.020 A 
ATOM     96  C   UNL A   1      42.061  29.019  35.933  1.00  0.00     0.020 A 
ATOM     97  C   UNL A   1      41.844  27.694  35.556  1.00  0.00     0.054 A 
BRANCH  97  98
ATOM     98  S   UNL A   1      41.726  26.399  36.824  1.00  0.00     0.124 S 
ATOM     99  O   UNL A   1      41.711  25.176  36.028  1.00  0.00    -0.237 OA
ATOM    100  O   UNL A   1      42.929  26.615  37.625  1.00  0.00    -0.237 OA
ATOM    101  O   UNL A   1      40.473  26.702  37.514  1.00  0.00    -0.744 OA
ENDBRANCH  97  98
ENDBRANCH  71  92
ENDBRANCH  45  46
ENDBRANCH  37  40
ENDBRANCH  35  36
ENDBRANCH  34  35
ENDBRANCH  33  34
ENDBRANCH  32  33
ENDBRANCH   1  32
TORSDOF 21
ENDMDL
MODEL 2
REMARK VINA RESULT:     -10.7      2.158      2.936
REMARK SMILES CCOC(=O)c1c(NC(=O)[C@@H]2[C@@H](C(=O)NCCCCCCNC(=O)c3ccc(-c4c5nc(c(-c6ccc(S(=O)(=O)[O-])cc6)c6ccc([nH]6)c(-c6ccc(S(=O)(=O)[O-])cc6)c6nc(c(-c7ccc(S(=O)(=O)[O-])cc7)c7ccc4[nH]7)C=C6)C=C5)cc3)[C@@H]3C=C[C@H]2CC3)sc2c1CCC2
REMARK SMILES IDX 17 1 16 2 15 3 13 4 14 5 12 7 11 8 88 9 85 10 87 11 89 12
REMARK SMILES IDX 86 13 90 14 9 15 8 16 10 18 7 19 6 20 93 21 91 22 92 23
REMARK SMILES IDX 94 24 96 25 95 26 4 27 5 28 3 29 2 30 1 31 18 32 19 33 20 34
REMARK SMILES IDX 21 35 22 36 23 37 24 39 25 40 26 41 84 42 27 43 83 44 28 45
REMARK SMILES IDX 29 46 30 47 77 48 31 49 82 50 76 51 78 52 32 53 81 54 75 55
REMARK SMILES IDX 74 56 33 58 63 59 44 60 62 61 45 62 48 63 61 64 79 65 46 66
REMARK SMILES IDX 47 67 60 69 80 70 49 71 34 72 35 73 43 74 36 75 42 76 37 77
REMARK SMILES IDX 38 78 39 79 40 80 41 81 64 82 65 83 73 84 66 85 72 86 67 87
REMARK SMILES IDX 68 88 69 89 70 90 71 91 50 92 51 93 59 94 52 95 58 96 53 97
REMARK SMILES IDX 54 98 55 99 56 100 57 101
REMARK H PARENT 15 6 8 17 22 38 78 57 48 68
REMARK Flexibility Score: inf
ROOT
ATOM      1  C   UNL A   1      37.559  23.718  25.692  1.00  0.00     0.021 C 
ENDROOT
BRANCH   1   2
ATOM      2  C   UNL A   1      36.075  24.047  25.798  1.00  0.00     0.116 C 
BRANCH   2   3
ATOM      3  N   UNL A   1      35.352  23.142  26.684  1.00  0.00    -0.356 N 
ATOM      4  C   UNL A   1      34.011  22.912  26.833  1.00  0.00     0.224 C 
ATOM      5  O   UNL A   1      33.661  22.153  27.735  1.00  0.00    -0.275 OA
ATOM      6  H   UNL A   1      35.927  22.606  27.277  1.00  0.00     0.163 HD
BRANCH   4   7
ATOM      7  C   UNL A   1      33.020  23.598  25.894  1.00  0.00     0.098 C 
ATOM      8  C   UNL A   1      31.588  23.100  26.055  1.00  0.00     0.099 C 
ATOM      9  C   UNL A   1      31.136  22.425  24.721  1.00  0.00     0.025 C 
ATOM     10  C   UNL A   1      33.420  23.600  24.384  1.00  0.00     0.025 C 
ATOM     11  C   UNL A   1      31.094  23.508  23.676  1.00  0.00    -0.027 C 
ATOM     12  C   UNL A   1      32.233  21.414  24.234  1.00  0.00     0.009 C 
ATOM     13  C   UNL A   1      32.272  24.134  23.515  1.00  0.00    -0.027 C 
ATOM     14  C   UNL A   1      33.555  22.155  23.897  1.00  0.00     0.009 C 
BRANCH   8  15
ATOM     15  C   UNL A   1      30.565  24.138  26.605  1.00  0.00     0.229 C 
ATOM     16  N   UNL A   1      30.473  25.497  26.441  1.00  0.00    -0.317 N 
ATOM     17  H   UNL A   1      29.726  25.882  26.953  1.00  0.00     0.170 HD
ATOM     18  O   UNL A   1      29.598  23.647  27.218  1.00  0.00    -0.274 OA
BRANCH  16  19
ATOM     19  C   UNL A   1      31.174  26.462  25.731  1.00  0.00     0.110 A 
ATOM     20  C   UNL A   1      30.809  27.142  24.556  1.00  0.00     0.098 A 
ATOM     21  C   UNL A   1      32.008  27.673  23.979  1.00  0.00    -0.017 A 
ATOM     22  S   UNL A   1      32.439  27.404  26.423  1.00  0.00    -0.122 S 
ATOM     23  C   UNL A   1      33.015  27.709  24.904  1.00  0.00     0.011 A 
ATOM     24  C   UNL A   1      32.493  28.284  22.718  1.00  0.00     0.038 C 
ATOM     25  C   UNL A   1      34.332  28.149  24.419  1.00  0.00     0.047 C 
ATOM     26  C   UNL A   1      34.053  28.182  22.889  1.00  0.00     0.010 C 
BRANCH  20  27
ATOM     27  C   UNL A   1      29.439  27.197  24.087  1.00  0.00     0.341 C 
ATOM     28  O   UNL A   1      28.757  26.178  24.010  1.00  0.00    -0.246 OA
BRANCH  27  29
ATOM     29  O   UNL A   1      28.982  28.454  23.847  1.00  0.00    -0.462 OA
BRANCH  29  30
ATOM     30  C   UNL A   1      28.085  28.585  22.728  1.00  0.00     0.230 C 
ATOM     31  C   UNL A   1      27.629  30.009  22.448  1.00  0.00     0.049 C 
ENDBRANCH  29  30
ENDBRANCH  27  29
ENDBRANCH  20  27
ENDBRANCH  16  19
ENDBRANCH   8  15
ENDBRANCH   4   7
ENDBRANCH   2   3
ENDBRANCH   1   2
BRANCH   1  32
ATOM     32  C   UNL A   1      38.413  24.164  26.878  1.00  0.00     0.002 C 
BRANCH  32  33
ATOM     33  C   UNL A   1      39.933  24.149  26.657  1.00  0.00     0.002 C 
BRANCH  33  34
ATOM     34  C   UNL A   1      40.758  23.250  27.588  1.00  0.00     0.021 C 
BRANCH  34  35
ATOM     35  C   UNL A   1      42.155  23.777  27.870  1.00  0.00     0.116 C 
BRANCH  35  36
ATOM     36  N   UNL A   1      42.928  24.041  26.649  1.00  0.00    -0.352 N 
ATOM     37  C   UNL A   1      43.257  25.265  26.085  1.00  0.00     0.251 C 
ATOM     38  H   UNL A   1      43.256  23.247  26.169  1.00  0.00     0.163 HD
ATOM     39  O   UNL A   1      43.594  25.350  24.910  1.00  0.00    -0.269 OA
BRANCH  37  40
ATOM     40  C   UNL A   1      43.211  26.460  26.944  1.00  0.00     0.039 A 
ATOM     41  C   UNL A   1      44.200  26.778  27.884  1.00  0.00     0.014 A 
ATOM     42  C   UNL A   1      42.125  27.301  26.754  1.00  0.00     0.014 A 
ATOM     43  C   UNL A   1      44.100  27.984  28.580  1.00  0.00     0.010 A 
ATOM     44  C   UNL A   1      42.172  28.574  27.227  1.00  0.00     0.010 A 
ATOM     45  C   UNL A   1      43.076  28.874  28.236  1.00  0.00    -0.014 A 
BRANCH  45  46
ATOM     46  C   UNL A   1      42.882  30.175  28.861  1.00  0.00     0.031 A 
ATOM     47  C   UNL A   1      43.764  31.254  28.331  1.00  0.00     0.074 A 
ATOM     48  C   UNL A   1      41.746  30.407  29.563  1.00  0.00     0.049 A 
ATOM     49  N   UNL A   1      44.620  31.974  28.976  1.00  0.00    -0.248 NA
ATOM     50  C   UNL A   1      43.796  31.466  26.872  1.00  0.00     0.031 C 
ATOM     51  C   UNL A   1      40.630  29.474  29.814  1.00  0.00     0.029 A 
ATOM     52  N   UNL A   1      41.250  31.573  30.046  1.00  0.00    -0.354 N 
ATOM     53  C   UNL A   1      45.135  32.880  28.048  1.00  0.00     0.074 A 
ATOM     54  C   UNL A   1      44.758  32.382  26.752  1.00  0.00     0.031 C 
ATOM     55  C   UNL A   1      39.516  30.170  30.133  1.00  0.00     0.029 A 
ATOM     56  C   UNL A   1      39.875  31.567  30.286  1.00  0.00     0.049 A 
ATOM     57  H   UNL A   1      41.814  32.361  30.215  1.00  0.00     0.167 HD
ATOM     58  C   UNL A   1      45.599  34.106  28.423  1.00  0.00     0.031 A 
ATOM     59  C   UNL A   1      39.083  32.642  30.539  1.00  0.00     0.031 A 
ATOM     60  C   UNL A   1      45.757  34.191  29.852  1.00  0.00     0.049 A 
ATOM     61  C   UNL A   1      39.992  33.748  30.936  1.00  0.00     0.074 A 
ATOM     62  C   UNL A   1      46.523  33.527  30.788  1.00  0.00     0.029 A 
ATOM     63  N   UNL A   1      44.732  34.788  30.551  1.00  0.00    -0.354 N 
ATOM     64  N   UNL A   1      40.737  33.713  32.007  1.00  0.00    -0.248 NA
ATOM     65  C   UNL A   1      40.449  34.651  29.891  1.00  0.00     0.031 C 
ATOM     66  C   UNL A   1      45.659  33.354  31.909  1.00  0.00     0.029 A 
ATOM     67  C   UNL A   1      44.448  33.994  31.632  1.00  0.00     0.049 A 
ATOM     68  H   UNL A   1      44.285  35.634  30.318  1.00  0.00     0.167 HD
ATOM     69  C   UNL A   1      41.961  34.235  31.610  1.00  0.00     0.074 A 
ATOM     70  C   UNL A   1      41.696  34.876  30.321  1.00  0.00     0.031 C 
ATOM     71  C   UNL A   1      43.126  33.847  32.210  1.00  0.00     0.031 A 
BRANCH  58  72
ATOM     72  C   UNL A   1      45.517  35.348  27.565  1.00  0.00    -0.014 A 
ATOM     73  C   UNL A   1      46.718  35.926  27.102  1.00  0.00     0.010 A 
ATOM     74  C   UNL A   1      44.346  36.122  27.428  1.00  0.00     0.010 A 
ATOM     75  C   UNL A   1      46.756  37.240  26.617  1.00  0.00     0.020 A 
ATOM     76  C   UNL A   1      44.366  37.417  26.904  1.00  0.00     0.020 A 
ATOM     77  C   UNL A   1      45.579  37.983  26.540  1.00  0.00     0.054 A 
BRANCH  77  78
ATOM     78  S   UNL A   1      45.656  39.719  26.036  1.00  0.00     0.124 S 
ATOM     79  O   UNL A   1      46.435  39.638  24.804  1.00  0.00    -0.237 OA
ATOM     80  O   UNL A   1      44.244  40.056  25.874  1.00  0.00    -0.237 OA
ATOM     81  O   UNL A   1      46.324  40.372  27.159  1.00  0.00    -0.744 OA
ENDBRANCH  77  78
ENDBRANCH  58  72
BRANCH  59  82
ATOM     82  C   UNL A   1      37.669  32.867  30.129  1.00  0.00    -0.014 A 
ATOM     83  C   UNL A   1      36.629  32.945  31.076  1.00  0.00     0.010 A 
ATOM     84  C   UNL A   1      37.376  33.283  28.812  1.00  0.00     0.010 A 
ATOM     85  C   UNL A   1      35.366  33.465  30.732  1.00  0.00     0.020 A 
ATOM     86  C   UNL A   1      36.120  33.801  28.461  1.00  0.00     0.020 A 
ATOM     87  C   UNL A   1      35.125  33.909  29.429  1.00  0.00     0.054 A 
BRANCH  87  88
ATOM     88  S   UNL A   1      33.550  34.736  29.036  1.00  0.00     0.124 S 
ATOM     89  O   UNL A   1      32.929  34.864  30.351  1.00  0.00    -0.237 OA
ATOM     90  O   UNL A   1      33.991  35.986  28.423  1.00  0.00    -0.237 OA
ATOM     91  O   UNL A   1      32.890  33.803  28.126  1.00  0.00    -0.744 OA
ENDBRANCH  87  88
ENDBRANCH  59  82
BRANCH  71  92
ATOM     92  C   UNL A   1      43.047  33.005  33.467  1.00  0.00    -0.014 A 
ATOM     93  C   UNL A   1      43.047  31.594  33.470  1.00  0.00     0.010 A 
ATOM     94  C   UNL A   1      43.169  33.672  34.697  1.00  0.00     0.010 A 
ATOM     95  C   UNL A   1      43.153  30.877  34.673  1.00  0.00     0.020 A 
ATOM     96  C   UNL A   1      43.293  32.966  35.895  1.00  0.00     0.020 A 
ATOM     97  C   UNL A   1      43.277  31.571  35.881  1.00  0.00     0.054 A 
BRANCH  97  98
ATOM     98  S   UNL A   1      43.472  30.648  37.433  1.00  0.00     0.124 S 
ATOM     99  O   UNL A   1      42.517  31.309  38.317  1.00  0.00    -0.237 OA
ATOM    100  O   UNL A   1      43.130  29.281  37.046  1.00  0.00    -0.237 OA
ATOM    101  O   UNL A   1      44.878  30.848  37.782  1.00  0.00    -0.744 OA
ENDBRANCH  97  98
ENDBRANCH  71  92
ENDBRANCH  45  46
ENDBRANCH  37  40
ENDBRANCH  35  36
ENDBRANCH  34  35
ENDBRANCH  33  34
ENDBRANCH  32  33
ENDBRANCH   1  32
TORSDOF 21
ENDMDL
MODEL 3
REMARK VINA RESULT:     -10.6      2.686      9.091
REMARK SMILES CCOC(=O)c1c(NC(=O)[C@@H]2[C@@H](C(=O)NCCCCCCNC(=O)c3ccc(-c4c5nc(c(-c6ccc(S(=O)(=O)[O-])cc6)c6ccc([nH]6)c(-c6ccc(S(=O)(=O)[O-])cc6)c6nc(c(-c7ccc(S(=O)(=O)[O-])cc7)c7ccc4[nH]7)C=C6)C=C5)cc3)[C@@H]3C=C[C@H]2CC3)sc2c1CCC2
REMARK SMILES IDX 17 1 16 2 15 3 13 4 14 5 12 7 11 8 88 9 85 10 87 11 89 12
REMARK SMILES IDX 86 13 90 14 9 15 8 16 10 18 7 19 6 20 93 21 91 22 92 23
REMARK SMILES IDX 94 24 96 25 95 26 4 27 5 28 3 29 2 30 1 31 18 32 19 33 20 34
REMARK SMILES IDX 21 35 22 36 23 37 24 39 25 40 26 41 84 42 27 43 83 44 28 45
REMARK SMILES IDX 29 46 30 47 77 48 31 49 82 50 76 51 78 52 32 53 81 54 75 55
REMARK SMILES IDX 74 56 33 58 63 59 44 60 62 61 45 62 48 63 61 64 79 65 46 66
REMARK SMILES IDX 47 67 60 69 80 70 49 71 34 72 35 73 43 74 36 75 42 76 37 77
REMARK SMILES IDX 38 78 39 79 40 80 41 81 64 82 65 83 73 84 66 85 72 86 67 87
REMARK SMILES IDX 68 88 69 89 70 90 71 91 50 92 51 93 59 94 52 95 58 96 53 97
REMARK SMILES IDX 54 98 55 99 56 100 57 101
REMARK H PARENT 15 6 8 17 22 38 78 57 48 68
REMARK Flexibility Score: inf
ROOT
ATOM      1  C   UNL A   1      31.621  31.409  26.841  1.00  0.00     0.021 C 
ENDROOT
BRANCH   1   2
ATOM      2  C   UNL A   1      31.261  30.403  25.754  1.00  0.00     0.116 C 
BRANCH   2   3
ATOM      3  N   UNL A   1      32.424  29.907  25.029  1.00  0.00    -0.356 N 
ATOM      4  C   UNL A   1      32.737  28.650  24.587  1.00  0.00     0.224 C 
ATOM      5  O   UNL A   1      33.845  28.485  24.078  1.00  0.00    -0.275 OA
ATOM      6  H   UNL A   1      33.100  30.593  24.823  1.00  0.00     0.163 HD
BRANCH   4   7
ATOM      7  C   UNL A   1      31.721  27.521  24.745  1.00  0.00     0.098 C 
ATOM      8  C   UNL A   1      32.335  26.130  24.619  1.00  0.00     0.099 C 
ATOM      9  C   UNL A   1      31.716  25.418  23.376  1.00  0.00     0.025 C 
ATOM     10  C   UNL A   1      30.452  27.630  23.841  1.00  0.00     0.025 C 
ATOM     11  C   UNL A   1      30.254  25.211  23.672  1.00  0.00    -0.027 C 
ATOM     12  C   UNL A   1      31.761  26.374  22.132  1.00  0.00     0.009 C 
ATOM     13  C   UNL A   1      29.601  26.355  23.936  1.00  0.00    -0.027 C 
ATOM     14  C   UNL A   1      30.880  27.630  22.371  1.00  0.00     0.009 C 
BRANCH   8  15
ATOM     15  C   UNL A   1      32.315  25.259  25.910  1.00  0.00     0.229 C 
ATOM     16  N   UNL A   1      32.983  24.106  26.237  1.00  0.00    -0.317 N 
ATOM     17  H   UNL A   1      32.728  23.769  27.127  1.00  0.00     0.170 HD
ATOM     18  O   UNL A   1      31.661  25.736  26.856  1.00  0.00    -0.274 OA
BRANCH  16  19
ATOM     19  C   UNL A   1      33.930  23.297  25.624  1.00  0.00     0.110 A 
ATOM     20  C   UNL A   1      33.787  22.001  25.098  1.00  0.00     0.098 A 
ATOM     21  C   UNL A   1      35.099  21.433  24.999  1.00  0.00    -0.017 A 
ATOM     22  S   UNL A   1      35.377  23.913  24.920  1.00  0.00    -0.122 S 
ATOM     23  C   UNL A   1      36.054  22.410  25.049  1.00  0.00     0.011 A 
ATOM     24  C   UNL A   1      35.761  20.126  24.767  1.00  0.00     0.038 C 
ATOM     25  C   UNL A   1      37.453  21.957  25.049  1.00  0.00     0.047 C 
ATOM     26  C   UNL A   1      37.236  20.427  25.224  1.00  0.00     0.010 C 
BRANCH  20  27
ATOM     27  C   UNL A   1      32.492  21.430  24.788  1.00  0.00     0.341 C 
ATOM     28  O   UNL A   1      32.019  20.529  25.475  1.00  0.00    -0.246 OA
BRANCH  27  29
ATOM     29  O   UNL A   1      31.845  22.040  23.760  1.00  0.00    -0.462 OA
BRANCH  29  30
ATOM     30  C   UNL A   1      31.983  21.405  22.476  1.00  0.00     0.230 C 
ATOM     31  C   UNL A   1      32.266  19.912  22.537  1.00  0.00     0.049 C 
ENDBRANCH  29  30
ENDBRANCH  27  29
ENDBRANCH  20  27
ENDBRANCH  16  19
ENDBRANCH   8  15
ENDBRANCH   4   7
ENDBRANCH   2   3
ENDBRANCH   1   2
BRANCH   1  32
ATOM     32  C   UNL A   1      33.102  31.778  26.924  1.00  0.00     0.002 C 
BRANCH  32  33
ATOM     33  C   UNL A   1      33.972  30.875  27.811  1.00  0.00     0.002 C 
BRANCH  33  34
ATOM     34  C   UNL A   1      35.168  31.537  28.510  1.00  0.00     0.021 C 
BRANCH  34  35
ATOM     35  C   UNL A   1      34.946  33.001  28.851  1.00  0.00     0.116 C 
BRANCH  35  36
ATOM     36  N   UNL A   1      34.424  33.203  30.209  1.00  0.00    -0.352 N 
ATOM     37  C   UNL A   1      34.810  32.573  31.383  1.00  0.00     0.251 C 
ATOM     38  H   UNL A   1      33.710  33.874  30.298  1.00  0.00     0.163 HD
ATOM     39  O   UNL A   1      34.081  32.570  32.368  1.00  0.00    -0.269 OA
BRANCH  37  40
ATOM     40  C   UNL A   1      36.131  31.923  31.421  1.00  0.00     0.039 A 
ATOM     41  C   UNL A   1      36.311  30.543  31.573  1.00  0.00     0.014 A 
ATOM     42  C   UNL A   1      37.223  32.763  31.264  1.00  0.00     0.014 A 
ATOM     43  C   UNL A   1      37.606  30.025  31.503  1.00  0.00     0.010 A 
ATOM     44  C   UNL A   1      38.431  32.236  30.933  1.00  0.00     0.010 A 
ATOM     45  C   UNL A   1      38.658  30.890  31.180  1.00  0.00    -0.014 A 
BRANCH  45  46
ATOM     46  C   UNL A   1      40.046  30.470  31.044  1.00  0.00     0.031 A 
ATOM     47  C   UNL A   1      40.795  30.380  32.329  1.00  0.00     0.074 A 
ATOM     48  C   UNL A   1      40.443  29.867  29.896  1.00  0.00     0.049 A 
ATOM     49  N   UNL A   1      41.867  31.012  32.674  1.00  0.00    -0.248 NA
ATOM     50  C   UNL A   1      40.201  29.588  33.422  1.00  0.00     0.031 C 
ATOM     51  C   UNL A   1      39.632  29.579  28.697  1.00  0.00     0.029 A 
ATOM     52  N   UNL A   1      41.597  29.213  29.616  1.00  0.00    -0.354 N 
ATOM     53  C   UNL A   1      42.205  30.531  33.939  1.00  0.00     0.074 A 
ATOM     54  C   UNL A   1      41.045  29.833  34.425  1.00  0.00     0.031 C 
ATOM     55  C   UNL A   1      40.215  28.595  27.977  1.00  0.00     0.029 A 
ATOM     56  C   UNL A   1      41.514  28.311  28.555  1.00  0.00     0.049 A 
ATOM     57  H   UNL A   1      42.429  29.362  30.121  1.00  0.00     0.167 HD
ATOM     58  C   UNL A   1      43.496  30.512  34.378  1.00  0.00     0.031 A 
ATOM     59  C   UNL A   1      42.426  27.363  28.212  1.00  0.00     0.031 A 
ATOM     60  C   UNL A   1      44.351  31.297  33.526  1.00  0.00     0.049 A 
ATOM     61  C   UNL A   1      43.695  27.740  28.887  1.00  0.00     0.074 A 
ATOM     62  C   UNL A   1      44.410  32.627  33.167  1.00  0.00     0.029 A 
ATOM     63  N   UNL A   1      45.067  30.611  32.571  1.00  0.00    -0.354 N 
ATOM     64  N   UNL A   1      44.347  28.839  28.623  1.00  0.00    -0.248 NA
ATOM     65  C   UNL A   1      43.960  27.158  30.194  1.00  0.00     0.031 C 
ATOM     66  C   UNL A   1      44.732  32.615  31.778  1.00  0.00     0.029 A 
ATOM     67  C   UNL A   1      44.937  31.290  31.386  1.00  0.00     0.049 A 
ATOM     68  H   UNL A   1      45.580  29.783  32.712  1.00  0.00     0.167 HD
ATOM     69  C   UNL A   1      44.754  29.319  29.861  1.00  0.00     0.074 A 
ATOM     70  C   UNL A   1      44.563  28.197  30.781  1.00  0.00     0.031 C 
ATOM     71  C   UNL A   1      44.925  30.657  30.081  1.00  0.00     0.031 A 
BRANCH  58  72
ATOM     72  C   UNL A   1      44.062  29.468  35.315  1.00  0.00    -0.014 A 
ATOM     73  C   UNL A   1      44.187  28.143  34.849  1.00  0.00     0.010 A 
ATOM     74  C   UNL A   1      44.212  29.670  36.703  1.00  0.00     0.010 A 
ATOM     75  C   UNL A   1      44.359  27.071  35.734  1.00  0.00     0.020 A 
ATOM     76  C   UNL A   1      44.429  28.613  37.590  1.00  0.00     0.020 A 
ATOM     77  C   UNL A   1      44.460  27.314  37.104  1.00  0.00     0.054 A 
BRANCH  77  78
ATOM     78  S   UNL A   1      44.552  25.917  38.249  1.00  0.00     0.124 S 
ATOM     79  O   UNL A   1      43.661  24.950  37.614  1.00  0.00    -0.237 OA
ATOM     80  O   UNL A   1      45.974  25.586  38.219  1.00  0.00    -0.237 OA
ATOM     81  O   UNL A   1      44.074  26.476  39.511  1.00  0.00    -0.744 OA
ENDBRANCH  77  78
ENDBRANCH  58  72
BRANCH  59  82
ATOM     82  C   UNL A   1      42.184  26.007  27.646  1.00  0.00    -0.014 A 
ATOM     83  C   UNL A   1      43.241  25.200  27.183  1.00  0.00     0.010 A 
ATOM     84  C   UNL A   1      40.926  25.389  27.815  1.00  0.00     0.010 A 
ATOM     85  C   UNL A   1      43.060  23.822  26.949  1.00  0.00     0.020 A 
ATOM     86  C   UNL A   1      40.737  24.019  27.583  1.00  0.00     0.020 A 
ATOM     87  C   UNL A   1      41.812  23.235  27.170  1.00  0.00     0.054 A 
BRANCH  87  88
ATOM     88  S   UNL A   1      41.629  21.428  27.031  1.00  0.00     0.124 S 
ATOM     89  O   UNL A   1      42.849  20.942  27.668  1.00  0.00    -0.237 OA
ATOM     90  O   UNL A   1      40.392  21.176  27.763  1.00  0.00    -0.237 OA
ATOM     91  O   UNL A   1      41.549  21.201  25.590  1.00  0.00    -0.744 OA
ENDBRANCH  87  88
ENDBRANCH  59  82
BRANCH  71  92
ATOM     92  C   UNL A   1      44.879  31.598  28.895  1.00  0.00    -0.014 A 
ATOM     93  C   UNL A   1      45.957  31.796  28.006  1.00  0.00     0.010 A 
ATOM     94  C   UNL A   1      43.633  32.154  28.562  1.00  0.00     0.010 A 
ATOM     95  C   UNL A   1      45.791  32.542  26.827  1.00  0.00     0.020 A 
ATOM     96  C   UNL A   1      43.456  32.882  27.384  1.00  0.00     0.020 A 
ATOM     97  C   UNL A   1      44.536  33.080  26.523  1.00  0.00     0.054 A 
BRANCH  97  98
ATOM     98  S   UNL A   1      44.302  33.996  24.973  1.00  0.00     0.124 S 
ATOM     99  O   UNL A   1      43.132  34.818  25.264  1.00  0.00    -0.237 OA
ATOM    100  O   UNL A   1      45.562  34.723  24.829  1.00  0.00    -0.237 OA
ATOM    101  O   UNL A   1      44.088  32.946  23.978  1.00  0.00    -0.744 OA
ENDBRANCH  97  98
ENDBRANCH  71  92
ENDBRANCH  45  46
ENDBRANCH  37  40
ENDBRANCH  35  36
ENDBRANCH  34  35
ENDBRANCH  33  34
ENDBRANCH  32  33
ENDBRANCH   1  32
TORSDOF 21
ENDMDL
