MODEL 1
REMARK VINA RESULT:      -8.3      0.000      0.000
REMARK SMILES CCCCCC[C@@H](C(=O)NCCCCCCNC(=O)c1ccc(-c2c3nc(c(-c4ccc(S(=O)(=O)[O-])cc4)c4ccc([nH]4)c(-c4ccc(S(=O)(=O)[O-])cc4)c4nc(c(-c5ccc(S(=O)(=O)[O-])cc5)c5ccc2[nH]5)C=C4)C=C3)cc1)c1ccccc1C
REMARK SMILES IDX 12 1 11 2 10 3 8 4 9 5 7 7 6 8 5 9 4 10 3 11 2 12 1 13 80 14
REMARK SMILES IDX 81 15 85 16 82 17 84 18 86 19 83 20 13 21 14 22 15 23 16 24
REMARK SMILES IDX 17 25 18 26 19 28 20 29 21 30 79 31 22 32 78 33 23 34 24 35
REMARK SMILES IDX 25 36 72 37 26 38 77 39 71 40 73 41 27 42 76 43 70 44 69 45
REMARK SMILES IDX 28 47 58 48 39 49 57 50 40 51 43 52 56 53 74 54 41 55 42 56
REMARK SMILES IDX 55 58 75 59 44 60 29 61 30 62 38 63 31 64 37 65 32 66 33 67
REMARK SMILES IDX 34 68 35 69 36 70 59 71 60 72 68 73 61 74 67 75 62 76 63 77
REMARK SMILES IDX 64 78 65 79 66 80 45 81 46 82 54 83 47 84 53 85 48 86 49 87
REMARK SMILES IDX 50 88 51 89 52 90
REMARK H PARENT 10 6 17 27 73 46 43 57
REMARK Flexibility Score: inf
ROOT
ATOM      1  C   UNL A   1      43.970  19.210  25.114  1.00  0.00     0.021 C 
ENDROOT
BRANCH   1   2
ATOM      2  C   UNL A   1      45.281  19.898  25.512  1.00  0.00     0.116 C 
BRANCH   2   3
ATOM      3  N   UNL A   1      45.599  20.955  24.571  1.00  0.00    -0.356 N 
ATOM      4  C   UNL A   1      45.161  22.247  24.509  1.00  0.00     0.227 C 
ATOM      5  O   UNL A   1      45.324  22.815  23.424  1.00  0.00    -0.274 OA
ATOM      6  H   UNL A   1      46.234  20.699  23.863  1.00  0.00     0.163 HD
BRANCH   4   7
ATOM      7  C   UNL A   1      44.479  22.934  25.730  1.00  0.00     0.109 C 
BRANCH   7   8
ATOM      8  C   UNL A   1      43.415  23.898  25.132  1.00  0.00     0.018 C 
BRANCH   8   9
ATOM      9  C   UNL A   1      43.813  25.348  24.770  1.00  0.00     0.001 C 
BRANCH   9  10
ATOM     10  C   UNL A   1      43.361  26.525  25.648  1.00  0.00     0.000 C 
BRANCH  10  11
ATOM     11  C   UNL A   1      44.436  27.546  26.035  1.00  0.00    -0.000 C 
BRANCH  11  12
ATOM     12  C   UNL A   1      45.870  27.225  25.617  1.00  0.00    -0.003 C 
ATOM     13  C   UNL A   1      46.323  27.953  24.362  1.00  0.00     0.004 C 
ENDBRANCH  11  12
ENDBRANCH  10  11
ENDBRANCH   9  10
ENDBRANCH   8   9
ENDBRANCH   7   8
BRANCH   7  14
ATOM     14  C   UNL A   1      45.500  23.613  26.704  1.00  0.00    -0.033 A 
ATOM     15  C   UNL A   1      46.789  23.944  26.219  1.00  0.00     0.005 A 
ATOM     16  C   UNL A   1      45.280  23.844  28.087  1.00  0.00    -0.047 A 
ATOM     17  C   UNL A   1      47.746  24.600  27.002  1.00  0.00     0.000 A 
ATOM     18  C   UNL A   1      46.241  24.543  28.854  1.00  0.00     0.004 A 
ATOM     19  C   UNL A   1      44.070  23.390  28.857  1.00  0.00     0.044 C 
ATOM     20  C   UNL A   1      47.460  24.927  28.314  1.00  0.00     0.000 A 
ENDBRANCH   7  14
ENDBRANCH   4   7
ENDBRANCH   2   3
ENDBRANCH   1   2
BRANCH   1  21
ATOM     21  C   UNL A   1      43.199  18.600  26.287  1.00  0.00     0.002 C 
BRANCH  21  22
ATOM     22  C   UNL A   1      42.295  19.583  27.037  1.00  0.00     0.002 C 
BRANCH  22  23
ATOM     23  C   UNL A   1      41.933  20.864  26.276  1.00  0.00     0.021 C 
BRANCH  23  24
ATOM     24  C   UNL A   1      40.941  21.783  26.986  1.00  0.00     0.116 C 
BRANCH  24  25
ATOM     25  N   UNL A   1      39.705  21.936  26.233  1.00  0.00    -0.352 N 
ATOM     26  C   UNL A   1      38.811  22.975  26.223  1.00  0.00     0.251 C 
ATOM     27  H   UNL A   1      39.476  21.181  25.644  1.00  0.00     0.163 HD
ATOM     28  O   UNL A   1      37.701  22.826  25.706  1.00  0.00    -0.269 OA
BRANCH  26  29
ATOM     29  C   UNL A   1      39.169  24.268  26.839  1.00  0.00     0.039 A 
ATOM     30  C   UNL A   1      38.799  24.520  28.162  1.00  0.00     0.014 A 
ATOM     31  C   UNL A   1      39.860  25.237  26.105  1.00  0.00     0.014 A 
ATOM     32  C   UNL A   1      39.183  25.716  28.773  1.00  0.00     0.010 A 
ATOM     33  C   UNL A   1      40.297  26.400  26.734  1.00  0.00     0.010 A 
ATOM     34  C   UNL A   1      39.969  26.649  28.076  1.00  0.00    -0.014 A 
BRANCH  34  35
ATOM     35  C   UNL A   1      40.483  27.875  28.738  1.00  0.00     0.031 A 
ATOM     36  C   UNL A   1      41.873  27.905  29.311  1.00  0.00     0.074 A 
ATOM     37  C   UNL A   1      39.664  28.935  28.895  1.00  0.00     0.049 A 
ATOM     38  N   UNL A   1      42.463  28.854  29.993  1.00  0.00    -0.248 NA
ATOM     39  C   UNL A   1      42.703  26.707  29.110  1.00  0.00     0.031 C 
ATOM     40  C   UNL A   1      38.281  29.014  28.417  1.00  0.00     0.029 A 
ATOM     41  N   UNL A   1      39.870  30.145  29.509  1.00  0.00    -0.354 N 
ATOM     42  C   UNL A   1      43.723  28.364  30.315  1.00  0.00     0.074 A 
ATOM     43  C   UNL A   1      43.796  27.016  29.792  1.00  0.00     0.031 C 
ATOM     44  C   UNL A   1      37.771  30.214  28.738  1.00  0.00     0.029 A 
ATOM     45  C   UNL A   1      38.772  30.972  29.484  1.00  0.00     0.049 A 
ATOM     46  H   UNL A   1      40.724  30.396  29.930  1.00  0.00     0.167 HD
ATOM     47  C   UNL A   1      44.732  28.984  30.972  1.00  0.00     0.031 A 
ATOM     48  C   UNL A   1      38.582  32.196  30.012  1.00  0.00     0.031 A 
ATOM     49  C   UNL A   1      44.654  30.325  31.486  1.00  0.00     0.049 A 
ATOM     50  C   UNL A   1      39.708  32.853  30.762  1.00  0.00     0.074 A 
ATOM     51  C   UNL A   1      45.642  31.063  32.116  1.00  0.00     0.029 A 
ATOM     52  N   UNL A   1      43.525  31.129  31.439  1.00  0.00    -0.354 N 
ATOM     53  N   UNL A   1      40.916  32.399  30.995  1.00  0.00    -0.248 NA
ATOM     54  C   UNL A   1      39.447  34.189  31.316  1.00  0.00     0.031 C 
ATOM     55  C   UNL A   1      45.093  32.290  32.501  1.00  0.00     0.029 A 
ATOM     56  C   UNL A   1      43.780  32.342  32.057  1.00  0.00     0.049 A 
ATOM     57  H   UNL A   1      42.668  30.875  31.027  1.00  0.00     0.167 HD
ATOM     58  C   UNL A   1      41.566  33.401  31.705  1.00  0.00     0.074 A 
ATOM     59  C   UNL A   1      40.624  34.493  31.847  1.00  0.00     0.031 C 
ATOM     60  C   UNL A   1      42.830  33.417  32.195  1.00  0.00     0.031 A 
BRANCH  47  61
ATOM     61  C   UNL A   1      46.008  28.210  31.183  1.00  0.00    -0.014 A 
ATOM     62  C   UNL A   1      47.093  28.344  30.298  1.00  0.00     0.010 A 
ATOM     63  C   UNL A   1      46.141  27.372  32.305  1.00  0.00     0.010 A 
ATOM     64  C   UNL A   1      48.272  27.623  30.509  1.00  0.00     0.020 A 
ATOM     65  C   UNL A   1      47.328  26.670  32.535  1.00  0.00     0.020 A 
ATOM     66  C   UNL A   1      48.380  26.787  31.625  1.00  0.00     0.054 A 
BRANCH  66  67
ATOM     67  S   UNL A   1      49.929  25.880  31.883  1.00  0.00     0.124 S 
ATOM     68  O   UNL A   1      49.792  25.439  33.269  1.00  0.00    -0.237 OA
ATOM     69  O   UNL A   1      49.854  24.824  30.877  1.00  0.00    -0.237 OA
ATOM     70  O   UNL A   1      50.964  26.885  31.650  1.00  0.00    -0.744 OA
ENDBRANCH  66  67
ENDBRANCH  47  61
BRANCH  48  71
ATOM     71  C   UNL A   1      37.270  32.880  29.848  1.00  0.00    -0.014 A 
ATOM     72  C   UNL A   1      36.337  32.897  30.900  1.00  0.00     0.010 A 
ATOM     73  C   UNL A   1      36.954  33.537  28.644  1.00  0.00     0.010 A 
ATOM     74  C   UNL A   1      35.108  33.543  30.746  1.00  0.00     0.020 A 
ATOM     75  C   UNL A   1      35.737  34.207  28.496  1.00  0.00     0.020 A 
ATOM     76  C   UNL A   1      34.816  34.198  29.546  1.00  0.00     0.054 A 
BRANCH  76  77
ATOM     77  S   UNL A   1      33.236  35.077  29.387  1.00  0.00     0.124 S 
ATOM     78  O   UNL A   1      32.686  34.958  30.734  1.00  0.00    -0.237 OA
ATOM     79  O   UNL A   1      33.661  36.418  28.992  1.00  0.00    -0.237 OA
ATOM     80  O   UNL A   1      32.530  34.325  28.352  1.00  0.00    -0.744 OA
ENDBRANCH  76  77
ENDBRANCH  48  71
BRANCH  60  81
ATOM     81  C   UNL A   1      43.280  34.659  32.918  1.00  0.00    -0.014 A 
ATOM     82  C   UNL A   1      43.936  35.699  32.236  1.00  0.00     0.010 A 
ATOM     83  C   UNL A   1      42.981  34.814  34.285  1.00  0.00     0.010 A 
ATOM     84  C   UNL A   1      44.305  36.864  32.913  1.00  0.00     0.020 A 
ATOM     85  C   UNL A   1      43.324  35.990  34.958  1.00  0.00     0.020 A 
ATOM     86  C   UNL A   1      43.993  37.003  34.269  1.00  0.00     0.054 A 
BRANCH  86  87
ATOM     87  S   UNL A   1      44.429  38.551  35.109  1.00  0.00     0.124 S 
ATOM     88  O   UNL A   1      45.874  38.610  34.907  1.00  0.00    -0.237 OA
ATOM     89  O   UNL A   1      43.651  39.544  34.373  1.00  0.00    -0.237 OA
ATOM     90  O   UNL A   1      44.001  38.330  36.488  1.00  0.00    -0.744 OA
ENDBRANCH  86  87
ENDBRANCH  60  81
ENDBRANCH  34  35
ENDBRANCH  26  29
ENDBRANCH  24  25
ENDBRANCH  23  24
ENDBRANCH  22  23
ENDBRANCH  21  22
ENDBRANCH   1  21
TORSDOF 22
ENDMDL
MODEL 2
REMARK VINA RESULT:      -8.3      5.142     12.334
REMARK SMILES CCCCCC[C@@H](C(=O)NCCCCCCNC(=O)c1ccc(-c2c3nc(c(-c4ccc(S(=O)(=O)[O-])cc4)c4ccc([nH]4)c(-c4ccc(S(=O)(=O)[O-])cc4)c4nc(c(-c5ccc(S(=O)(=O)[O-])cc5)c5ccc2[nH]5)C=C4)C=C3)cc1)c1ccccc1C
REMARK SMILES IDX 12 1 11 2 10 3 8 4 9 5 7 7 6 8 5 9 4 10 3 11 2 12 1 13 80 14
REMARK SMILES IDX 81 15 85 16 82 17 84 18 86 19 83 20 13 21 14 22 15 23 16 24
REMARK SMILES IDX 17 25 18 26 19 28 20 29 21 30 79 31 22 32 78 33 23 34 24 35
REMARK SMILES IDX 25 36 72 37 26 38 77 39 71 40 73 41 27 42 76 43 70 44 69 45
REMARK SMILES IDX 28 47 58 48 39 49 57 50 40 51 43 52 56 53 74 54 41 55 42 56
REMARK SMILES IDX 55 58 75 59 44 60 29 61 30 62 38 63 31 64 37 65 32 66 33 67
REMARK SMILES IDX 34 68 35 69 36 70 59 71 60 72 68 73 61 74 67 75 62 76 63 77
REMARK SMILES IDX 64 78 65 79 66 80 45 81 46 82 54 83 47 84 53 85 48 86 49 87
REMARK SMILES IDX 50 88 51 89 52 90
REMARK H PARENT 10 6 17 27 73 46 43 57
REMARK Flexibility Score: inf
ROOT
ATOM      1  C   UNL A   1      35.056  30.083  27.388  1.00  0.00     0.021 C 
ENDROOT
BRANCH   1   2
ATOM      2  C   UNL A   1      34.494  28.732  26.928  1.00  0.00     0.116 C 
BRANCH   2   3
ATOM      3  N   UNL A   1      33.272  28.426  27.645  1.00  0.00    -0.356 N 
ATOM      4  C   UNL A   1      32.083  27.926  27.196  1.00  0.00     0.227 C 
ATOM      5  O   UNL A   1      31.117  28.085  27.949  1.00  0.00    -0.274 OA
ATOM      6  H   UNL A   1      33.305  28.609  28.612  1.00  0.00     0.163 HD
BRANCH   4   7
ATOM      7  C   UNL A   1      31.967  27.226  25.808  1.00  0.00     0.109 C 
BRANCH   7   8
ATOM      8  C   UNL A   1      30.729  27.864  25.116  1.00  0.00     0.018 C 
BRANCH   8   9
ATOM      9  C   UNL A   1      30.299  27.373  23.714  1.00  0.00     0.001 C 
BRANCH   9  10
ATOM     10  C   UNL A   1      28.925  27.751  23.140  1.00  0.00     0.000 C 
BRANCH  10  11
ATOM     11  C   UNL A   1      28.790  29.158  22.548  1.00  0.00    -0.000 C 
BRANCH  11  12
ATOM     12  C   UNL A   1      27.645  30.018  23.081  1.00  0.00    -0.003 C 
ATOM     13  C   UNL A   1      28.087  31.372  23.611  1.00  0.00     0.004 C 
ENDBRANCH  11  12
ENDBRANCH  10  11
ENDBRANCH   9  10
ENDBRANCH   8   9
ENDBRANCH   7   8
BRANCH   7  14
ATOM     14  C   UNL A   1      31.926  25.664  25.909  1.00  0.00    -0.033 A 
ATOM     15  C   UNL A   1      30.725  25.038  26.324  1.00  0.00     0.005 A 
ATOM     16  C   UNL A   1      33.038  24.803  25.710  1.00  0.00    -0.047 A 
ATOM     17  C   UNL A   1      30.582  23.648  26.392  1.00  0.00     0.000 A 
ATOM     18  C   UNL A   1      32.866  23.400  25.743  1.00  0.00     0.004 A 
ATOM     19  C   UNL A   1      34.450  25.258  25.464  1.00  0.00     0.044 C 
ATOM     20  C   UNL A   1      31.646  22.825  26.071  1.00  0.00     0.000 A 
ENDBRANCH   7  14
ENDBRANCH   4   7
ENDBRANCH   2   3
ENDBRANCH   1   2
BRANCH   1  21
ATOM     21  C   UNL A   1      34.005  31.188  27.523  1.00  0.00     0.002 C 
BRANCH  21  22
ATOM     22  C   UNL A   1      34.434  32.376  28.390  1.00  0.00     0.002 C 
BRANCH  22  23
ATOM     23  C   UNL A   1      35.827  32.942  28.094  1.00  0.00     0.021 C 
BRANCH  23  24
ATOM     24  C   UNL A   1      36.838  32.807  29.231  1.00  0.00     0.116 C 
BRANCH  24  25
ATOM     25  N   UNL A   1      36.327  31.988  30.321  1.00  0.00    -0.352 N 
ATOM     26  C   UNL A   1      36.759  30.770  30.776  1.00  0.00     0.251 C 
ATOM     27  H   UNL A   1      35.555  32.365  30.803  1.00  0.00     0.163 HD
ATOM     28  O   UNL A   1      36.057  30.119  31.552  1.00  0.00    -0.269 OA
BRANCH  26  29
ATOM     29  C   UNL A   1      38.059  30.230  30.330  1.00  0.00     0.039 A 
ATOM     30  C   UNL A   1      38.318  30.114  28.962  1.00  0.00     0.014 A 
ATOM     31  C   UNL A   1      39.019  29.828  31.264  1.00  0.00     0.014 A 
ATOM     32  C   UNL A   1      39.566  29.660  28.530  1.00  0.00     0.010 A 
ATOM     33  C   UNL A   1      40.284  29.437  30.832  1.00  0.00     0.010 A 
ATOM     34  C   UNL A   1      40.573  29.355  29.461  1.00  0.00    -0.014 A 
BRANCH  34  35
ATOM     35  C   UNL A   1      41.941  28.976  29.024  1.00  0.00     0.031 A 
ATOM     36  C   UNL A   1      43.030  30.012  28.952  1.00  0.00     0.074 A 
ATOM     37  C   UNL A   1      42.180  27.714  28.615  1.00  0.00     0.049 A 
ATOM     38  N   UNL A   1      44.259  29.886  28.518  1.00  0.00    -0.248 NA
ATOM     39  C   UNL A   1      42.690  31.370  29.405  1.00  0.00     0.031 C 
ATOM     40  C   UNL A   1      41.196  26.628  28.602  1.00  0.00     0.029 A 
ATOM     41  N   UNL A   1      43.320  27.132  28.120  1.00  0.00    -0.354 N 
ATOM     42  C   UNL A   1      44.832  31.147  28.631  1.00  0.00     0.074 A 
ATOM     43  C   UNL A   1      43.804  32.034  29.132  1.00  0.00     0.031 C 
ATOM     44  C   UNL A   1      41.780  25.510  28.143  1.00  0.00     0.029 A 
ATOM     45  C   UNL A   1      43.164  25.807  27.786  1.00  0.00     0.049 A 
ATOM     46  H   UNL A   1      44.170  27.618  28.013  1.00  0.00     0.167 HD
ATOM     47  C   UNL A   1      46.103  31.528  28.358  1.00  0.00     0.031 A 
ATOM     48  C   UNL A   1      44.029  24.932  27.239  1.00  0.00     0.031 A 
ATOM     49  C   UNL A   1      47.122  30.641  27.864  1.00  0.00     0.049 A 
ATOM     50  C   UNL A   1      45.426  25.386  26.918  1.00  0.00     0.074 A 
ATOM     51  C   UNL A   1      48.454  30.918  27.611  1.00  0.00     0.029 A 
ATOM     52  N   UNL A   1      46.924  29.307  27.540  1.00  0.00    -0.354 N 
ATOM     53  N   UNL A   1      45.970  26.567  27.098  1.00  0.00    -0.248 NA
ATOM     54  C   UNL A   1      46.329  24.389  26.325  1.00  0.00     0.031 C 
ATOM     55  C   UNL A   1      49.047  29.768  27.080  1.00  0.00     0.029 A 
ATOM     56  C   UNL A   1      48.100  28.756  27.058  1.00  0.00     0.049 A 
ATOM     57  H   UNL A   1      46.072  28.823  27.638  1.00  0.00     0.167 HD
ATOM     58  C   UNL A   1      47.283  26.449  26.660  1.00  0.00     0.074 A 
ATOM     59  C   UNL A   1      47.458  25.079  26.223  1.00  0.00     0.031 C 
ATOM     60  C   UNL A   1      48.257  27.391  26.622  1.00  0.00     0.031 A 
BRANCH  47  61
ATOM     61  C   UNL A   1      46.461  32.976  28.578  1.00  0.00    -0.014 A 
ATOM     62  C   UNL A   1      46.229  33.941  27.582  1.00  0.00     0.010 A 
ATOM     63  C   UNL A   1      46.994  33.384  29.815  1.00  0.00     0.010 A 
ATOM     64  C   UNL A   1      46.563  35.280  27.802  1.00  0.00     0.020 A 
ATOM     65  C   UNL A   1      47.302  34.727  30.050  1.00  0.00     0.020 A 
ATOM     66  C   UNL A   1      47.101  35.664  29.034  1.00  0.00     0.054 A 
BRANCH  66  67
ATOM     67  S   UNL A   1      47.505  37.412  29.298  1.00  0.00     0.124 S 
ATOM     68  O   UNL A   1      48.965  37.395  29.251  1.00  0.00    -0.237 OA
ATOM     69  O   UNL A   1      46.847  38.067  28.170  1.00  0.00    -0.237 OA
ATOM     70  O   UNL A   1      46.929  37.709  30.608  1.00  0.00    -0.744 OA
ENDBRANCH  66  67
ENDBRANCH  47  61
BRANCH  48  71
ATOM     71  C   UNL A   1      43.596  23.535  26.962  1.00  0.00    -0.014 A 
ATOM     72  C   UNL A   1      43.128  22.712  28.001  1.00  0.00     0.010 A 
ATOM     73  C   UNL A   1      43.632  23.025  25.650  1.00  0.00     0.010 A 
ATOM     74  C   UNL A   1      42.720  21.402  27.738  1.00  0.00     0.020 A 
ATOM     75  C   UNL A   1      43.198  21.725  25.379  1.00  0.00     0.020 A 
ATOM     76  C   UNL A   1      42.753  20.917  26.427  1.00  0.00     0.054 A 
BRANCH  76  77
ATOM     77  S   UNL A   1      42.166  19.232  26.100  1.00  0.00     0.124 S 
ATOM     78  O   UNL A   1      42.583  18.525  27.306  1.00  0.00    -0.237 OA
ATOM     79  O   UNL A   1      40.726  19.425  25.944  1.00  0.00    -0.237 OA
ATOM     80  O   UNL A   1      42.872  18.856  24.877  1.00  0.00    -0.744 OA
ENDBRANCH  76  77
ENDBRANCH  48  71
BRANCH  60  81
ATOM     81  C   UNL A   1      49.608  26.974  26.107  1.00  0.00    -0.014 A 
ATOM     82  C   UNL A   1      50.543  26.344  26.948  1.00  0.00     0.010 A 
ATOM     83  C   UNL A   1      49.920  27.154  24.746  1.00  0.00     0.010 A 
ATOM     84  C   UNL A   1      51.775  25.921  26.441  1.00  0.00     0.020 A 
ATOM     85  C   UNL A   1      51.140  26.707  24.231  1.00  0.00     0.020 A 
ATOM     86  C   UNL A   1      52.064  26.102  25.085  1.00  0.00     0.054 A 
BRANCH  86  87
ATOM     87  S   UNL A   1      53.645  25.489  24.441  1.00  0.00     0.124 S 
ATOM     88  O   UNL A   1      53.566  25.863  23.032  1.00  0.00    -0.237 OA
ATOM     89  O   UNL A   1      54.622  26.229  25.235  1.00  0.00    -0.237 OA
ATOM     90  O   UNL A   1      53.594  24.053  24.709  1.00  0.00    -0.744 OA
ENDBRANCH  86  87
ENDBRANCH  60  81
ENDBRANCH  34  35
ENDBRANCH  26  29
ENDBRANCH  24  25
ENDBRANCH  23  24
ENDBRANCH  22  23
ENDBRANCH  21  22
ENDBRANCH   1  21
TORSDOF 22
ENDMDL
MODEL 3
REMARK VINA RESULT:      -7.8      4.672      8.010
REMARK SMILES CCCCCC[C@@H](C(=O)NCCCCCCNC(=O)c1ccc(-c2c3nc(c(-c4ccc(S(=O)(=O)[O-])cc4)c4ccc([nH]4)c(-c4ccc(S(=O)(=O)[O-])cc4)c4nc(c(-c5ccc(S(=O)(=O)[O-])cc5)c5ccc2[nH]5)C=C4)C=C3)cc1)c1ccccc1C
REMARK SMILES IDX 12 1 11 2 10 3 8 4 9 5 7 7 6 8 5 9 4 10 3 11 2 12 1 13 80 14
REMARK SMILES IDX 81 15 85 16 82 17 84 18 86 19 83 20 13 21 14 22 15 23 16 24
REMARK SMILES IDX 17 25 18 26 19 28 20 29 21 30 79 31 22 32 78 33 23 34 24 35
REMARK SMILES IDX 25 36 72 37 26 38 77 39 71 40 73 41 27 42 76 43 70 44 69 45
REMARK SMILES IDX 28 47 58 48 39 49 57 50 40 51 43 52 56 53 74 54 41 55 42 56
REMARK SMILES IDX 55 58 75 59 44 60 29 61 30 62 38 63 31 64 37 65 32 66 33 67
REMARK SMILES IDX 34 68 35 69 36 70 59 71 60 72 68 73 61 74 67 75 62 76 63 77
REMARK SMILES IDX 64 78 65 79 66 80 45 81 46 82 54 83 47 84 53 85 48 86 49 87
REMARK SMILES IDX 50 88 51 89 52 90
REMARK H PARENT 10 6 17 27 73 46 43 57
REMARK Flexibility Score: inf
ROOT
ATOM      1  C   UNL A   1      38.678  21.969  25.792  1.00  0.00     0.021 C 
ENDROOT
BRANCH   1   2
ATOM      2  C   UNL A   1      37.284  22.582  25.607  1.00  0.00     0.116 C 
BRANCH   2   3
ATOM      3  N   UNL A   1      36.381  21.607  25.027  1.00  0.00    -0.356 N 
ATOM      4  C   UNL A   1      35.027  21.474  25.145  1.00  0.00     0.227 C 
ATOM      5  O   UNL A   1      34.568  20.372  24.828  1.00  0.00    -0.274 OA
ATOM      6  H   UNL A   1      36.814  20.932  24.456  1.00  0.00     0.163 HD
BRANCH   4   7
ATOM      7  C   UNL A   1      34.138  22.641  25.671  1.00  0.00     0.109 C 
BRANCH   7   8
ATOM      8  C   UNL A   1      32.863  21.969  26.257  1.00  0.00     0.018 C 
BRANCH   8   9
ATOM      9  C   UNL A   1      31.807  22.835  26.983  1.00  0.00     0.001 C 
BRANCH   9  10
ATOM     10  C   UNL A   1      30.663  23.493  26.199  1.00  0.00     0.000 C 
BRANCH  10  11
ATOM     11  C   UNL A   1      30.718  25.017  26.050  1.00  0.00    -0.000 C 
BRANCH  11  12
ATOM     12  C   UNL A   1      30.171  25.599  24.747  1.00  0.00    -0.003 C 
ATOM     13  C   UNL A   1      30.500  27.069  24.543  1.00  0.00     0.004 C 
ENDBRANCH  11  12
ENDBRANCH  10  11
ENDBRANCH   9  10
ENDBRANCH   8   9
ENDBRANCH   7   8
BRANCH   7  14
ATOM     14  C   UNL A   1      33.858  23.737  24.589  1.00  0.00    -0.033 A 
ATOM     15  C   UNL A   1      34.194  25.083  24.877  1.00  0.00     0.005 A 
ATOM     16  C   UNL A   1      33.194  23.516  23.354  1.00  0.00    -0.047 A 
ATOM     17  C   UNL A   1      34.029  26.119  23.951  1.00  0.00     0.000 A 
ATOM     18  C   UNL A   1      33.070  24.564  22.413  1.00  0.00     0.004 A 
ATOM     19  C   UNL A   1      32.571  22.214  22.930  1.00  0.00     0.044 C 
ATOM     20  C   UNL A   1      33.494  25.853  22.704  1.00  0.00     0.000 A 
ENDBRANCH   7  14
ENDBRANCH   4   7
ENDBRANCH   2   3
ENDBRANCH   1   2
BRANCH   1  21
ATOM     21  C   UNL A   1      39.595  22.766  26.723  1.00  0.00     0.002 C 
BRANCH  21  22
ATOM     22  C   UNL A   1      40.711  21.943  27.377  1.00  0.00     0.002 C 
BRANCH  22  23
ATOM     23  C   UNL A   1      40.843  20.498  26.885  1.00  0.00     0.021 C 
BRANCH  23  24
ATOM     24  C   UNL A   1      42.114  19.775  27.330  1.00  0.00     0.116 C 
BRANCH  24  25
ATOM     25  N   UNL A   1      42.860  19.239  26.200  1.00  0.00    -0.352 N 
ATOM     26  C   UNL A   1      43.640  19.890  25.280  1.00  0.00     0.251 C 
ATOM     27  H   UNL A   1      42.794  18.264  26.078  1.00  0.00     0.163 HD
ATOM     28  O   UNL A   1      43.999  19.306  24.255  1.00  0.00    -0.269 OA
BRANCH  26  29
ATOM     29  C   UNL A   1      44.042  21.292  25.507  1.00  0.00     0.039 A 
ATOM     30  C   UNL A   1      43.441  22.306  24.757  1.00  0.00     0.014 A 
ATOM     31  C   UNL A   1      45.021  21.605  26.455  1.00  0.00     0.014 A 
ATOM     32  C   UNL A   1      43.772  23.640  25.005  1.00  0.00     0.010 A 
ATOM     33  C   UNL A   1      45.302  22.938  26.746  1.00  0.00     0.010 A 
ATOM     34  C   UNL A   1      44.676  23.969  26.029  1.00  0.00    -0.014 A 
BRANCH  34  35
ATOM     35  C   UNL A   1      44.959  25.383  26.384  1.00  0.00     0.031 A 
ATOM     36  C   UNL A   1      46.353  25.936  26.256  1.00  0.00     0.074 A 
ATOM     37  C   UNL A   1      43.974  26.146  26.901  1.00  0.00     0.049 A 
ATOM     38  N   UNL A   1      46.805  27.117  26.593  1.00  0.00    -0.248 NA
ATOM     39  C   UNL A   1      47.375  25.039  25.694  1.00  0.00     0.031 C 
ATOM     40  C   UNL A   1      42.590  25.713  27.110  1.00  0.00     0.029 A 
ATOM     41  N   UNL A   1      43.987  27.441  27.355  1.00  0.00    -0.354 N 
ATOM     42  C   UNL A   1      48.163  27.100  26.301  1.00  0.00     0.074 A 
ATOM     43  C   UNL A   1      48.471  25.778  25.800  1.00  0.00     0.031 C 
ATOM     44  C   UNL A   1      41.885  26.729  27.632  1.00  0.00     0.029 A 
ATOM     45  C   UNL A   1      42.773  27.869  27.837  1.00  0.00     0.049 A 
ATOM     46  H   UNL A   1      44.791  28.009  27.338  1.00  0.00     0.167 HD
ATOM     47  C   UNL A   1      49.069  28.100  26.424  1.00  0.00     0.031 A 
ATOM     48  C   UNL A   1      42.414  29.041  28.396  1.00  0.00     0.031 A 
ATOM     49  C   UNL A   1      48.757  29.414  26.919  1.00  0.00     0.049 A 
ATOM     50  C   UNL A   1      43.444  30.126  28.548  1.00  0.00     0.074 A 
ATOM     51  C   UNL A   1      49.591  30.513  27.027  1.00  0.00     0.029 A 
ATOM     52  N   UNL A   1      47.515  29.808  27.396  1.00  0.00    -0.354 N 
ATOM     53  N   UNL A   1      44.709  30.114  28.200  1.00  0.00    -0.248 NA
ATOM     54  C   UNL A   1      42.998  31.385  29.162  1.00  0.00     0.031 C 
ATOM     55  C   UNL A   1      48.871  31.553  27.623  1.00  0.00     0.029 A 
ATOM     56  C   UNL A   1      47.569  31.122  27.830  1.00  0.00     0.049 A 
ATOM     57  H   UNL A   1      46.714  29.237  27.422  1.00  0.00     0.167 HD
ATOM     58  C   UNL A   1      45.205  31.369  28.535  1.00  0.00     0.074 A 
ATOM     59  C   UNL A   1      44.100  32.120  29.095  1.00  0.00     0.031 C 
ATOM     60  C   UNL A   1      46.462  31.855  28.391  1.00  0.00     0.031 A 
BRANCH  47  61
ATOM     61  C   UNL A   1      50.493  27.806  26.024  1.00  0.00    -0.014 A 
ATOM     62  C   UNL A   1      51.416  27.294  26.953  1.00  0.00     0.010 A 
ATOM     63  C   UNL A   1      50.900  28.002  24.692  1.00  0.00     0.010 A 
ATOM     64  C   UNL A   1      52.732  27.023  26.566  1.00  0.00     0.020 A 
ATOM     65  C   UNL A   1      52.207  27.706  24.295  1.00  0.00     0.020 A 
ATOM     66  C   UNL A   1      53.120  27.234  25.240  1.00  0.00     0.054 A 
BRANCH  66  67
ATOM     67  S   UNL A   1      54.828  26.854  24.764  1.00  0.00     0.124 S 
ATOM     68  O   UNL A   1      54.766  25.410  24.549  1.00  0.00    -0.237 OA
ATOM     69  O   UNL A   1      55.013  27.661  23.560  1.00  0.00    -0.237 OA
ATOM     70  O   UNL A   1      55.615  27.276  25.920  1.00  0.00    -0.744 OA
ENDBRANCH  66  67
ENDBRANCH  47  61
BRANCH  48  71
ATOM     71  C   UNL A   1      41.013  29.247  28.853  1.00  0.00    -0.014 A 
ATOM     72  C   UNL A   1      40.695  29.205  30.222  1.00  0.00     0.010 A 
ATOM     73  C   UNL A   1      39.990  29.507  27.922  1.00  0.00     0.010 A 
ATOM     74  C   UNL A   1      39.379  29.402  30.650  1.00  0.00     0.020 A 
ATOM     75  C   UNL A   1      38.678  29.732  28.348  1.00  0.00     0.020 A 
ATOM     76  C   UNL A   1      38.379  29.669  29.710  1.00  0.00     0.054 A 
BRANCH  76  77
ATOM     77  S   UNL A   1      36.688  29.976  30.293  1.00  0.00     0.124 S 
ATOM     78  O   UNL A   1      35.888  29.503  29.167  1.00  0.00    -0.237 OA
ATOM     79  O   UNL A   1      36.620  29.164  31.505  1.00  0.00    -0.237 OA
ATOM     80  O   UNL A   1      36.662  31.420  30.518  1.00  0.00    -0.744 OA
ENDBRANCH  76  77
ENDBRANCH  48  71
BRANCH  60  81
ATOM     81  C   UNL A   1      46.713  33.273  28.829  1.00  0.00    -0.014 A 
ATOM     82  C   UNL A   1      47.266  33.556  30.091  1.00  0.00     0.010 A 
ATOM     83  C   UNL A   1      46.456  34.332  27.938  1.00  0.00     0.010 A 
ATOM     84  C   UNL A   1      47.536  34.876  30.462  1.00  0.00     0.020 A 
ATOM     85  C   UNL A   1      46.752  35.650  28.296  1.00  0.00     0.020 A 
ATOM     86  C   UNL A   1      47.281  35.914  29.561  1.00  0.00     0.054 A 
BRANCH  86  87
ATOM     87  S   UNL A   1      47.698  37.611  30.046  1.00  0.00     0.124 S 
ATOM     88  O   UNL A   1      46.456  38.324  29.760  1.00  0.00    -0.237 OA
ATOM     89  O   UNL A   1      48.028  37.468  31.461  1.00  0.00    -0.237 OA
ATOM     90  O   UNL A   1      48.825  37.952  29.181  1.00  0.00    -0.744 OA
ENDBRANCH  86  87
ENDBRANCH  60  81
ENDBRANCH  34  35
ENDBRANCH  26  29
ENDBRANCH  24  25
ENDBRANCH  23  24
ENDBRANCH  22  23
ENDBRANCH  21  22
ENDBRANCH   1  21
TORSDOF 22
ENDMDL
