MODEL 1
REMARK VINA RESULT:      -8.5      0.000      0.000
REMARK SMILES COc1ccc2cc([C@@H](C)C(=O)NCCCCCCNC(=O)c3ccc(-c4c5nc(c(-c6ccc(S(=O)(=O)[O-])cc6)c6ccc([nH]6)c(-c6ccc(S(=O)(=O)[O-])cc6)c6nc(c(-c7ccc(S(=O)(=O)[O-])cc7)c7ccc4[nH]7)C=C6)C=C5)cc3)ccc2c1
REMARK SMILES IDX 17 1 16 2 15 3 14 4 13 5 11 6 12 7 9 9 10 10 8 11 3 12 4 13
REMARK SMILES IDX 86 14 5 15 85 16 6 17 84 18 7 19 83 20 2 21 1 22 18 23 19 24
REMARK SMILES IDX 20 25 21 26 22 28 23 29 24 30 82 31 25 32 81 33 26 34 27 35
REMARK SMILES IDX 28 36 75 37 29 38 80 39 74 40 76 41 30 42 79 43 73 44 72 45
REMARK SMILES IDX 31 47 61 48 42 49 60 50 43 51 46 52 59 53 77 54 44 55 45 56
REMARK SMILES IDX 58 58 78 59 47 60 32 61 33 62 41 63 34 64 40 65 35 66 36 67
REMARK SMILES IDX 37 68 38 69 39 70 62 71 63 72 71 73 64 74 70 75 65 76 66 77
REMARK SMILES IDX 67 78 68 79 69 80 48 81 49 82 57 83 50 84 56 85 51 86 52 87
REMARK SMILES IDX 53 88 54 89 55 90
REMARK H PARENT 13 8 20 27 76 46 46 57
REMARK Flexibility Score: inf
ROOT
ATOM      1  C   UNL A   1      34.386  34.255  30.788  1.00  0.00     0.002 C 
ENDROOT
BRANCH   1   2
ATOM      2  C   UNL A   1      34.292  34.276  32.320  1.00  0.00     0.002 C 
BRANCH   2   3
ATOM      3  C   UNL A   1      35.370  35.106  33.023  1.00  0.00     0.021 C 
BRANCH   3   4
ATOM      4  C   UNL A   1      36.640  34.319  33.356  1.00  0.00     0.116 C 
BRANCH   4   5
ATOM      5  N   UNL A   1      36.572  33.730  34.678  1.00  0.00    -0.356 N 
ATOM      6  C   UNL A   1      37.532  33.218  35.495  1.00  0.00     0.227 C 
ATOM      7  O   UNL A   1      37.133  32.689  36.541  1.00  0.00    -0.274 OA
ATOM      8  H   UNL A   1      35.663  33.693  35.054  1.00  0.00     0.163 HD
BRANCH   6   9
ATOM      9  C   UNL A   1      39.039  33.281  35.198  1.00  0.00     0.105 C 
ATOM     10  C   UNL A   1      39.469  34.496  34.377  1.00  0.00     0.023 C 
BRANCH   9  11
ATOM     11  C   UNL A   1      39.632  31.946  34.772  1.00  0.00    -0.035 A 
ATOM     12  C   UNL A   1      42.688  28.027  33.648  1.00  0.00     0.119 A 
ATOM     13  C   UNL A   1      43.382  28.825  34.555  1.00  0.00     0.047 A 
ATOM     14  C   UNL A   1      41.397  28.396  33.257  1.00  0.00     0.055 A 
ATOM     15  C   UNL A   1      42.774  29.958  35.097  1.00  0.00     0.012 A 
ATOM     16  C   UNL A   1      40.783  29.551  33.771  1.00  0.00    -0.015 A 
ATOM     17  C   UNL A   1      41.476  30.331  34.717  1.00  0.00    -0.018 A 
ATOM     18  C   UNL A   1      39.507  29.961  33.360  1.00  0.00     0.009 A 
ATOM     19  C   UNL A   1      40.868  31.483  35.240  1.00  0.00     0.013 A 
ATOM     20  C   UNL A   1      38.952  31.154  33.835  1.00  0.00     0.005 A 
BRANCH  12  21
ATOM     21  O   UNL A   1      43.168  26.889  33.059  1.00  0.00    -0.497 OA
ATOM     22  C   UNL A   1      44.065  26.106  33.840  1.00  0.00     0.278 C 
ENDBRANCH  12  21
ENDBRANCH   9  11
ENDBRANCH   6   9
ENDBRANCH   4   5
ENDBRANCH   3   4
ENDBRANCH   2   3
ENDBRANCH   1   2
BRANCH   1  23
ATOM     23  C   UNL A   1      34.684  32.887  30.163  1.00  0.00     0.021 C 
BRANCH  23  24
ATOM     24  C   UNL A   1      34.732  32.875  28.637  1.00  0.00     0.116 C 
BRANCH  24  25
ATOM     25  N   UNL A   1      34.003  31.746  28.083  1.00  0.00    -0.352 N 
ATOM     26  C   UNL A   1      34.460  30.512  27.693  1.00  0.00     0.251 C 
ATOM     27  H   UNL A   1      33.035  31.889  27.970  1.00  0.00     0.163 HD
ATOM     28  O   UNL A   1      33.738  29.778  27.027  1.00  0.00    -0.269 OA
BRANCH  26  29
ATOM     29  C   UNL A   1      35.821  30.069  28.068  1.00  0.00     0.039 A 
ATOM     30  C   UNL A   1      36.844  30.147  27.120  1.00  0.00     0.014 A 
ATOM     31  C   UNL A   1      36.081  29.538  29.335  1.00  0.00     0.014 A 
ATOM     32  C   UNL A   1      38.136  29.736  27.455  1.00  0.00     0.010 A 
ATOM     33  C   UNL A   1      37.383  29.191  29.691  1.00  0.00     0.010 A 
ATOM     34  C   UNL A   1      38.421  29.275  28.752  1.00  0.00    -0.014 A 
BRANCH  34  35
ATOM     35  C   UNL A   1      39.799  28.872  29.135  1.00  0.00     0.031 A 
ATOM     36  C   UNL A   1      40.712  29.849  29.827  1.00  0.00     0.074 A 
ATOM     37  C   UNL A   1      40.249  27.645  28.805  1.00  0.00     0.049 A 
ATOM     38  N   UNL A   1      41.954  29.689  30.205  1.00  0.00    -0.248 NA
ATOM     39  C   UNL A   1      40.166  31.186  30.106  1.00  0.00     0.031 C 
ATOM     40  C   UNL A   1      39.482  26.627  28.084  1.00  0.00     0.029 A 
ATOM     41  N   UNL A   1      41.467  27.051  29.023  1.00  0.00    -0.354 N 
ATOM     42  C   UNL A   1      42.344  30.908  30.749  1.00  0.00     0.074 A 
ATOM     43  C   UNL A   1      41.222  31.811  30.604  1.00  0.00     0.031 C 
ATOM     44  C   UNL A   1      40.240  25.529  27.937  1.00  0.00     0.029 A 
ATOM     45  C   UNL A   1      41.554  25.774  28.521  1.00  0.00     0.049 A 
ATOM     46  H   UNL A   1      42.207  27.496  29.496  1.00  0.00     0.167 HD
ATOM     47  C   UNL A   1      43.520  31.241  31.333  1.00  0.00     0.031 A 
ATOM     48  C   UNL A   1      42.579  24.899  28.524  1.00  0.00     0.031 A 
ATOM     49  C   UNL A   1      44.630  30.338  31.482  1.00  0.00     0.049 A 
ATOM     50  C   UNL A   1      43.869  25.280  29.193  1.00  0.00     0.074 A 
ATOM     51  C   UNL A   1      45.841  30.558  32.116  1.00  0.00     0.029 A 
ATOM     52  N   UNL A   1      44.668  29.042  30.988  1.00  0.00    -0.354 N 
ATOM     53  N   UNL A   1      44.190  26.412  29.775  1.00  0.00    -0.248 NA
ATOM     54  C   UNL A   1      44.929  24.263  29.222  1.00  0.00     0.031 C 
ATOM     55  C   UNL A   1      46.631  29.413  31.961  1.00  0.00     0.029 A 
ATOM     56  C   UNL A   1      45.889  28.459  31.280  1.00  0.00     0.049 A 
ATOM     57  H   UNL A   1      43.934  28.603  30.501  1.00  0.00     0.167 HD
ATOM     58  C   UNL A   1      45.482  26.237  30.256  1.00  0.00     0.074 A 
ATOM     59  C   UNL A   1      45.876  24.884  29.913  1.00  0.00     0.031 C 
ATOM     60  C   UNL A   1      46.271  27.115  30.924  1.00  0.00     0.031 A 
BRANCH  47  61
ATOM     61  C   UNL A   1      43.663  32.652  31.844  1.00  0.00    -0.014 A 
ATOM     62  C   UNL A   1      43.360  32.978  33.179  1.00  0.00     0.010 A 
ATOM     63  C   UNL A   1      44.116  33.666  30.980  1.00  0.00     0.010 A 
ATOM     64  C   UNL A   1      43.449  34.300  33.624  1.00  0.00     0.020 A 
ATOM     65  C   UNL A   1      44.235  34.985  31.430  1.00  0.00     0.020 A 
ATOM     66  C   UNL A   1      43.877  35.297  32.743  1.00  0.00     0.054 A 
BRANCH  66  67
ATOM     67  S   UNL A   1      43.974  37.005  33.343  1.00  0.00     0.124 S 
ATOM     68  O   UNL A   1      44.309  37.733  32.120  1.00  0.00    -0.237 OA
ATOM     69  O   UNL A   1      42.630  37.241  33.866  1.00  0.00    -0.237 OA
ATOM     70  O   UNL A   1      45.032  36.960  34.349  1.00  0.00    -0.744 OA
ENDBRANCH  66  67
ENDBRANCH  47  61
BRANCH  48  71
ATOM     71  C   UNL A   1      42.406  23.567  27.882  1.00  0.00    -0.014 A 
ATOM     72  C   UNL A   1      43.031  23.276  26.658  1.00  0.00     0.010 A 
ATOM     73  C   UNL A   1      41.646  22.568  28.519  1.00  0.00     0.010 A 
ATOM     74  C   UNL A   1      42.897  22.010  26.079  1.00  0.00     0.020 A 
ATOM     75  C   UNL A   1      41.532  21.295  27.956  1.00  0.00     0.020 A 
ATOM     76  C   UNL A   1      42.153  21.026  26.735  1.00  0.00     0.054 A 
BRANCH  76  77
ATOM     77  S   UNL A   1      42.056  19.367  26.005  1.00  0.00     0.124 S 
ATOM     78  O   UNL A   1      42.607  18.534  27.069  1.00  0.00    -0.237 OA
ATOM     79  O   UNL A   1      40.623  19.214  25.758  1.00  0.00    -0.237 OA
ATOM     80  O   UNL A   1      42.878  19.475  24.803  1.00  0.00    -0.744 OA
ENDBRANCH  76  77
ENDBRANCH  48  71
BRANCH  60  81
ATOM     81  C   UNL A   1      47.634  26.638  31.348  1.00  0.00    -0.014 A 
ATOM     82  C   UNL A   1      48.763  26.844  30.535  1.00  0.00     0.010 A 
ATOM     83  C   UNL A   1      47.795  26.023  32.604  1.00  0.00     0.010 A 
ATOM     84  C   UNL A   1      50.024  26.419  30.959  1.00  0.00     0.020 A 
ATOM     85  C   UNL A   1      49.060  25.620  33.041  1.00  0.00     0.020 A 
ATOM     86  C   UNL A   1      50.165  25.808  32.209  1.00  0.00     0.054 A 
BRANCH  86  87
ATOM     87  S   UNL A   1      51.820  25.306  32.755  1.00  0.00     0.124 S 
ATOM     88  O   UNL A   1      51.679  23.856  32.856  1.00  0.00    -0.237 OA
ATOM     89  O   UNL A   1      52.674  25.780  31.670  1.00  0.00    -0.237 OA
ATOM     90  O   UNL A   1      51.992  26.005  34.027  1.00  0.00    -0.744 OA
ENDBRANCH  86  87
ENDBRANCH  60  81
ENDBRANCH  34  35
ENDBRANCH  26  29
ENDBRANCH  24  25
ENDBRANCH  23  24
ENDBRANCH   1  23
TORSDOF 18
ENDMDL
MODEL 2
REMARK VINA RESULT:      -7.8      1.146      1.783
REMARK SMILES COc1ccc2cc([C@@H](C)C(=O)NCCCCCCNC(=O)c3ccc(-c4c5nc(c(-c6ccc(S(=O)(=O)[O-])cc6)c6ccc([nH]6)c(-c6ccc(S(=O)(=O)[O-])cc6)c6nc(c(-c7ccc(S(=O)(=O)[O-])cc7)c7ccc4[nH]7)C=C6)C=C5)cc3)ccc2c1
REMARK SMILES IDX 17 1 16 2 15 3 14 4 13 5 11 6 12 7 9 9 10 10 8 11 3 12 4 13
REMARK SMILES IDX 86 14 5 15 85 16 6 17 84 18 7 19 83 20 2 21 1 22 18 23 19 24
REMARK SMILES IDX 20 25 21 26 22 28 23 29 24 30 82 31 25 32 81 33 26 34 27 35
REMARK SMILES IDX 28 36 75 37 29 38 80 39 74 40 76 41 30 42 79 43 73 44 72 45
REMARK SMILES IDX 31 47 61 48 42 49 60 50 43 51 46 52 59 53 77 54 44 55 45 56
REMARK SMILES IDX 58 58 78 59 47 60 32 61 33 62 41 63 34 64 40 65 35 66 36 67
REMARK SMILES IDX 37 68 38 69 39 70 62 71 63 72 71 73 64 74 70 75 65 76 66 77
REMARK SMILES IDX 67 78 68 79 69 80 48 81 49 82 57 83 50 84 56 85 51 86 52 87
REMARK SMILES IDX 53 88 54 89 55 90
REMARK H PARENT 13 8 20 27 76 46 46 57
REMARK Flexibility Score: inf
ROOT
ATOM      1  C   UNL A   1      36.520  33.720  29.667  1.00  0.00     0.002 C 
ENDROOT
BRANCH   1   2
ATOM      2  C   UNL A   1      37.984  33.911  29.248  1.00  0.00     0.002 C 
BRANCH   2   3
ATOM      3  C   UNL A   1      38.936  34.309  30.380  1.00  0.00     0.021 C 
BRANCH   3   4
ATOM      4  C   UNL A   1      38.232  34.616  31.703  1.00  0.00     0.116 C 
BRANCH   4   5
ATOM      5  N   UNL A   1      39.169  34.675  32.805  1.00  0.00    -0.356 N 
ATOM      6  C   UNL A   1      39.540  33.753  33.736  1.00  0.00     0.227 C 
ATOM      7  O   UNL A   1      40.306  34.151  34.624  1.00  0.00    -0.274 OA
ATOM      8  H   UNL A   1      39.623  35.545  32.900  1.00  0.00     0.163 HD
BRANCH   6   9
ATOM      9  C   UNL A   1      39.080  32.286  33.723  1.00  0.00     0.105 C 
ATOM     10  C   UNL A   1      37.625  32.079  34.140  1.00  0.00     0.023 C 
BRANCH   9  11
ATOM     11  C   UNL A   1      40.091  31.326  34.332  1.00  0.00    -0.035 A 
ATOM     12  C   UNL A   1      42.943  27.299  35.601  1.00  0.00     0.119 A 
ATOM     13  C   UNL A   1      42.444  27.047  34.325  1.00  0.00     0.047 A 
ATOM     14  C   UNL A   1      42.620  28.502  36.239  1.00  0.00     0.055 A 
ATOM     15  C   UNL A   1      41.663  28.006  33.678  1.00  0.00     0.012 A 
ATOM     16  C   UNL A   1      41.810  29.464  35.612  1.00  0.00    -0.015 A 
ATOM     17  C   UNL A   1      41.341  29.217  34.307  1.00  0.00    -0.018 A 
ATOM     18  C   UNL A   1      41.440  30.655  36.251  1.00  0.00     0.009 A 
ATOM     19  C   UNL A   1      40.536  30.175  33.670  1.00  0.00     0.013 A 
ATOM     20  C   UNL A   1      40.573  31.560  35.629  1.00  0.00     0.005 A 
BRANCH  12  21
ATOM     21  O   UNL A   1      43.728  26.449  36.331  1.00  0.00    -0.497 OA
ATOM     22  C   UNL A   1      43.049  25.426  37.052  1.00  0.00     0.278 C 
ENDBRANCH  12  21
ENDBRANCH   9  11
ENDBRANCH   6   9
ENDBRANCH   4   5
ENDBRANCH   3   4
ENDBRANCH   2   3
ENDBRANCH   1   2
BRANCH   1  23
ATOM     23  C   UNL A   1      35.622  33.025  28.638  1.00  0.00     0.021 C 
BRANCH  23  24
ATOM     24  C   UNL A   1      34.447  32.251  29.229  1.00  0.00     0.116 C 
BRANCH  24  25
ATOM     25  N   UNL A   1      33.934  31.256  28.301  1.00  0.00    -0.352 N 
ATOM     26  C   UNL A   1      34.594  30.250  27.640  1.00  0.00     0.251 C 
ATOM     27  H   UNL A   1      32.968  31.313  28.120  1.00  0.00     0.163 HD
ATOM     28  O   UNL A   1      34.039  29.664  26.717  1.00  0.00    -0.269 OA
BRANCH  26  29
ATOM     29  C   UNL A   1      35.970  29.876  28.034  1.00  0.00     0.039 A 
ATOM     30  C   UNL A   1      36.188  29.343  29.307  1.00  0.00     0.014 A 
ATOM     31  C   UNL A   1      37.049  30.090  27.171  1.00  0.00     0.014 A 
ATOM     32  C   UNL A   1      37.480  28.982  29.697  1.00  0.00     0.010 A 
ATOM     33  C   UNL A   1      38.326  29.667  27.535  1.00  0.00     0.010 A 
ATOM     34  C   UNL A   1      38.557  29.120  28.806  1.00  0.00    -0.014 A 
BRANCH  34  35
ATOM     35  C   UNL A   1      39.929  28.703  29.192  1.00  0.00     0.031 A 
ATOM     36  C   UNL A   1      40.842  29.662  29.908  1.00  0.00     0.074 A 
ATOM     37  C   UNL A   1      40.376  27.480  28.843  1.00  0.00     0.049 A 
ATOM     38  N   UNL A   1      42.081  29.489  30.292  1.00  0.00    -0.248 NA
ATOM     39  C   UNL A   1      40.301  30.997  30.207  1.00  0.00     0.031 C 
ATOM     40  C   UNL A   1      39.609  26.479  28.099  1.00  0.00     0.029 A 
ATOM     41  N   UNL A   1      41.589  26.875  29.060  1.00  0.00    -0.354 N 
ATOM     42  C   UNL A   1      42.473  30.696  30.860  1.00  0.00     0.074 A 
ATOM     43  C   UNL A   1      41.358  31.607  30.724  1.00  0.00     0.031 C 
ATOM     44  C   UNL A   1      40.361  25.380  27.938  1.00  0.00     0.029 A 
ATOM     45  C   UNL A   1      41.672  25.607  28.536  1.00  0.00     0.049 A 
ATOM     46  H   UNL A   1      42.327  27.308  29.546  1.00  0.00     0.167 HD
ATOM     47  C   UNL A   1      43.647  31.012  31.459  1.00  0.00     0.031 A 
ATOM     48  C   UNL A   1      42.692  24.726  28.531  1.00  0.00     0.031 A 
ATOM     49  C   UNL A   1      44.751  30.100  31.601  1.00  0.00     0.049 A 
ATOM     50  C   UNL A   1      43.980  25.088  29.216  1.00  0.00     0.074 A 
ATOM     51  C   UNL A   1      45.958  30.303  32.246  1.00  0.00     0.029 A 
ATOM     52  N   UNL A   1      44.785  28.813  31.084  1.00  0.00    -0.354 N 
ATOM     53  N   UNL A   1      44.302  26.207  29.820  1.00  0.00    -0.248 NA
ATOM     54  C   UNL A   1      45.033  24.065  29.235  1.00  0.00     0.031 C 
ATOM     55  C   UNL A   1      46.743  29.156  32.077  1.00  0.00     0.029 A 
ATOM     56  C   UNL A   1      46.001  28.218  31.374  1.00  0.00     0.049 A 
ATOM     57  H   UNL A   1      44.052  28.386  30.584  1.00  0.00     0.167 HD
ATOM     58  C   UNL A   1      45.590  26.017  30.308  1.00  0.00     0.074 A 
ATOM     59  C   UNL A   1      45.979  24.668  29.943  1.00  0.00     0.031 C 
ATOM     60  C   UNL A   1      46.379  26.878  30.997  1.00  0.00     0.031 A 
BRANCH  47  61
ATOM     61  C   UNL A   1      43.794  32.413  31.996  1.00  0.00    -0.014 A 
ATOM     62  C   UNL A   1      44.234  33.466  31.172  1.00  0.00     0.010 A 
ATOM     63  C   UNL A   1      43.480  32.684  33.339  1.00  0.00     0.010 A 
ATOM     64  C   UNL A   1      44.413  34.749  31.696  1.00  0.00     0.020 A 
ATOM     65  C   UNL A   1      43.630  33.973  33.861  1.00  0.00     0.020 A 
ATOM     66  C   UNL A   1      44.119  34.992  33.040  1.00  0.00     0.054 A 
BRANCH  66  67
ATOM     67  S   UNL A   1      44.371  36.663  33.699  1.00  0.00     0.124 S 
ATOM     68  O   UNL A   1      43.398  36.704  34.789  1.00  0.00    -0.237 OA
ATOM     69  O   UNL A   1      45.773  36.641  34.108  1.00  0.00    -0.237 OA
ATOM     70  O   UNL A   1      44.070  37.532  32.564  1.00  0.00    -0.744 OA
ENDBRANCH  66  67
ENDBRANCH  47  61
BRANCH  48  71
ATOM     71  C   UNL A   1      42.517  23.407  27.864  1.00  0.00    -0.014 A 
ATOM     72  C   UNL A   1      43.059  23.172  26.589  1.00  0.00     0.010 A 
ATOM     73  C   UNL A   1      41.841  22.365  28.525  1.00  0.00     0.010 A 
ATOM     74  C   UNL A   1      42.924  21.918  25.985  1.00  0.00     0.020 A 
ATOM     75  C   UNL A   1      41.728  21.103  27.935  1.00  0.00     0.020 A 
ATOM     76  C   UNL A   1      42.265  20.890  26.664  1.00  0.00     0.054 A 
BRANCH  76  77
ATOM     77  S   UNL A   1      42.170  19.249  25.894  1.00  0.00     0.124 S 
ATOM     78  O   UNL A   1      42.614  18.379  26.978  1.00  0.00    -0.237 OA
ATOM     79  O   UNL A   1      40.756  19.149  25.540  1.00  0.00    -0.237 OA
ATOM     80  O   UNL A   1      43.082  19.352  24.758  1.00  0.00    -0.744 OA
ENDBRANCH  76  77
ENDBRANCH  48  71
BRANCH  60  81
ATOM     81  C   UNL A   1      47.736  26.387  31.422  1.00  0.00    -0.014 A 
ATOM     82  C   UNL A   1      48.858  26.535  30.588  1.00  0.00     0.010 A 
ATOM     83  C   UNL A   1      47.900  25.817  32.699  1.00  0.00     0.010 A 
ATOM     84  C   UNL A   1      50.115  26.097  31.013  1.00  0.00     0.020 A 
ATOM     85  C   UNL A   1      49.160  25.402  33.136  1.00  0.00     0.020 A 
ATOM     86  C   UNL A   1      50.258  25.532  32.284  1.00  0.00     0.054 A 
BRANCH  86  87
ATOM     87  S   UNL A   1      51.908  25.012  32.829  1.00  0.00     0.124 S 
ATOM     88  O   UNL A   1      51.813  25.170  34.278  1.00  0.00    -0.237 OA
ATOM     89  O   UNL A   1      51.985  23.635  32.351  1.00  0.00    -0.237 OA
ATOM     90  O   UNL A   1      52.806  25.950  32.157  1.00  0.00    -0.744 OA
ENDBRANCH  86  87
ENDBRANCH  60  81
ENDBRANCH  34  35
ENDBRANCH  26  29
ENDBRANCH  24  25
ENDBRANCH  23  24
ENDBRANCH   1  23
TORSDOF 18
ENDMDL
MODEL 3
REMARK VINA RESULT:      -7.6      3.840      6.989
REMARK SMILES COc1ccc2cc([C@@H](C)C(=O)NCCCCCCNC(=O)c3ccc(-c4c5nc(c(-c6ccc(S(=O)(=O)[O-])cc6)c6ccc([nH]6)c(-c6ccc(S(=O)(=O)[O-])cc6)c6nc(c(-c7ccc(S(=O)(=O)[O-])cc7)c7ccc4[nH]7)C=C6)C=C5)cc3)ccc2c1
REMARK SMILES IDX 17 1 16 2 15 3 14 4 13 5 11 6 12 7 9 9 10 10 8 11 3 12 4 13
REMARK SMILES IDX 86 14 5 15 85 16 6 17 84 18 7 19 83 20 2 21 1 22 18 23 19 24
REMARK SMILES IDX 20 25 21 26 22 28 23 29 24 30 82 31 25 32 81 33 26 34 27 35
REMARK SMILES IDX 28 36 75 37 29 38 80 39 74 40 76 41 30 42 79 43 73 44 72 45
REMARK SMILES IDX 31 47 61 48 42 49 60 50 43 51 46 52 59 53 77 54 44 55 45 56
REMARK SMILES IDX 58 58 78 59 47 60 32 61 33 62 41 63 34 64 40 65 35 66 36 67
REMARK SMILES IDX 37 68 38 69 39 70 62 71 63 72 71 73 64 74 70 75 65 76 66 77
REMARK SMILES IDX 67 78 68 79 69 80 48 81 49 82 57 83 50 84 56 85 51 86 52 87
REMARK SMILES IDX 53 88 54 89 55 90
REMARK H PARENT 13 8 20 27 76 46 46 57
REMARK Flexibility Score: inf
ROOT
ATOM      1  C   UNL A   1      39.053  34.909  36.595  1.00  0.00     0.002 C 
ENDROOT
BRANCH   1   2
ATOM      2  C   UNL A   1      37.935  33.903  36.899  1.00  0.00     0.002 C 
BRANCH   2   3
ATOM      3  C   UNL A   1      37.086  33.494  35.692  1.00  0.00     0.021 C 
BRANCH   3   4
ATOM      4  C   UNL A   1      37.672  32.333  34.886  1.00  0.00     0.116 C 
BRANCH   4   5
ATOM      5  N   UNL A   1      37.092  32.256  33.561  1.00  0.00    -0.356 N 
ATOM      6  C   UNL A   1      37.614  32.482  32.325  1.00  0.00     0.227 C 
ATOM      7  O   UNL A   1      36.819  32.427  31.377  1.00  0.00    -0.274 OA
ATOM      8  H   UNL A   1      36.143  31.992  33.554  1.00  0.00     0.163 HD
BRANCH   6   9
ATOM      9  C   UNL A   1      39.100  32.773  32.059  1.00  0.00     0.105 C 
ATOM     10  C   UNL A   1      39.356  34.022  31.217  1.00  0.00     0.023 C 
BRANCH   9  11
ATOM     11  C   UNL A   1      39.905  31.539  31.681  1.00  0.00    -0.035 A 
ATOM     12  C   UNL A   1      42.260  27.721  29.265  1.00  0.00     0.119 A 
ATOM     13  C   UNL A   1      42.093  28.740  28.330  1.00  0.00     0.047 A 
ATOM     14  C   UNL A   1      41.812  27.913  30.576  1.00  0.00     0.055 A 
ATOM     15  C   UNL A   1      41.520  29.954  28.714  1.00  0.00     0.012 A 
ATOM     16  C   UNL A   1      41.206  29.118  30.970  1.00  0.00    -0.015 A 
ATOM     17  C   UNL A   1      41.076  30.157  30.029  1.00  0.00    -0.018 A 
ATOM     18  C   UNL A   1      40.712  29.313  32.267  1.00  0.00     0.009 A 
ATOM     19  C   UNL A   1      40.477  31.367  30.414  1.00  0.00     0.013 A 
ATOM     20  C   UNL A   1      40.048  30.496  32.608  1.00  0.00     0.005 A 
BRANCH  12  21
ATOM     21  O   UNL A   1      42.817  26.496  29.016  1.00  0.00    -0.497 OA
ATOM     22  C   UNL A   1      42.082  25.631  28.157  1.00  0.00     0.278 C 
ENDBRANCH  12  21
ENDBRANCH   9  11
ENDBRANCH   6   9
ENDBRANCH   4   5
ENDBRANCH   3   4
ENDBRANCH   2   3
ENDBRANCH   1   2
BRANCH   1  23
ATOM     23  C   UNL A   1      39.484  35.794  37.770  1.00  0.00     0.021 C 
BRANCH  23  24
ATOM     24  C   UNL A   1      40.893  35.526  38.293  1.00  0.00     0.116 C 
BRANCH  24  25
ATOM     25  N   UNL A   1      40.907  34.467  39.289  1.00  0.00    -0.352 N 
ATOM     26  C   UNL A   1      41.155  33.125  39.140  1.00  0.00     0.251 C 
ATOM     27  H   UNL A   1      40.708  34.757  40.209  1.00  0.00     0.163 HD
ATOM     28  O   UNL A   1      40.885  32.352  40.054  1.00  0.00    -0.269 OA
BRANCH  26  29
ATOM     29  C   UNL A   1      41.738  32.610  37.883  1.00  0.00     0.039 A 
ATOM     30  C   UNL A   1      40.899  31.999  36.947  1.00  0.00     0.014 A 
ATOM     31  C   UNL A   1      43.113  32.689  37.642  1.00  0.00     0.014 A 
ATOM     32  C   UNL A   1      41.431  31.508  35.753  1.00  0.00     0.010 A 
ATOM     33  C   UNL A   1      43.633  32.260  36.422  1.00  0.00     0.010 A 
ATOM     34  C   UNL A   1      42.799  31.655  35.470  1.00  0.00    -0.014 A 
BRANCH  34  35
ATOM     35  C   UNL A   1      43.371  31.174  34.186  1.00  0.00     0.031 A 
ATOM     36  C   UNL A   1      43.412  32.080  32.985  1.00  0.00     0.074 A 
ATOM     37  C   UNL A   1      43.798  29.899  34.084  1.00  0.00     0.049 A 
ATOM     38  N   UNL A   1      43.840  31.825  31.775  1.00  0.00    -0.248 NA
ATOM     39  C   UNL A   1      42.879  33.440  33.160  1.00  0.00     0.031 C 
ATOM     40  C   UNL A   1      43.760  28.905  35.158  1.00  0.00     0.029 A 
ATOM     41  N   UNL A   1      44.339  29.219  33.021  1.00  0.00    -0.354 N 
ATOM     42  C   UNL A   1      43.611  32.984  31.041  1.00  0.00     0.074 A 
ATOM     43  C   UNL A   1      42.961  33.923  31.929  1.00  0.00     0.031 C 
ATOM     44  C   UNL A   1      44.272  27.750  34.706  1.00  0.00     0.029 A 
ATOM     45  C   UNL A   1      44.645  27.909  33.304  1.00  0.00     0.049 A 
ATOM     46  H   UNL A   1      44.495  29.632  32.141  1.00  0.00     0.167 HD
ATOM     47  C   UNL A   1      43.931  33.250  29.751  1.00  0.00     0.031 A 
ATOM     48  C   UNL A   1      45.162  26.941  32.523  1.00  0.00     0.031 A 
ATOM     49  C   UNL A   1      44.586  32.317  28.874  1.00  0.00     0.049 A 
ATOM     50  C   UNL A   1      45.526  27.261  31.101  1.00  0.00     0.074 A 
ATOM     51  C   UNL A   1      45.011  32.512  27.571  1.00  0.00     0.029 A 
ATOM     52  N   UNL A   1      44.908  31.010  29.208  1.00  0.00    -0.354 N 
ATOM     53  N   UNL A   1      45.377  28.390  30.448  1.00  0.00    -0.248 NA
ATOM     54  C   UNL A   1      46.145  26.186  30.315  1.00  0.00     0.031 C 
ATOM     55  C   UNL A   1      45.544  31.306  27.100  1.00  0.00     0.029 A 
ATOM     56  C   UNL A   1      45.504  30.378  28.129  1.00  0.00     0.049 A 
ATOM     57  H   UNL A   1      44.738  30.593  30.084  1.00  0.00     0.167 HD
ATOM     58  C   UNL A   1      45.900  28.166  29.180  1.00  0.00     0.074 A 
ATOM     59  C   UNL A   1      46.386  26.800  29.164  1.00  0.00     0.031 C 
ATOM     60  C   UNL A   1      45.974  29.014  28.124  1.00  0.00     0.031 A 
BRANCH  47  61
ATOM     61  C   UNL A   1      43.562  34.610  29.214  1.00  0.00    -0.014 A 
ATOM     62  C   UNL A   1      44.504  35.654  29.165  1.00  0.00     0.010 A 
ATOM     63  C   UNL A   1      42.258  34.845  28.744  1.00  0.00     0.010 A 
ATOM     64  C   UNL A   1      44.133  36.923  28.712  1.00  0.00     0.020 A 
ATOM     65  C   UNL A   1      41.890  36.105  28.261  1.00  0.00     0.020 A 
ATOM     66  C   UNL A   1      42.825  37.143  28.272  1.00  0.00     0.054 A 
BRANCH  66  67
ATOM     67  S   UNL A   1      42.366  38.801  27.698  1.00  0.00     0.124 S 
ATOM     68  O   UNL A   1      41.588  39.304  28.828  1.00  0.00    -0.237 OA
ATOM     69  O   UNL A   1      43.663  39.442  27.493  1.00  0.00    -0.237 OA
ATOM     70  O   UNL A   1      41.601  38.547  26.480  1.00  0.00    -0.744 OA
ENDBRANCH  66  67
ENDBRANCH  47  61
BRANCH  48  71
ATOM     71  C   UNL A   1      45.377  25.581  33.088  1.00  0.00    -0.014 A 
ATOM     72  C   UNL A   1      46.581  25.256  33.735  1.00  0.00     0.010 A 
ATOM     73  C   UNL A   1      44.354  24.617  33.017  1.00  0.00     0.010 A 
ATOM     74  C   UNL A   1      46.760  23.989  34.298  1.00  0.00     0.020 A 
ATOM     75  C   UNL A   1      44.521  23.359  33.602  1.00  0.00     0.020 A 
ATOM     76  C   UNL A   1      45.727  23.050  34.233  1.00  0.00     0.054 A 
BRANCH  76  77
ATOM     77  S   UNL A   1      45.952  21.440  35.039  1.00  0.00     0.124 S 
ATOM     78  O   UNL A   1      47.135  20.923  34.359  1.00  0.00    -0.237 OA
ATOM     79  O   UNL A   1      46.137  21.811  36.440  1.00  0.00    -0.237 OA
ATOM     80  O   UNL A   1      44.705  20.736  34.749  1.00  0.00    -0.744 OA
ENDBRANCH  76  77
ENDBRANCH  48  71
BRANCH  60  81
ATOM     81  C   UNL A   1      46.621  28.501  26.866  1.00  0.00    -0.014 A 
ATOM     82  C   UNL A   1      48.020  28.455  26.734  1.00  0.00     0.010 A 
ATOM     83  C   UNL A   1      45.815  28.005  25.824  1.00  0.00     0.010 A 
ATOM     84  C   UNL A   1      48.601  27.949  25.568  1.00  0.00     0.020 A 
ATOM     85  C   UNL A   1      46.394  27.475  24.668  1.00  0.00     0.020 A 
ATOM     86  C   UNL A   1      47.784  27.463  24.542  1.00  0.00     0.054 A 
BRANCH  86  87
ATOM     87  S   UNL A   1      48.565  26.769  23.059  1.00  0.00     0.124 S 
ATOM     88  O   UNL A   1      47.960  27.569  21.996  1.00  0.00    -0.237 OA
ATOM     89  O   UNL A   1      49.984  27.013  23.299  1.00  0.00    -0.237 OA
ATOM     90  O   UNL A   1      48.167  25.363  23.084  1.00  0.00    -0.744 OA
ENDBRANCH  86  87
ENDBRANCH  60  81
ENDBRANCH  34  35
ENDBRANCH  26  29
ENDBRANCH  24  25
ENDBRANCH  23  24
ENDBRANCH   1  23
TORSDOF 18
ENDMDL
