MODEL 1
REMARK VINA RESULT:     -10.8      0.000      0.000
REMARK SMILES O=C(C[C@@H](Cc1ccc(Br)cc1)C(=O)Nc1ccccc1)NCCCCCCNC(=O)c1ccc(-c2c3nc(c(-c4ccc(S(=O)(=O)[O-])cc4)c4ccc([nH]4)c(-c4ccc(S(=O)(=O)[O-])cc4)c4nc(c(-c5ccc(S(=O)(=O)[O-])cc5)c5ccc2[nH]5)C=C4)C=C3)cc1
REMARK SMILES IDX 25 1 24 2 23 3 22 4 1 5 2 6 3 8 4 9 5 10 6 11 7 12 12 13
REMARK SMILES IDX 8 14 11 15 9 16 10 17 13 18 14 19 15 20 16 22 17 23 21 24
REMARK SMILES IDX 18 25 20 26 19 27 26 28 27 29 28 30 29 31 30 32 31 34 32 35
REMARK SMILES IDX 33 36 91 37 34 38 90 39 35 40 36 41 37 42 84 43 38 44 89 45
REMARK SMILES IDX 83 46 85 47 39 48 88 49 82 50 81 51 40 53 70 54 51 55 69 56
REMARK SMILES IDX 52 57 55 58 68 59 86 60 53 61 54 62 67 64 87 65 56 66 41 67
REMARK SMILES IDX 42 68 50 69 43 70 49 71 44 72 45 73 46 74 47 75 48 76 71 77
REMARK SMILES IDX 72 78 80 79 73 80 79 81 74 82 75 83 76 84 77 85 78 86 57 87
REMARK SMILES IDX 58 88 66 89 59 90 65 91 60 92 61 93 62 94 63 95 64 96
REMARK H PARENT 22 7 15 21 29 33 85 52 55 63
REMARK Flexibility Score: inf
ROOT
ATOM      1  C   UNL A   1      33.915  21.429  24.227  1.00  0.00     0.002 C 
ENDROOT
BRANCH   1   2
ATOM      2  C   UNL A   1      32.966  21.274  25.427  1.00  0.00     0.021 C 
BRANCH   2   3
ATOM      3  C   UNL A   1      31.583  21.916  25.259  1.00  0.00     0.116 C 
BRANCH   3   4
ATOM      4  N   UNL A   1      31.699  23.358  25.222  1.00  0.00    -0.356 N 
ATOM      5  O   UNL A   1      31.767  23.648  22.946  1.00  0.00    -0.275 OA
ATOM      6  C   UNL A   1      31.873  24.099  24.080  1.00  0.00     0.220 C 
ATOM      7  H   UNL A   1      31.649  23.843  26.079  1.00  0.00     0.163 HD
BRANCH   6   8
ATOM      8  C   UNL A   1      32.380  25.506  24.347  1.00  0.00     0.113 C 
BRANCH   8   9
ATOM      9  C   UNL A   1      31.354  26.555  24.756  1.00  0.00     0.092 C 
BRANCH   9  10
ATOM     10  C   UNL A   1      30.123  26.838  23.859  1.00  0.00     0.049 C 
BRANCH  10  11
ATOM     11  C   UNL A   1      29.698  28.240  23.471  1.00  0.00    -0.047 A 
ATOM     12  C   UNL A   1      30.437  29.389  23.762  1.00  0.00     0.005 A 
ATOM     13  C   UNL A   1      28.440  28.420  22.869  1.00  0.00     0.005 A 
ATOM     14  C   UNL A   1      29.974  30.666  23.426  1.00  0.00     0.016 A 
ATOM     15  C   UNL A   1      27.972  29.694  22.523  1.00  0.00     0.016 A 
ATOM     16  C   UNL A   1      28.750  30.812  22.793  1.00  0.00     0.017 A 
ATOM     17  Br  UNL A   1      28.157  32.533  22.294  1.00  0.00    -0.051 Br
ENDBRANCH  10  11
ENDBRANCH   9  10
BRANCH   9  18
ATOM     18  C   UNL A   1      30.957  26.567  26.242  1.00  0.00     0.228 C 
ATOM     19  O   UNL A   1      30.129  25.734  26.639  1.00  0.00    -0.274 OA
ATOM     20  N   UNL A   1      31.586  27.291  27.210  1.00  0.00    -0.326 N 
ATOM     21  H   UNL A   1      31.465  26.916  28.112  1.00  0.00     0.169 HD
BRANCH  20  22
ATOM     22  C   UNL A   1      32.368  28.450  27.198  1.00  0.00     0.041 A 
ATOM     23  C   UNL A   1      31.711  29.679  27.079  1.00  0.00     0.026 A 
ATOM     24  C   UNL A   1      33.761  28.429  27.204  1.00  0.00     0.026 A 
ATOM     25  C   UNL A   1      32.435  30.875  27.116  1.00  0.00     0.002 A 
ATOM     26  C   UNL A   1      34.489  29.622  27.250  1.00  0.00     0.002 A 
ATOM     27  C   UNL A   1      33.823  30.846  27.227  1.00  0.00     0.000 A 
ENDBRANCH  20  22
ENDBRANCH   9  18
ENDBRANCH   8   9
ENDBRANCH   6   8
ENDBRANCH   3   4
ENDBRANCH   2   3
ENDBRANCH   1   2
BRANCH   1  28
ATOM     28  C   UNL A   1      35.402  21.549  24.564  1.00  0.00     0.002 C 
BRANCH  28  29
ATOM     29  C   UNL A   1      35.963  22.961  24.420  1.00  0.00     0.021 C 
BRANCH  29  30
ATOM     30  C   UNL A   1      36.827  23.417  25.589  1.00  0.00     0.116 C 
BRANCH  30  31
ATOM     31  N   UNL A   1      37.940  22.514  25.845  1.00  0.00    -0.352 N 
ATOM     32  C   UNL A   1      39.180  22.810  26.357  1.00  0.00     0.251 C 
ATOM     33  H   UNL A   1      37.784  21.568  25.623  1.00  0.00     0.163 HD
ATOM     34  O   UNL A   1      40.071  21.963  26.356  1.00  0.00    -0.269 OA
BRANCH  32  35
ATOM     35  C   UNL A   1      39.443  24.167  26.882  1.00  0.00     0.039 A 
ATOM     36  C   UNL A   1      39.067  24.476  28.190  1.00  0.00     0.014 A 
ATOM     37  C   UNL A   1      40.097  25.118  26.092  1.00  0.00     0.014 A 
ATOM     38  C   UNL A   1      39.410  25.718  28.731  1.00  0.00     0.010 A 
ATOM     39  C   UNL A   1      40.505  26.322  26.658  1.00  0.00     0.010 A 
ATOM     40  C   UNL A   1      40.166  26.635  27.983  1.00  0.00    -0.014 A 
BRANCH  40  41
ATOM     41  C   UNL A   1      40.620  27.926  28.565  1.00  0.00     0.031 A 
ATOM     42  C   UNL A   1      42.024  28.060  29.095  1.00  0.00     0.074 A 
ATOM     43  C   UNL A   1      39.749  28.949  28.690  1.00  0.00     0.049 A 
ATOM     44  N   UNL A   1      42.577  29.070  29.715  1.00  0.00    -0.248 NA
ATOM     45  C   UNL A   1      42.916  26.899  28.929  1.00  0.00     0.031 C 
ATOM     46  C   UNL A   1      38.351  28.935  28.248  1.00  0.00     0.029 A 
ATOM     47  N   UNL A   1      39.907  30.199  29.237  1.00  0.00    -0.354 N 
ATOM     48  C   UNL A   1      43.864  28.658  30.039  1.00  0.00     0.074 A 
ATOM     49  C   UNL A   1      44.002  27.295  29.578  1.00  0.00     0.031 C 
ATOM     50  C   UNL A   1      37.790  30.125  28.521  1.00  0.00     0.029 A 
ATOM     51  C   UNL A   1      38.766  30.969  29.199  1.00  0.00     0.049 A 
ATOM     52  H   UNL A   1      40.756  30.515  29.620  1.00  0.00     0.167 HD
ATOM     53  C   UNL A   1      44.846  29.357  30.655  1.00  0.00     0.031 A 
ATOM     54  C   UNL A   1      38.528  32.210  29.671  1.00  0.00     0.031 A 
ATOM     55  C   UNL A   1      44.715  30.724  31.085  1.00  0.00     0.049 A 
ATOM     56  C   UNL A   1      39.639  32.957  30.362  1.00  0.00     0.074 A 
ATOM     57  C   UNL A   1      45.684  31.543  31.640  1.00  0.00     0.029 A 
ATOM     58  N   UNL A   1      43.550  31.471  31.014  1.00  0.00    -0.354 N 
ATOM     59  N   UNL A   1      40.877  32.580  30.578  1.00  0.00    -0.248 NA
ATOM     60  C   UNL A   1      39.324  34.301  30.867  1.00  0.00     0.031 C 
ATOM     61  C   UNL A   1      45.087  32.763  31.968  1.00  0.00     0.029 A 
ATOM     62  C   UNL A   1      43.766  32.729  31.550  1.00  0.00     0.049 A 
ATOM     63  H   UNL A   1      42.698  31.155  30.638  1.00  0.00     0.167 HD
ATOM     64  C   UNL A   1      41.495  33.656  31.207  1.00  0.00     0.074 A 
ATOM     65  C   UNL A   1      40.502  34.701  31.326  1.00  0.00     0.031 C 
ATOM     66  C   UNL A   1      42.774  33.768  31.645  1.00  0.00     0.031 A 
BRANCH  53  67
ATOM     67  C   UNL A   1      46.157  28.663  30.917  1.00  0.00    -0.014 A 
ATOM     68  C   UNL A   1      46.372  27.923  32.092  1.00  0.00     0.010 A 
ATOM     69  C   UNL A   1      47.155  28.676  29.924  1.00  0.00     0.010 A 
ATOM     70  C   UNL A   1      47.568  27.224  32.278  1.00  0.00     0.020 A 
ATOM     71  C   UNL A   1      48.339  27.956  30.092  1.00  0.00     0.020 A 
ATOM     72  C   UNL A   1      48.541  27.239  31.274  1.00  0.00     0.054 A 
BRANCH  72  73
ATOM     73  S   UNL A   1      50.053  26.267  31.515  1.00  0.00     0.124 S 
ATOM     74  O   UNL A   1      51.081  27.185  31.032  1.00  0.00    -0.237 OA
ATOM     75  O   UNL A   1      50.052  26.029  32.957  1.00  0.00    -0.237 OA
ATOM     76  O   UNL A   1      49.840  25.081  30.691  1.00  0.00    -0.744 OA
ENDBRANCH  72  73
ENDBRANCH  53  67
BRANCH  54  77
ATOM     77  C   UNL A   1      37.183  32.834  29.518  1.00  0.00    -0.014 A 
ATOM     78  C   UNL A   1      36.786  33.385  28.286  1.00  0.00     0.010 A 
ATOM     79  C   UNL A   1      36.308  32.921  30.616  1.00  0.00     0.010 A 
ATOM     80  C   UNL A   1      35.562  34.049  28.167  1.00  0.00     0.020 A 
ATOM     81  C   UNL A   1      35.068  33.554  30.491  1.00  0.00     0.020 A 
ATOM     82  C   UNL A   1      34.713  34.134  29.273  1.00  0.00     0.054 A 
BRANCH  82  83
ATOM     83  S   UNL A   1      33.127  34.999  29.095  1.00  0.00     0.124 S 
ATOM     84  O   UNL A   1      32.462  34.202  28.070  1.00  0.00    -0.237 OA
ATOM     85  O   UNL A   1      32.563  34.903  30.439  1.00  0.00    -0.237 OA
ATOM     86  O   UNL A   1      33.519  36.347  28.686  1.00  0.00    -0.744 OA
ENDBRANCH  82  83
ENDBRANCH  54  77
BRANCH  66  87
ATOM     87  C   UNL A   1      43.197  35.084  32.243  1.00  0.00    -0.014 A 
ATOM     88  C   UNL A   1      43.104  35.326  33.624  1.00  0.00     0.010 A 
ATOM     89  C   UNL A   1      43.765  36.067  31.410  1.00  0.00     0.010 A 
ATOM     90  C   UNL A   1      43.549  36.539  34.159  1.00  0.00     0.020 A 
ATOM     91  C   UNL A   1      44.239  37.267  31.945  1.00  0.00     0.020 A 
ATOM     92  C   UNL A   1      44.117  37.500  33.316  1.00  0.00     0.054 A 
BRANCH  92  93
ATOM     93  S   UNL A   1      44.740  39.040  34.043  1.00  0.00     0.124 S 
ATOM     94  O   UNL A   1      45.456  38.553  35.219  1.00  0.00    -0.237 OA
ATOM     95  O   UNL A   1      45.579  39.581  32.976  1.00  0.00    -0.237 OA
ATOM     96  O   UNL A   1      43.529  39.806  34.324  1.00  0.00    -0.744 OA
ENDBRANCH  92  93
ENDBRANCH  66  87
ENDBRANCH  40  41
ENDBRANCH  32  35
ENDBRANCH  30  31
ENDBRANCH  29  30
ENDBRANCH  28  29
ENDBRANCH   1  28
TORSDOF 21
ENDMDL
MODEL 2
REMARK VINA RESULT:     -10.7      3.208      9.729
REMARK SMILES O=C(C[C@@H](Cc1ccc(Br)cc1)C(=O)Nc1ccccc1)NCCCCCCNC(=O)c1ccc(-c2c3nc(c(-c4ccc(S(=O)(=O)[O-])cc4)c4ccc([nH]4)c(-c4ccc(S(=O)(=O)[O-])cc4)c4nc(c(-c5ccc(S(=O)(=O)[O-])cc5)c5ccc2[nH]5)C=C4)C=C3)cc1
REMARK SMILES IDX 25 1 24 2 23 3 22 4 1 5 2 6 3 8 4 9 5 10 6 11 7 12 12 13
REMARK SMILES IDX 8 14 11 15 9 16 10 17 13 18 14 19 15 20 16 22 17 23 21 24
REMARK SMILES IDX 18 25 20 26 19 27 26 28 27 29 28 30 29 31 30 32 31 34 32 35
REMARK SMILES IDX 33 36 91 37 34 38 90 39 35 40 36 41 37 42 84 43 38 44 89 45
REMARK SMILES IDX 83 46 85 47 39 48 88 49 82 50 81 51 40 53 70 54 51 55 69 56
REMARK SMILES IDX 52 57 55 58 68 59 86 60 53 61 54 62 67 64 87 65 56 66 41 67
REMARK SMILES IDX 42 68 50 69 43 70 49 71 44 72 45 73 46 74 47 75 48 76 71 77
REMARK SMILES IDX 72 78 80 79 73 80 79 81 74 82 75 83 76 84 77 85 78 86 57 87
REMARK SMILES IDX 58 88 66 89 59 90 65 91 60 92 61 93 62 94 63 95 64 96
REMARK H PARENT 22 7 15 21 29 33 85 52 55 63
REMARK Flexibility Score: inf
ROOT
ATOM      1  C   UNL A   1      32.069  28.080  23.842  1.00  0.00     0.002 C 
ENDROOT
BRANCH   1   2
ATOM      2  C   UNL A   1      32.682  26.996  22.941  1.00  0.00     0.021 C 
BRANCH   2   3
ATOM      3  C   UNL A   1      31.764  26.466  21.831  1.00  0.00     0.116 C 
BRANCH   3   4
ATOM      4  N   UNL A   1      31.586  25.036  21.966  1.00  0.00    -0.356 N 
ATOM      5  O   UNL A   1      30.173  25.028  23.775  1.00  0.00    -0.275 OA
ATOM      6  C   UNL A   1      30.882  24.429  22.976  1.00  0.00     0.220 C 
ATOM      7  H   UNL A   1      31.998  24.458  21.283  1.00  0.00     0.163 HD
BRANCH   6   8
ATOM      8  C   UNL A   1      31.198  22.950  23.124  1.00  0.00     0.113 C 
BRANCH   8   9
ATOM      9  C   UNL A   1      32.330  22.566  24.066  1.00  0.00     0.092 C 
BRANCH   9  10
ATOM     10  C   UNL A   1      33.405  23.607  24.466  1.00  0.00     0.049 C 
BRANCH  10  11
ATOM     11  C   UNL A   1      34.816  23.218  24.855  1.00  0.00    -0.047 A 
ATOM     12  C   UNL A   1      35.298  21.907  24.840  1.00  0.00     0.005 A 
ATOM     13  C   UNL A   1      35.676  24.212  25.356  1.00  0.00     0.005 A 
ATOM     14  C   UNL A   1      36.597  21.595  25.258  1.00  0.00     0.016 A 
ATOM     15  C   UNL A   1      36.979  23.910  25.770  1.00  0.00     0.016 A 
ATOM     16  C   UNL A   1      37.438  22.601  25.706  1.00  0.00     0.017 A 
ATOM     17  Br  UNL A   1      39.205  22.181  26.217  1.00  0.00    -0.051 Br
ENDBRANCH  10  11
ENDBRANCH   9  10
BRANCH   9  18
ATOM     18  C   UNL A   1      31.936  21.701  25.277  1.00  0.00     0.228 C 
ATOM     19  O   UNL A   1      31.445  22.260  26.268  1.00  0.00    -0.274 OA
ATOM     20  N   UNL A   1      31.896  20.339  25.280  1.00  0.00    -0.326 N 
ATOM     21  H   UNL A   1      31.293  19.972  25.965  1.00  0.00     0.169 HD
BRANCH  20  22
ATOM     22  C   UNL A   1      32.527  19.350  24.518  1.00  0.00     0.041 A 
ATOM     23  C   UNL A   1      33.698  18.781  25.029  1.00  0.00     0.026 A 
ATOM     24  C   UNL A   1      32.096  18.978  23.247  1.00  0.00     0.026 A 
ATOM     25  C   UNL A   1      34.343  17.750  24.340  1.00  0.00     0.002 A 
ATOM     26  C   UNL A   1      32.733  17.941  22.557  1.00  0.00     0.002 A 
ATOM     27  C   UNL A   1      33.845  17.313  23.114  1.00  0.00     0.000 A 
ENDBRANCH  20  22
ENDBRANCH   9  18
ENDBRANCH   8   9
ENDBRANCH   6   8
ENDBRANCH   3   4
ENDBRANCH   2   3
ENDBRANCH   1   2
BRANCH   1  28
ATOM     28  C   UNL A   1      32.148  27.822  25.346  1.00  0.00     0.002 C 
BRANCH  28  29
ATOM     29  C   UNL A   1      33.375  27.025  25.779  1.00  0.00     0.021 C 
BRANCH  29  30
ATOM     30  C   UNL A   1      34.415  27.836  26.543  1.00  0.00     0.116 C 
BRANCH  30  31
ATOM     31  N   UNL A   1      33.921  29.149  26.933  1.00  0.00    -0.352 N 
ATOM     32  C   UNL A   1      34.535  30.095  27.717  1.00  0.00     0.251 C 
ATOM     33  H   UNL A   1      33.031  29.391  26.589  1.00  0.00     0.163 HD
ATOM     34  O   UNL A   1      33.917  31.088  28.093  1.00  0.00    -0.269 OA
BRANCH  32  35
ATOM     35  C   UNL A   1      35.941  29.893  28.130  1.00  0.00     0.039 A 
ATOM     36  C   UNL A   1      36.212  29.433  29.419  1.00  0.00     0.014 A 
ATOM     37  C   UNL A   1      36.984  30.119  27.227  1.00  0.00     0.014 A 
ATOM     38  C   UNL A   1      37.528  29.132  29.783  1.00  0.00     0.010 A 
ATOM     39  C   UNL A   1      38.282  29.746  27.565  1.00  0.00     0.010 A 
ATOM     40  C   UNL A   1      38.568  29.249  28.846  1.00  0.00    -0.014 A 
BRANCH  40  41
ATOM     41  C   UNL A   1      39.962  28.852  29.178  1.00  0.00     0.031 A 
ATOM     42  C   UNL A   1      40.889  29.840  29.837  1.00  0.00     0.074 A 
ATOM     43  C   UNL A   1      40.418  27.635  28.816  1.00  0.00     0.049 A 
ATOM     44  N   UNL A   1      42.158  29.712  30.126  1.00  0.00    -0.248 NA
ATOM     45  C   UNL A   1      40.323  31.151  30.198  1.00  0.00     0.031 C 
ATOM     46  C   UNL A   1      39.630  26.599  28.140  1.00  0.00     0.029 A 
ATOM     47  N   UNL A   1      41.659  27.064  28.955  1.00  0.00    -0.354 N 
ATOM     48  C   UNL A   1      42.548  30.930  30.670  1.00  0.00     0.074 A 
ATOM     49  C   UNL A   1      41.392  31.797  30.643  1.00  0.00     0.031 C 
ATOM     50  C   UNL A   1      40.401  25.515  27.946  1.00  0.00     0.029 A 
ATOM     51  C   UNL A   1      41.746  25.792  28.435  1.00  0.00     0.049 A 
ATOM     52  H   UNL A   1      42.416  27.521  29.386  1.00  0.00     0.167 HD
ATOM     53  C   UNL A   1      43.758  31.289  31.159  1.00  0.00     0.031 A 
ATOM     54  C   UNL A   1      42.795  24.949  28.348  1.00  0.00     0.031 A 
ATOM     55  C   UNL A   1      44.899  30.413  31.213  1.00  0.00     0.049 A 
ATOM     56  C   UNL A   1      44.132  25.383  28.892  1.00  0.00     0.074 A 
ATOM     57  C   UNL A   1      46.142  30.660  31.770  1.00  0.00     0.029 A 
ATOM     58  N   UNL A   1      44.941  29.130  30.691  1.00  0.00    -0.354 N 
ATOM     59  N   UNL A   1      44.455  26.509  29.484  1.00  0.00    -0.248 NA
ATOM     60  C   UNL A   1      45.244  24.432  28.762  1.00  0.00     0.031 C 
ATOM     61  C   UNL A   1      46.957  29.552  31.524  1.00  0.00     0.029 A 
ATOM     62  C   UNL A   1      46.200  28.588  30.880  1.00  0.00     0.049 A 
ATOM     63  H   UNL A   1      44.188  28.673  30.253  1.00  0.00     0.167 HD
ATOM     64  C   UNL A   1      45.796  26.380  29.831  1.00  0.00     0.074 A 
ATOM     65  C   UNL A   1      46.220  25.067  29.396  1.00  0.00     0.031 C 
ATOM     66  C   UNL A   1      46.604  27.271  30.458  1.00  0.00     0.031 A 
BRANCH  53  67
ATOM     67  C   UNL A   1      43.930  32.694  31.673  1.00  0.00    -0.014 A 
ATOM     68  C   UNL A   1      43.736  33.007  33.030  1.00  0.00     0.010 A 
ATOM     69  C   UNL A   1      44.385  33.698  30.797  1.00  0.00     0.010 A 
ATOM     70  C   UNL A   1      43.977  34.302  33.498  1.00  0.00     0.020 A 
ATOM     71  C   UNL A   1      44.654  34.985  31.266  1.00  0.00     0.020 A 
ATOM     72  C   UNL A   1      44.440  35.281  32.615  1.00  0.00     0.054 A 
BRANCH  72  73
ATOM     73  S   UNL A   1      44.807  36.934  33.265  1.00  0.00     0.124 S 
ATOM     74  O   UNL A   1      46.197  37.117  32.856  1.00  0.00    -0.237 OA
ATOM     75  O   UNL A   1      43.832  37.772  32.571  1.00  0.00    -0.237 OA
ATOM     76  O   UNL A   1      44.595  36.797  34.703  1.00  0.00    -0.744 OA
ENDBRANCH  72  73
ENDBRANCH  53  67
BRANCH  54  77
ATOM     77  C   UNL A   1      42.640  23.607  27.717  1.00  0.00    -0.014 A 
ATOM     78  C   UNL A   1      42.225  22.501  28.482  1.00  0.00     0.010 A 
ATOM     79  C   UNL A   1      42.946  23.418  26.359  1.00  0.00     0.010 A 
ATOM     80  C   UNL A   1      42.165  21.226  27.913  1.00  0.00     0.020 A 
ATOM     81  C   UNL A   1      42.855  22.150  25.776  1.00  0.00     0.020 A 
ATOM     82  C   UNL A   1      42.486  21.058  26.563  1.00  0.00     0.054 A 
BRANCH  82  83
ATOM     83  S   UNL A   1      42.400  19.394  25.843  1.00  0.00     0.124 S 
ATOM     84  O   UNL A   1      43.389  19.477  24.773  1.00  0.00    -0.237 OA
ATOM     85  O   UNL A   1      42.759  18.543  26.974  1.00  0.00    -0.237 OA
ATOM     86  O   UNL A   1      41.010  19.284  25.406  1.00  0.00    -0.744 OA
ENDBRANCH  82  83
ENDBRANCH  54  77
BRANCH  66  87
ATOM     87  C   UNL A   1      48.015  26.842  30.767  1.00  0.00    -0.014 A 
ATOM     88  C   UNL A   1      49.080  27.148  29.902  1.00  0.00     0.010 A 
ATOM     89  C   UNL A   1      48.283  26.184  31.981  1.00  0.00     0.010 A 
ATOM     90  C   UNL A   1      50.387  26.780  30.237  1.00  0.00     0.020 A 
ATOM     91  C   UNL A   1      49.590  25.842  32.334  1.00  0.00     0.020 A 
ATOM     92  C   UNL A   1      50.634  26.133  31.453  1.00  0.00     0.054 A 
BRANCH  92  93
ATOM     93  S   UNL A   1      52.344  25.719  31.889  1.00  0.00     0.124 S 
ATOM     94  O   UNL A   1      52.616  26.657  32.975  1.00  0.00    -0.237 OA
ATOM     95  O   UNL A   1      52.244  24.315  32.281  1.00  0.00    -0.237 OA
ATOM     96  O   UNL A   1      53.086  25.965  30.656  1.00  0.00    -0.744 OA
ENDBRANCH  92  93
ENDBRANCH  66  87
ENDBRANCH  40  41
ENDBRANCH  32  35
ENDBRANCH  30  31
ENDBRANCH  29  30
ENDBRANCH  28  29
ENDBRANCH   1  28
TORSDOF 21
ENDMDL
MODEL 3
REMARK VINA RESULT:     -10.4      4.518     10.399
REMARK SMILES O=C(C[C@@H](Cc1ccc(Br)cc1)C(=O)Nc1ccccc1)NCCCCCCNC(=O)c1ccc(-c2c3nc(c(-c4ccc(S(=O)(=O)[O-])cc4)c4ccc([nH]4)c(-c4ccc(S(=O)(=O)[O-])cc4)c4nc(c(-c5ccc(S(=O)(=O)[O-])cc5)c5ccc2[nH]5)C=C4)C=C3)cc1
REMARK SMILES IDX 25 1 24 2 23 3 22 4 1 5 2 6 3 8 4 9 5 10 6 11 7 12 12 13
REMARK SMILES IDX 8 14 11 15 9 16 10 17 13 18 14 19 15 20 16 22 17 23 21 24
REMARK SMILES IDX 18 25 20 26 19 27 26 28 27 29 28 30 29 31 30 32 31 34 32 35
REMARK SMILES IDX 33 36 91 37 34 38 90 39 35 40 36 41 37 42 84 43 38 44 89 45
REMARK SMILES IDX 83 46 85 47 39 48 88 49 82 50 81 51 40 53 70 54 51 55 69 56
REMARK SMILES IDX 52 57 55 58 68 59 86 60 53 61 54 62 67 64 87 65 56 66 41 67
REMARK SMILES IDX 42 68 50 69 43 70 49 71 44 72 45 73 46 74 47 75 48 76 71 77
REMARK SMILES IDX 72 78 80 79 73 80 79 81 74 82 75 83 76 84 77 85 78 86 57 87
REMARK SMILES IDX 58 88 66 89 59 90 65 91 60 92 61 93 62 94 63 95 64 96
REMARK H PARENT 22 7 15 21 29 33 85 52 55 63
REMARK Flexibility Score: inf
ROOT
ATOM      1  C   UNL A   1      33.386  27.586  26.429  1.00  0.00     0.002 C 
ENDROOT
BRANCH   1   2
ATOM      2  C   UNL A   1      32.378  27.392  25.285  1.00  0.00     0.021 C 
BRANCH   2   3
ATOM      3  C   UNL A   1      30.962  26.988  25.716  1.00  0.00     0.116 C 
BRANCH   3   4
ATOM      4  N   UNL A   1      30.613  25.700  25.154  1.00  0.00    -0.356 N 
ATOM      5  O   UNL A   1      31.353  24.360  26.865  1.00  0.00    -0.275 OA
ATOM      6  C   UNL A   1      30.916  24.490  25.728  1.00  0.00     0.220 C 
ATOM      7  H   UNL A   1      30.122  25.692  24.300  1.00  0.00     0.163 HD
BRANCH   6   8
ATOM      8  C   UNL A   1      30.821  23.325  24.757  1.00  0.00     0.113 C 
BRANCH   8   9
ATOM      9  C   UNL A   1      32.084  22.940  23.999  1.00  0.00     0.092 C 
BRANCH   9  10
ATOM     10  C   UNL A   1      32.116  21.659  23.129  1.00  0.00     0.049 C 
BRANCH  10  11
ATOM     11  C   UNL A   1      32.356  20.280  23.710  1.00  0.00    -0.047 A 
ATOM     12  C   UNL A   1      32.698  20.043  25.044  1.00  0.00     0.005 A 
ATOM     13  C   UNL A   1      32.332  19.171  22.846  1.00  0.00     0.005 A 
ATOM     14  C   UNL A   1      32.959  18.753  25.518  1.00  0.00     0.016 A 
ATOM     15  C   UNL A   1      32.585  17.875  23.314  1.00  0.00     0.016 A 
ATOM     16  C   UNL A   1      32.885  17.672  24.655  1.00  0.00     0.017 A 
ATOM     17  Br  UNL A   1      33.185  15.929  25.314  1.00  0.00    -0.051 Br
ENDBRANCH  10  11
ENDBRANCH   9  10
BRANCH   9  18
ATOM     18  C   UNL A   1      32.827  24.090  23.298  1.00  0.00     0.228 C 
ATOM     19  O   UNL A   1      32.177  24.860  22.576  1.00  0.00    -0.274 OA
ATOM     20  N   UNL A   1      34.112  24.460  23.558  1.00  0.00    -0.326 N 
ATOM     21  H   UNL A   1      34.301  25.396  23.319  1.00  0.00     0.169 HD
BRANCH  20  22
ATOM     22  C   UNL A   1      35.221  23.797  24.094  1.00  0.00     0.041 A 
ATOM     23  C   UNL A   1      35.562  24.065  25.424  1.00  0.00     0.026 A 
ATOM     24  C   UNL A   1      36.046  22.965  23.341  1.00  0.00     0.026 A 
ATOM     25  C   UNL A   1      36.627  23.392  26.031  1.00  0.00     0.002 A 
ATOM     26  C   UNL A   1      37.108  22.283  23.946  1.00  0.00     0.002 A 
ATOM     27  C   UNL A   1      37.384  22.481  25.297  1.00  0.00     0.000 A 
ENDBRANCH  20  22
ENDBRANCH   9  18
ENDBRANCH   8   9
ENDBRANCH   6   8
ENDBRANCH   3   4
ENDBRANCH   2   3
ENDBRANCH   1   2
BRANCH   1  28
ATOM     28  C   UNL A   1      33.213  28.856  27.262  1.00  0.00     0.002 C 
BRANCH  28  29
ATOM     29  C   UNL A   1      34.382  29.832  27.162  1.00  0.00     0.021 C 
BRANCH  29  30
ATOM     30  C   UNL A   1      35.607  29.433  27.976  1.00  0.00     0.116 C 
BRANCH  30  31
ATOM     31  N   UNL A   1      35.456  29.729  29.393  1.00  0.00    -0.352 N 
ATOM     32  C   UNL A   1      36.415  29.716  30.377  1.00  0.00     0.251 C 
ATOM     33  H   UNL A   1      34.547  29.971  29.685  1.00  0.00     0.163 HD
ATOM     34  O   UNL A   1      36.095  29.826  31.558  1.00  0.00    -0.269 OA
BRANCH  32  35
ATOM     35  C   UNL A   1      37.834  29.537  30.002  1.00  0.00     0.039 A 
ATOM     36  C   UNL A   1      38.729  29.031  30.946  1.00  0.00     0.014 A 
ATOM     37  C   UNL A   1      38.267  29.833  28.706  1.00  0.00     0.014 A 
ATOM     38  C   UNL A   1      40.046  28.754  30.569  1.00  0.00     0.010 A 
ATOM     39  C   UNL A   1      39.556  29.484  28.313  1.00  0.00     0.010 A 
ATOM     40  C   UNL A   1      40.459  28.941  29.240  1.00  0.00    -0.014 A 
BRANCH  40  41
ATOM     41  C   UNL A   1      41.828  28.571  28.792  1.00  0.00     0.031 A 
ATOM     42  C   UNL A   1      42.902  29.625  28.706  1.00  0.00     0.074 A 
ATOM     43  C   UNL A   1      42.084  27.310  28.387  1.00  0.00     0.049 A 
ATOM     44  N   UNL A   1      44.126  29.518  28.258  1.00  0.00    -0.248 NA
ATOM     45  C   UNL A   1      42.547  30.981  29.159  1.00  0.00     0.031 C 
ATOM     46  C   UNL A   1      41.120  26.205  28.388  1.00  0.00     0.029 A 
ATOM     47  N   UNL A   1      43.230  26.744  27.885  1.00  0.00    -0.354 N 
ATOM     48  C   UNL A   1      44.675  30.792  28.346  1.00  0.00     0.074 A 
ATOM     49  C   UNL A   1      43.644  31.664  28.858  1.00  0.00     0.031 C 
ATOM     50  C   UNL A   1      41.723  25.094  27.932  1.00  0.00     0.029 A 
ATOM     51  C   UNL A   1      43.096  25.414  27.560  1.00  0.00     0.049 A 
ATOM     52  H   UNL A   1      44.070  27.245  27.768  1.00  0.00     0.167 HD
ATOM     53  C   UNL A   1      45.930  31.195  28.038  1.00  0.00     0.031 A 
ATOM     54  C   UNL A   1      43.975  24.551  27.009  1.00  0.00     0.031 A 
ATOM     55  C   UNL A   1      46.964  30.318  27.558  1.00  0.00     0.049 A 
ATOM     56  C   UNL A   1      45.361  25.034  26.668  1.00  0.00     0.074 A 
ATOM     57  C   UNL A   1      48.291  30.619  27.301  1.00  0.00     0.029 A 
ATOM     58  N   UNL A   1      46.792  28.976  27.257  1.00  0.00    -0.354 N 
ATOM     59  N   UNL A   1      45.886  26.224  26.843  1.00  0.00    -0.248 NA
ATOM     60  C   UNL A   1      46.275  24.057  26.060  1.00  0.00     0.031 C 
ATOM     61  C   UNL A   1      48.904  29.475  26.781  1.00  0.00     0.029 A 
ATOM     62  C   UNL A   1      47.978  28.445  26.783  1.00  0.00     0.049 A 
ATOM     63  H   UNL A   1      45.951  28.475  27.366  1.00  0.00     0.167 HD
ATOM     64  C   UNL A   1      47.202  26.123  26.405  1.00  0.00     0.074 A 
ATOM     65  C   UNL A   1      47.397  24.757  25.968  1.00  0.00     0.031 C 
ATOM     66  C   UNL A   1      48.165  27.078  26.369  1.00  0.00     0.031 A 
BRANCH  53  67
ATOM     67  C   UNL A   1      46.269  32.654  28.199  1.00  0.00    -0.014 A 
ATOM     68  C   UNL A   1      46.571  33.201  29.458  1.00  0.00     0.010 A 
ATOM     69  C   UNL A   1      46.377  33.467  27.055  1.00  0.00     0.010 A 
ATOM     70  C   UNL A   1      46.958  34.539  29.573  1.00  0.00     0.020 A 
ATOM     71  C   UNL A   1      46.791  34.796  27.162  1.00  0.00     0.020 A 
ATOM     72  C   UNL A   1      47.072  35.326  28.423  1.00  0.00     0.054 A 
BRANCH  72  73
ATOM     73  S   UNL A   1      47.641  37.040  28.597  1.00  0.00     0.124 S 
ATOM     74  O   UNL A   1      48.276  37.015  29.911  1.00  0.00    -0.237 OA
ATOM     75  O   UNL A   1      48.549  37.190  27.462  1.00  0.00    -0.237 OA
ATOM     76  O   UNL A   1      46.412  37.825  28.515  1.00  0.00    -0.744 OA
ENDBRANCH  72  73
ENDBRANCH  53  67
BRANCH  54  77
ATOM     77  C   UNL A   1      43.582  23.140  26.735  1.00  0.00    -0.014 A 
ATOM     78  C   UNL A   1      42.604  22.504  27.524  1.00  0.00     0.010 A 
ATOM     79  C   UNL A   1      44.212  22.409  25.713  1.00  0.00     0.010 A 
ATOM     80  C   UNL A   1      42.300  21.154  27.325  1.00  0.00     0.020 A 
ATOM     81  C   UNL A   1      43.885  21.068  25.488  1.00  0.00     0.020 A 
ATOM     82  C   UNL A   1      42.947  20.443  26.311  1.00  0.00     0.054 A 
BRANCH  82  83
ATOM     83  S   UNL A   1      42.535  18.692  26.069  1.00  0.00     0.124 S 
ATOM     84  O   UNL A   1      42.969  18.103  27.332  1.00  0.00    -0.237 OA
ATOM     85  O   UNL A   1      41.091  18.735  25.852  1.00  0.00    -0.237 OA
ATOM     86  O   UNL A   1      43.323  18.316  24.898  1.00  0.00    -0.744 OA
ENDBRANCH  82  83
ENDBRANCH  54  77
BRANCH  66  87
ATOM     87  C   UNL A   1      49.536  26.673  25.896  1.00  0.00    -0.014 A 
ATOM     88  C   UNL A   1      50.031  27.082  24.646  1.00  0.00     0.010 A 
ATOM     89  C   UNL A   1      50.368  25.930  26.754  1.00  0.00     0.010 A 
ATOM     90  C   UNL A   1      51.327  26.732  24.252  1.00  0.00     0.020 A 
ATOM     91  C   UNL A   1      51.673  25.606  26.378  1.00  0.00     0.020 A 
ATOM     92  C   UNL A   1      52.141  25.999  25.123  1.00  0.00     0.054 A 
BRANCH  92  93
ATOM     93  S   UNL A   1      53.836  25.610  24.612  1.00  0.00     0.124 S 
ATOM     94  O   UNL A   1      54.617  26.559  25.401  1.00  0.00    -0.237 OA
ATOM     95  O   UNL A   1      53.973  24.208  24.999  1.00  0.00    -0.237 OA
ATOM     96  O   UNL A   1      53.830  25.856  23.172  1.00  0.00    -0.744 OA
ENDBRANCH  92  93
ENDBRANCH  66  87
ENDBRANCH  40  41
ENDBRANCH  32  35
ENDBRANCH  30  31
ENDBRANCH  29  30
ENDBRANCH  28  29
ENDBRANCH   1  28
TORSDOF 21
ENDMDL
