MODEL 1
REMARK VINA RESULT:     -11.4      0.000      0.000
REMARK SMILES CC1(C)[C@H](C(=O)NCCCCCCNC(=O)c2ccc(-c3c4nc(c(-c5ccc(S(=O)(=O)[O-])cc5)c5ccc([nH]5)c(-c5ccc(S(=O)(=O)[O-])cc5)c5nc(c(-c6ccc(S(=O)(=O)[O-])cc6)c6ccc3[nH]6)C=C5)C=C4)cc2)[C@@H]1C(=O)Nc1ccc(NC(=O)C2CCC2)cc1
REMARK SMILES IDX 10 1 9 2 8 3 7 4 5 5 6 6 4 8 1 9 2 10 3 11 77 12 78 13 79 14
REMARK SMILES IDX 80 15 81 17 82 18 93 19 83 20 92 21 84 22 85 23 86 24 87 26
REMARK SMILES IDX 88 27 89 28 91 29 90 30 11 31 12 32 13 33 14 34 15 35 16 37
REMARK SMILES IDX 17 38 18 39 76 40 19 41 75 42 20 43 21 44 22 45 69 46 23 47
REMARK SMILES IDX 74 48 68 49 70 50 24 51 73 52 67 53 66 54 25 56 55 57 36 58
REMARK SMILES IDX 54 59 37 60 40 61 53 62 71 63 38 64 39 65 52 67 72 68 41 69
REMARK SMILES IDX 26 70 27 71 35 72 28 73 34 74 29 75 30 76 31 77 32 78 33 79
REMARK SMILES IDX 56 80 57 81 65 82 58 83 64 84 59 85 60 86 61 87 62 88 63 89
REMARK SMILES IDX 42 90 43 91 51 92 44 93 50 94 45 95 46 96 47 97 48 98 49 99
REMARK H PARENT 7 7 80 16 85 25 14 36 70 55 40 66
REMARK Flexibility Score: inf
ROOT
ATOM      1  C   UNL A   1      34.397  31.234  27.933  1.00  0.00     0.002 C 
ENDROOT
BRANCH   1   2
ATOM      2  C   UNL A   1      33.079  30.878  27.225  1.00  0.00     0.021 C 
BRANCH   2   3
ATOM      3  C   UNL A   1      33.263  30.007  25.987  1.00  0.00     0.116 C 
BRANCH   3   4
ATOM      4  N   UNL A   1      32.035  29.940  25.227  1.00  0.00    -0.356 N 
ATOM      5  C   UNL A   1      31.468  29.056  24.361  1.00  0.00     0.224 C 
ATOM      6  O   UNL A   1      30.381  29.410  23.894  1.00  0.00    -0.275 OA
ATOM      7  H   UNL A   1      31.467  30.731  25.371  1.00  0.00     0.163 HD
BRANCH   5   8
ATOM      8  C   UNL A   1      31.973  27.736  23.916  1.00  0.00     0.098 C 
ATOM      9  C   UNL A   1      33.947  26.141  24.274  1.00  0.00     0.013 C 
ATOM     10  C   UNL A   1      32.617  26.661  24.775  1.00  0.00    -0.011 C 
ATOM     11  C   UNL A   1      32.584  26.744  26.281  1.00  0.00     0.013 C 
ATOM     12  C   UNL A   1      31.370  26.368  23.910  1.00  0.00     0.098 C 
BRANCH  12  13
ATOM     13  C   UNL A   1      30.044  25.967  24.421  1.00  0.00     0.228 C 
ATOM     14  O   UNL A   1      29.061  26.670  24.205  1.00  0.00    -0.274 OA
ATOM     15  N   UNL A   1      29.910  24.844  25.210  1.00  0.00    -0.326 N 
ATOM     16  H   UNL A   1      29.105  24.788  25.775  1.00  0.00     0.169 HD
BRANCH  15  17
ATOM     17  C   UNL A   1      30.811  23.779  25.281  1.00  0.00     0.041 A 
ATOM     18  C   UNL A   1      31.123  23.183  24.071  1.00  0.00     0.028 A 
ATOM     19  C   UNL A   1      31.486  23.389  26.435  1.00  0.00     0.028 A 
ATOM     20  C   UNL A   1      32.251  22.385  23.980  1.00  0.00     0.028 A 
ATOM     21  C   UNL A   1      32.483  22.400  26.349  1.00  0.00     0.028 A 
ATOM     22  C   UNL A   1      32.870  21.886  25.104  1.00  0.00     0.041 A 
BRANCH  22  23
ATOM     23  N   UNL A   1      33.862  20.903  25.044  1.00  0.00    -0.326 N 
ATOM     24  C   UNL A   1      35.240  20.943  24.930  1.00  0.00     0.227 C 
ATOM     25  H   UNL A   1      33.504  19.988  25.094  1.00  0.00     0.169 HD
ATOM     26  O   UNL A   1      35.781  19.819  24.939  1.00  0.00    -0.274 OA
BRANCH  24  27
ATOM     27  C   UNL A   1      36.115  22.219  24.797  1.00  0.00     0.079 C 
ATOM     28  C   UNL A   1      35.994  23.189  26.030  1.00  0.00     0.013 C 
ATOM     29  C   UNL A   1      37.652  22.332  25.062  1.00  0.00     0.013 C 
ATOM     30  C   UNL A   1      37.397  23.703  25.695  1.00  0.00     0.002 C 
ENDBRANCH  24  27
ENDBRANCH  22  23
ENDBRANCH  15  17
ENDBRANCH  12  13
ENDBRANCH   5   8
ENDBRANCH   3   4
ENDBRANCH   2   3
ENDBRANCH   1   2
BRANCH   1  31
ATOM     31  C   UNL A   1      34.490  32.664  28.481  1.00  0.00     0.002 C 
BRANCH  31  32
ATOM     32  C   UNL A   1      35.894  33.271  28.498  1.00  0.00     0.021 C 
BRANCH  32  33
ATOM     33  C   UNL A   1      36.582  33.260  29.859  1.00  0.00     0.116 C 
BRANCH  33  34
ATOM     34  N   UNL A   1      36.066  32.220  30.731  1.00  0.00    -0.352 N 
ATOM     35  C   UNL A   1      36.591  30.979  30.994  1.00  0.00     0.251 C 
ATOM     36  H   UNL A   1      35.226  32.434  31.198  1.00  0.00     0.163 HD
ATOM     37  O   UNL A   1      35.940  30.161  31.636  1.00  0.00    -0.269 OA
BRANCH  35  38
ATOM     38  C   UNL A   1      37.931  30.627  30.477  1.00  0.00     0.039 A 
ATOM     39  C   UNL A   1      38.989  30.504  31.380  1.00  0.00     0.014 A 
ATOM     40  C   UNL A   1      38.142  30.418  29.110  1.00  0.00     0.014 A 
ATOM     41  C   UNL A   1      40.251  30.125  30.918  1.00  0.00     0.010 A 
ATOM     42  C   UNL A   1      39.383  29.972  28.662  1.00  0.00     0.010 A 
ATOM     43  C   UNL A   1      40.452  29.831  29.558  1.00  0.00    -0.014 A 
BRANCH  43  44
ATOM     44  C   UNL A   1      41.779  29.387  29.061  1.00  0.00     0.031 A 
ATOM     45  C   UNL A   1      42.916  30.369  28.963  1.00  0.00     0.074 A 
ATOM     46  C   UNL A   1      41.945  28.113  28.653  1.00  0.00     0.049 A 
ATOM     47  N   UNL A   1      44.133  30.178  28.523  1.00  0.00    -0.248 NA
ATOM     48  C   UNL A   1      42.643  31.751  29.390  1.00  0.00     0.031 C 
ATOM     49  C   UNL A   1      40.908  27.078  28.657  1.00  0.00     0.029 A 
ATOM     50  N   UNL A   1      43.050  27.472  28.151  1.00  0.00    -0.354 N 
ATOM     51  C   UNL A   1      44.764  31.413  28.606  1.00  0.00     0.074 A 
ATOM     52  C   UNL A   1      43.781  32.358  29.090  1.00  0.00     0.031 C 
ATOM     53  C   UNL A   1      41.434  25.927  28.207  1.00  0.00     0.029 A 
ATOM     54  C   UNL A   1      42.830  26.149  27.848  1.00  0.00     0.049 A 
ATOM     55  H   UNL A   1      43.918  27.918  28.020  1.00  0.00     0.167 HD
ATOM     56  C   UNL A   1      46.051  31.731  28.325  1.00  0.00     0.031 A 
ATOM     57  C   UNL A   1      43.659  25.218  27.337  1.00  0.00     0.031 A 
ATOM     58  C   UNL A   1      47.029  30.784  27.857  1.00  0.00     0.049 A 
ATOM     59  C   UNL A   1      45.085  25.593  27.037  1.00  0.00     0.074 A 
ATOM     60  C   UNL A   1      48.372  30.994  27.597  1.00  0.00     0.029 A 
ATOM     61  N   UNL A   1      46.771  29.451  27.580  1.00  0.00    -0.354 N 
ATOM     62  N   UNL A   1      45.680  26.752  27.186  1.00  0.00    -0.248 NA
ATOM     63  C   UNL A   1      45.955  24.530  26.515  1.00  0.00     0.031 C 
ATOM     64  C   UNL A   1      48.915  29.798  27.115  1.00  0.00     0.029 A 
ATOM     65  C   UNL A   1      47.925  28.829  27.132  1.00  0.00     0.049 A 
ATOM     66  H   UNL A   1      45.896  29.010  27.686  1.00  0.00     0.167 HD
ATOM     67  C   UNL A   1      47.002  26.550  26.804  1.00  0.00     0.074 A 
ATOM     68  C   UNL A   1      47.121  25.154  26.434  1.00  0.00     0.031 C 
ATOM     69  C   UNL A   1      48.026  27.439  26.766  1.00  0.00     0.031 A 
BRANCH  56  70
ATOM     70  C   UNL A   1      46.474  33.164  28.514  1.00  0.00    -0.014 A 
ATOM     71  C   UNL A   1      46.290  34.118  27.498  1.00  0.00     0.010 A 
ATOM     72  C   UNL A   1      47.025  33.573  29.744  1.00  0.00     0.010 A 
ATOM     73  C   UNL A   1      46.685  35.444  27.690  1.00  0.00     0.020 A 
ATOM     74  C   UNL A   1      47.395  34.905  29.950  1.00  0.00     0.020 A 
ATOM     75  C   UNL A   1      47.237  35.830  28.915  1.00  0.00     0.054 A 
BRANCH  75  76
ATOM     76  S   UNL A   1      47.716  37.563  29.146  1.00  0.00     0.124 S 
ATOM     77  O   UNL A   1      49.062  37.582  28.580  1.00  0.00    -0.237 OA
ATOM     78  O   UNL A   1      46.702  38.280  28.377  1.00  0.00    -0.237 OA
ATOM     79  O   UNL A   1      47.646  37.754  30.593  1.00  0.00    -0.744 OA
ENDBRANCH  75  76
ENDBRANCH  56  70
BRANCH  57  80
ATOM     80  C   UNL A   1      43.165  23.834  27.093  1.00  0.00    -0.014 A 
ATOM     81  C   UNL A   1      43.143  22.889  28.135  1.00  0.00     0.010 A 
ATOM     82  C   UNL A   1      42.706  23.457  25.819  1.00  0.00     0.010 A 
ATOM     83  C   UNL A   1      42.692  21.587  27.901  1.00  0.00     0.020 A 
ATOM     84  C   UNL A   1      42.228  22.164  25.588  1.00  0.00     0.020 A 
ATOM     85  C   UNL A   1      42.236  21.232  26.627  1.00  0.00     0.054 A 
BRANCH  85  86
ATOM     86  S   UNL A   1      41.613  19.550  26.357  1.00  0.00     0.124 S 
ATOM     87  O   UNL A   1      42.430  19.101  25.235  1.00  0.00    -0.237 OA
ATOM     88  O   UNL A   1      41.884  18.904  27.639  1.00  0.00    -0.237 OA
ATOM     89  O   UNL A   1      40.197  19.756  26.060  1.00  0.00    -0.744 OA
ENDBRANCH  85  86
ENDBRANCH  57  80
BRANCH  69  90
ATOM     90  C   UNL A   1      49.376  26.920  26.347  1.00  0.00    -0.014 A 
ATOM     91  C   UNL A   1      50.222  26.264  27.259  1.00  0.00     0.010 A 
ATOM     92  C   UNL A   1      49.783  27.056  25.007  1.00  0.00     0.010 A 
ATOM     93  C   UNL A   1      51.469  25.786  26.845  1.00  0.00     0.020 A 
ATOM     94  C   UNL A   1      51.016  26.554  24.584  1.00  0.00     0.020 A 
ATOM     95  C   UNL A   1      51.859  25.938  25.510  1.00  0.00     0.054 A 
BRANCH  95  96
ATOM     96  S   UNL A   1      53.468  25.282  24.991  1.00  0.00     0.124 S 
ATOM     97  O   UNL A   1      53.317  23.856  25.269  1.00  0.00    -0.237 OA
ATOM     98  O   UNL A   1      53.524  25.646  23.578  1.00  0.00    -0.237 OA
ATOM     99  O   UNL A   1      54.422  25.985  25.847  1.00  0.00    -0.744 OA
ENDBRANCH  95  96
ENDBRANCH  69  90
ENDBRANCH  43  44
ENDBRANCH  35  38
ENDBRANCH  33  34
ENDBRANCH  32  33
ENDBRANCH  31  32
ENDBRANCH   1  31
TORSDOF 20
ENDMDL
MODEL 2
REMARK VINA RESULT:     -11.0      5.968      7.942
REMARK SMILES CC1(C)[C@H](C(=O)NCCCCCCNC(=O)c2ccc(-c3c4nc(c(-c5ccc(S(=O)(=O)[O-])cc5)c5ccc([nH]5)c(-c5ccc(S(=O)(=O)[O-])cc5)c5nc(c(-c6ccc(S(=O)(=O)[O-])cc6)c6ccc3[nH]6)C=C5)C=C4)cc2)[C@@H]1C(=O)Nc1ccc(NC(=O)C2CCC2)cc1
REMARK SMILES IDX 10 1 9 2 8 3 7 4 5 5 6 6 4 8 1 9 2 10 3 11 77 12 78 13 79 14
REMARK SMILES IDX 80 15 81 17 82 18 93 19 83 20 92 21 84 22 85 23 86 24 87 26
REMARK SMILES IDX 88 27 89 28 91 29 90 30 11 31 12 32 13 33 14 34 15 35 16 37
REMARK SMILES IDX 17 38 18 39 76 40 19 41 75 42 20 43 21 44 22 45 69 46 23 47
REMARK SMILES IDX 74 48 68 49 70 50 24 51 73 52 67 53 66 54 25 56 55 57 36 58
REMARK SMILES IDX 54 59 37 60 40 61 53 62 71 63 38 64 39 65 52 67 72 68 41 69
REMARK SMILES IDX 26 70 27 71 35 72 28 73 34 74 29 75 30 76 31 77 32 78 33 79
REMARK SMILES IDX 56 80 57 81 65 82 58 83 64 84 59 85 60 86 61 87 62 88 63 89
REMARK SMILES IDX 42 90 43 91 51 92 44 93 50 94 45 95 46 96 47 97 48 98 49 99
REMARK H PARENT 7 7 80 16 85 25 14 36 70 55 40 66
REMARK Flexibility Score: inf
ROOT
ATOM      1  C   UNL A   1      34.038  31.312  27.924  1.00  0.00     0.002 C 
ENDROOT
BRANCH   1   2
ATOM      2  C   UNL A   1      35.207  30.360  27.622  1.00  0.00     0.021 C 
BRANCH   2   3
ATOM      3  C   UNL A   1      34.787  29.078  26.911  1.00  0.00     0.116 C 
BRANCH   3   4
ATOM      4  N   UNL A   1      33.819  29.368  25.876  1.00  0.00    -0.356 N 
ATOM      5  C   UNL A   1      33.316  28.709  24.796  1.00  0.00     0.224 C 
ATOM      6  O   UNL A   1      32.498  29.352  24.130  1.00  0.00    -0.275 OA
ATOM      7  H   UNL A   1      33.427  30.264  25.977  1.00  0.00     0.163 HD
BRANCH   5   8
ATOM      8  C   UNL A   1      33.608  27.335  24.326  1.00  0.00     0.098 C 
ATOM      9  C   UNL A   1      34.741  25.169  25.098  1.00  0.00     0.013 C 
ATOM     10  C   UNL A   1      33.508  26.048  25.126  1.00  0.00    -0.011 C 
ATOM     11  C   UNL A   1      32.836  26.021  26.477  1.00  0.00     0.013 C 
ATOM     12  C   UNL A   1      32.742  26.237  23.797  1.00  0.00     0.098 C 
BRANCH  12  13
ATOM     13  C   UNL A   1      31.275  26.244  23.644  1.00  0.00     0.228 C 
ATOM     14  O   UNL A   1      30.698  27.258  23.264  1.00  0.00    -0.274 OA
ATOM     15  N   UNL A   1      30.530  25.139  24.000  1.00  0.00    -0.326 N 
ATOM     16  H   UNL A   1      29.573  25.283  24.182  1.00  0.00     0.169 HD
BRANCH  15  17
ATOM     17  C   UNL A   1      31.009  23.833  24.126  1.00  0.00     0.041 A 
ATOM     18  C   UNL A   1      31.572  23.293  22.982  1.00  0.00     0.028 A 
ATOM     19  C   UNL A   1      31.071  23.124  25.323  1.00  0.00     0.028 A 
ATOM     20  C   UNL A   1      32.387  22.179  23.088  1.00  0.00     0.028 A 
ATOM     21  C   UNL A   1      31.714  21.873  25.350  1.00  0.00     0.028 A 
ATOM     22  C   UNL A   1      32.380  21.389  24.215  1.00  0.00     0.041 A 
BRANCH  22  23
ATOM     23  N   UNL A   1      33.010  20.143  24.267  1.00  0.00    -0.326 N 
ATOM     24  C   UNL A   1      34.279  19.730  24.632  1.00  0.00     0.227 C 
ATOM     25  H   UNL A   1      32.428  19.402  23.984  1.00  0.00     0.169 HD
ATOM     26  O   UNL A   1      34.449  18.496  24.564  1.00  0.00    -0.274 OA
BRANCH  24  27
ATOM     27  C   UNL A   1      35.447  20.644  25.094  1.00  0.00     0.079 C 
ATOM     28  C   UNL A   1      36.858  19.960  24.970  1.00  0.00     0.013 C 
ATOM     29  C   UNL A   1      36.111  21.799  24.276  1.00  0.00     0.013 C 
ATOM     30  C   UNL A   1      37.465  21.361  24.842  1.00  0.00     0.002 C 
ENDBRANCH  24  27
ENDBRANCH  22  23
ENDBRANCH  15  17
ENDBRANCH  12  13
ENDBRANCH   5   8
ENDBRANCH   3   4
ENDBRANCH   2   3
ENDBRANCH   1   2
BRANCH   1  31
ATOM     31  C   UNL A   1      34.425  32.665  28.536  1.00  0.00     0.002 C 
BRANCH  31  32
ATOM     32  C   UNL A   1      33.476  33.823  28.221  1.00  0.00     0.021 C 
BRANCH  32  33
ATOM     33  C   UNL A   1      33.862  35.157  28.852  1.00  0.00     0.116 C 
BRANCH  33  34
ATOM     34  N   UNL A   1      32.960  35.545  29.923  1.00  0.00    -0.352 N 
ATOM     35  C   UNL A   1      33.040  35.252  31.261  1.00  0.00     0.251 C 
ATOM     36  H   UNL A   1      32.188  36.091  29.652  1.00  0.00     0.163 HD
ATOM     37  O   UNL A   1      32.104  35.526  32.007  1.00  0.00    -0.269 OA
BRANCH  35  38
ATOM     38  C   UNL A   1      34.246  34.583  31.794  1.00  0.00     0.039 A 
ATOM     39  C   UNL A   1      34.131  33.281  32.288  1.00  0.00     0.014 A 
ATOM     40  C   UNL A   1      35.484  35.233  31.804  1.00  0.00     0.014 A 
ATOM     41  C   UNL A   1      35.267  32.615  32.750  1.00  0.00     0.010 A 
ATOM     42  C   UNL A   1      36.626  34.541  32.198  1.00  0.00     0.010 A 
ATOM     43  C   UNL A   1      36.529  33.230  32.685  1.00  0.00    -0.014 A 
BRANCH  43  44
ATOM     44  C   UNL A   1      37.751  32.516  33.135  1.00  0.00     0.031 A 
ATOM     45  C   UNL A   1      38.423  32.909  34.424  1.00  0.00     0.074 A 
ATOM     46  C   UNL A   1      38.281  31.550  32.360  1.00  0.00     0.049 A 
ATOM     47  N   UNL A   1      39.513  32.427  34.963  1.00  0.00    -0.248 NA
ATOM     48  C   UNL A   1      37.805  34.002  35.194  1.00  0.00     0.031 C 
ATOM     49  C   UNL A   1      37.747  31.109  31.069  1.00  0.00     0.029 A 
ATOM     50  N   UNL A   1      39.391  30.764  32.545  1.00  0.00    -0.354 N 
ATOM     51  C   UNL A   1      39.720  33.165  36.123  1.00  0.00     0.074 A 
ATOM     52  C   UNL A   1      38.672  34.159  36.183  1.00  0.00     0.031 C 
ATOM     53  C   UNL A   1      38.514  30.115  30.593  1.00  0.00     0.029 A 
ATOM     54  C   UNL A   1      39.612  29.872  31.522  1.00  0.00     0.049 A 
ATOM     55  H   UNL A   1      39.975  30.832  33.335  1.00  0.00     0.167 HD
ATOM     56  C   UNL A   1      40.682  33.016  37.065  1.00  0.00     0.031 A 
ATOM     57  C   UNL A   1      40.589  28.961  31.349  1.00  0.00     0.031 A 
ATOM     58  C   UNL A   1      41.715  32.015  37.008  1.00  0.00     0.049 A 
ATOM     59  C   UNL A   1      41.644  28.811  32.412  1.00  0.00     0.074 A 
ATOM     60  C   UNL A   1      42.702  31.745  37.939  1.00  0.00     0.029 A 
ATOM     61  N   UNL A   1      41.893  31.119  35.965  1.00  0.00    -0.354 N 
ATOM     62  N   UNL A   1      41.783  29.474  33.534  1.00  0.00    -0.248 NA
ATOM     63  C   UNL A   1      42.666  27.777  32.190  1.00  0.00     0.031 C 
ATOM     64  C   UNL A   1      43.509  30.719  37.436  1.00  0.00     0.029 A 
ATOM     65  C   UNL A   1      42.987  30.309  36.219  1.00  0.00     0.049 A 
ATOM     66  H   UNL A   1      41.326  31.067  35.162  1.00  0.00     0.167 HD
ATOM     67  C   UNL A   1      42.890  28.918  34.167  1.00  0.00     0.074 A 
ATOM     68  C   UNL A   1      43.371  27.855  33.309  1.00  0.00     0.031 C 
ATOM     69  C   UNL A   1      43.455  29.256  35.353  1.00  0.00     0.031 A 
BRANCH  56  70
ATOM     70  C   UNL A   1      40.664  33.960  38.238  1.00  0.00    -0.014 A 
ATOM     71  C   UNL A   1      41.362  35.180  38.201  1.00  0.00     0.010 A 
ATOM     72  C   UNL A   1      39.902  33.643  39.378  1.00  0.00     0.010 A 
ATOM     73  C   UNL A   1      41.332  36.048  39.296  1.00  0.00     0.020 A 
ATOM     74  C   UNL A   1      39.847  34.522  40.465  1.00  0.00     0.020 A 
ATOM     75  C   UNL A   1      40.577  35.712  40.423  1.00  0.00     0.054 A 
BRANCH  75  76
ATOM     76  S   UNL A   1      40.535  36.869  41.819  1.00  0.00     0.124 S 
ATOM     77  O   UNL A   1      40.973  36.022  42.925  1.00  0.00    -0.237 OA
ATOM     78  O   UNL A   1      41.482  37.902  41.406  1.00  0.00    -0.237 OA
ATOM     79  O   UNL A   1      39.139  37.296  41.876  1.00  0.00    -0.744 OA
ENDBRANCH  75  76
ENDBRANCH  56  70
BRANCH  57  80
ATOM     80  C   UNL A   1      40.605  28.106  30.131  1.00  0.00    -0.014 A 
ATOM     81  C   UNL A   1      41.536  28.343  29.102  1.00  0.00     0.010 A 
ATOM     82  C   UNL A   1      39.695  27.043  29.996  1.00  0.00     0.010 A 
ATOM     83  C   UNL A   1      41.539  27.547  27.953  1.00  0.00     0.020 A 
ATOM     84  C   UNL A   1      39.714  26.227  28.860  1.00  0.00     0.020 A 
ATOM     85  C   UNL A   1      40.628  26.493  27.839  1.00  0.00     0.054 A 
BRANCH  85  86
ATOM     86  S   UNL A   1      40.681  25.445  26.360  1.00  0.00     0.124 S 
ATOM     87  O   UNL A   1      41.083  26.396  25.329  1.00  0.00    -0.237 OA
ATOM     88  O   UNL A   1      41.680  24.441  26.720  1.00  0.00    -0.237 OA
ATOM     89  O   UNL A   1      39.314  24.941  26.250  1.00  0.00    -0.744 OA
ENDBRANCH  85  86
ENDBRANCH  57  80
BRANCH  69  90
ATOM     90  C   UNL A   1      44.634  28.441  35.815  1.00  0.00    -0.014 A 
ATOM     91  C   UNL A   1      45.950  28.916  35.676  1.00  0.00     0.010 A 
ATOM     92  C   UNL A   1      44.414  27.197  36.436  1.00  0.00     0.010 A 
ATOM     93  C   UNL A   1      47.029  28.144  36.117  1.00  0.00     0.020 A 
ATOM     94  C   UNL A   1      45.488  26.437  36.904  1.00  0.00     0.020 A 
ATOM     95  C   UNL A   1      46.790  26.907  36.726  1.00  0.00     0.054 A 
BRANCH  95  96
ATOM     96  S   UNL A   1      48.204  25.938  37.318  1.00  0.00     0.124 S 
ATOM     97  O   UNL A   1      48.446  26.528  38.632  1.00  0.00    -0.237 OA
ATOM     98  O   UNL A   1      47.679  24.575  37.327  1.00  0.00    -0.237 OA
ATOM     99  O   UNL A   1      49.241  26.193  36.320  1.00  0.00    -0.744 OA
ENDBRANCH  95  96
ENDBRANCH  69  90
ENDBRANCH  43  44
ENDBRANCH  35  38
ENDBRANCH  33  34
ENDBRANCH  32  33
ENDBRANCH  31  32
ENDBRANCH   1  31
TORSDOF 20
ENDMDL
MODEL 3
REMARK VINA RESULT:     -11.0      0.965      7.968
REMARK SMILES CC1(C)[C@H](C(=O)NCCCCCCNC(=O)c2ccc(-c3c4nc(c(-c5ccc(S(=O)(=O)[O-])cc5)c5ccc([nH]5)c(-c5ccc(S(=O)(=O)[O-])cc5)c5nc(c(-c6ccc(S(=O)(=O)[O-])cc6)c6ccc3[nH]6)C=C5)C=C4)cc2)[C@@H]1C(=O)Nc1ccc(NC(=O)C2CCC2)cc1
REMARK SMILES IDX 10 1 9 2 8 3 7 4 5 5 6 6 4 8 1 9 2 10 3 11 77 12 78 13 79 14
REMARK SMILES IDX 80 15 81 17 82 18 93 19 83 20 92 21 84 22 85 23 86 24 87 26
REMARK SMILES IDX 88 27 89 28 91 29 90 30 11 31 12 32 13 33 14 34 15 35 16 37
REMARK SMILES IDX 17 38 18 39 76 40 19 41 75 42 20 43 21 44 22 45 69 46 23 47
REMARK SMILES IDX 74 48 68 49 70 50 24 51 73 52 67 53 66 54 25 56 55 57 36 58
REMARK SMILES IDX 54 59 37 60 40 61 53 62 71 63 38 64 39 65 52 67 72 68 41 69
REMARK SMILES IDX 26 70 27 71 35 72 28 73 34 74 29 75 30 76 31 77 32 78 33 79
REMARK SMILES IDX 56 80 57 81 65 82 58 83 64 84 59 85 60 86 61 87 62 88 63 89
REMARK SMILES IDX 42 90 43 91 51 92 44 93 50 94 45 95 46 96 47 97 48 98 49 99
REMARK H PARENT 7 7 80 16 85 25 14 36 70 55 40 66
REMARK Flexibility Score: inf
ROOT
ATOM      1  C   UNL A   1      34.599  32.137  27.821  1.00  0.00     0.002 C 
ENDROOT
BRANCH   1   2
ATOM      2  C   UNL A   1      34.682  30.622  28.067  1.00  0.00     0.021 C 
BRANCH   2   3
ATOM      3  C   UNL A   1      34.863  29.802  26.794  1.00  0.00     0.116 C 
BRANCH   3   4
ATOM      4  N   UNL A   1      33.644  29.801  26.016  1.00  0.00    -0.356 N 
ATOM      5  C   UNL A   1      33.045  28.951  25.138  1.00  0.00     0.224 C 
ATOM      6  O   UNL A   1      31.985  29.361  24.656  1.00  0.00    -0.275 OA
ATOM      7  H   UNL A   1      33.116  30.620  26.154  1.00  0.00     0.163 HD
BRANCH   5   8
ATOM      8  C   UNL A   1      33.488  27.607  24.697  1.00  0.00     0.098 C 
ATOM      9  C   UNL A   1      34.449  25.424  25.635  1.00  0.00     0.013 C 
ATOM     10  C   UNL A   1      33.225  26.279  25.386  1.00  0.00    -0.011 C 
ATOM     11  C   UNL A   1      32.232  26.173  26.518  1.00  0.00     0.013 C 
ATOM     12  C   UNL A   1      32.817  26.523  23.915  1.00  0.00     0.098 C 
BRANCH  12  13
ATOM     13  C   UNL A   1      31.437  26.513  23.393  1.00  0.00     0.228 C 
ATOM     14  O   UNL A   1      30.950  27.533  22.914  1.00  0.00    -0.274 OA
ATOM     15  N   UNL A   1      30.654  25.383  23.508  1.00  0.00    -0.326 N 
ATOM     16  H   UNL A   1      29.679  25.506  23.445  1.00  0.00     0.169 HD
BRANCH  15  17
ATOM     17  C   UNL A   1      31.118  24.081  23.706  1.00  0.00     0.041 A 
ATOM     18  C   UNL A   1      31.913  23.573  22.692  1.00  0.00     0.028 A 
ATOM     19  C   UNL A   1      30.944  23.347  24.876  1.00  0.00     0.028 A 
ATOM     20  C   UNL A   1      32.707  22.466  22.943  1.00  0.00     0.028 A 
ATOM     21  C   UNL A   1      31.588  22.104  25.013  1.00  0.00     0.028 A 
ATOM     22  C   UNL A   1      32.481  21.653  24.031  1.00  0.00     0.041 A 
BRANCH  22  23
ATOM     23  N   UNL A   1      33.107  20.413  24.189  1.00  0.00    -0.326 N 
ATOM     24  C   UNL A   1      34.352  20.025  24.650  1.00  0.00     0.227 C 
ATOM     25  H   UNL A   1      32.543  19.656  23.913  1.00  0.00     0.169 HD
ATOM     26  O   UNL A   1      34.526  18.790  24.660  1.00  0.00    -0.274 OA
BRANCH  24  27
ATOM     27  C   UNL A   1      35.491  20.968  25.128  1.00  0.00     0.079 C 
ATOM     28  C   UNL A   1      36.923  20.329  24.997  1.00  0.00     0.013 C 
ATOM     29  C   UNL A   1      36.121  22.155  24.329  1.00  0.00     0.013 C 
ATOM     30  C   UNL A   1      37.486  21.750  24.891  1.00  0.00     0.002 C 
ENDBRANCH  24  27
ENDBRANCH  22  23
ENDBRANCH  15  17
ENDBRANCH  12  13
ENDBRANCH   5   8
ENDBRANCH   3   4
ENDBRANCH   2   3
ENDBRANCH   1   2
BRANCH   1  31
ATOM     31  C   UNL A   1      35.909  32.913  28.004  1.00  0.00     0.002 C 
BRANCH  31  32
ATOM     32  C   UNL A   1      36.045  33.671  29.326  1.00  0.00     0.021 C 
BRANCH  32  33
ATOM     33  C   UNL A   1      36.986  33.029  30.340  1.00  0.00     0.116 C 
BRANCH  33  34
ATOM     34  N   UNL A   1      36.419  31.836  30.943  1.00  0.00    -0.352 N 
ATOM     35  C   UNL A   1      36.909  30.554  30.937  1.00  0.00     0.251 C 
ATOM     36  H   UNL A   1      35.568  31.964  31.422  1.00  0.00     0.163 HD
ATOM     37  O   UNL A   1      36.220  29.631  31.362  1.00  0.00    -0.269 OA
BRANCH  35  38
ATOM     38  C   UNL A   1      38.258  30.288  30.393  1.00  0.00     0.039 A 
ATOM     39  C   UNL A   1      39.320  30.113  31.283  1.00  0.00     0.014 A 
ATOM     40  C   UNL A   1      38.474  30.210  29.013  1.00  0.00     0.014 A 
ATOM     41  C   UNL A   1      40.592  29.814  30.791  1.00  0.00     0.010 A 
ATOM     42  C   UNL A   1      39.727  29.842  28.529  1.00  0.00     0.010 A 
ATOM     43  C   UNL A   1      40.800  29.651  29.411  1.00  0.00    -0.014 A 
BRANCH  43  44
ATOM     44  C   UNL A   1      42.139  29.292  28.877  1.00  0.00     0.031 A 
ATOM     45  C   UNL A   1      42.408  27.892  28.392  1.00  0.00     0.074 A 
ATOM     46  C   UNL A   1      43.123  30.212  28.875  1.00  0.00     0.049 A 
ATOM     47  N   UNL A   1      43.519  27.383  27.925  1.00  0.00    -0.248 NA
ATOM     48  C   UNL A   1      41.292  26.934  28.465  1.00  0.00     0.031 C 
ATOM     49  C   UNL A   1      42.999  31.589  29.360  1.00  0.00     0.029 A 
ATOM     50  N   UNL A   1      44.427  30.126  28.454  1.00  0.00    -0.354 N 
ATOM     51  C   UNL A   1      43.242  26.046  27.664  1.00  0.00     0.074 A 
ATOM     52  C   UNL A   1      41.874  25.811  28.071  1.00  0.00     0.031 C 
ATOM     53  C   UNL A   1      44.168  32.225  29.182  1.00  0.00     0.029 A 
ATOM     54  C   UNL A   1      45.134  31.295  28.608  1.00  0.00     0.049 A 
ATOM     55  H   UNL A   1      44.818  29.305  28.077  1.00  0.00     0.167 HD
ATOM     56  C   UNL A   1      44.045  25.103  27.115  1.00  0.00     0.031 A 
ATOM     57  C   UNL A   1      46.418  31.586  28.321  1.00  0.00     0.031 A 
ATOM     58  C   UNL A   1      45.401  25.346  26.699  1.00  0.00     0.049 A 
ATOM     59  C   UNL A   1      47.290  30.524  27.708  1.00  0.00     0.074 A 
ATOM     60  C   UNL A   1      46.279  24.473  26.081  1.00  0.00     0.029 A 
ATOM     61  N   UNL A   1      46.075  26.547  26.856  1.00  0.00    -0.354 N 
ATOM     62  N   UNL A   1      46.988  29.284  27.407  1.00  0.00    -0.248 NA
ATOM     63  C   UNL A   1      48.671  30.906  27.382  1.00  0.00     0.031 C 
ATOM     64  C   UNL A   1      47.502  25.131  25.910  1.00  0.00     0.029 A 
ATOM     65  C   UNL A   1      47.365  26.433  26.366  1.00  0.00     0.049 A 
ATOM     66  H   UNL A   1      45.693  27.361  27.257  1.00  0.00     0.167 HD
ATOM     67  C   UNL A   1      48.132  28.746  26.828  1.00  0.00     0.074 A 
ATOM     68  C   UNL A   1      49.125  29.801  26.808  1.00  0.00     0.031 C 
ATOM     69  C   UNL A   1      48.342  27.493  26.354  1.00  0.00     0.031 A 
BRANCH  56  70
ATOM     70  C   UNL A   1      43.477  23.720  26.937  1.00  0.00    -0.014 A 
ATOM     71  C   UNL A   1      43.204  22.896  28.043  1.00  0.00     0.010 A 
ATOM     72  C   UNL A   1      43.171  23.252  25.645  1.00  0.00     0.010 A 
ATOM     73  C   UNL A   1      42.674  21.616  27.860  1.00  0.00     0.020 A 
ATOM     74  C   UNL A   1      42.614  21.983  25.460  1.00  0.00     0.020 A 
ATOM     75  C   UNL A   1      42.384  21.166  26.570  1.00  0.00     0.054 A 
BRANCH  75  76
ATOM     76  S   UNL A   1      41.672  19.511  26.365  1.00  0.00     0.124 S 
ATOM     77  O   UNL A   1      41.996  18.884  27.643  1.00  0.00    -0.237 OA
ATOM     78  O   UNL A   1      40.256  19.797  26.146  1.00  0.00    -0.237 OA
ATOM     79  O   UNL A   1      42.380  18.968  25.207  1.00  0.00    -0.744 OA
ENDBRANCH  75  76
ENDBRANCH  56  70
BRANCH  57  80
ATOM     80  C   UNL A   1      46.952  32.949  28.593  1.00  0.00    -0.014 A 
ATOM     81  C   UNL A   1      46.809  33.977  27.642  1.00  0.00     0.010 A 
ATOM     82  C   UNL A   1      47.599  33.230  29.809  1.00  0.00     0.010 A 
ATOM     83  C   UNL A   1      47.323  35.252  27.895  1.00  0.00     0.020 A 
ATOM     84  C   UNL A   1      48.089  34.511  30.077  1.00  0.00     0.020 A 
ATOM     85  C   UNL A   1      47.960  35.512  29.112  1.00  0.00     0.054 A 
BRANCH  85  86
ATOM     86  S   UNL A   1      48.579  37.186  29.437  1.00  0.00     0.124 S 
ATOM     87  O   UNL A   1      47.341  37.954  29.528  1.00  0.00    -0.237 OA
ATOM     88  O   UNL A   1      49.312  37.014  30.689  1.00  0.00    -0.237 OA
ATOM     89  O   UNL A   1      49.411  37.473  28.271  1.00  0.00    -0.744 OA
ENDBRANCH  85  86
ENDBRANCH  57  80
BRANCH  69  90
ATOM     90  C   UNL A   1      49.684  27.203  25.734  1.00  0.00    -0.014 A 
ATOM     91  C   UNL A   1      49.913  27.402  24.361  1.00  0.00     0.010 A 
ATOM     92  C   UNL A   1      50.743  26.766  26.551  1.00  0.00     0.010 A 
ATOM     93  C   UNL A   1      51.168  27.131  23.809  1.00  0.00     0.020 A 
ATOM     94  C   UNL A   1      52.007  26.524  26.008  1.00  0.00     0.020 A 
ATOM     95  C   UNL A   1      52.207  26.690  24.637  1.00  0.00     0.054 A 
BRANCH  95  96
ATOM     96  S   UNL A   1      53.834  26.377  23.903  1.00  0.00     0.124 S 
ATOM     97  O   UNL A   1      54.238  25.145  24.576  1.00  0.00    -0.237 OA
ATOM     98  O   UNL A   1      53.527  26.245  22.481  1.00  0.00    -0.237 OA
ATOM     99  O   UNL A   1      54.610  27.563  24.259  1.00  0.00    -0.744 OA
ENDBRANCH  95  96
ENDBRANCH  69  90
ENDBRANCH  43  44
ENDBRANCH  35  38
ENDBRANCH  33  34
ENDBRANCH  32  33
ENDBRANCH  31  32
ENDBRANCH   1  31
TORSDOF 20
ENDMDL
