MODEL 1
REMARK VINA RESULT:     -13.0      0.000      0.000
REMARK SMILES Cc1ncc(CO)c([C@H]2[NH2+][C@@H](C(=O)NCCCCCCNC(=O)c3ccc(-c4c5nc(c(-c6ccc(S(=O)(=O)[O-])cc6)c6ccc([nH]6)c(-c6ccc(S(=O)(=O)[O-])cc6)c6nc(c(-c7ccc(S(=O)(=O)[O-])cc7)c7ccc4[nH]7)C=C6)C=C5)cc3)Cc3[nH]cnc32)c1O
REMARK SMILES IDX 17 1 16 2 15 3 14 4 12 5 13 6 11 8 9 9 10 10 89 11 85 14
REMARK SMILES IDX 88 15 84 16 86 17 87 18 8 20 1 21 2 22 3 23 90 24 4 25 5 26
REMARK SMILES IDX 91 27 6 29 7 30 18 32 19 33 20 34 21 35 22 36 23 38 24 39
REMARK SMILES IDX 25 40 83 41 26 42 82 43 27 44 28 45 29 46 76 47 30 48 81 49
REMARK SMILES IDX 75 50 77 51 31 52 80 53 74 54 73 55 32 57 62 58 43 59 61 60
REMARK SMILES IDX 44 61 47 62 60 63 78 64 45 65 46 66 59 68 79 69 48 70 33 71
REMARK SMILES IDX 34 72 42 73 35 74 41 75 36 76 37 77 38 78 39 79 40 80 63 81
REMARK SMILES IDX 64 82 72 83 65 84 71 85 66 86 67 87 68 88 69 89 70 90 49 91
REMARK SMILES IDX 50 92 58 93 51 94 57 95 52 96 53 97 54 98 55 99 56 100
REMARK H PARENT 14 7 10 12 10 13 86 19 91 28 7 31 21 37 77 56 47 67
REMARK Flexibility Score: inf
ROOT
ATOM      1  C   UNL A   1      34.708  21.848  24.137  1.00  0.00     0.002 C 
ENDROOT
BRANCH   1   2
ATOM      2  C   UNL A   1      34.452  23.133  23.347  1.00  0.00     0.021 C 
BRANCH   2   3
ATOM      3  C   UNL A   1      33.042  23.244  22.776  1.00  0.00     0.116 C 
BRANCH   3   4
ATOM      4  N   UNL A   1      33.023  23.857  21.455  1.00  0.00    -0.351 N 
ATOM      5  C   UNL A   1      32.910  25.174  21.093  1.00  0.00     0.278 C 
ATOM      6  O   UNL A   1      33.007  25.463  19.901  1.00  0.00    -0.268 OA
ATOM      7  H   UNL A   1      33.103  23.226  20.704  1.00  0.00     0.163 HD
BRANCH   5   8
ATOM      8  C   UNL A   1      32.644  26.205  22.187  1.00  0.00     0.279 C 
ATOM      9  C   UNL A   1      31.045  27.750  23.043  1.00  0.00     0.270 C 
ATOM     10  N   UNL A   1      31.567  27.149  21.780  1.00  0.00    -0.324 N 
ATOM     11  C   UNL A   1      32.160  28.535  23.676  1.00  0.00     0.124 A 
ATOM     12  H   UNL A   1      31.946  27.875  21.172  1.00  0.00     0.347 HD
ATOM     13  H   UNL A   1      30.830  26.673  21.261  1.00  0.00     0.347 HD
ATOM     14  C   UNL A   1      33.473  28.092  23.530  1.00  0.00     0.051 A 
ATOM     15  N   UNL A   1      32.096  29.444  24.703  1.00  0.00    -0.235 NA
ATOM     16  C   UNL A   1      33.911  26.963  22.643  1.00  0.00     0.131 C 
ATOM     17  N   UNL A   1      34.213  28.780  24.438  1.00  0.00    -0.348 N 
ATOM     18  C   UNL A   1      33.339  29.586  25.120  1.00  0.00     0.197 A 
ATOM     19  H   UNL A   1      35.184  28.713  24.580  1.00  0.00     0.167 HD
BRANCH   9  20
ATOM     20  C   UNL A   1      29.647  28.268  22.837  1.00  0.00     0.066 A 
ATOM     21  C   UNL A   1      28.489  31.658  21.413  1.00  0.00     0.071 C 
ATOM     22  C   UNL A   1      28.472  30.284  22.018  1.00  0.00     0.079 A 
ATOM     23  N   UNL A   1      27.296  29.826  22.481  1.00  0.00    -0.257 NA
ATOM     24  C   UNL A   1      29.627  29.524  22.153  1.00  0.00     0.146 A 
ATOM     25  C   UNL A   1      27.296  28.612  23.083  1.00  0.00     0.118 A 
ATOM     26  C   UNL A   1      28.421  27.803  23.320  1.00  0.00     0.009 A 
BRANCH  24  27
ATOM     27  O   UNL A   1      30.816  30.021  21.660  1.00  0.00    -0.505 OA
ATOM     28  H   UNL A   1      31.135  30.851  21.954  1.00  0.00     0.293 HD
ENDBRANCH  24  27
BRANCH  26  29
ATOM     29  C   UNL A   1      28.185  26.537  24.087  1.00  0.00     0.194 C 
BRANCH  29  30
ATOM     30  O   UNL A   1      26.786  26.350  24.302  1.00  0.00    -0.392 OA
ATOM     31  H   UNL A   1      26.493  25.546  23.846  1.00  0.00     0.211 HD
ENDBRANCH  29  30
ENDBRANCH  26  29
ENDBRANCH   9  20
ENDBRANCH   5   8
ENDBRANCH   3   4
ENDBRANCH   2   3
ENDBRANCH   1   2
BRANCH   1  32
ATOM     32  C   UNL A   1      35.938  21.868  25.059  1.00  0.00     0.002 C 
BRANCH  32  33
ATOM     33  C   UNL A   1      36.805  20.599  25.070  1.00  0.00     0.021 C 
BRANCH  33  34
ATOM     34  C   UNL A   1      38.297  20.881  25.099  1.00  0.00     0.116 C 
BRANCH  34  35
ATOM     35  N   UNL A   1      39.081  19.696  25.452  1.00  0.00    -0.352 N 
ATOM     36  C   UNL A   1      40.404  19.631  25.864  1.00  0.00     0.251 C 
ATOM     37  H   UNL A   1      38.609  18.836  25.390  1.00  0.00     0.163 HD
ATOM     38  O   UNL A   1      41.039  18.598  25.770  1.00  0.00    -0.269 OA
BRANCH  36  39
ATOM     39  C   UNL A   1      41.011  20.849  26.432  1.00  0.00     0.039 A 
ATOM     40  C   UNL A   1      41.824  21.702  25.679  1.00  0.00     0.014 A 
ATOM     41  C   UNL A   1      40.713  21.137  27.758  1.00  0.00     0.014 A 
ATOM     42  C   UNL A   1      42.270  22.889  26.262  1.00  0.00     0.010 A 
ATOM     43  C   UNL A   1      40.973  22.382  28.252  1.00  0.00     0.010 A 
ATOM     44  C   UNL A   1      41.828  23.222  27.549  1.00  0.00    -0.014 A 
BRANCH  44  45
ATOM     45  C   UNL A   1      42.168  24.482  28.196  1.00  0.00     0.031 A 
ATOM     46  C   UNL A   1      41.165  25.564  28.024  1.00  0.00     0.074 A 
ATOM     47  C   UNL A   1      43.148  24.544  29.126  1.00  0.00     0.049 A 
ATOM     48  N   UNL A   1      41.296  26.674  27.377  1.00  0.00    -0.248 NA
ATOM     49  C   UNL A   1      39.798  25.322  28.517  1.00  0.00     0.031 C 
ATOM     50  C   UNL A   1      43.980  23.445  29.642  1.00  0.00     0.029 A 
ATOM     51  N   UNL A   1      43.509  25.582  29.924  1.00  0.00    -0.354 N 
ATOM     52  C   UNL A   1      40.108  27.373  27.577  1.00  0.00     0.074 A 
ATOM     53  C   UNL A   1      39.163  26.415  28.089  1.00  0.00     0.031 C 
ATOM     54  C   UNL A   1      44.552  23.814  30.809  1.00  0.00     0.029 A 
ATOM     55  C   UNL A   1      44.286  25.223  31.022  1.00  0.00     0.049 A 
ATOM     56  H   UNL A   1      43.244  26.511  29.740  1.00  0.00     0.167 HD
ATOM     57  C   UNL A   1      40.069  28.736  27.567  1.00  0.00     0.031 A 
ATOM     58  C   UNL A   1      44.665  26.028  32.045  1.00  0.00     0.031 A 
ATOM     59  C   UNL A   1      41.296  29.292  27.055  1.00  0.00     0.049 A 
ATOM     60  C   UNL A   1      44.529  27.422  31.561  1.00  0.00     0.074 A 
ATOM     61  C   UNL A   1      41.972  29.236  25.854  1.00  0.00     0.029 A 
ATOM     62  N   UNL A   1      42.214  29.706  27.994  1.00  0.00    -0.354 N 
ATOM     63  N   UNL A   1      45.237  27.909  30.581  1.00  0.00    -0.248 NA
ATOM     64  C   UNL A   1      43.298  28.137  31.854  1.00  0.00     0.031 C 
ATOM     65  C   UNL A   1      43.352  29.175  26.211  1.00  0.00     0.029 A 
ATOM     66  C   UNL A   1      43.453  29.269  27.601  1.00  0.00     0.049 A 
ATOM     67  H   UNL A   1      42.014  30.225  28.807  1.00  0.00     0.167 HD
ATOM     68  C   UNL A   1      44.354  28.701  29.863  1.00  0.00     0.074 A 
ATOM     69  C   UNL A   1      43.216  28.899  30.759  1.00  0.00     0.031 C 
ATOM     70  C   UNL A   1      44.508  28.882  28.517  1.00  0.00     0.031 A 
BRANCH  57  71
ATOM     71  C   UNL A   1      39.114  29.561  28.400  1.00  0.00    -0.014 A 
ATOM     72  C   UNL A   1      37.826  29.828  27.891  1.00  0.00     0.010 A 
ATOM     73  C   UNL A   1      39.516  30.304  29.529  1.00  0.00     0.010 A 
ATOM     74  C   UNL A   1      37.016  30.832  28.441  1.00  0.00     0.020 A 
ATOM     75  C   UNL A   1      38.701  31.274  30.114  1.00  0.00     0.020 A 
ATOM     76  C   UNL A   1      37.468  31.558  29.544  1.00  0.00     0.054 A 
BRANCH  76  77
ATOM     77  S   UNL A   1      36.466  32.921  30.184  1.00  0.00     0.124 S 
ATOM     78  O   UNL A   1      36.883  32.969  31.581  1.00  0.00    -0.237 OA
ATOM     79  O   UNL A   1      36.899  34.040  29.351  1.00  0.00    -0.237 OA
ATOM     80  O   UNL A   1      35.095  32.474  29.953  1.00  0.00    -0.744 OA
ENDBRANCH  76  77
ENDBRANCH  57  71
BRANCH  58  81
ATOM     81  C   UNL A   1      44.838  25.690  33.480  1.00  0.00    -0.014 A 
ATOM     82  C   UNL A   1      45.895  26.239  34.230  1.00  0.00     0.010 A 
ATOM     83  C   UNL A   1      43.789  25.063  34.183  1.00  0.00     0.010 A 
ATOM     84  C   UNL A   1      45.867  26.227  35.636  1.00  0.00     0.020 A 
ATOM     85  C   UNL A   1      43.756  25.045  35.582  1.00  0.00     0.020 A 
ATOM     86  C   UNL A   1      44.783  25.652  36.303  1.00  0.00     0.054 A 
BRANCH  86  87
ATOM     87  S   UNL A   1      44.651  25.822  38.109  1.00  0.00     0.124 S 
ATOM     88  O   UNL A   1      45.787  26.682  38.423  1.00  0.00    -0.237 OA
ATOM     89  O   UNL A   1      43.332  26.428  38.275  1.00  0.00    -0.237 OA
ATOM     90  O   UNL A   1      44.760  24.444  38.585  1.00  0.00    -0.744 OA
ENDBRANCH  86  87
ENDBRANCH  58  81
BRANCH  70  91
ATOM     91  C   UNL A   1      45.811  28.435  27.885  1.00  0.00    -0.014 A 
ATOM     92  C   UNL A   1      46.058  27.118  27.444  1.00  0.00     0.010 A 
ATOM     93  C   UNL A   1      46.758  29.427  27.585  1.00  0.00     0.010 A 
ATOM     94  C   UNL A   1      47.230  26.805  26.735  1.00  0.00     0.020 A 
ATOM     95  C   UNL A   1      47.918  29.126  26.867  1.00  0.00     0.020 A 
ATOM     96  C   UNL A   1      48.153  27.816  26.449  1.00  0.00     0.054 A 
BRANCH  96  97
ATOM     97  S   UNL A   1      49.637  27.425  25.479  1.00  0.00     0.124 S 
ATOM     98  O   UNL A   1      50.291  26.404  26.295  1.00  0.00    -0.237 OA
ATOM     99  O   UNL A   1      49.085  26.958  24.210  1.00  0.00    -0.237 OA
ATOM    100  O   UNL A   1      50.348  28.701  25.402  1.00  0.00    -0.744 OA
ENDBRANCH  96  97
ENDBRANCH  70  91
ENDBRANCH  44  45
ENDBRANCH  36  39
ENDBRANCH  34  35
ENDBRANCH  33  34
ENDBRANCH  32  33
ENDBRANCH   1  32
TORSDOF 20
ENDMDL
MODEL 2
REMARK VINA RESULT:     -12.8      2.385      7.411
REMARK SMILES Cc1ncc(CO)c([C@H]2[NH2+][C@@H](C(=O)NCCCCCCNC(=O)c3ccc(-c4c5nc(c(-c6ccc(S(=O)(=O)[O-])cc6)c6ccc([nH]6)c(-c6ccc(S(=O)(=O)[O-])cc6)c6nc(c(-c7ccc(S(=O)(=O)[O-])cc7)c7ccc4[nH]7)C=C6)C=C5)cc3)Cc3[nH]cnc32)c1O
REMARK SMILES IDX 17 1 16 2 15 3 14 4 12 5 13 6 11 8 9 9 10 10 89 11 85 14
REMARK SMILES IDX 88 15 84 16 86 17 87 18 8 20 1 21 2 22 3 23 90 24 4 25 5 26
REMARK SMILES IDX 91 27 6 29 7 30 18 32 19 33 20 34 21 35 22 36 23 38 24 39
REMARK SMILES IDX 25 40 83 41 26 42 82 43 27 44 28 45 29 46 76 47 30 48 81 49
REMARK SMILES IDX 75 50 77 51 31 52 80 53 74 54 73 55 32 57 62 58 43 59 61 60
REMARK SMILES IDX 44 61 47 62 60 63 78 64 45 65 46 66 59 68 79 69 48 70 33 71
REMARK SMILES IDX 34 72 42 73 35 74 41 75 36 76 37 77 38 78 39 79 40 80 63 81
REMARK SMILES IDX 64 82 72 83 65 84 71 85 66 86 67 87 68 88 69 89 70 90 49 91
REMARK SMILES IDX 50 92 58 93 51 94 57 95 52 96 53 97 54 98 55 99 56 100
REMARK H PARENT 14 7 10 12 10 13 86 19 91 28 7 31 21 37 77 56 47 67
REMARK Flexibility Score: inf
ROOT
ATOM      1  C   UNL A   1      34.780  24.176  24.238  1.00  0.00     0.002 C 
ENDROOT
BRANCH   1   2
ATOM      2  C   UNL A   1      34.427  23.160  23.149  1.00  0.00     0.021 C 
BRANCH   2   3
ATOM      3  C   UNL A   1      33.017  23.313  22.587  1.00  0.00     0.116 C 
BRANCH   3   4
ATOM      4  N   UNL A   1      33.004  23.964  21.284  1.00  0.00    -0.351 N 
ATOM      5  C   UNL A   1      32.905  25.291  20.960  1.00  0.00     0.278 C 
ATOM      6  O   UNL A   1      33.005  25.613  19.776  1.00  0.00    -0.268 OA
ATOM      7  H   UNL A   1      33.080  23.353  20.516  1.00  0.00     0.163 HD
BRANCH   5   8
ATOM      8  C   UNL A   1      32.647  26.293  22.083  1.00  0.00     0.279 C 
ATOM      9  C   UNL A   1      31.044  27.791  23.010  1.00  0.00     0.270 C 
ATOM     10  N   UNL A   1      31.546  27.227  21.722  1.00  0.00    -0.324 N 
ATOM     11  C   UNL A   1      32.161  28.581  23.634  1.00  0.00     0.124 A 
ATOM     12  H   UNL A   1      31.898  27.973  21.122  1.00  0.00     0.347 HD
ATOM     13  H   UNL A   1      30.805  26.750  21.210  1.00  0.00     0.347 HD
ATOM     14  C   UNL A   1      33.478  28.164  23.447  1.00  0.00     0.051 A 
ATOM     15  N   UNL A   1      32.106  29.466  24.682  1.00  0.00    -0.235 NA
ATOM     16  C   UNL A   1      33.913  27.062  22.526  1.00  0.00     0.131 C 
ATOM     17  N   UNL A   1      34.227  28.844  24.353  1.00  0.00    -0.348 N 
ATOM     18  C   UNL A   1      33.356  29.620  25.073  1.00  0.00     0.197 A 
ATOM     19  H   UNL A   1      35.203  28.790  24.471  1.00  0.00     0.167 HD
BRANCH   9  20
ATOM     20  C   UNL A   1      29.633  28.290  22.848  1.00  0.00     0.066 A 
ATOM     21  C   UNL A   1      28.383  31.649  21.430  1.00  0.00     0.071 C 
ATOM     22  C   UNL A   1      28.405  30.282  22.050  1.00  0.00     0.079 A 
ATOM     23  N   UNL A   1      27.252  29.815  22.560  1.00  0.00    -0.257 NA
ATOM     24  C   UNL A   1      29.573  29.537  22.153  1.00  0.00     0.146 A 
ATOM     25  C   UNL A   1      27.289  28.608  23.174  1.00  0.00     0.118 A 
ATOM     26  C   UNL A   1      28.431  27.815  23.380  1.00  0.00     0.009 A 
BRANCH  24  27
ATOM     27  O   UNL A   1      30.738  30.043  21.612  1.00  0.00    -0.505 OA
ATOM     28  H   UNL A   1      30.758  30.317  20.716  1.00  0.00     0.293 HD
ENDBRANCH  24  27
BRANCH  26  29
ATOM     29  C   UNL A   1      28.239  26.556  24.169  1.00  0.00     0.194 C 
BRANCH  29  30
ATOM     30  O   UNL A   1      26.850  26.235  24.245  1.00  0.00    -0.392 OA
ATOM     31  H   UNL A   1      26.402  26.871  24.825  1.00  0.00     0.211 HD
ENDBRANCH  29  30
ENDBRANCH  26  29
ENDBRANCH   9  20
ENDBRANCH   5   8
ENDBRANCH   3   4
ENDBRANCH   2   3
ENDBRANCH   1   2
BRANCH   1  32
ATOM     32  C   UNL A   1      34.870  23.615  25.666  1.00  0.00     0.002 C 
BRANCH  32  33
ATOM     33  C   UNL A   1      35.936  22.536  25.911  1.00  0.00     0.021 C 
BRANCH  33  34
ATOM     34  C   UNL A   1      37.361  23.042  25.760  1.00  0.00     0.116 C 
BRANCH  34  35
ATOM     35  N   UNL A   1      38.347  21.964  25.852  1.00  0.00    -0.352 N 
ATOM     36  C   UNL A   1      39.675  22.045  26.243  1.00  0.00     0.251 C 
ATOM     37  H   UNL A   1      38.027  21.068  25.605  1.00  0.00     0.163 HD
ATOM     38  O   UNL A   1      40.474  21.182  25.931  1.00  0.00    -0.269 OA
BRANCH  36  39
ATOM     39  C   UNL A   1      40.085  23.201  27.062  1.00  0.00     0.039 A 
ATOM     40  C   UNL A   1      41.211  23.169  27.891  1.00  0.00     0.014 A 
ATOM     41  C   UNL A   1      39.315  24.351  26.951  1.00  0.00     0.014 A 
ATOM     42  C   UNL A   1      41.591  24.340  28.549  1.00  0.00     0.010 A 
ATOM     43  C   UNL A   1      39.801  25.535  27.424  1.00  0.00     0.010 A 
ATOM     44  C   UNL A   1      40.881  25.521  28.298  1.00  0.00    -0.014 A 
BRANCH  44  45
ATOM     45  C   UNL A   1      41.265  26.806  28.868  1.00  0.00     0.031 A 
ATOM     46  C   UNL A   1      42.532  27.372  28.336  1.00  0.00     0.074 A 
ATOM     47  C   UNL A   1      40.380  27.547  29.571  1.00  0.00     0.049 A 
ATOM     48  N   UNL A   1      43.644  27.558  28.965  1.00  0.00    -0.248 NA
ATOM     49  C   UNL A   1      42.615  27.637  26.890  1.00  0.00     0.031 C 
ATOM     50  C   UNL A   1      38.969  27.243  29.861  1.00  0.00     0.029 A 
ATOM     51  N   UNL A   1      40.510  28.809  30.054  1.00  0.00    -0.354 N 
ATOM     52  C   UNL A   1      44.496  28.179  28.054  1.00  0.00     0.074 A 
ATOM     53  C   UNL A   1      43.892  28.002  26.759  1.00  0.00     0.031 C 
ATOM     54  C   UNL A   1      38.326  28.370  30.236  1.00  0.00     0.029 A 
ATOM     55  C   UNL A   1      39.309  29.424  30.397  1.00  0.00     0.049 A 
ATOM     56  H   UNL A   1      41.382  29.254  30.153  1.00  0.00     0.167 HD
ATOM     57  C   UNL A   1      45.485  29.025  28.461  1.00  0.00     0.031 A 
ATOM     58  C   UNL A   1      39.135  30.716  30.769  1.00  0.00     0.031 A 
ATOM     59  C   UNL A   1      45.692  28.944  29.885  1.00  0.00     0.049 A 
ATOM     60  C   UNL A   1      40.461  31.213  31.206  1.00  0.00     0.074 A 
ATOM     61  C   UNL A   1      46.082  27.956  30.765  1.00  0.00     0.029 A 
ATOM     62  N   UNL A   1      45.076  29.913  30.644  1.00  0.00    -0.354 N 
ATOM     63  N   UNL A   1      41.096  30.736  32.240  1.00  0.00    -0.248 NA
ATOM     64  C   UNL A   1      41.286  31.918  30.240  1.00  0.00     0.031 C 
ATOM     65  C   UNL A   1      45.284  28.163  31.929  1.00  0.00     0.029 A 
ATOM     66  C   UNL A   1      44.503  29.304  31.731  1.00  0.00     0.049 A 
ATOM     67  H   UNL A   1      45.051  30.876  30.441  1.00  0.00     0.167 HD
ATOM     68  C   UNL A   1      42.426  30.692  31.852  1.00  0.00     0.074 A 
ATOM     69  C   UNL A   1      42.498  31.542  30.664  1.00  0.00     0.031 C 
ATOM     70  C   UNL A   1      43.276  29.752  32.362  1.00  0.00     0.031 A 
BRANCH  57  71
ATOM     71  C   UNL A   1      45.965  30.213  27.659  1.00  0.00    -0.014 A 
ATOM     72  C   UNL A   1      47.354  30.414  27.509  1.00  0.00     0.010 A 
ATOM     73  C   UNL A   1      45.126  31.279  27.278  1.00  0.00     0.010 A 
ATOM     74  C   UNL A   1      47.871  31.641  27.068  1.00  0.00     0.020 A 
ATOM     75  C   UNL A   1      45.627  32.489  26.794  1.00  0.00     0.020 A 
ATOM     76  C   UNL A   1      47.000  32.676  26.725  1.00  0.00     0.054 A 
BRANCH  76  77
ATOM     77  S   UNL A   1      47.673  34.289  26.257  1.00  0.00     0.124 S 
ATOM     78  O   UNL A   1      47.030  35.173  27.224  1.00  0.00    -0.237 OA
ATOM     79  O   UNL A   1      49.108  34.087  26.433  1.00  0.00    -0.237 OA
ATOM     80  O   UNL A   1      47.237  34.450  24.872  1.00  0.00    -0.744 OA
ENDBRANCH  76  77
ENDBRANCH  57  71
BRANCH  58  81
ATOM     81  C   UNL A   1      37.993  31.620  30.486  1.00  0.00    -0.014 A 
ATOM     82  C   UNL A   1      38.103  32.649  29.533  1.00  0.00     0.010 A 
ATOM     83  C   UNL A   1      36.702  31.279  30.939  1.00  0.00     0.010 A 
ATOM     84  C   UNL A   1      36.959  33.265  28.996  1.00  0.00     0.020 A 
ATOM     85  C   UNL A   1      35.558  31.891  30.411  1.00  0.00     0.020 A 
ATOM     86  C   UNL A   1      35.691  32.863  29.422  1.00  0.00     0.054 A 
BRANCH  86  87
ATOM     87  S   UNL A   1      34.215  33.512  28.579  1.00  0.00     0.124 S 
ATOM     88  O   UNL A   1      34.798  34.377  27.559  1.00  0.00    -0.237 OA
ATOM     89  O   UNL A   1      33.571  32.298  28.088  1.00  0.00    -0.237 OA
ATOM     90  O   UNL A   1      33.496  34.204  29.648  1.00  0.00    -0.744 OA
ENDBRANCH  86  87
ENDBRANCH  58  81
BRANCH  70  91
ATOM     91  C   UNL A   1      42.810  28.948  33.559  1.00  0.00    -0.014 A 
ATOM     92  C   UNL A   1      41.805  27.960  33.499  1.00  0.00     0.010 A 
ATOM     93  C   UNL A   1      43.530  29.093  34.756  1.00  0.00     0.010 A 
ATOM     94  C   UNL A   1      41.522  27.151  34.613  1.00  0.00     0.020 A 
ATOM     95  C   UNL A   1      43.265  28.282  35.862  1.00  0.00     0.020 A 
ATOM     96  C   UNL A   1      42.260  27.318  35.789  1.00  0.00     0.054 A 
BRANCH  96  97
ATOM     97  S   UNL A   1      41.938  26.232  37.208  1.00  0.00     0.124 S 
ATOM     98  O   UNL A   1      42.053  24.899  36.622  1.00  0.00    -0.237 OA
ATOM     99  O   UNL A   1      42.994  26.601  38.147  1.00  0.00    -0.237 OA
ATOM    100  O   UNL A   1      40.588  26.605  37.632  1.00  0.00    -0.744 OA
ENDBRANCH  96  97
ENDBRANCH  70  91
ENDBRANCH  44  45
ENDBRANCH  36  39
ENDBRANCH  34  35
ENDBRANCH  33  34
ENDBRANCH  32  33
ENDBRANCH   1  32
TORSDOF 20
ENDMDL
MODEL 3
REMARK VINA RESULT:     -12.6      4.211     10.190
REMARK SMILES Cc1ncc(CO)c([C@H]2[NH2+][C@@H](C(=O)NCCCCCCNC(=O)c3ccc(-c4c5nc(c(-c6ccc(S(=O)(=O)[O-])cc6)c6ccc([nH]6)c(-c6ccc(S(=O)(=O)[O-])cc6)c6nc(c(-c7ccc(S(=O)(=O)[O-])cc7)c7ccc4[nH]7)C=C6)C=C5)cc3)Cc3[nH]cnc32)c1O
REMARK SMILES IDX 17 1 16 2 15 3 14 4 12 5 13 6 11 8 9 9 10 10 89 11 85 14
REMARK SMILES IDX 88 15 84 16 86 17 87 18 8 20 1 21 2 22 3 23 90 24 4 25 5 26
REMARK SMILES IDX 91 27 6 29 7 30 18 32 19 33 20 34 21 35 22 36 23 38 24 39
REMARK SMILES IDX 25 40 83 41 26 42 82 43 27 44 28 45 29 46 76 47 30 48 81 49
REMARK SMILES IDX 75 50 77 51 31 52 80 53 74 54 73 55 32 57 62 58 43 59 61 60
REMARK SMILES IDX 44 61 47 62 60 63 78 64 45 65 46 66 59 68 79 69 48 70 33 71
REMARK SMILES IDX 34 72 42 73 35 74 41 75 36 76 37 77 38 78 39 79 40 80 63 81
REMARK SMILES IDX 64 82 72 83 65 84 71 85 66 86 67 87 68 88 69 89 70 90 49 91
REMARK SMILES IDX 50 92 58 93 51 94 57 95 52 96 53 97 54 98 55 99 56 100
REMARK H PARENT 14 7 10 12 10 13 86 19 91 28 7 31 21 37 77 56 47 67
REMARK Flexibility Score: inf
ROOT
ATOM      1  C   UNL A   1      30.902  29.575  24.626  1.00  0.00     0.002 C 
ENDROOT
BRANCH   1   2
ATOM      2  C   UNL A   1      31.615  29.102  23.356  1.00  0.00     0.021 C 
BRANCH   2   3
ATOM      3  C   UNL A   1      32.946  28.403  23.612  1.00  0.00     0.116 C 
BRANCH   3   4
ATOM      4  N   UNL A   1      33.328  27.518  22.521  1.00  0.00    -0.351 N 
ATOM      5  C   UNL A   1      33.256  26.153  22.423  1.00  0.00     0.278 C 
ATOM      6  O   UNL A   1      33.562  25.626  21.353  1.00  0.00    -0.268 OA
ATOM      7  H   UNL A   1      33.697  27.971  21.729  1.00  0.00     0.163 HD
BRANCH   5   8
ATOM      8  C   UNL A   1      32.826  25.360  23.655  1.00  0.00     0.279 C 
ATOM      9  C   UNL A   1      33.280  23.425  24.968  1.00  0.00     0.270 C 
ATOM     10  N   UNL A   1      33.288  23.948  23.570  1.00  0.00    -0.324 N 
ATOM     11  C   UNL A   1      31.859  23.438  25.457  1.00  0.00     0.124 A 
ATOM     12  H   UNL A   1      32.654  23.404  22.984  1.00  0.00     0.347 HD
ATOM     13  H   UNL A   1      34.216  23.884  23.152  1.00  0.00     0.347 HD
ATOM     14  C   UNL A   1      30.994  24.437  25.012  1.00  0.00     0.051 A 
ATOM     15  N   UNL A   1      31.328  22.837  26.571  1.00  0.00    -0.235 NA
ATOM     16  C   UNL A   1      31.308  25.438  23.939  1.00  0.00     0.131 C 
ATOM     17  N   UNL A   1      29.911  24.399  25.832  1.00  0.00    -0.348 N 
ATOM     18  C   UNL A   1      30.157  23.415  26.754  1.00  0.00     0.197 A 
ATOM     19  H   UNL A   1      29.109  24.966  25.775  1.00  0.00     0.167 HD
BRANCH   9  20
ATOM     20  C   UNL A   1      34.215  22.253  25.093  1.00  0.00     0.066 A 
ATOM     21  C   UNL A   1      38.032  22.227  25.636  1.00  0.00     0.071 C 
ATOM     22  C   UNL A   1      36.620  21.770  25.410  1.00  0.00     0.079 A 
ATOM     23  N   UNL A   1      36.427  20.468  25.134  1.00  0.00    -0.257 NA
ATOM     24  C   UNL A   1      35.547  22.652  25.426  1.00  0.00     0.146 A 
ATOM     25  C   UNL A   1      35.159  20.070  24.869  1.00  0.00     0.118 A 
ATOM     26  C   UNL A   1      34.026  20.899  24.801  1.00  0.00     0.009 A 
BRANCH  24  27
ATOM     27  O   UNL A   1      35.779  23.980  25.721  1.00  0.00    -0.505 OA
ATOM     28  H   UNL A   1      36.547  24.228  26.198  1.00  0.00     0.293 HD
ENDBRANCH  24  27
BRANCH  26  29
ATOM     29  C   UNL A   1      32.740  20.244  24.401  1.00  0.00     0.194 C 
BRANCH  29  30
ATOM     30  O   UNL A   1      31.941  19.988  25.557  1.00  0.00    -0.392 OA
ATOM     31  H   UNL A   1      32.503  19.643  26.269  1.00  0.00     0.211 HD
ENDBRANCH  29  30
ENDBRANCH  26  29
ENDBRANCH   9  20
ENDBRANCH   5   8
ENDBRANCH   3   4
ENDBRANCH   2   3
ENDBRANCH   1   2
BRANCH   1  32
ATOM     32  C   UNL A   1      31.811  30.161  25.718  1.00  0.00     0.002 C 
BRANCH  32  33
ATOM     33  C   UNL A   1      31.431  31.552  26.250  1.00  0.00     0.021 C 
BRANCH  33  34
ATOM     34  C   UNL A   1      32.419  32.108  27.261  1.00  0.00     0.116 C 
BRANCH  34  35
ATOM     35  N   UNL A   1      32.254  33.548  27.466  1.00  0.00    -0.352 N 
ATOM     36  C   UNL A   1      32.943  34.377  28.339  1.00  0.00     0.251 C 
ATOM     37  H   UNL A   1      31.567  33.984  26.914  1.00  0.00     0.163 HD
ATOM     38  O   UNL A   1      32.480  35.448  28.683  1.00  0.00    -0.269 OA
BRANCH  36  39
ATOM     39  C   UNL A   1      34.260  33.927  28.824  1.00  0.00     0.039 A 
ATOM     40  C   UNL A   1      34.455  33.442  30.123  1.00  0.00     0.014 A 
ATOM     41  C   UNL A   1      35.311  33.972  27.918  1.00  0.00     0.014 A 
ATOM     42  C   UNL A   1      35.708  32.936  30.467  1.00  0.00     0.010 A 
ATOM     43  C   UNL A   1      36.463  33.293  28.186  1.00  0.00     0.010 A 
ATOM     44  C   UNL A   1      36.703  32.858  29.484  1.00  0.00    -0.014 A 
BRANCH  44  45
ATOM     45  C   UNL A   1      38.008  32.259  29.731  1.00  0.00     0.031 A 
ATOM     46  C   UNL A   1      38.110  30.817  29.383  1.00  0.00     0.074 A 
ATOM     47  C   UNL A   1      39.097  33.029  29.950  1.00  0.00     0.049 A 
ATOM     48  N   UNL A   1      38.285  29.818  30.182  1.00  0.00    -0.248 NA
ATOM     49  C   UNL A   1      37.848  30.424  27.988  1.00  0.00     0.031 C 
ATOM     50  C   UNL A   1      39.182  34.499  29.963  1.00  0.00     0.029 A 
ATOM     51  N   UNL A   1      40.400  32.662  30.061  1.00  0.00    -0.354 N 
ATOM     52  C   UNL A   1      38.387  28.694  29.366  1.00  0.00     0.074 A 
ATOM     53  C   UNL A   1      37.898  29.094  28.072  1.00  0.00     0.031 C 
ATOM     54  C   UNL A   1      40.469  34.884  29.825  1.00  0.00     0.029 A 
ATOM     55  C   UNL A   1      41.309  33.705  29.907  1.00  0.00     0.049 A 
ATOM     56  H   UNL A   1      40.678  31.735  30.236  1.00  0.00     0.167 HD
ATOM     57  C   UNL A   1      39.118  27.604  29.738  1.00  0.00     0.031 A 
ATOM     58  C   UNL A   1      42.659  33.601  29.832  1.00  0.00     0.031 A 
ATOM     59  C   UNL A   1      39.488  27.670  31.129  1.00  0.00     0.049 A 
ATOM     60  C   UNL A   1      43.015  32.286  30.416  1.00  0.00     0.074 A 
ATOM     61  C   UNL A   1      38.802  27.703  32.326  1.00  0.00     0.029 A 
ATOM     62  N   UNL A   1      40.755  28.135  31.399  1.00  0.00    -0.354 N 
ATOM     63  N   UNL A   1      42.807  31.980  31.666  1.00  0.00    -0.248 NA
ATOM     64  C   UNL A   1      43.180  31.155  29.518  1.00  0.00     0.031 C 
ATOM     65  C   UNL A   1      39.540  28.606  33.148  1.00  0.00     0.029 A 
ATOM     66  C   UNL A   1      40.671  29.021  32.442  1.00  0.00     0.049 A 
ATOM     67  H   UNL A   1      41.578  27.876  30.925  1.00  0.00     0.167 HD
ATOM     68  C   UNL A   1      42.383  30.660  31.643  1.00  0.00     0.074 A 
ATOM     69  C   UNL A   1      42.749  30.172  30.315  1.00  0.00     0.031 C 
ATOM     70  C   UNL A   1      41.530  30.180  32.597  1.00  0.00     0.031 A 
BRANCH  57  71
ATOM     71  C   UNL A   1      39.849  26.705  28.767  1.00  0.00    -0.014 A 
ATOM     72  C   UNL A   1      39.349  25.406  28.536  1.00  0.00     0.010 A 
ATOM     73  C   UNL A   1      41.144  26.981  28.283  1.00  0.00     0.010 A 
ATOM     74  C   UNL A   1      40.132  24.421  27.917  1.00  0.00     0.020 A 
ATOM     75  C   UNL A   1      41.916  26.022  27.624  1.00  0.00     0.020 A 
ATOM     76  C   UNL A   1      41.418  24.736  27.475  1.00  0.00     0.054 A 
BRANCH  76  77
ATOM     77  S   UNL A   1      42.461  23.436  26.772  1.00  0.00     0.124 S 
ATOM     78  O   UNL A   1      43.101  22.888  27.963  1.00  0.00    -0.237 OA
ATOM     79  O   UNL A   1      41.481  22.572  26.120  1.00  0.00    -0.237 OA
ATOM     80  O   UNL A   1      43.345  24.163  25.864  1.00  0.00    -0.744 OA
ENDBRANCH  76  77
ENDBRANCH  57  71
BRANCH  58  81
ATOM     81  C   UNL A   1      43.611  34.407  29.030  1.00  0.00    -0.014 A 
ATOM     82  C   UNL A   1      44.860  34.788  29.557  1.00  0.00     0.010 A 
ATOM     83  C   UNL A   1      43.414  34.545  27.641  1.00  0.00     0.010 A 
ATOM     84  C   UNL A   1      45.899  35.222  28.715  1.00  0.00     0.020 A 
ATOM     85  C   UNL A   1      44.444  34.980  26.797  1.00  0.00     0.020 A 
ATOM     86  C   UNL A   1      45.691  35.291  27.335  1.00  0.00     0.054 A 
BRANCH  86  87
ATOM     87  S   UNL A   1      47.093  35.652  26.235  1.00  0.00     0.124 S 
ATOM     88  O   UNL A   1      46.944  34.634  25.200  1.00  0.00    -0.237 OA
ATOM     89  O   UNL A   1      46.823  37.025  25.817  1.00  0.00    -0.237 OA
ATOM     90  O   UNL A   1      48.255  35.489  27.107  1.00  0.00    -0.744 OA
ENDBRANCH  86  87
ENDBRANCH  58  81
BRANCH  70  91
ATOM     91  C   UNL A   1      41.284  31.034  33.824  1.00  0.00    -0.014 A 
ATOM     92  C   UNL A   1      40.352  32.091  33.872  1.00  0.00     0.010 A 
ATOM     93  C   UNL A   1      41.910  30.644  35.019  1.00  0.00     0.010 A 
ATOM     94  C   UNL A   1      40.068  32.748  35.082  1.00  0.00     0.020 A 
ATOM     95  C   UNL A   1      41.622  31.282  36.229  1.00  0.00     0.020 A 
ATOM     96  C   UNL A   1      40.706  32.334  36.255  1.00  0.00     0.054 A 
BRANCH  96  97
ATOM     97  S   UNL A   1      40.295  33.140  37.829  1.00  0.00     0.124 S 
ATOM     98  O   UNL A   1      39.328  32.216  38.417  1.00  0.00    -0.237 OA
ATOM     99  O   UNL A   1      41.587  33.213  38.506  1.00  0.00    -0.237 OA
ATOM    100  O   UNL A   1      39.745  34.434  37.424  1.00  0.00    -0.744 OA
ENDBRANCH  96  97
ENDBRANCH  70  91
ENDBRANCH  44  45
ENDBRANCH  36  39
ENDBRANCH  34  35
ENDBRANCH  33  34
ENDBRANCH  32  33
ENDBRANCH   1  32
TORSDOF 20
ENDMDL
