MODEL 1
REMARK VINA RESULT:     -11.3      0.000      0.000
REMARK SMILES Cc1sc2nc3c(S[C@H](C)C(=O)NCCCCCCNC(=O)c4ccc(-c5c6nc(c(-c7ccc(S(=O)(=O)[O-])cc7)c7ccc([nH]7)c(-c7ccc(S(=O)(=O)[O-])cc7)c7nc(c(-c8ccc(S(=O)(=O)[O-])cc8)c8ccc5[nH]8)C=C7)C=C6)cc4)cc(C(=O)c4ccccc4O)cn3c(=O)c2c1C
REMARK SMILES IDX 15 1 14 2 13 3 11 4 12 5 9 7 10 8 8 9 7 10 1 11 2 12 3 13
REMARK SMILES IDX 99 14 4 15 98 16 100 17 5 18 96 19 6 20 95 21 97 22 94 23
REMARK SMILES IDX 83 24 84 25 85 26 86 27 87 28 88 29 92 30 89 31 91 32 90 33
REMARK SMILES IDX 93 34 16 36 17 37 18 38 19 39 20 40 21 41 22 43 23 44 24 45
REMARK SMILES IDX 82 46 25 47 81 48 26 49 27 50 28 51 75 52 29 53 80 54 74 55
REMARK SMILES IDX 76 56 30 57 79 58 73 59 72 60 31 62 61 63 42 64 60 65 43 66
REMARK SMILES IDX 46 67 59 68 77 69 44 70 45 71 58 73 78 74 47 75 32 76 33 77
REMARK SMILES IDX 41 78 34 79 40 80 35 81 36 82 37 83 38 84 39 85 62 86 63 87
REMARK SMILES IDX 71 88 64 89 70 90 65 91 66 92 67 93 68 94 69 95 48 96 49 97
REMARK SMILES IDX 57 98 50 99 56 100 51 101 52 102 53 103 54 104 55 105
REMARK H PARENT 13 6 93 35 20 42 76 61 46 72
REMARK Flexibility Score: inf
ROOT
ATOM      1  C   UNL A   1      36.539  29.505  29.714  1.00  0.00     0.021 C 
ENDROOT
BRANCH   1   2
ATOM      2  C   UNL A   1      36.550  30.711  28.768  1.00  0.00     0.116 C 
BRANCH   2   3
ATOM      3  N   UNL A   1      35.196  31.166  28.478  1.00  0.00    -0.355 N 
ATOM      4  C   UNL A   1      34.196  30.843  27.627  1.00  0.00     0.233 C 
ATOM      5  O   UNL A   1      33.277  31.686  27.647  1.00  0.00    -0.274 OA
ATOM      6  H   UNL A   1      34.939  31.916  29.062  1.00  0.00     0.163 HD
BRANCH   4   7
ATOM      7  C   UNL A   1      33.960  29.586  26.775  1.00  0.00     0.138 C 
ATOM      8  C   UNL A   1      35.211  28.719  26.551  1.00  0.00     0.030 C 
BRANCH   7   9
ATOM      9  S   UNL A   1      32.448  28.648  26.697  1.00  0.00    -0.109 SA
BRANCH   9  10
ATOM     10  C   UNL A   1      32.027  28.196  25.088  1.00  0.00     0.052 A 
ATOM     11  C   UNL A   1      34.252  21.265  24.709  1.00  0.00     0.057 C 
ATOM     12  C   UNL A   1      34.033  22.672  24.253  1.00  0.00     0.007 A 
ATOM     13  S   UNL A   1      34.719  23.961  25.134  1.00  0.00    -0.120 S 
ATOM     14  C   UNL A   1      33.256  23.120  23.192  1.00  0.00    -0.022 A 
ATOM     15  C   UNL A   1      33.774  25.107  24.306  1.00  0.00     0.131 A 
ATOM     16  C   UNL A   1      33.122  24.563  23.229  1.00  0.00     0.080 A 
ATOM     17  C   UNL A   1      32.529  22.189  22.277  1.00  0.00     0.046 C 
ATOM     18  N   UNL A   1      33.575  26.333  24.834  1.00  0.00    -0.218 NA
ATOM     19  C   UNL A   1      32.259  25.460  22.457  1.00  0.00     0.266 A 
ATOM     20  C   UNL A   1      32.583  27.010  24.340  1.00  0.00     0.155 A 
ATOM     21  N   UNL A   1      31.911  26.647  23.150  1.00  0.00    -0.266 N 
ATOM     22  O   UNL A   1      31.833  25.154  21.359  1.00  0.00    -0.268 OA
ATOM     23  C   UNL A   1      30.822  27.396  22.676  1.00  0.00     0.108 A 
ATOM     24  C   UNL A   1      31.002  28.874  24.554  1.00  0.00     0.032 A 
ATOM     25  C   UNL A   1      30.359  28.470  23.335  1.00  0.00     0.041 A 
BRANCH  25  26
ATOM     26  C   UNL A   1      29.010  29.023  22.996  1.00  0.00     0.198 C 
ATOM     27  O   UNL A   1      28.015  28.311  23.124  1.00  0.00    -0.288 OA
BRANCH  26  28
ATOM     28  C   UNL A   1      28.856  30.484  22.744  1.00  0.00     0.064 A 
ATOM     29  C   UNL A   1      29.212  31.436  23.712  1.00  0.00     0.016 A 
ATOM     30  C   UNL A   1      28.276  30.923  21.545  1.00  0.00     0.126 A 
ATOM     31  C   UNL A   1      28.938  32.792  23.501  1.00  0.00     0.001 A 
ATOM     32  C   UNL A   1      28.009  32.276  21.336  1.00  0.00     0.047 A 
ATOM     33  C   UNL A   1      28.331  33.210  22.318  1.00  0.00     0.004 A 
BRANCH  30  34
ATOM     34  O   UNL A   1      27.902  30.078  20.538  1.00  0.00    -0.507 OA
ATOM     35  H   UNL A   1      27.068  29.652  20.570  1.00  0.00     0.293 HD
ENDBRANCH  30  34
ENDBRANCH  26  28
ENDBRANCH  25  26
ENDBRANCH   9  10
ENDBRANCH   7   9
ENDBRANCH   4   7
ENDBRANCH   2   3
ENDBRANCH   1   2
BRANCH   1  36
ATOM     36  C   UNL A   1      36.461  29.744  31.227  1.00  0.00     0.002 C 
BRANCH  36  37
ATOM     37  C   UNL A   1      36.482  31.204  31.712  1.00  0.00     0.002 C 
BRANCH  37  38
ATOM     38  C   UNL A   1      35.155  31.961  31.856  1.00  0.00     0.021 C 
BRANCH  38  39
ATOM     39  C   UNL A   1      35.004  33.265  31.083  1.00  0.00     0.116 C 
BRANCH  39  40
ATOM     40  N   UNL A   1      33.985  34.183  31.586  1.00  0.00    -0.352 N 
ATOM     41  C   UNL A   1      34.138  35.091  32.621  1.00  0.00     0.251 C 
ATOM     42  H   UNL A   1      33.104  34.153  31.148  1.00  0.00     0.163 HD
ATOM     43  O   UNL A   1      33.321  35.975  32.844  1.00  0.00    -0.269 OA
BRANCH  41  44
ATOM     44  C   UNL A   1      35.338  34.935  33.459  1.00  0.00     0.039 A 
ATOM     45  C   UNL A   1      36.598  34.993  32.861  1.00  0.00     0.014 A 
ATOM     46  C   UNL A   1      35.165  34.432  34.748  1.00  0.00     0.014 A 
ATOM     47  C   UNL A   1      37.681  34.396  33.496  1.00  0.00     0.010 A 
ATOM     48  C   UNL A   1      36.256  33.859  35.388  1.00  0.00     0.010 A 
ATOM     49  C   UNL A   1      37.504  33.787  34.740  1.00  0.00    -0.014 A 
BRANCH  49  50
ATOM     50  C   UNL A   1      38.660  33.088  35.337  1.00  0.00     0.031 A 
ATOM     51  C   UNL A   1      39.256  32.088  34.414  1.00  0.00     0.074 A 
ATOM     52  C   UNL A   1      39.567  33.751  36.092  1.00  0.00     0.049 A 
ATOM     53  N   UNL A   1      39.988  32.483  33.416  1.00  0.00    -0.248 NA
ATOM     54  C   UNL A   1      38.855  30.689  34.340  1.00  0.00     0.031 C 
ATOM     55  C   UNL A   1      39.824  35.195  35.981  1.00  0.00     0.029 A 
ATOM     56  N   UNL A   1      40.612  33.282  36.859  1.00  0.00    -0.354 N 
ATOM     57  C   UNL A   1      40.076  31.433  32.533  1.00  0.00     0.074 A 
ATOM     58  C   UNL A   1      39.385  30.328  33.158  1.00  0.00     0.031 C 
ATOM     59  C   UNL A   1      41.054  35.449  36.464  1.00  0.00     0.029 A 
ATOM     60  C   UNL A   1      41.585  34.246  37.078  1.00  0.00     0.049 A 
ATOM     61  H   UNL A   1      40.662  32.365  37.212  1.00  0.00     0.167 HD
ATOM     62  C   UNL A   1      40.731  31.561  31.348  1.00  0.00     0.031 A 
ATOM     63  C   UNL A   1      42.870  34.035  37.461  1.00  0.00     0.031 A 
ATOM     64  C   UNL A   1      41.403  32.818  31.100  1.00  0.00     0.049 A 
ATOM     65  C   UNL A   1      43.570  33.984  36.128  1.00  0.00     0.074 A 
ATOM     66  C   UNL A   1      41.608  33.704  30.060  1.00  0.00     0.029 A 
ATOM     67  N   UNL A   1      42.036  33.374  32.179  1.00  0.00    -0.354 N 
ATOM     68  N   UNL A   1      43.847  35.006  35.358  1.00  0.00    -0.248 NA
ATOM     69  C   UNL A   1      43.717  32.676  35.465  1.00  0.00     0.031 C 
ATOM     70  C   UNL A   1      42.446  34.761  30.556  1.00  0.00     0.029 A 
ATOM     71  C   UNL A   1      42.763  34.490  31.879  1.00  0.00     0.049 A 
ATOM     72  H   UNL A   1      41.971  33.004  33.089  1.00  0.00     0.167 HD
ATOM     73  C   UNL A   1      43.851  34.480  34.072  1.00  0.00     0.074 A 
ATOM     74  C   UNL A   1      43.966  33.044  34.213  1.00  0.00     0.031 C 
ATOM     75  C   UNL A   1      43.434  35.171  32.969  1.00  0.00     0.031 A 
BRANCH  62  76
ATOM     76  C   UNL A   1      41.005  30.371  30.516  1.00  0.00    -0.014 A 
ATOM     77  C   UNL A   1      40.105  29.854  29.575  1.00  0.00     0.010 A 
ATOM     78  C   UNL A   1      42.260  29.759  30.686  1.00  0.00     0.010 A 
ATOM     79  C   UNL A   1      40.466  28.732  28.815  1.00  0.00     0.020 A 
ATOM     80  C   UNL A   1      42.621  28.643  29.936  1.00  0.00     0.020 A 
ATOM     81  C   UNL A   1      41.720  28.134  29.003  1.00  0.00     0.054 A 
BRANCH  81  82
ATOM     82  S   UNL A   1      42.171  26.690  28.004  1.00  0.00     0.124 S 
ATOM     83  O   UNL A   1      40.881  26.030  27.819  1.00  0.00    -0.237 OA
ATOM     84  O   UNL A   1      42.741  27.302  26.807  1.00  0.00    -0.237 OA
ATOM     85  O   UNL A   1      43.123  25.968  28.845  1.00  0.00    -0.744 OA
ENDBRANCH  81  82
ENDBRANCH  62  76
BRANCH  63  86
ATOM     86  C   UNL A   1      43.039  33.049  38.572  1.00  0.00    -0.014 A 
ATOM     87  C   UNL A   1      42.036  32.637  39.456  1.00  0.00     0.010 A 
ATOM     88  C   UNL A   1      44.345  32.538  38.781  1.00  0.00     0.010 A 
ATOM     89  C   UNL A   1      42.365  31.966  40.640  1.00  0.00     0.020 A 
ATOM     90  C   UNL A   1      44.678  31.841  39.942  1.00  0.00     0.020 A 
ATOM     91  C   UNL A   1      43.694  31.627  40.901  1.00  0.00     0.054 A 
BRANCH  91  92
ATOM     92  S   UNL A   1      44.135  30.997  42.540  1.00  0.00     0.124 S 
ATOM     93  O   UNL A   1      43.702  32.094  43.401  1.00  0.00    -0.237 OA
ATOM     94  O   UNL A   1      43.351  29.769  42.629  1.00  0.00    -0.237 OA
ATOM     95  O   UNL A   1      45.582  30.807  42.456  1.00  0.00    -0.744 OA
ENDBRANCH  91  92
ENDBRANCH  63  86
BRANCH  75  96
ATOM     96  C   UNL A   1      43.547  36.658  32.989  1.00  0.00    -0.014 A 
ATOM     97  C   UNL A   1      43.100  37.413  34.086  1.00  0.00     0.010 A 
ATOM     98  C   UNL A   1      43.978  37.328  31.829  1.00  0.00     0.010 A 
ATOM     99  C   UNL A   1      43.026  38.806  34.001  1.00  0.00     0.020 A 
ATOM    100  C   UNL A   1      43.914  38.717  31.741  1.00  0.00     0.020 A 
ATOM    101  C   UNL A   1      43.408  39.446  32.818  1.00  0.00     0.054 A 
BRANCH 101 102
ATOM    102  S   UNL A   1      43.172  41.237  32.678  1.00  0.00     0.124 S 
ATOM    103  O   UNL A   1      41.899  41.325  31.966  1.00  0.00    -0.237 OA
ATOM    104  O   UNL A   1      43.139  41.668  34.073  1.00  0.00    -0.237 OA
ATOM    105  O   UNL A   1      44.336  41.687  31.917  1.00  0.00    -0.744 OA
ENDBRANCH 101 102
ENDBRANCH  75  96
ENDBRANCH  49  50
ENDBRANCH  41  44
ENDBRANCH  39  40
ENDBRANCH  38  39
ENDBRANCH  37  38
ENDBRANCH  36  37
ENDBRANCH   1  36
TORSDOF 21
ENDMDL
MODEL 2
REMARK VINA RESULT:     -11.3      6.266     13.936
REMARK SMILES Cc1sc2nc3c(S[C@H](C)C(=O)NCCCCCCNC(=O)c4ccc(-c5c6nc(c(-c7ccc(S(=O)(=O)[O-])cc7)c7ccc([nH]7)c(-c7ccc(S(=O)(=O)[O-])cc7)c7nc(c(-c8ccc(S(=O)(=O)[O-])cc8)c8ccc5[nH]8)C=C7)C=C6)cc4)cc(C(=O)c4ccccc4O)cn3c(=O)c2c1C
REMARK SMILES IDX 15 1 14 2 13 3 11 4 12 5 9 7 10 8 8 9 7 10 1 11 2 12 3 13
REMARK SMILES IDX 99 14 4 15 98 16 100 17 5 18 96 19 6 20 95 21 97 22 94 23
REMARK SMILES IDX 83 24 84 25 85 26 86 27 87 28 88 29 92 30 89 31 91 32 90 33
REMARK SMILES IDX 93 34 16 36 17 37 18 38 19 39 20 40 21 41 22 43 23 44 24 45
REMARK SMILES IDX 82 46 25 47 81 48 26 49 27 50 28 51 75 52 29 53 80 54 74 55
REMARK SMILES IDX 76 56 30 57 79 58 73 59 72 60 31 62 61 63 42 64 60 65 43 66
REMARK SMILES IDX 46 67 59 68 77 69 44 70 45 71 58 73 78 74 47 75 32 76 33 77
REMARK SMILES IDX 41 78 34 79 40 80 35 81 36 82 37 83 38 84 39 85 62 86 63 87
REMARK SMILES IDX 71 88 64 89 70 90 65 91 66 92 67 93 68 94 69 95 48 96 49 97
REMARK SMILES IDX 57 98 50 99 56 100 51 101 52 102 53 103 54 104 55 105
REMARK H PARENT 13 6 93 35 20 42 76 61 46 72
REMARK Flexibility Score: inf
ROOT
ATOM      1  C   UNL A   1      38.629  28.636  27.976  1.00  0.00     0.021 C 
ENDROOT
BRANCH   1   2
ATOM      2  C   UNL A   1      38.297  30.018  28.548  1.00  0.00     0.116 C 
BRANCH   2   3
ATOM      3  N   UNL A   1      37.380  29.916  29.676  1.00  0.00    -0.355 N 
ATOM      4  C   UNL A   1      37.408  29.451  30.946  1.00  0.00     0.233 C 
ATOM      5  O   UNL A   1      36.270  29.419  31.456  1.00  0.00    -0.274 OA
ATOM      6  H   UNL A   1      36.496  30.286  29.451  1.00  0.00     0.163 HD
BRANCH   4   7
ATOM      7  C   UNL A   1      38.586  29.098  31.867  1.00  0.00     0.138 C 
ATOM      8  C   UNL A   1      39.256  27.747  31.562  1.00  0.00     0.030 C 
BRANCH   7   9
ATOM      9  S   UNL A   1      39.697  30.262  32.632  1.00  0.00    -0.109 SA
BRANCH   9  10
ATOM     10  C   UNL A   1      38.870  31.493  33.509  1.00  0.00     0.052 A 
ATOM     11  C   UNL A   1      34.014  33.961  28.666  1.00  0.00     0.057 C 
ATOM     12  C   UNL A   1      35.039  34.032  29.751  1.00  0.00     0.007 A 
ATOM     13  S   UNL A   1      36.610  33.429  29.469  1.00  0.00    -0.120 S 
ATOM     14  C   UNL A   1      34.880  34.482  31.056  1.00  0.00    -0.022 A 
ATOM     15  C   UNL A   1      36.995  33.494  31.123  1.00  0.00     0.131 A 
ATOM     16  C   UNL A   1      36.050  34.169  31.852  1.00  0.00     0.080 A 
ATOM     17  C   UNL A   1      33.590  35.040  31.563  1.00  0.00     0.046 C 
ATOM     18  N   UNL A   1      38.018  32.761  31.612  1.00  0.00    -0.218 NA
ATOM     19  C   UNL A   1      36.272  34.263  33.297  1.00  0.00     0.266 A 
ATOM     20  C   UNL A   1      38.029  32.586  32.899  1.00  0.00     0.155 A 
ATOM     21  N   UNL A   1      37.211  33.320  33.789  1.00  0.00    -0.266 N 
ATOM     22  O   UNL A   1      35.641  35.033  33.995  1.00  0.00    -0.268 OA
ATOM     23  C   UNL A   1      37.237  33.070  35.170  1.00  0.00     0.108 A 
ATOM     24  C   UNL A   1      38.858  31.336  34.840  1.00  0.00     0.032 A 
ATOM     25  C   UNL A   1      38.016  32.116  35.703  1.00  0.00     0.041 A 
BRANCH  25  26
ATOM     26  C   UNL A   1      37.763  31.649  37.103  1.00  0.00     0.198 C 
ATOM     27  O   UNL A   1      37.665  30.445  37.331  1.00  0.00    -0.288 OA
BRANCH  26  28
ATOM     28  C   UNL A   1      37.874  32.617  38.232  1.00  0.00     0.064 A 
ATOM     29  C   UNL A   1      38.909  33.563  38.287  1.00  0.00     0.016 A 
ATOM     30  C   UNL A   1      36.973  32.538  39.303  1.00  0.00     0.126 A 
ATOM     31  C   UNL A   1      39.066  34.372  39.418  1.00  0.00     0.001 A 
ATOM     32  C   UNL A   1      37.128  33.349  40.427  1.00  0.00     0.047 A 
ATOM     33  C   UNL A   1      38.181  34.259  40.489  1.00  0.00     0.004 A 
BRANCH  30  34
ATOM     34  O   UNL A   1      35.928  31.657  39.343  1.00  0.00    -0.507 OA
ATOM     35  H   UNL A   1      36.045  30.809  39.723  1.00  0.00     0.293 HD
ENDBRANCH  30  34
ENDBRANCH  26  28
ENDBRANCH  25  26
ENDBRANCH   9  10
ENDBRANCH   7   9
ENDBRANCH   4   7
ENDBRANCH   2   3
ENDBRANCH   1   2
BRANCH   1  36
ATOM     36  C   UNL A   1      40.093  28.276  27.694  1.00  0.00     0.002 C 
BRANCH  36  37
ATOM     37  C   UNL A   1      40.494  26.797  27.831  1.00  0.00     0.002 C 
BRANCH  37  38
ATOM     38  C   UNL A   1      39.398  25.722  27.817  1.00  0.00     0.021 C 
BRANCH  38  39
ATOM     39  C   UNL A   1      39.497  24.634  26.755  1.00  0.00     0.116 C 
BRANCH  39  40
ATOM     40  N   UNL A   1      39.450  23.261  27.252  1.00  0.00    -0.352 N 
ATOM     41  C   UNL A   1      40.535  22.493  27.641  1.00  0.00     0.251 C 
ATOM     42  H   UNL A   1      38.562  22.841  27.316  1.00  0.00     0.163 HD
ATOM     43  O   UNL A   1      40.408  21.439  28.250  1.00  0.00    -0.269 OA
BRANCH  41  44
ATOM     44  C   UNL A   1      41.866  23.003  27.275  1.00  0.00     0.039 A 
ATOM     45  C   UNL A   1      42.542  23.843  28.163  1.00  0.00     0.014 A 
ATOM     46  C   UNL A   1      42.261  22.882  25.943  1.00  0.00     0.014 A 
ATOM     47  C   UNL A   1      43.528  24.694  27.678  1.00  0.00     0.010 A 
ATOM     48  C   UNL A   1      43.264  23.717  25.470  1.00  0.00     0.010 A 
ATOM     49  C   UNL A   1      43.860  24.667  26.322  1.00  0.00    -0.014 A 
BRANCH  49  50
ATOM     50  C   UNL A   1      44.849  25.649  25.834  1.00  0.00     0.031 A 
ATOM     51  C   UNL A   1      44.537  27.034  26.274  1.00  0.00     0.074 A 
ATOM     52  C   UNL A   1      46.171  25.363  25.813  1.00  0.00     0.049 A 
ATOM     53  N   UNL A   1      44.764  27.390  27.502  1.00  0.00    -0.248 NA
ATOM     54  C   UNL A   1      43.711  27.973  25.526  1.00  0.00     0.031 C 
ATOM     55  C   UNL A   1      46.806  24.368  26.692  1.00  0.00     0.029 A 
ATOM     56  N   UNL A   1      47.232  26.052  25.266  1.00  0.00    -0.354 N 
ATOM     57  C   UNL A   1      44.047  28.540  27.734  1.00  0.00     0.074 A 
ATOM     58  C   UNL A   1      43.432  28.886  26.472  1.00  0.00     0.031 C 
ATOM     59  C   UNL A   1      48.117  24.656  26.788  1.00  0.00     0.029 A 
ATOM     60  C   UNL A   1      48.444  25.716  25.852  1.00  0.00     0.049 A 
ATOM     61  H   UNL A   1      47.140  26.710  24.541  1.00  0.00     0.167 HD
ATOM     62  C   UNL A   1      44.031  29.126  28.960  1.00  0.00     0.031 A 
ATOM     63  C   UNL A   1      49.594  26.436  25.817  1.00  0.00     0.031 A 
ATOM     64  C   UNL A   1      44.868  28.537  29.983  1.00  0.00     0.049 A 
ATOM     65  C   UNL A   1      49.481  27.233  27.091  1.00  0.00     0.074 A 
ATOM     66  C   UNL A   1      44.815  28.239  31.330  1.00  0.00     0.029 A 
ATOM     67  N   UNL A   1      46.095  28.098  29.562  1.00  0.00    -0.354 N 
ATOM     68  N   UNL A   1      49.664  26.782  28.306  1.00  0.00    -0.248 NA
ATOM     69  C   UNL A   1      48.833  28.556  27.033  1.00  0.00     0.031 C 
ATOM     70  C   UNL A   1      46.086  27.676  31.695  1.00  0.00     0.029 A 
ATOM     71  C   UNL A   1      46.903  27.667  30.574  1.00  0.00     0.049 A 
ATOM     72  H   UNL A   1      46.368  28.093  28.617  1.00  0.00     0.167 HD
ATOM     73  C   UNL A   1      48.856  27.588  29.101  1.00  0.00     0.074 A 
ATOM     74  C   UNL A   1      48.538  28.759  28.312  1.00  0.00     0.031 C 
ATOM     75  C   UNL A   1      48.208  27.143  30.218  1.00  0.00     0.031 A 
BRANCH  62  76
ATOM     76  C   UNL A   1      43.442  30.470  29.137  1.00  0.00    -0.014 A 
ATOM     77  C   UNL A   1      42.190  30.702  29.722  1.00  0.00     0.010 A 
ATOM     78  C   UNL A   1      44.217  31.560  28.702  1.00  0.00     0.010 A 
ATOM     79  C   UNL A   1      41.726  32.018  29.866  1.00  0.00     0.020 A 
ATOM     80  C   UNL A   1      43.759  32.867  28.840  1.00  0.00     0.020 A 
ATOM     81  C   UNL A   1      42.513  33.089  29.422  1.00  0.00     0.054 A 
BRANCH  81  82
ATOM     82  S   UNL A   1      41.899  34.783  29.627  1.00  0.00     0.124 S 
ATOM     83  O   UNL A   1      42.066  35.334  28.284  1.00  0.00    -0.237 OA
ATOM     84  O   UNL A   1      40.517  34.567  30.050  1.00  0.00    -0.237 OA
ATOM     85  O   UNL A   1      42.778  35.351  30.645  1.00  0.00    -0.744 OA
ENDBRANCH  81  82
ENDBRANCH  62  76
BRANCH  63  86
ATOM     86  C   UNL A   1      49.948  26.987  24.474  1.00  0.00    -0.014 A 
ATOM     87  C   UNL A   1      49.037  27.430  23.509  1.00  0.00     0.010 A 
ATOM     88  C   UNL A   1      51.323  27.002  24.130  1.00  0.00     0.010 A 
ATOM     89  C   UNL A   1      49.446  27.625  22.184  1.00  0.00     0.020 A 
ATOM     90  C   UNL A   1      51.746  27.226  22.819  1.00  0.00     0.020 A 
ATOM     91  C   UNL A   1      50.788  27.461  21.839  1.00  0.00     0.054 A 
BRANCH  91  92
ATOM     92  S   UNL A   1      51.254  27.462  20.089  1.00  0.00     0.124 S 
ATOM     93  O   UNL A   1      52.330  26.475  20.073  1.00  0.00    -0.237 OA
ATOM     94  O   UNL A   1      50.013  27.063  19.431  1.00  0.00    -0.237 OA
ATOM     95  O   UNL A   1      51.671  28.841  19.846  1.00  0.00    -0.744 OA
ENDBRANCH  91  92
ENDBRANCH  63  86
BRANCH  75  96
ATOM     96  C   UNL A   1      48.806  26.001  30.968  1.00  0.00    -0.014 A 
ATOM     97  C   UNL A   1      48.297  25.595  32.213  1.00  0.00     0.010 A 
ATOM     98  C   UNL A   1      49.989  25.410  30.488  1.00  0.00     0.010 A 
ATOM     99  C   UNL A   1      48.992  24.664  32.990  1.00  0.00     0.020 A 
ATOM    100  C   UNL A   1      50.683  24.476  31.255  1.00  0.00     0.020 A 
ATOM    101  C   UNL A   1      50.196  24.132  32.516  1.00  0.00     0.054 A 
BRANCH 101 102
ATOM    102  S   UNL A   1      51.152  23.036  33.597  1.00  0.00     0.124 S 
ATOM    103  O   UNL A   1      52.241  22.613  32.720  1.00  0.00    -0.237 OA
ATOM    104  O   UNL A   1      51.538  23.921  34.693  1.00  0.00    -0.237 OA
ATOM    105  O   UNL A   1      50.204  21.983  33.955  1.00  0.00    -0.744 OA
ENDBRANCH 101 102
ENDBRANCH  75  96
ENDBRANCH  49  50
ENDBRANCH  41  44
ENDBRANCH  39  40
ENDBRANCH  38  39
ENDBRANCH  37  38
ENDBRANCH  36  37
ENDBRANCH   1  36
TORSDOF 21
ENDMDL
MODEL 3
REMARK VINA RESULT:     -11.2      5.023      7.672
REMARK SMILES Cc1sc2nc3c(S[C@H](C)C(=O)NCCCCCCNC(=O)c4ccc(-c5c6nc(c(-c7ccc(S(=O)(=O)[O-])cc7)c7ccc([nH]7)c(-c7ccc(S(=O)(=O)[O-])cc7)c7nc(c(-c8ccc(S(=O)(=O)[O-])cc8)c8ccc5[nH]8)C=C7)C=C6)cc4)cc(C(=O)c4ccccc4O)cn3c(=O)c2c1C
REMARK SMILES IDX 15 1 14 2 13 3 11 4 12 5 9 7 10 8 8 9 7 10 1 11 2 12 3 13
REMARK SMILES IDX 99 14 4 15 98 16 100 17 5 18 96 19 6 20 95 21 97 22 94 23
REMARK SMILES IDX 83 24 84 25 85 26 86 27 87 28 88 29 92 30 89 31 91 32 90 33
REMARK SMILES IDX 93 34 16 36 17 37 18 38 19 39 20 40 21 41 22 43 23 44 24 45
REMARK SMILES IDX 82 46 25 47 81 48 26 49 27 50 28 51 75 52 29 53 80 54 74 55
REMARK SMILES IDX 76 56 30 57 79 58 73 59 72 60 31 62 61 63 42 64 60 65 43 66
REMARK SMILES IDX 46 67 59 68 77 69 44 70 45 71 58 73 78 74 47 75 32 76 33 77
REMARK SMILES IDX 41 78 34 79 40 80 35 81 36 82 37 83 38 84 39 85 62 86 63 87
REMARK SMILES IDX 71 88 64 89 70 90 65 91 66 92 67 93 68 94 69 95 48 96 49 97
REMARK SMILES IDX 57 98 50 99 56 100 51 101 52 102 53 103 54 104 55 105
REMARK H PARENT 13 6 93 35 20 42 76 61 46 72
REMARK Flexibility Score: inf
ROOT
ATOM      1  C   UNL A   1      37.685  29.863  28.344  1.00  0.00     0.021 C 
ENDROOT
BRANCH   1   2
ATOM      2  C   UNL A   1      36.584  29.697  27.291  1.00  0.00     0.116 C 
BRANCH   2   3
ATOM      3  N   UNL A   1      35.380  30.428  27.668  1.00  0.00    -0.355 N 
ATOM      4  C   UNL A   1      34.097  30.521  27.249  1.00  0.00     0.233 C 
ATOM      5  O   UNL A   1      33.494  31.463  27.802  1.00  0.00    -0.274 OA
ATOM      6  H   UNL A   1      35.547  31.016  28.439  1.00  0.00     0.163 HD
BRANCH   4   7
ATOM      7  C   UNL A   1      33.262  29.608  26.339  1.00  0.00     0.138 C 
ATOM      8  C   UNL A   1      31.778  29.497  26.731  1.00  0.00     0.030 C 
BRANCH   7   9
ATOM      9  S   UNL A   1      33.540  29.330  24.602  1.00  0.00    -0.109 SA
BRANCH   9  10
ATOM     10  C   UNL A   1      32.386  28.254  23.907  1.00  0.00     0.052 A 
ATOM     11  C   UNL A   1      33.751  21.969  27.336  1.00  0.00     0.057 C 
ATOM     12  C   UNL A   1      33.428  22.875  26.192  1.00  0.00     0.007 A 
ATOM     13  S   UNL A   1      34.524  24.109  25.758  1.00  0.00    -0.120 S 
ATOM     14  C   UNL A   1      32.272  22.910  25.422  1.00  0.00    -0.022 A 
ATOM     15  C   UNL A   1      33.372  24.862  24.761  1.00  0.00     0.131 A 
ATOM     16  C   UNL A   1      32.258  24.083  24.571  1.00  0.00     0.080 A 
ATOM     17  C   UNL A   1      31.146  21.947  25.618  1.00  0.00     0.046 C 
ATOM     18  N   UNL A   1      33.518  26.157  24.411  1.00  0.00    -0.218 NA
ATOM     19  C   UNL A   1      31.189  24.648  23.744  1.00  0.00     0.266 A 
ATOM     20  C   UNL A   1      32.453  26.748  23.960  1.00  0.00     0.155 A 
ATOM     21  N   UNL A   1      31.280  26.054  23.583  1.00  0.00    -0.266 N 
ATOM     22  O   UNL A   1      30.280  23.964  23.315  1.00  0.00    -0.268 OA
ATOM     23  C   UNL A   1      30.144  26.743  23.133  1.00  0.00     0.108 A 
ATOM     24  C   UNL A   1      31.273  28.835  23.439  1.00  0.00     0.032 A 
ATOM     25  C   UNL A   1      30.110  28.084  23.058  1.00  0.00     0.041 A 
BRANCH  25  26
ATOM     26  C   UNL A   1      28.795  28.786  22.912  1.00  0.00     0.198 C 
ATOM     27  O   UNL A   1      27.753  28.169  23.129  1.00  0.00    -0.288 OA
BRANCH  26  28
ATOM     28  C   UNL A   1      28.767  30.267  22.747  1.00  0.00     0.064 A 
ATOM     29  C   UNL A   1      29.255  31.125  23.745  1.00  0.00     0.016 A 
ATOM     30  C   UNL A   1      28.176  30.825  21.605  1.00  0.00     0.126 A 
ATOM     31  C   UNL A   1      29.099  32.510  23.621  1.00  0.00     0.001 A 
ATOM     32  C   UNL A   1      28.027  32.207  21.482  1.00  0.00     0.047 A 
ATOM     33  C   UNL A   1      28.480  33.049  22.495  1.00  0.00     0.004 A 
BRANCH  30  34
ATOM     34  O   UNL A   1      27.678  30.078  20.575  1.00  0.00    -0.507 OA
ATOM     35  H   UNL A   1      27.890  30.301  19.690  1.00  0.00     0.293 HD
ENDBRANCH  30  34
ENDBRANCH  26  28
ENDBRANCH  25  26
ENDBRANCH   9  10
ENDBRANCH   7   9
ENDBRANCH   4   7
ENDBRANCH   2   3
ENDBRANCH   1   2
BRANCH   1  36
ATOM     36  C   UNL A   1      37.556  29.123  29.682  1.00  0.00     0.002 C 
BRANCH  36  37
ATOM     37  C   UNL A   1      38.819  28.434  30.229  1.00  0.00     0.002 C 
BRANCH  37  38
ATOM     38  C   UNL A   1      38.886  28.075  31.720  1.00  0.00     0.021 C 
BRANCH  38  39
ATOM     39  C   UNL A   1      40.033  28.664  32.532  1.00  0.00     0.116 C 
BRANCH  39  40
ATOM     40  N   UNL A   1      39.714  29.013  33.914  1.00  0.00    -0.352 N 
ATOM     41  C   UNL A   1      40.622  29.185  34.946  1.00  0.00     0.251 C 
ATOM     42  H   UNL A   1      38.762  29.137  34.134  1.00  0.00     0.163 HD
ATOM     43  O   UNL A   1      40.309  29.688  36.018  1.00  0.00    -0.269 OA
BRANCH  41  44
ATOM     44  C   UNL A   1      41.995  28.720  34.698  1.00  0.00     0.039 A 
ATOM     45  C   UNL A   1      42.933  29.614  34.177  1.00  0.00     0.014 A 
ATOM     46  C   UNL A   1      42.222  27.344  34.699  1.00  0.00     0.014 A 
ATOM     47  C   UNL A   1      44.045  29.119  33.504  1.00  0.00     0.010 A 
ATOM     48  C   UNL A   1      43.347  26.856  34.047  1.00  0.00     0.010 A 
ATOM     49  C   UNL A   1      44.231  27.740  33.397  1.00  0.00    -0.014 A 
BRANCH  49  50
ATOM     50  C   UNL A   1      45.377  27.257  32.599  1.00  0.00     0.031 A 
ATOM     51  C   UNL A   1      44.982  26.218  31.613  1.00  0.00     0.074 A 
ATOM     52  C   UNL A   1      46.327  28.109  32.150  1.00  0.00     0.049 A 
ATOM     53  N   UNL A   1      44.348  26.558  30.532  1.00  0.00    -0.248 NA
ATOM     54  C   UNL A   1      44.975  24.785  31.880  1.00  0.00     0.031 C 
ATOM     55  C   UNL A   1      46.101  29.545  31.931  1.00  0.00     0.029 A 
ATOM     56  N   UNL A   1      47.537  27.863  31.536  1.00  0.00    -0.354 N 
ATOM     57  C   UNL A   1      43.777  25.418  30.016  1.00  0.00     0.074 A 
ATOM     58  C   UNL A   1      44.217  24.334  30.866  1.00  0.00     0.031 C 
ATOM     59  C   UNL A   1      47.018  29.996  31.056  1.00  0.00     0.029 A 
ATOM     60  C   UNL A   1      47.991  28.949  30.803  1.00  0.00     0.049 A 
ATOM     61  H   UNL A   1      48.023  27.011  31.610  1.00  0.00     0.167 HD
ATOM     62  C   UNL A   1      42.989  25.462  28.909  1.00  0.00     0.031 A 
ATOM     63  C   UNL A   1      48.922  28.934  29.815  1.00  0.00     0.031 A 
ATOM     64  C   UNL A   1      42.851  26.743  28.249  1.00  0.00     0.049 A 
ATOM     65  C   UNL A   1      48.051  28.788  28.594  1.00  0.00     0.074 A 
ATOM     66  C   UNL A   1      41.871  27.503  27.642  1.00  0.00     0.029 A 
ATOM     67  N   UNL A   1      43.989  27.502  28.187  1.00  0.00    -0.354 N 
ATOM     68  N   UNL A   1      47.319  29.725  28.047  1.00  0.00    -0.248 NA
ATOM     69  C   UNL A   1      47.744  27.429  28.113  1.00  0.00     0.031 C 
ATOM     70  C   UNL A   1      42.497  28.702  27.157  1.00  0.00     0.029 A 
ATOM     71  C   UNL A   1      43.852  28.642  27.449  1.00  0.00     0.049 A 
ATOM     72  H   UNL A   1      44.829  27.249  28.633  1.00  0.00     0.167 HD
ATOM     73  C   UNL A   1      46.268  29.040  27.450  1.00  0.00     0.074 A 
ATOM     74  C   UNL A   1      46.681  27.656  27.349  1.00  0.00     0.031 C 
ATOM     75  C   UNL A   1      44.996  29.530  27.362  1.00  0.00     0.031 A 
BRANCH  62  76
ATOM     76  C   UNL A   1      42.568  24.212  28.243  1.00  0.00    -0.014 A 
ATOM     77  C   UNL A   1      43.436  23.379  27.527  1.00  0.00     0.010 A 
ATOM     78  C   UNL A   1      41.214  23.854  28.375  1.00  0.00     0.010 A 
ATOM     79  C   UNL A   1      42.947  22.199  26.949  1.00  0.00     0.020 A 
ATOM     80  C   UNL A   1      40.722  22.686  27.800  1.00  0.00     0.020 A 
ATOM     81  C   UNL A   1      41.593  21.863  27.088  1.00  0.00     0.054 A 
BRANCH  81  82
ATOM     82  S   UNL A   1      40.981  20.328  26.342  1.00  0.00     0.124 S 
ATOM     83  O   UNL A   1      40.878  19.444  27.500  1.00  0.00    -0.237 OA
ATOM     84  O   UNL A   1      39.710  20.748  25.756  1.00  0.00    -0.237 OA
ATOM     85  O   UNL A   1      42.020  19.971  25.378  1.00  0.00    -0.744 OA
ENDBRANCH  81  82
ENDBRANCH  62  76
BRANCH  63  86
ATOM     86  C   UNL A   1      50.143  28.126  30.115  1.00  0.00    -0.014 A 
ATOM     87  C   UNL A   1      50.289  26.754  29.884  1.00  0.00     0.010 A 
ATOM     88  C   UNL A   1      51.218  28.800  30.746  1.00  0.00     0.010 A 
ATOM     89  C   UNL A   1      51.333  26.040  30.485  1.00  0.00     0.020 A 
ATOM     90  C   UNL A   1      52.280  28.103  31.323  1.00  0.00     0.020 A 
ATOM     91  C   UNL A   1      52.286  26.714  31.250  1.00  0.00     0.054 A 
BRANCH  91  92
ATOM     92  S   UNL A   1      53.471  25.754  32.226  1.00  0.00     0.124 S 
ATOM     93  O   UNL A   1      52.800  24.459  32.307  1.00  0.00    -0.237 OA
ATOM     94  O   UNL A   1      54.672  25.799  31.399  1.00  0.00    -0.237 OA
ATOM     95  O   UNL A   1      53.554  26.490  33.486  1.00  0.00    -0.744 OA
ENDBRANCH  91  92
ENDBRANCH  63  86
BRANCH  75  96
ATOM     96  C   UNL A   1      44.815  31.010  27.332  1.00  0.00    -0.014 A 
ATOM     97  C   UNL A   1      44.278  31.706  28.428  1.00  0.00     0.010 A 
ATOM     98  C   UNL A   1      45.055  31.706  26.133  1.00  0.00     0.010 A 
ATOM     99  C   UNL A   1      43.928  33.054  28.306  1.00  0.00     0.020 A 
ATOM    100  C   UNL A   1      44.714  33.052  26.007  1.00  0.00     0.020 A 
ATOM    101  C   UNL A   1      44.123  33.709  27.086  1.00  0.00     0.054 A 
BRANCH 101 102
ATOM    102  S   UNL A   1      43.534  35.413  26.906  1.00  0.00     0.124 S 
ATOM    103  O   UNL A   1      44.780  36.148  26.698  1.00  0.00    -0.237 OA
ATOM    104  O   UNL A   1      42.655  35.329  25.743  1.00  0.00    -0.237 OA
ATOM    105  O   UNL A   1      42.861  35.688  28.174  1.00  0.00    -0.744 OA
ENDBRANCH 101 102
ENDBRANCH  75  96
ENDBRANCH  49  50
ENDBRANCH  41  44
ENDBRANCH  39  40
ENDBRANCH  38  39
ENDBRANCH  37  38
ENDBRANCH  36  37
ENDBRANCH   1  36
TORSDOF 21
ENDMDL
