MODEL 1
REMARK VINA RESULT:     -11.5      0.000      0.000
REMARK SMILES CC(=O)Nc1nc(C[N@@H+]2CCO[C@@H](CC(=O)NCCCCCCNC(=O)c3ccc(-c4c5nc(c(-c6ccc(S(=O)(=O)[O-])cc6)c6ccc([nH]6)c(-c6ccc(S(=O)(=O)[O-])cc6)c6nc(c(-c7ccc(S(=O)(=O)[O-])cc7)c7ccc4[nH]7)C=C6)C=C5)cc3)C2)cs1
REMARK SMILES IDX 20 1 19 2 18 3 17 4 15 5 16 6 14 8 13 9 9 10 10 11 87 12
REMARK SMILES IDX 11 14 12 15 8 16 7 17 5 18 6 19 89 20 88 21 4 22 1 23 2 24
REMARK SMILES IDX 3 25 21 27 22 28 23 29 24 30 25 31 26 33 27 34 28 35 86 36
REMARK SMILES IDX 29 37 85 38 30 39 31 40 32 41 79 42 33 43 84 44 78 45 80 46
REMARK SMILES IDX 34 47 83 48 77 49 76 50 35 52 65 53 46 54 64 55 47 56 50 57
REMARK SMILES IDX 63 58 81 59 48 60 49 61 62 63 82 64 51 65 36 66 37 67 45 68
REMARK SMILES IDX 38 69 44 70 39 71 40 72 41 73 42 74 43 75 66 76 67 77 75 78
REMARK SMILES IDX 68 79 74 80 69 81 70 82 71 83 72 84 73 85 52 86 53 87 61 88
REMARK SMILES IDX 54 89 60 90 55 91 56 92 57 93 58 94 59 95
REMARK H PARENT 17 7 9 13 4 26 24 32 80 51 50 62
REMARK Flexibility Score: inf
ROOT
ATOM      1  C   UNL A   1      36.784  21.290  25.074  1.00  0.00     0.002 C 
ENDROOT
BRANCH   1   2
ATOM      2  C   UNL A   1      35.567  21.578  25.950  1.00  0.00     0.021 C 
BRANCH   2   3
ATOM      3  C   UNL A   1      34.282  21.867  25.166  1.00  0.00     0.116 C 
BRANCH   3   4
ATOM      4  N   UNL A   1      34.573  22.631  23.963  1.00  0.00    -0.356 N 
ATOM      5  C   UNL A   1      34.523  23.978  23.747  1.00  0.00     0.222 C 
ATOM      6  O   UNL A   1      34.709  24.401  22.605  1.00  0.00    -0.275 OA
ATOM      7  H   UNL A   1      34.848  22.095  23.185  1.00  0.00     0.163 HD
BRANCH   5   8
ATOM      8  C   UNL A   1      34.243  24.923  24.892  1.00  0.00     0.138 C 
BRANCH   8   9
ATOM      9  C   UNL A   1      33.631  26.259  24.464  1.00  0.00     0.182 C 
ATOM     10  N   UNL A   1      31.394  27.440  24.050  1.00  0.00    -0.326 N 
ATOM     11  C   UNL A   1      31.856  28.455  24.996  1.00  0.00     0.291 C 
ATOM     12  C   UNL A   1      32.109  26.173  24.220  1.00  0.00     0.295 C 
ATOM     13  H   UNL A   1      30.427  27.271  24.326  1.00  0.00     0.348 HD
ATOM     14  C   UNL A   1      33.375  28.485  25.240  1.00  0.00     0.222 C 
ATOM     15  O   UNL A   1      33.905  27.189  25.531  1.00  0.00    -0.366 OA
BRANCH  10  16
ATOM     16  C   UNL A   1      31.140  27.852  22.669  1.00  0.00     0.320 C 
BRANCH  16  17
ATOM     17  C   UNL A   1      29.844  28.580  22.486  1.00  0.00     0.108 A 
ATOM     18  C   UNL A   1      28.620  30.228  21.687  1.00  0.00     0.189 A 
ATOM     19  N   UNL A   1      29.770  29.618  21.562  1.00  0.00    -0.219 NA
ATOM     20  S   UNL A   1      27.545  29.600  22.849  1.00  0.00    -0.105 S 
ATOM     21  C   UNL A   1      28.657  28.330  23.152  1.00  0.00     0.098 A 
BRANCH  18  22
ATOM     22  N   UNL A   1      28.150  31.313  21.013  1.00  0.00    -0.302 N 
ATOM     23  C   UNL A   1      28.829  32.927  22.768  1.00  0.00     0.114 C 
ATOM     24  C   UNL A   1      28.089  32.581  21.502  1.00  0.00     0.223 C 
ATOM     25  O   UNL A   1      27.509  33.453  20.848  1.00  0.00    -0.275 OA
ATOM     26  H   UNL A   1      27.827  31.167  20.094  1.00  0.00     0.172 HD
ENDBRANCH  18  22
ENDBRANCH  16  17
ENDBRANCH  10  16
ENDBRANCH   8   9
ENDBRANCH   5   8
ENDBRANCH   3   4
ENDBRANCH   2   3
ENDBRANCH   1   2
BRANCH   1  27
ATOM     27  C   UNL A   1      38.024  22.120  25.418  1.00  0.00     0.002 C 
BRANCH  27  28
ATOM     28  C   UNL A   1      37.758  23.597  25.727  1.00  0.00     0.021 C 
BRANCH  28  29
ATOM     29  C   UNL A   1      38.763  24.247  26.676  1.00  0.00     0.116 C 
BRANCH  29  30
ATOM     30  N   UNL A   1      40.100  24.281  26.102  1.00  0.00    -0.352 N 
ATOM     31  C   UNL A   1      41.132  25.144  26.359  1.00  0.00     0.251 C 
ATOM     32  H   UNL A   1      40.291  23.584  25.434  1.00  0.00     0.163 HD
ATOM     33  O   UNL A   1      42.103  25.186  25.599  1.00  0.00    -0.269 OA
BRANCH  31  34
ATOM     34  C   UNL A   1      41.079  26.031  27.538  1.00  0.00     0.039 A 
ATOM     35  C   UNL A   1      41.992  27.083  27.642  1.00  0.00     0.014 A 
ATOM     36  C   UNL A   1      40.137  25.814  28.548  1.00  0.00     0.014 A 
ATOM     37  C   UNL A   1      41.918  27.956  28.729  1.00  0.00     0.010 A 
ATOM     38  C   UNL A   1      40.023  26.723  29.596  1.00  0.00     0.010 A 
ATOM     39  C   UNL A   1      40.912  27.805  29.697  1.00  0.00    -0.014 A 
BRANCH  39  40
ATOM     40  C   UNL A   1      40.760  28.781  30.806  1.00  0.00     0.031 A 
ATOM     41  C   UNL A   1      41.631  28.686  32.029  1.00  0.00     0.074 A 
ATOM     42  C   UNL A   1      39.793  29.717  30.736  1.00  0.00     0.049 A 
ATOM     43  N   UNL A   1      41.610  29.421  33.112  1.00  0.00    -0.248 NA
ATOM     44  C   UNL A   1      42.641  27.616  32.048  1.00  0.00     0.031 C 
ATOM     45  C   UNL A   1      38.857  29.883  29.620  1.00  0.00     0.029 A 
ATOM     46  N   UNL A   1      39.431  30.700  31.620  1.00  0.00    -0.354 N 
ATOM     47  C   UNL A   1      42.593  28.897  33.945  1.00  0.00     0.074 A 
ATOM     48  C   UNL A   1      43.157  27.753  33.262  1.00  0.00     0.031 C 
ATOM     49  C   UNL A   1      38.047  30.923  29.877  1.00  0.00     0.029 A 
ATOM     50  C   UNL A   1      38.375  31.469  31.189  1.00  0.00     0.049 A 
ATOM     51  H   UNL A   1      39.883  30.842  32.483  1.00  0.00     0.167 HD
ATOM     52  C   UNL A   1      43.000  29.337  35.160  1.00  0.00     0.031 A 
ATOM     53  C   UNL A   1      37.736  32.495  31.784  1.00  0.00     0.031 A 
ATOM     54  C   UNL A   1      42.436  30.478  35.834  1.00  0.00     0.049 A 
ATOM     55  C   UNL A   1      38.194  32.955  33.141  1.00  0.00     0.074 A 
ATOM     56  C   UNL A   1      42.817  31.038  37.042  1.00  0.00     0.029 A 
ATOM     57  N   UNL A   1      41.372  31.232  35.363  1.00  0.00    -0.354 N 
ATOM     58  N   UNL A   1      39.172  32.489  33.881  1.00  0.00    -0.248 NA
ATOM     59  C   UNL A   1      37.472  34.087  33.737  1.00  0.00     0.031 C 
ATOM     60  C   UNL A   1      41.946  32.094  37.328  1.00  0.00     0.029 A 
ATOM     61  C   UNL A   1      41.063  32.233  36.269  1.00  0.00     0.049 A 
ATOM     62  H   UNL A   1      40.904  31.078  34.510  1.00  0.00     0.167 HD
ATOM     63  C   UNL A   1      39.196  33.285  35.020  1.00  0.00     0.074 A 
ATOM     64  C   UNL A   1      38.148  34.274  34.862  1.00  0.00     0.031 C 
ATOM     65  C   UNL A   1      40.012  33.205  36.101  1.00  0.00     0.031 A 
BRANCH  52  66
ATOM     66  C   UNL A   1      44.105  28.577  35.846  1.00  0.00    -0.014 A 
ATOM     67  C   UNL A   1      45.452  28.946  35.679  1.00  0.00     0.010 A 
ATOM     68  C   UNL A   1      43.791  27.508  36.705  1.00  0.00     0.010 A 
ATOM     69  C   UNL A   1      46.467  28.235  36.326  1.00  0.00     0.020 A 
ATOM     70  C   UNL A   1      44.800  26.813  37.377  1.00  0.00     0.020 A 
ATOM     71  C   UNL A   1      46.134  27.171  37.170  1.00  0.00     0.054 A 
BRANCH  71  72
ATOM     72  S   UNL A   1      47.470  26.282  38.017  1.00  0.00     0.124 S 
ATOM     73  O   UNL A   1      46.731  25.258  38.752  1.00  0.00    -0.237 OA
ATOM     74  O   UNL A   1      48.283  25.792  36.906  1.00  0.00    -0.237 OA
ATOM     75  O   UNL A   1      48.101  27.307  38.842  1.00  0.00    -0.744 OA
ENDBRANCH  71  72
ENDBRANCH  52  66
BRANCH  53  76
ATOM     76  C   UNL A   1      36.597  33.162  31.095  1.00  0.00    -0.014 A 
ATOM     77  C   UNL A   1      35.296  33.080  31.620  1.00  0.00     0.010 A 
ATOM     78  C   UNL A   1      36.814  33.897  29.915  1.00  0.00     0.010 A 
ATOM     79  C   UNL A   1      34.229  33.705  30.969  1.00  0.00     0.020 A 
ATOM     80  C   UNL A   1      35.754  34.548  29.277  1.00  0.00     0.020 A 
ATOM     81  C   UNL A   1      34.465  34.437  29.802  1.00  0.00     0.054 A 
BRANCH  81  82
ATOM     82  S   UNL A   1      33.074  35.283  29.002  1.00  0.00     0.124 S 
ATOM     83  O   UNL A   1      32.186  35.540  30.132  1.00  0.00    -0.237 OA
ATOM     84  O   UNL A   1      33.713  36.458  28.417  1.00  0.00    -0.237 OA
ATOM     85  O   UNL A   1      32.588  34.301  28.035  1.00  0.00    -0.744 OA
ENDBRANCH  81  82
ENDBRANCH  53  76
BRANCH  65  86
ATOM     86  C   UNL A   1      39.824  34.231  37.187  1.00  0.00    -0.014 A 
ATOM     87  C   UNL A   1      39.022  33.963  38.311  1.00  0.00     0.010 A 
ATOM     88  C   UNL A   1      40.500  35.461  37.106  1.00  0.00     0.010 A 
ATOM     89  C   UNL A   1      38.874  34.921  39.318  1.00  0.00     0.020 A 
ATOM     90  C   UNL A   1      40.379  36.410  38.124  1.00  0.00     0.020 A 
ATOM     91  C   UNL A   1      39.554  36.138  39.217  1.00  0.00     0.054 A 
BRANCH  91  92
ATOM     92  S   UNL A   1      39.379  37.347  40.559  1.00  0.00     0.124 S 
ATOM     93  O   UNL A   1      38.291  38.189  40.069  1.00  0.00    -0.237 OA
ATOM     94  O   UNL A   1      39.055  36.506  41.708  1.00  0.00    -0.237 OA
ATOM     95  O   UNL A   1      40.688  37.993  40.616  1.00  0.00    -0.744 OA
ENDBRANCH  91  92
ENDBRANCH  65  86
ENDBRANCH  39  40
ENDBRANCH  31  34
ENDBRANCH  29  30
ENDBRANCH  28  29
ENDBRANCH  27  28
ENDBRANCH   1  27
TORSDOF 20
ENDMDL
MODEL 2
REMARK VINA RESULT:     -10.7      5.961      8.135
REMARK SMILES CC(=O)Nc1nc(C[N@@H+]2CCO[C@@H](CC(=O)NCCCCCCNC(=O)c3ccc(-c4c5nc(c(-c6ccc(S(=O)(=O)[O-])cc6)c6ccc([nH]6)c(-c6ccc(S(=O)(=O)[O-])cc6)c6nc(c(-c7ccc(S(=O)(=O)[O-])cc7)c7ccc4[nH]7)C=C6)C=C5)cc3)C2)cs1
REMARK SMILES IDX 20 1 19 2 18 3 17 4 15 5 16 6 14 8 13 9 9 10 10 11 87 12
REMARK SMILES IDX 11 14 12 15 8 16 7 17 5 18 6 19 89 20 88 21 4 22 1 23 2 24
REMARK SMILES IDX 3 25 21 27 22 28 23 29 24 30 25 31 26 33 27 34 28 35 86 36
REMARK SMILES IDX 29 37 85 38 30 39 31 40 32 41 79 42 33 43 84 44 78 45 80 46
REMARK SMILES IDX 34 47 83 48 77 49 76 50 35 52 65 53 46 54 64 55 47 56 50 57
REMARK SMILES IDX 63 58 81 59 48 60 49 61 62 63 82 64 51 65 36 66 37 67 45 68
REMARK SMILES IDX 38 69 44 70 39 71 40 72 41 73 42 74 43 75 66 76 67 77 75 78
REMARK SMILES IDX 68 79 74 80 69 81 70 82 71 83 72 84 73 85 52 86 53 87 61 88
REMARK SMILES IDX 54 89 60 90 55 91 56 92 57 93 58 94 59 95
REMARK H PARENT 17 7 9 13 4 26 24 32 80 51 50 62
REMARK Flexibility Score: inf
ROOT
ATOM      1  C   UNL A   1      36.590  21.698  25.010  1.00  0.00     0.002 C 
ENDROOT
BRANCH   1   2
ATOM      2  C   UNL A   1      35.130  22.059  25.273  1.00  0.00     0.021 C 
BRANCH   2   3
ATOM      3  C   UNL A   1      34.902  22.866  26.556  1.00  0.00     0.116 C 
BRANCH   3   4
ATOM      4  N   UNL A   1      33.521  22.755  26.996  1.00  0.00    -0.356 N 
ATOM      5  C   UNL A   1      32.524  23.688  26.998  1.00  0.00     0.222 C 
ATOM      6  O   UNL A   1      31.447  23.402  27.525  1.00  0.00    -0.275 OA
ATOM      7  H   UNL A   1      33.265  21.872  27.348  1.00  0.00     0.163 HD
BRANCH   5   8
ATOM      8  C   UNL A   1      32.747  25.042  26.365  1.00  0.00     0.138 C 
BRANCH   8   9
ATOM      9  C   UNL A   1      32.502  25.072  24.855  1.00  0.00     0.182 C 
ATOM     10  N   UNL A   1      33.699  25.259  22.595  1.00  0.00    -0.326 N 
ATOM     11  C   UNL A   1      33.028  24.009  22.237  1.00  0.00     0.291 C 
ATOM     12  C   UNL A   1      33.764  25.443  24.047  1.00  0.00     0.295 C 
ATOM     13  H   UNL A   1      34.657  25.123  22.273  1.00  0.00     0.348 HD
ATOM     14  C   UNL A   1      31.796  23.656  23.088  1.00  0.00     0.222 C 
ATOM     15  O   UNL A   1      32.059  23.749  24.491  1.00  0.00    -0.366 OA
BRANCH  10  16
ATOM     16  C   UNL A   1      33.390  26.455  21.810  1.00  0.00     0.320 C 
BRANCH  16  17
ATOM     17  C   UNL A   1      32.351  27.333  22.436  1.00  0.00     0.108 A 
ATOM     18  C   UNL A   1      31.711  28.953  23.785  1.00  0.00     0.189 A 
ATOM     19  N   UNL A   1      32.753  28.434  23.187  1.00  0.00    -0.219 NA
ATOM     20  S   UNL A   1      30.206  28.222  23.469  1.00  0.00    -0.105 S 
ATOM     21  C   UNL A   1      30.979  27.177  22.349  1.00  0.00     0.098 A 
BRANCH  18  22
ATOM     22  N   UNL A   1      31.655  30.011  24.640  1.00  0.00    -0.302 N 
ATOM     23  C   UNL A   1      32.567  28.739  26.563  1.00  0.00     0.114 C 
ATOM     24  C   UNL A   1      31.908  29.960  25.975  1.00  0.00     0.223 C 
ATOM     25  O   UNL A   1      31.684  30.956  26.670  1.00  0.00    -0.275 OA
ATOM     26  H   UNL A   1      31.411  30.885  24.259  1.00  0.00     0.172 HD
ENDBRANCH  18  22
ENDBRANCH  16  17
ENDBRANCH  10  16
ENDBRANCH   8   9
ENDBRANCH   5   8
ENDBRANCH   3   4
ENDBRANCH   2   3
ENDBRANCH   1   2
BRANCH   1  27
ATOM     27  C   UNL A   1      36.898  20.201  25.083  1.00  0.00     0.002 C 
BRANCH  27  28
ATOM     28  C   UNL A   1      38.368  19.823  24.874  1.00  0.00     0.021 C 
BRANCH  28  29
ATOM     29  C   UNL A   1      39.336  20.410  25.898  1.00  0.00     0.116 C 
BRANCH  29  30
ATOM     30  N   UNL A   1      40.485  19.542  26.112  1.00  0.00    -0.352 N 
ATOM     31  C   UNL A   1      41.802  19.873  26.282  1.00  0.00     0.251 C 
ATOM     32  H   UNL A   1      40.286  18.578  26.140  1.00  0.00     0.163 HD
ATOM     33  O   UNL A   1      42.672  19.003  26.194  1.00  0.00    -0.269 OA
BRANCH  31  34
ATOM     34  C   UNL A   1      42.183  21.273  26.559  1.00  0.00     0.039 A 
ATOM     35  C   UNL A   1      42.416  21.667  27.879  1.00  0.00     0.014 A 
ATOM     36  C   UNL A   1      42.297  22.198  25.518  1.00  0.00     0.014 A 
ATOM     37  C   UNL A   1      42.825  22.975  28.146  1.00  0.00     0.010 A 
ATOM     38  C   UNL A   1      42.767  23.482  25.779  1.00  0.00     0.010 A 
ATOM     39  C   UNL A   1      43.037  23.884  27.097  1.00  0.00    -0.014 A 
BRANCH  39  40
ATOM     40  C   UNL A   1      43.564  25.248  27.356  1.00  0.00     0.031 A 
ATOM     41  C   UNL A   1      45.016  25.562  27.119  1.00  0.00     0.074 A 
ATOM     42  C   UNL A   1      42.744  26.188  27.865  1.00  0.00     0.049 A 
ATOM     43  N   UNL A   1      45.661  26.680  27.333  1.00  0.00    -0.248 NA
ATOM     44  C   UNL A   1      45.857  24.474  26.596  1.00  0.00     0.031 C 
ATOM     45  C   UNL A   1      41.325  25.993  28.178  1.00  0.00     0.029 A 
ATOM     46  N   UNL A   1      42.983  27.492  28.216  1.00  0.00    -0.354 N 
ATOM     47  C   UNL A   1      46.982  26.429  26.981  1.00  0.00     0.074 A 
ATOM     48  C   UNL A   1      47.057  25.039  26.587  1.00  0.00     0.031 C 
ATOM     49  C   UNL A   1      40.816  27.143  28.648  1.00  0.00     0.029 A 
ATOM     50  C   UNL A   1      41.876  28.143  28.712  1.00  0.00     0.049 A 
ATOM     51  H   UNL A   1      43.863  27.923  28.122  1.00  0.00     0.167 HD
ATOM     52  C   UNL A   1      48.035  27.282  26.971  1.00  0.00     0.031 A 
ATOM     53  C   UNL A   1      41.731  29.400  29.173  1.00  0.00     0.031 A 
ATOM     54  C   UNL A   1      47.956  28.666  27.361  1.00  0.00     0.049 A 
ATOM     55  C   UNL A   1      42.919  30.323  29.168  1.00  0.00     0.074 A 
ATOM     56  C   UNL A   1      48.953  29.626  27.334  1.00  0.00     0.029 A 
ATOM     57  N   UNL A   1      46.817  29.287  27.854  1.00  0.00    -0.354 N 
ATOM     58  N   UNL A   1      44.144  30.086  28.765  1.00  0.00    -0.248 NA
ATOM     59  C   UNL A   1      42.700  31.688  29.667  1.00  0.00     0.031 C 
ATOM     60  C   UNL A   1      48.432  30.811  27.863  1.00  0.00     0.029 A 
ATOM     61  C   UNL A   1      47.095  30.608  28.161  1.00  0.00     0.049 A 
ATOM     62  H   UNL A   1      45.941  28.852  27.968  1.00  0.00     0.167 HD
ATOM     63  C   UNL A   1      44.838  31.277  28.943  1.00  0.00     0.074 A 
ATOM     64  C   UNL A   1      43.890  32.239  29.470  1.00  0.00     0.031 C 
ATOM     65  C   UNL A   1      46.143  31.552  28.692  1.00  0.00     0.031 A 
BRANCH  52  66
ATOM     66  C   UNL A   1      49.371  26.741  26.530  1.00  0.00    -0.014 A 
ATOM     67  C   UNL A   1      50.223  26.084  27.437  1.00  0.00     0.010 A 
ATOM     68  C   UNL A   1      49.759  26.847  25.182  1.00  0.00     0.010 A 
ATOM     69  C   UNL A   1      51.456  25.581  27.013  1.00  0.00     0.020 A 
ATOM     70  C   UNL A   1      50.979  26.320  24.748  1.00  0.00     0.020 A 
ATOM     71  C   UNL A   1      51.827  25.704  25.670  1.00  0.00     0.054 A 
BRANCH  71  72
ATOM     72  S   UNL A   1      53.422  25.020  25.143  1.00  0.00     0.124 S 
ATOM     73  O   UNL A   1      53.177  23.582  25.235  1.00  0.00    -0.237 OA
ATOM     74  O   UNL A   1      53.564  25.545  23.788  1.00  0.00    -0.237 OA
ATOM     75  O   UNL A   1      54.369  25.554  26.118  1.00  0.00    -0.744 OA
ENDBRANCH  71  72
ENDBRANCH  52  66
BRANCH  53  76
ATOM     76  C   UNL A   1      40.406  29.861  29.670  1.00  0.00    -0.014 A 
ATOM     77  C   UNL A   1      40.101  29.814  31.041  1.00  0.00     0.010 A 
ATOM     78  C   UNL A   1      39.446  30.364  28.772  1.00  0.00     0.010 A 
ATOM     79  C   UNL A   1      38.854  30.245  31.504  1.00  0.00     0.020 A 
ATOM     80  C   UNL A   1      38.210  30.824  29.236  1.00  0.00     0.020 A 
ATOM     81  C   UNL A   1      37.918  30.749  30.598  1.00  0.00     0.054 A 
BRANCH  81  82
ATOM     82  S   UNL A   1      36.326  31.351  31.228  1.00  0.00     0.124 S 
ATOM     83  O   UNL A   1      36.702  32.625  31.833  1.00  0.00    -0.237 OA
ATOM     84  O   UNL A   1      35.519  31.438  30.015  1.00  0.00    -0.237 OA
ATOM     85  O   UNL A   1      35.915  30.309  32.167  1.00  0.00    -0.744 OA
ENDBRANCH  81  82
ENDBRANCH  53  76
BRANCH  65  86
ATOM     86  C   UNL A   1      46.618  32.955  28.959  1.00  0.00    -0.014 A 
ATOM     87  C   UNL A   1      47.089  33.336  30.228  1.00  0.00     0.010 A 
ATOM     88  C   UNL A   1      46.640  33.892  27.910  1.00  0.00     0.010 A 
ATOM     89  C   UNL A   1      47.544  34.639  30.451  1.00  0.00     0.020 A 
ATOM     90  C   UNL A   1      47.121  35.187  28.121  1.00  0.00     0.020 A 
ATOM     91  C   UNL A   1      47.556  35.556  29.395  1.00  0.00     0.054 A 
BRANCH  91  92
ATOM     92  S   UNL A   1      48.191  37.227  29.701  1.00  0.00     0.124 S 
ATOM     93  O   UNL A   1      47.860  37.425  31.109  1.00  0.00    -0.237 OA
ATOM     94  O   UNL A   1      49.615  37.089  29.403  1.00  0.00    -0.237 OA
ATOM     95  O   UNL A   1      47.443  38.059  28.762  1.00  0.00    -0.744 OA
ENDBRANCH  91  92
ENDBRANCH  65  86
ENDBRANCH  39  40
ENDBRANCH  31  34
ENDBRANCH  29  30
ENDBRANCH  28  29
ENDBRANCH  27  28
ENDBRANCH   1  27
TORSDOF 20
ENDMDL
MODEL 3
REMARK VINA RESULT:     -10.6      1.619      2.475
REMARK SMILES CC(=O)Nc1nc(C[N@@H+]2CCO[C@@H](CC(=O)NCCCCCCNC(=O)c3ccc(-c4c5nc(c(-c6ccc(S(=O)(=O)[O-])cc6)c6ccc([nH]6)c(-c6ccc(S(=O)(=O)[O-])cc6)c6nc(c(-c7ccc(S(=O)(=O)[O-])cc7)c7ccc4[nH]7)C=C6)C=C5)cc3)C2)cs1
REMARK SMILES IDX 20 1 19 2 18 3 17 4 15 5 16 6 14 8 13 9 9 10 10 11 87 12
REMARK SMILES IDX 11 14 12 15 8 16 7 17 5 18 6 19 89 20 88 21 4 22 1 23 2 24
REMARK SMILES IDX 3 25 21 27 22 28 23 29 24 30 25 31 26 33 27 34 28 35 86 36
REMARK SMILES IDX 29 37 85 38 30 39 31 40 32 41 79 42 33 43 84 44 78 45 80 46
REMARK SMILES IDX 34 47 83 48 77 49 76 50 35 52 65 53 46 54 64 55 47 56 50 57
REMARK SMILES IDX 63 58 81 59 48 60 49 61 62 63 82 64 51 65 36 66 37 67 45 68
REMARK SMILES IDX 38 69 44 70 39 71 40 72 41 73 42 74 43 75 66 76 67 77 75 78
REMARK SMILES IDX 68 79 74 80 69 81 70 82 71 83 72 84 73 85 52 86 53 87 61 88
REMARK SMILES IDX 54 89 60 90 55 91 56 92 57 93 58 94 59 95
REMARK H PARENT 17 7 9 13 4 26 24 32 80 51 50 62
REMARK Flexibility Score: inf
ROOT
ATOM      1  C   UNL A   1      37.941  22.345  25.259  1.00  0.00     0.002 C 
ENDROOT
BRANCH   1   2
ATOM      2  C   UNL A   1      37.099  21.139  24.849  1.00  0.00     0.021 C 
BRANCH   2   3
ATOM      3  C   UNL A   1      35.590  21.405  24.819  1.00  0.00     0.116 C 
BRANCH   3   4
ATOM      4  N   UNL A   1      34.849  20.214  25.202  1.00  0.00    -0.356 N 
ATOM      5  C   UNL A   1      33.513  19.947  25.112  1.00  0.00     0.222 C 
ATOM      6  O   UNL A   1      33.084  18.902  25.603  1.00  0.00    -0.275 OA
ATOM      7  H   UNL A   1      35.393  19.490  25.586  1.00  0.00     0.163 HD
BRANCH   5   8
ATOM      8  C   UNL A   1      32.586  20.921  24.422  1.00  0.00     0.138 C 
BRANCH   8   9
ATOM      9  C   UNL A   1      32.320  22.200  25.219  1.00  0.00     0.182 C 
ATOM     10  N   UNL A   1      31.735  24.683  24.962  1.00  0.00    -0.326 N 
ATOM     11  C   UNL A   1      30.601  24.416  25.846  1.00  0.00     0.291 C 
ATOM     12  C   UNL A   1      32.230  23.458  24.328  1.00  0.00     0.295 C 
ATOM     13  H   UNL A   1      31.336  25.257  24.219  1.00  0.00     0.348 HD
ATOM     14  C   UNL A   1      30.712  23.135  26.691  1.00  0.00     0.222 C 
ATOM     15  O   UNL A   1      31.068  21.994  25.905  1.00  0.00    -0.366 OA
BRANCH  10  16
ATOM     16  C   UNL A   1      32.756  25.626  25.418  1.00  0.00     0.320 C 
BRANCH  16  17
ATOM     17  C   UNL A   1      32.675  26.968  24.758  1.00  0.00     0.108 A 
ATOM     18  C   UNL A   1      31.662  28.874  24.317  1.00  0.00     0.189 A 
ATOM     19  N   UNL A   1      31.663  27.849  25.129  1.00  0.00    -0.219 NA
ATOM     20  S   UNL A   1      32.865  28.893  23.111  1.00  0.00    -0.105 S 
ATOM     21  C   UNL A   1      33.525  27.460  23.783  1.00  0.00     0.098 A 
BRANCH  18  22
ATOM     22  N   UNL A   1      30.824  29.946  24.294  1.00  0.00    -0.302 N 
ATOM     23  C   UNL A   1      29.174  28.854  22.799  1.00  0.00     0.114 C 
ATOM     24  C   UNL A   1      29.718  30.066  23.510  1.00  0.00     0.223 C 
ATOM     25  O   UNL A   1      29.120  31.145  23.473  1.00  0.00    -0.275 OA
ATOM     26  H   UNL A   1      31.036  30.696  24.894  1.00  0.00     0.172 HD
ENDBRANCH  18  22
ENDBRANCH  16  17
ENDBRANCH  10  16
ENDBRANCH   8   9
ENDBRANCH   5   8
ENDBRANCH   3   4
ENDBRANCH   2   3
ENDBRANCH   1   2
BRANCH   1  27
ATOM     27  C   UNL A   1      38.856  22.102  26.462  1.00  0.00     0.002 C 
BRANCH  27  28
ATOM     28  C   UNL A   1      40.358  22.188  26.171  1.00  0.00     0.021 C 
BRANCH  28  29
ATOM     29  C   UNL A   1      41.067  23.387  26.795  1.00  0.00     0.116 C 
BRANCH  29  30
ATOM     30  N   UNL A   1      41.692  24.229  25.784  1.00  0.00    -0.352 N 
ATOM     31  C   UNL A   1      41.897  25.582  25.790  1.00  0.00     0.251 C 
ATOM     32  H   UNL A   1      42.013  23.757  24.982  1.00  0.00     0.163 HD
ATOM     33  O   UNL A   1      42.207  26.161  24.745  1.00  0.00    -0.269 OA
BRANCH  31  34
ATOM     34  C   UNL A   1      41.739  26.350  27.041  1.00  0.00     0.039 A 
ATOM     35  C   UNL A   1      42.690  27.318  27.372  1.00  0.00     0.014 A 
ATOM     36  C   UNL A   1      40.660  26.103  27.894  1.00  0.00     0.014 A 
ATOM     37  C   UNL A   1      42.523  28.083  28.528  1.00  0.00     0.010 A 
ATOM     38  C   UNL A   1      40.460  26.911  29.011  1.00  0.00     0.010 A 
ATOM     39  C   UNL A   1      41.389  27.910  29.339  1.00  0.00    -0.014 A 
BRANCH  39  40
ATOM     40  C   UNL A   1      41.148  28.781  30.517  1.00  0.00     0.031 A 
ATOM     41  C   UNL A   1      41.973  28.619  31.765  1.00  0.00     0.074 A 
ATOM     42  C   UNL A   1      40.142  29.676  30.483  1.00  0.00     0.049 A 
ATOM     43  N   UNL A   1      41.875  29.257  32.904  1.00  0.00    -0.248 NA
ATOM     44  C   UNL A   1      43.030  27.596  31.739  1.00  0.00     0.031 C 
ATOM     45  C   UNL A   1      39.245  29.897  29.345  1.00  0.00     0.029 A 
ATOM     46  N   UNL A   1      39.699  30.564  31.430  1.00  0.00    -0.354 N 
ATOM     47  C   UNL A   1      42.847  28.707  33.732  1.00  0.00     0.074 A 
ATOM     48  C   UNL A   1      43.491  27.650  32.981  1.00  0.00     0.031 C 
ATOM     49  C   UNL A   1      38.378  30.876  29.653  1.00  0.00     0.029 A 
ATOM     50  C   UNL A   1      38.627  31.321  31.019  1.00  0.00     0.049 A 
ATOM     51  H   UNL A   1      40.110  30.652  32.321  1.00  0.00     0.167 HD
ATOM     52  C   UNL A   1      43.184  29.059  34.996  1.00  0.00     0.031 A 
ATOM     53  C   UNL A   1      37.918  32.264  31.669  1.00  0.00     0.031 A 
ATOM     54  C   UNL A   1      42.542  30.113  35.738  1.00  0.00     0.049 A 
ATOM     55  C   UNL A   1      38.300  32.626  33.078  1.00  0.00     0.074 A 
ATOM     56  C   UNL A   1      42.847  30.583  37.004  1.00  0.00     0.029 A 
ATOM     57  N   UNL A   1      41.463  30.858  35.285  1.00  0.00    -0.354 N 
ATOM     58  N   UNL A   1      39.268  32.141  33.819  1.00  0.00    -0.248 NA
ATOM     59  C   UNL A   1      37.503  33.671  33.734  1.00  0.00     0.031 C 
ATOM     60  C   UNL A   1      41.917  31.572  37.338  1.00  0.00     0.029 A 
ATOM     61  C   UNL A   1      41.072  31.763  36.257  1.00  0.00     0.049 A 
ATOM     62  H   UNL A   1      41.037  30.757  34.403  1.00  0.00     0.167 HD
ATOM     63  C   UNL A   1      39.209  32.837  35.021  1.00  0.00     0.074 A 
ATOM     64  C   UNL A   1      38.124  33.790  34.900  1.00  0.00     0.031 C 
ATOM     65  C   UNL A   1      39.985  32.700  36.126  1.00  0.00     0.031 A 
BRANCH  52  66
ATOM     66  C   UNL A   1      44.295  28.291  35.664  1.00  0.00    -0.014 A 
ATOM     67  C   UNL A   1      44.028  27.130  36.413  1.00  0.00     0.010 A 
ATOM     68  C   UNL A   1      45.629  28.707  35.502  1.00  0.00     0.010 A 
ATOM     69  C   UNL A   1      45.070  26.424  37.021  1.00  0.00     0.020 A 
ATOM     70  C   UNL A   1      46.676  27.988  36.085  1.00  0.00     0.020 A 
ATOM     71  C   UNL A   1      46.388  26.859  36.855  1.00  0.00     0.054 A 
BRANCH  71  72
ATOM     72  S   UNL A   1      47.722  25.909  37.635  1.00  0.00     0.124 S 
ATOM     73  O   UNL A   1      47.356  25.982  39.048  1.00  0.00    -0.237 OA
ATOM     74  O   UNL A   1      47.581  24.593  37.019  1.00  0.00    -0.237 OA
ATOM     75  O   UNL A   1      48.931  26.640  37.267  1.00  0.00    -0.744 OA
ENDBRANCH  71  72
ENDBRANCH  52  66
BRANCH  53  76
ATOM     76  C   UNL A   1      36.778  32.938  30.989  1.00  0.00    -0.014 A 
ATOM     77  C   UNL A   1      37.001  33.790  29.894  1.00  0.00     0.010 A 
ATOM     78  C   UNL A   1      35.459  32.717  31.427  1.00  0.00     0.010 A 
ATOM     79  C   UNL A   1      35.929  34.423  29.260  1.00  0.00     0.020 A 
ATOM     80  C   UNL A   1      34.382  33.325  30.776  1.00  0.00     0.020 A 
ATOM     81  C   UNL A   1      34.625  34.185  29.703  1.00  0.00     0.054 A 
BRANCH  81  82
ATOM     82  S   UNL A   1      33.245  34.977  28.832  1.00  0.00     0.124 S 
ATOM     83  O   UNL A   1      33.908  36.094  28.167  1.00  0.00    -0.237 OA
ATOM     84  O   UNL A   1      32.770  33.909  27.956  1.00  0.00    -0.237 OA
ATOM     85  O   UNL A   1      32.327  35.343  29.908  1.00  0.00    -0.744 OA
ENDBRANCH  81  82
ENDBRANCH  53  76
BRANCH  65  86
ATOM     86  C   UNL A   1      39.705  33.620  37.284  1.00  0.00    -0.014 A 
ATOM     87  C   UNL A   1      38.847  33.235  38.329  1.00  0.00     0.010 A 
ATOM     88  C   UNL A   1      40.352  34.868  37.352  1.00  0.00     0.010 A 
ATOM     89  C   UNL A   1      38.614  34.096  39.406  1.00  0.00     0.020 A 
ATOM     90  C   UNL A   1      40.146  35.718  38.441  1.00  0.00     0.020 A 
ATOM     91  C   UNL A   1      39.266  35.332  39.454  1.00  0.00     0.054 A 
BRANCH  91  92
ATOM     92  S   UNL A   1      38.981  36.413  40.884  1.00  0.00     0.124 S 
ATOM     93  O   UNL A   1      40.310  36.477  41.485  1.00  0.00    -0.237 OA
ATOM     94  O   UNL A   1      38.511  37.649  40.263  1.00  0.00    -0.237 OA
ATOM     95  O   UNL A   1      37.978  35.695  41.666  1.00  0.00    -0.744 OA
ENDBRANCH  91  92
ENDBRANCH  65  86
ENDBRANCH  39  40
ENDBRANCH  31  34
ENDBRANCH  29  30
ENDBRANCH  28  29
ENDBRANCH  27  28
ENDBRANCH   1  27
TORSDOF 20
ENDMDL
