MODEL 1
REMARK VINA RESULT:     -10.5      0.000      0.000
REMARK SMILES O=C(CNc1ccccc1)N[C@@H]1C=C[C@H](C(=O)NCCCCCCNC(=O)c2ccc(-c3c4nc(c(-c5ccc(S(=O)(=O)[O-])cc5)c5ccc([nH]5)c(-c5ccc(S(=O)(=O)[O-])cc5)c5nc(c(-c6ccc(S(=O)(=O)[O-])cc6)c6ccc3[nH]6)C=C5)C=C4)cc2)C1
REMARK SMILES IDX 21 1 20 2 19 3 18 4 16 5 17 6 15 8 12 9 13 10 88 11 14 12
REMARK SMILES IDX 11 13 1 14 2 15 3 17 4 18 5 20 6 21 10 22 7 23 9 24 8 25
REMARK SMILES IDX 22 26 23 27 24 28 25 29 26 30 27 32 28 33 29 34 87 35 30 36
REMARK SMILES IDX 86 37 31 38 32 39 33 40 80 41 34 42 85 43 79 44 81 45 35 46
REMARK SMILES IDX 84 47 78 48 77 49 36 51 66 52 47 53 65 54 48 55 51 56 64 57
REMARK SMILES IDX 82 58 49 59 50 60 63 62 83 63 52 64 37 65 38 66 46 67 39 68
REMARK SMILES IDX 45 69 40 70 41 71 42 72 43 73 44 74 67 75 68 76 76 77 69 78
REMARK SMILES IDX 75 79 70 80 71 81 72 82 73 83 74 84 53 85 54 86 62 87 55 88
REMARK SMILES IDX 61 89 56 90 57 91 58 92 59 93 60 94
REMARK H PARENT 18 7 11 16 4 19 25 31 81 50 51 61
REMARK Flexibility Score: inf
ROOT
ATOM      1  C   UNL A   1      35.908  33.640  28.739  1.00  0.00     0.002 C 
ENDROOT
BRANCH   1   2
ATOM      2  C   UNL A   1      35.880  32.307  27.977  1.00  0.00     0.021 C 
BRANCH   2   3
ATOM      3  C   UNL A   1      34.776  31.351  28.430  1.00  0.00     0.116 C 
BRANCH   3   4
ATOM      4  N   UNL A   1      33.612  31.454  27.565  1.00  0.00    -0.356 N 
ATOM      5  C   UNL A   1      32.878  30.484  26.950  1.00  0.00     0.227 C 
ATOM      6  O   UNL A   1      31.999  30.832  26.157  1.00  0.00    -0.274 OA
ATOM      7  H   UNL A   1      33.305  32.374  27.395  1.00  0.00     0.163 HD
BRANCH   5   8
ATOM      8  C   UNL A   1      33.114  29.016  27.303  1.00  0.00     0.103 C 
ATOM      9  C   UNL A   1      32.567  27.276  25.639  1.00  0.00     0.106 C 
ATOM     10  C   UNL A   1      31.490  27.439  26.658  1.00  0.00    -0.006 C 
ATOM     11  C   UNL A   1      33.677  28.224  26.113  1.00  0.00     0.047 C 
ATOM     12  C   UNL A   1      31.787  28.370  27.569  1.00  0.00    -0.016 C 
BRANCH   9  13
ATOM     13  N   UNL A   1      32.036  27.654  24.358  1.00  0.00    -0.348 N 
ATOM     14  O   UNL A   1      30.582  25.879  24.149  1.00  0.00    -0.273 OA
ATOM     15  C   UNL A   1      31.068  26.916  23.706  1.00  0.00     0.239 C 
ATOM     16  H   UNL A   1      32.377  28.472  23.928  1.00  0.00     0.164 HD
BRANCH  15  17
ATOM     17  C   UNL A   1      30.698  27.478  22.329  1.00  0.00     0.213 C 
BRANCH  17  18
ATOM     18  N   UNL A   1      30.939  28.916  22.301  1.00  0.00    -0.376 N 
ATOM     19  H   UNL A   1      31.861  29.225  22.152  1.00  0.00     0.161 HD
BRANCH  18  20
ATOM     20  C   UNL A   1      29.962  29.873  22.468  1.00  0.00     0.034 A 
ATOM     21  C   UNL A   1      29.167  30.217  21.368  1.00  0.00     0.026 A 
ATOM     22  C   UNL A   1      29.657  30.457  23.701  1.00  0.00     0.026 A 
ATOM     23  C   UNL A   1      28.094  31.103  21.494  1.00  0.00     0.002 A 
ATOM     24  C   UNL A   1      28.589  31.353  23.833  1.00  0.00     0.002 A 
ATOM     25  C   UNL A   1      27.803  31.670  22.730  1.00  0.00     0.000 A 
ENDBRANCH  18  20
ENDBRANCH  17  18
ENDBRANCH  15  17
ENDBRANCH   9  13
ENDBRANCH   5   8
ENDBRANCH   3   4
ENDBRANCH   2   3
ENDBRANCH   1   2
BRANCH   1  26
ATOM     26  C   UNL A   1      37.102  33.824  29.683  1.00  0.00     0.002 C 
BRANCH  26  27
ATOM     27  C   UNL A   1      36.738  34.041  31.153  1.00  0.00     0.021 C 
BRANCH  27  28
ATOM     28  C   UNL A   1      37.317  33.006  32.111  1.00  0.00     0.116 C 
BRANCH  28  29
ATOM     29  N   UNL A   1      36.540  31.775  32.124  1.00  0.00    -0.352 N 
ATOM     30  C   UNL A   1      36.828  30.560  31.555  1.00  0.00     0.251 C 
ATOM     31  H   UNL A   1      35.685  31.821  32.611  1.00  0.00     0.163 HD
ATOM     32  O   UNL A   1      35.963  29.688  31.502  1.00  0.00    -0.269 OA
BRANCH  30  33
ATOM     33  C   UNL A   1      38.171  30.309  30.989  1.00  0.00     0.039 A 
ATOM     34  C   UNL A   1      39.211  29.940  31.846  1.00  0.00     0.014 A 
ATOM     35  C   UNL A   1      38.404  30.437  29.617  1.00  0.00     0.014 A 
ATOM     36  C   UNL A   1      40.468  29.639  31.318  1.00  0.00     0.010 A 
ATOM     37  C   UNL A   1      39.635  30.061  29.085  1.00  0.00     0.010 A 
ATOM     38  C   UNL A   1      40.682  29.662  29.930  1.00  0.00    -0.014 A 
BRANCH  38  39
ATOM     39  C   UNL A   1      41.989  29.265  29.344  1.00  0.00     0.031 A 
ATOM     40  C   UNL A   1      43.101  30.273  29.213  1.00  0.00     0.074 A 
ATOM     41  C   UNL A   1      42.156  28.013  28.873  1.00  0.00     0.049 A 
ATOM     42  N   UNL A   1      44.291  30.124  28.691  1.00  0.00    -0.248 NA
ATOM     43  C   UNL A   1      42.831  31.632  29.711  1.00  0.00     0.031 C 
ATOM     44  C   UNL A   1      41.147  26.952  28.910  1.00  0.00     0.029 A 
ATOM     45  N   UNL A   1      43.237  27.418  28.270  1.00  0.00    -0.354 N 
ATOM     46  C   UNL A   1      44.903  31.370  28.779  1.00  0.00     0.074 A 
ATOM     47  C   UNL A   1      43.935  32.274  29.359  1.00  0.00     0.031 C 
ATOM     48  C   UNL A   1      41.667  25.830  28.389  1.00  0.00     0.029 A 
ATOM     49  C   UNL A   1      43.028  26.101  27.935  1.00  0.00     0.049 A 
ATOM     50  H   UNL A   1      44.082  27.891  28.093  1.00  0.00     0.167 HD
ATOM     51  C   UNL A   1      46.161  31.725  28.424  1.00  0.00     0.031 A 
ATOM     52  C   UNL A   1      43.836  25.211  27.328  1.00  0.00     0.031 A 
ATOM     53  C   UNL A   1      47.123  30.819  27.853  1.00  0.00     0.049 A 
ATOM     54  C   UNL A   1      45.220  25.636  26.920  1.00  0.00     0.074 A 
ATOM     55  C   UNL A   1      48.443  31.066  27.520  1.00  0.00     0.029 A 
ATOM     56  N   UNL A   1      46.868  29.496  27.523  1.00  0.00    -0.354 N 
ATOM     57  N   UNL A   1      45.806  26.799  27.082  1.00  0.00    -0.248 NA
ATOM     58  C   UNL A   1      46.056  24.626  26.257  1.00  0.00     0.031 C 
ATOM     59  C   UNL A   1      48.967  29.914  26.925  1.00  0.00     0.029 A 
ATOM     60  C   UNL A   1      47.996  28.925  26.955  1.00  0.00     0.049 A 
ATOM     61  H   UNL A   1      46.013  29.032  27.669  1.00  0.00     0.167 HD
ATOM     62  C   UNL A   1      47.091  26.649  26.570  1.00  0.00     0.074 A 
ATOM     63  C   UNL A   1      47.200  25.281  26.108  1.00  0.00     0.031 C 
ATOM     64  C   UNL A   1      48.091  27.562  26.496  1.00  0.00     0.031 A 
BRANCH  51  65
ATOM     65  C   UNL A   1      46.564  33.165  28.623  1.00  0.00    -0.014 A 
ATOM     66  C   UNL A   1      47.190  33.594  29.807  1.00  0.00     0.010 A 
ATOM     67  C   UNL A   1      46.348  34.095  27.591  1.00  0.00     0.010 A 
ATOM     68  C   UNL A   1      47.549  34.934  29.975  1.00  0.00     0.020 A 
ATOM     69  C   UNL A   1      46.735  35.431  27.741  1.00  0.00     0.020 A 
ATOM     70  C   UNL A   1      47.315  35.845  28.940  1.00  0.00     0.054 A 
BRANCH  70  71
ATOM     71  S   UNL A   1      47.803  37.576  29.180  1.00  0.00     0.124 S 
ATOM     72  O   UNL A   1      48.837  37.457  30.204  1.00  0.00    -0.237 OA
ATOM     73  O   UNL A   1      48.275  37.961  27.853  1.00  0.00    -0.237 OA
ATOM     74  O   UNL A   1      46.570  38.228  29.613  1.00  0.00    -0.744 OA
ENDBRANCH  70  71
ENDBRANCH  51  65
BRANCH  52  75
ATOM     75  C   UNL A   1      43.364  23.819  27.084  1.00  0.00    -0.014 A 
ATOM     76  C   UNL A   1      42.912  23.433  25.809  1.00  0.00     0.010 A 
ATOM     77  C   UNL A   1      43.369  22.869  28.121  1.00  0.00     0.010 A 
ATOM     78  C   UNL A   1      42.457  22.130  25.581  1.00  0.00     0.020 A 
ATOM     79  C   UNL A   1      42.945  21.557  27.890  1.00  0.00     0.020 A 
ATOM     80  C   UNL A   1      42.481  21.200  26.623  1.00  0.00     0.054 A 
BRANCH  80  81
ATOM     81  S   UNL A   1      41.932  19.503  26.291  1.00  0.00     0.124 S 
ATOM     82  O   UNL A   1      42.328  18.810  27.513  1.00  0.00    -0.237 OA
ATOM     83  O   UNL A   1      40.494  19.671  26.094  1.00  0.00    -0.237 OA
ATOM     84  O   UNL A   1      42.677  19.132  25.090  1.00  0.00    -0.744 OA
ENDBRANCH  80  81
ENDBRANCH  52  75
BRANCH  64  85
ATOM     85  C   UNL A   1      49.410  27.104  25.927  1.00  0.00    -0.014 A 
ATOM     86  C   UNL A   1      49.694  27.211  24.554  1.00  0.00     0.010 A 
ATOM     87  C   UNL A   1      50.402  26.609  26.794  1.00  0.00     0.010 A 
ATOM     88  C   UNL A   1      50.934  26.801  24.055  1.00  0.00     0.020 A 
ATOM     89  C   UNL A   1      51.653  26.229  26.304  1.00  0.00     0.020 A 
ATOM     90  C   UNL A   1      51.906  26.313  24.934  1.00  0.00     0.054 A 
BRANCH  90  91
ATOM     91  S   UNL A   1      53.522  25.831  24.266  1.00  0.00     0.124 S 
ATOM     92  O   UNL A   1      54.428  26.715  24.993  1.00  0.00    -0.237 OA
ATOM     93  O   UNL A   1      53.604  24.415  24.621  1.00  0.00    -0.237 OA
ATOM     94  O   UNL A   1      53.400  26.102  22.835  1.00  0.00    -0.744 OA
ENDBRANCH  90  91
ENDBRANCH  64  85
ENDBRANCH  38  39
ENDBRANCH  30  33
ENDBRANCH  28  29
ENDBRANCH  27  28
ENDBRANCH  26  27
ENDBRANCH   1  26
TORSDOF 20
ENDMDL
MODEL 2
REMARK VINA RESULT:     -10.5      5.193     12.135
REMARK SMILES O=C(CNc1ccccc1)N[C@@H]1C=C[C@H](C(=O)NCCCCCCNC(=O)c2ccc(-c3c4nc(c(-c5ccc(S(=O)(=O)[O-])cc5)c5ccc([nH]5)c(-c5ccc(S(=O)(=O)[O-])cc5)c5nc(c(-c6ccc(S(=O)(=O)[O-])cc6)c6ccc3[nH]6)C=C5)C=C4)cc2)C1
REMARK SMILES IDX 21 1 20 2 19 3 18 4 16 5 17 6 15 8 12 9 13 10 88 11 14 12
REMARK SMILES IDX 11 13 1 14 2 15 3 17 4 18 5 20 6 21 10 22 7 23 9 24 8 25
REMARK SMILES IDX 22 26 23 27 24 28 25 29 26 30 27 32 28 33 29 34 87 35 30 36
REMARK SMILES IDX 86 37 31 38 32 39 33 40 80 41 34 42 85 43 79 44 81 45 35 46
REMARK SMILES IDX 84 47 78 48 77 49 36 51 66 52 47 53 65 54 48 55 51 56 64 57
REMARK SMILES IDX 82 58 49 59 50 60 63 62 83 63 52 64 37 65 38 66 46 67 39 68
REMARK SMILES IDX 45 69 40 70 41 71 42 72 43 73 44 74 67 75 68 76 76 77 69 78
REMARK SMILES IDX 75 79 70 80 71 81 72 82 73 83 74 84 53 85 54 86 62 87 55 88
REMARK SMILES IDX 61 89 56 90 57 91 58 92 59 93 60 94
REMARK H PARENT 18 7 11 16 4 19 25 31 81 50 51 61
REMARK Flexibility Score: inf
ROOT
ATOM      1  C   UNL A   1      43.630  22.648  29.093  1.00  0.00     0.002 C 
ENDROOT
BRANCH   1   2
ATOM      2  C   UNL A   1      44.704  23.597  28.542  1.00  0.00     0.021 C 
BRANCH   2   3
ATOM      3  C   UNL A   1      45.021  23.391  27.061  1.00  0.00     0.116 C 
BRANCH   3   4
ATOM      4  N   UNL A   1      44.275  24.327  26.235  1.00  0.00    -0.356 N 
ATOM      5  C   UNL A   1      44.631  25.544  25.736  1.00  0.00     0.227 C 
ATOM      6  O   UNL A   1      43.769  26.211  25.157  1.00  0.00    -0.274 OA
ATOM      7  H   UNL A   1      43.366  24.033  25.998  1.00  0.00     0.163 HD
BRANCH   5   8
ATOM      8  C   UNL A   1      46.080  26.016  25.846  1.00  0.00     0.103 C 
ATOM      9  C   UNL A   1      46.542  28.302  26.656  1.00  0.00     0.106 C 
ATOM     10  C   UNL A   1      46.593  28.211  25.168  1.00  0.00    -0.006 C 
ATOM     11  C   UNL A   1      46.315  26.854  27.112  1.00  0.00     0.047 C 
ATOM     12  C   UNL A   1      46.357  26.972  24.725  1.00  0.00    -0.016 C 
BRANCH   9  13
ATOM     13  N   UNL A   1      45.453  29.166  27.018  1.00  0.00    -0.348 N 
ATOM     14  O   UNL A   1      46.667  31.124  27.016  1.00  0.00    -0.273 OA
ATOM     15  C   UNL A   1      45.603  30.530  27.169  1.00  0.00     0.239 C 
ATOM     16  H   UNL A   1      44.563  28.769  27.165  1.00  0.00     0.164 HD
BRANCH  15  17
ATOM     17  C   UNL A   1      44.319  31.239  27.615  1.00  0.00     0.213 C 
BRANCH  17  18
ATOM     18  N   UNL A   1      44.615  32.622  27.969  1.00  0.00    -0.376 N 
ATOM     19  H   UNL A   1      45.430  32.797  28.492  1.00  0.00     0.161 HD
BRANCH  18  20
ATOM     20  C   UNL A   1      43.831  33.701  27.623  1.00  0.00     0.034 A 
ATOM     21  C   UNL A   1      43.174  34.405  28.639  1.00  0.00     0.026 A 
ATOM     22  C   UNL A   1      43.728  34.192  26.318  1.00  0.00     0.026 A 
ATOM     23  C   UNL A   1      42.449  35.567  28.368  1.00  0.00     0.002 A 
ATOM     24  C   UNL A   1      42.995  35.351  26.036  1.00  0.00     0.002 A 
ATOM     25  C   UNL A   1      42.361  36.043  27.064  1.00  0.00     0.000 A 
ENDBRANCH  18  20
ENDBRANCH  17  18
ENDBRANCH  15  17
ENDBRANCH   9  13
ENDBRANCH   5   8
ENDBRANCH   3   4
ENDBRANCH   2   3
ENDBRANCH   1   2
BRANCH   1  26
ATOM     26  C   UNL A   1      42.189  23.006  28.710  1.00  0.00     0.002 C 
BRANCH  26  27
ATOM     27  C   UNL A   1      41.436  21.923  27.935  1.00  0.00     0.021 C 
BRANCH  27  28
ATOM     28  C   UNL A   1      41.393  22.134  26.425  1.00  0.00     0.116 C 
BRANCH  28  29
ATOM     29  N   UNL A   1      40.030  22.173  25.916  1.00  0.00    -0.352 N 
ATOM     30  C   UNL A   1      39.059  23.123  26.106  1.00  0.00     0.251 C 
ATOM     31  H   UNL A   1      39.768  21.408  25.353  1.00  0.00     0.163 HD
ATOM     32  O   UNL A   1      37.902  22.895  25.759  1.00  0.00    -0.269 OA
BRANCH  30  33
ATOM     33  C   UNL A   1      39.401  24.412  26.746  1.00  0.00     0.039 A 
ATOM     34  C   UNL A   1      38.948  24.667  28.042  1.00  0.00     0.014 A 
ATOM     35  C   UNL A   1      40.167  25.366  26.070  1.00  0.00     0.014 A 
ATOM     36  C   UNL A   1      39.316  25.853  28.683  1.00  0.00     0.010 A 
ATOM     37  C   UNL A   1      40.596  26.510  26.737  1.00  0.00     0.010 A 
ATOM     38  C   UNL A   1      40.172  26.768  28.050  1.00  0.00    -0.014 A 
BRANCH  38  39
ATOM     39  C   UNL A   1      40.641  27.995  28.746  1.00  0.00     0.031 A 
ATOM     40  C   UNL A   1      42.037  28.064  29.307  1.00  0.00     0.074 A 
ATOM     41  C   UNL A   1      39.790  29.025  28.927  1.00  0.00     0.049 A 
ATOM     42  N   UNL A   1      42.607  29.031  29.979  1.00  0.00    -0.248 NA
ATOM     43  C   UNL A   1      42.895  26.885  29.106  1.00  0.00     0.031 C 
ATOM     44  C   UNL A   1      38.402  29.069  28.461  1.00  0.00     0.029 A 
ATOM     45  N   UNL A   1      39.966  30.235  29.552  1.00  0.00    -0.354 N 
ATOM     46  C   UNL A   1      43.880  28.570  30.301  1.00  0.00     0.074 A 
ATOM     47  C   UNL A   1      43.980  27.220  29.790  1.00  0.00     0.031 C 
ATOM     48  C   UNL A   1      37.866  30.257  28.784  1.00  0.00     0.029 A 
ATOM     49  C   UNL A   1      38.852  31.040  29.521  1.00  0.00     0.049 A 
ATOM     50  H   UNL A   1      40.810  30.500  29.983  1.00  0.00     0.167 HD
ATOM     51  C   UNL A   1      44.880  29.217  30.946  1.00  0.00     0.031 A 
ATOM     52  C   UNL A   1      38.643  32.270  30.032  1.00  0.00     0.031 A 
ATOM     53  C   UNL A   1      44.777  30.563  31.445  1.00  0.00     0.049 A 
ATOM     54  C   UNL A   1      39.762  32.958  30.767  1.00  0.00     0.074 A 
ATOM     55  C   UNL A   1      45.755  31.329  32.055  1.00  0.00     0.029 A 
ATOM     56  N   UNL A   1      43.630  31.341  31.401  1.00  0.00    -0.354 N 
ATOM     57  N   UNL A   1      40.983  32.534  30.993  1.00  0.00    -0.248 NA
ATOM     58  C   UNL A   1      39.477  34.293  31.307  1.00  0.00     0.031 C 
ATOM     59  C   UNL A   1      45.180  32.544  32.442  1.00  0.00     0.029 A 
ATOM     60  C   UNL A   1      43.865  32.565  32.006  1.00  0.00     0.049 A 
ATOM     61  H   UNL A   1      42.775  31.064  31.000  1.00  0.00     0.167 HD
ATOM     62  C   UNL A   1      41.621  33.566  31.672  1.00  0.00     0.074 A 
ATOM     63  C   UNL A   1      40.656  34.637  31.808  1.00  0.00     0.031 C 
ATOM     64  C   UNL A   1      42.893  33.623  32.137  1.00  0.00     0.031 A 
BRANCH  51  65
ATOM     65  C   UNL A   1      46.169  28.467  31.169  1.00  0.00    -0.014 A 
ATOM     66  C   UNL A   1      47.211  28.502  30.226  1.00  0.00     0.010 A 
ATOM     67  C   UNL A   1      46.355  27.746  32.363  1.00  0.00     0.010 A 
ATOM     68  C   UNL A   1      48.395  27.793  30.448  1.00  0.00     0.020 A 
ATOM     69  C   UNL A   1      47.551  27.062  32.605  1.00  0.00     0.020 A 
ATOM     70  C   UNL A   1      48.555  27.075  31.637  1.00  0.00     0.054 A 
BRANCH  70  71
ATOM     71  S   UNL A   1      50.107  26.175  31.906  1.00  0.00     0.124 S 
ATOM     72  O   UNL A   1      50.067  25.932  33.345  1.00  0.00    -0.237 OA
ATOM     73  O   UNL A   1      49.941  24.994  31.064  1.00  0.00    -0.237 OA
ATOM     74  O   UNL A   1      51.134  27.114  31.462  1.00  0.00    -0.744 OA
ENDBRANCH  70  71
ENDBRANCH  51  65
BRANCH  52  75
ATOM     75  C   UNL A   1      37.325  32.939  29.850  1.00  0.00    -0.014 A 
ATOM     76  C   UNL A   1      37.020  33.593  28.642  1.00  0.00     0.010 A 
ATOM     77  C   UNL A   1      36.365  32.922  30.877  1.00  0.00     0.010 A 
ATOM     78  C   UNL A   1      35.788  34.232  28.473  1.00  0.00     0.020 A 
ATOM     79  C   UNL A   1      35.120  33.533  30.701  1.00  0.00     0.020 A 
ATOM     80  C   UNL A   1      34.845  34.195  29.503  1.00  0.00     0.054 A 
BRANCH  80  81
ATOM     81  S   UNL A   1      33.234  34.989  29.241  1.00  0.00     0.124 S 
ATOM     82  O   UNL A   1      32.620  34.112  28.250  1.00  0.00    -0.237 OA
ATOM     83  O   UNL A   1      32.644  34.949  30.577  1.00  0.00    -0.237 OA
ATOM     84  O   UNL A   1      33.586  36.325  28.765  1.00  0.00    -0.744 OA
ENDBRANCH  80  81
ENDBRANCH  52  75
BRANCH  64  85
ATOM     85  C   UNL A   1      43.335  34.901  32.805  1.00  0.00    -0.014 A 
ATOM     86  C   UNL A   1      43.803  35.995  32.057  1.00  0.00     0.010 A 
ATOM     87  C   UNL A   1      43.224  35.024  34.202  1.00  0.00     0.010 A 
ATOM     88  C   UNL A   1      44.184  37.177  32.697  1.00  0.00     0.020 A 
ATOM     89  C   UNL A   1      43.573  36.215  34.843  1.00  0.00     0.020 A 
ATOM     90  C   UNL A   1      44.066  37.280  34.087  1.00  0.00     0.054 A 
BRANCH  90  91
ATOM     91  S   UNL A   1      44.524  38.841  34.889  1.00  0.00     0.124 S 
ATOM     92  O   UNL A   1      45.907  39.013  34.452  1.00  0.00    -0.237 OA
ATOM     93  O   UNL A   1      43.564  39.785  34.322  1.00  0.00    -0.237 OA
ATOM     94  O   UNL A   1      44.351  38.563  36.313  1.00  0.00    -0.744 OA
ENDBRANCH  90  91
ENDBRANCH  64  85
ENDBRANCH  38  39
ENDBRANCH  30  33
ENDBRANCH  28  29
ENDBRANCH  27  28
ENDBRANCH  26  27
ENDBRANCH   1  26
TORSDOF 20
ENDMDL
MODEL 3
REMARK VINA RESULT:     -10.1      2.106      8.769
REMARK SMILES O=C(CNc1ccccc1)N[C@@H]1C=C[C@H](C(=O)NCCCCCCNC(=O)c2ccc(-c3c4nc(c(-c5ccc(S(=O)(=O)[O-])cc5)c5ccc([nH]5)c(-c5ccc(S(=O)(=O)[O-])cc5)c5nc(c(-c6ccc(S(=O)(=O)[O-])cc6)c6ccc3[nH]6)C=C5)C=C4)cc2)C1
REMARK SMILES IDX 21 1 20 2 19 3 18 4 16 5 17 6 15 8 12 9 13 10 88 11 14 12
REMARK SMILES IDX 11 13 1 14 2 15 3 17 4 18 5 20 6 21 10 22 7 23 9 24 8 25
REMARK SMILES IDX 22 26 23 27 24 28 25 29 26 30 27 32 28 33 29 34 87 35 30 36
REMARK SMILES IDX 86 37 31 38 32 39 33 40 80 41 34 42 85 43 79 44 81 45 35 46
REMARK SMILES IDX 84 47 78 48 77 49 36 51 66 52 47 53 65 54 48 55 51 56 64 57
REMARK SMILES IDX 82 58 49 59 50 60 63 62 83 63 52 64 37 65 38 66 46 67 39 68
REMARK SMILES IDX 45 69 40 70 41 71 42 72 43 73 44 74 67 75 68 76 76 77 69 78
REMARK SMILES IDX 75 79 70 80 71 81 72 82 73 83 74 84 53 85 54 86 62 87 55 88
REMARK SMILES IDX 61 89 56 90 57 91 58 92 59 93 60 94
REMARK H PARENT 18 7 11 16 4 19 25 31 81 50 51 61
REMARK Flexibility Score: inf
ROOT
ATOM      1  C   UNL A   1      34.489  32.346  28.076  1.00  0.00     0.002 C 
ENDROOT
BRANCH   1   2
ATOM      2  C   UNL A   1      34.298  30.850  27.787  1.00  0.00     0.021 C 
BRANCH   2   3
ATOM      3  C   UNL A   1      32.924  30.493  27.219  1.00  0.00     0.116 C 
BRANCH   3   4
ATOM      4  N   UNL A   1      32.775  29.053  27.083  1.00  0.00    -0.356 N 
ATOM      5  C   UNL A   1      32.331  28.305  26.034  1.00  0.00     0.227 C 
ATOM      6  O   UNL A   1      32.178  27.093  26.206  1.00  0.00    -0.274 OA
ATOM      7  H   UNL A   1      33.038  28.535  27.877  1.00  0.00     0.163 HD
BRANCH   5   8
ATOM      8  C   UNL A   1      32.099  28.965  24.675  1.00  0.00     0.103 C 
ATOM      9  C   UNL A   1      32.166  27.576  22.636  1.00  0.00     0.106 C 
ATOM     10  C   UNL A   1      33.450  28.299  22.867  1.00  0.00    -0.006 C 
ATOM     11  C   UNL A   1      31.243  28.088  23.750  1.00  0.00     0.047 C 
ATOM     12  C   UNL A   1      33.414  29.063  23.962  1.00  0.00    -0.016 C 
BRANCH   9  13
ATOM     13  N   UNL A   1      32.418  26.165  22.740  1.00  0.00    -0.348 N 
ATOM     14  O   UNL A   1      33.193  25.884  20.589  1.00  0.00    -0.273 OA
ATOM     15  C   UNL A   1      32.922  25.420  21.693  1.00  0.00     0.239 C 
ATOM     16  H   UNL A   1      32.222  25.712  23.592  1.00  0.00     0.164 HD
BRANCH  15  17
ATOM     17  C   UNL A   1      33.054  23.927  22.015  1.00  0.00     0.213 C 
BRANCH  17  18
ATOM     18  N   UNL A   1      33.892  23.748  23.195  1.00  0.00    -0.376 N 
ATOM     19  H   UNL A   1      34.355  24.539  23.554  1.00  0.00     0.161 HD
BRANCH  18  20
ATOM     20  C   UNL A   1      34.080  22.546  23.843  1.00  0.00     0.034 A 
ATOM     21  C   UNL A   1      32.995  21.669  23.955  1.00  0.00     0.026 A 
ATOM     22  C   UNL A   1      35.322  22.111  24.316  1.00  0.00     0.026 A 
ATOM     23  C   UNL A   1      33.142  20.395  24.507  1.00  0.00     0.002 A 
ATOM     24  C   UNL A   1      35.476  20.838  24.879  1.00  0.00     0.002 A 
ATOM     25  C   UNL A   1      34.386  19.977  24.967  1.00  0.00     0.000 A 
ENDBRANCH  18  20
ENDBRANCH  17  18
ENDBRANCH  15  17
ENDBRANCH   9  13
ENDBRANCH   5   8
ENDBRANCH   3   4
ENDBRANCH   2   3
ENDBRANCH   1   2
BRANCH   1  26
ATOM     26  C   UNL A   1      35.938  32.842  28.004  1.00  0.00     0.002 C 
BRANCH  26  27
ATOM     27  C   UNL A   1      36.415  33.629  29.225  1.00  0.00     0.021 C 
BRANCH  27  28
ATOM     28  C   UNL A   1      37.233  32.819  30.225  1.00  0.00     0.116 C 
BRANCH  28  29
ATOM     29  N   UNL A   1      36.489  31.684  30.752  1.00  0.00    -0.352 N 
ATOM     30  C   UNL A   1      36.775  30.345  30.670  1.00  0.00     0.251 C 
ATOM     31  H   UNL A   1      35.663  31.911  31.237  1.00  0.00     0.163 HD
ATOM     32  O   UNL A   1      35.930  29.517  31.005  1.00  0.00    -0.269 OA
BRANCH  30  33
ATOM     33  C   UNL A   1      38.089  29.899  30.159  1.00  0.00     0.039 A 
ATOM     34  C   UNL A   1      38.298  29.845  28.779  1.00  0.00     0.014 A 
ATOM     35  C   UNL A   1      39.113  29.537  31.038  1.00  0.00     0.014 A 
ATOM     36  C   UNL A   1      39.553  29.486  28.282  1.00  0.00     0.010 A 
ATOM     37  C   UNL A   1      40.384  29.255  30.544  1.00  0.00     0.010 A 
ATOM     38  C   UNL A   1      40.618  29.223  29.160  1.00  0.00    -0.014 A 
BRANCH  38  39
ATOM     39  C   UNL A   1      41.981  28.920  28.651  1.00  0.00     0.031 A 
ATOM     40  C   UNL A   1      42.328  27.529  28.189  1.00  0.00     0.074 A 
ATOM     41  C   UNL A   1      42.925  29.882  28.662  1.00  0.00     0.049 A 
ATOM     42  N   UNL A   1      43.472  27.067  27.754  1.00  0.00    -0.248 NA
ATOM     43  C   UNL A   1      41.256  26.521  28.244  1.00  0.00     0.031 C 
ATOM     44  C   UNL A   1      42.726  31.260  29.117  1.00  0.00     0.029 A 
ATOM     45  N   UNL A   1      44.244  29.849  28.281  1.00  0.00    -0.354 N 
ATOM     46  C   UNL A   1      43.265  25.715  27.504  1.00  0.00     0.074 A 
ATOM     47  C   UNL A   1      41.900  25.421  27.883  1.00  0.00     0.031 C 
ATOM     48  C   UNL A   1      43.867  31.948  28.953  1.00  0.00     0.029 A 
ATOM     49  C   UNL A   1      44.893  31.051  28.430  1.00  0.00     0.049 A 
ATOM     50  H   UNL A   1      44.683  29.039  27.934  1.00  0.00     0.167 HD
ATOM     51  C   UNL A   1      44.127  24.804  26.992  1.00  0.00     0.031 A 
ATOM     52  C   UNL A   1      46.172  31.396  28.180  1.00  0.00     0.031 A 
ATOM     53  C   UNL A   1      45.482  25.103  26.611  1.00  0.00     0.049 A 
ATOM     54  C   UNL A   1      47.117  30.360  27.635  1.00  0.00     0.074 A 
ATOM     55  C   UNL A   1      46.414  24.266  26.023  1.00  0.00     0.029 A 
ATOM     56  N   UNL A   1      46.103  26.331  26.787  1.00  0.00    -0.354 N 
ATOM     57  N   UNL A   1      46.880  29.105  27.335  1.00  0.00    -0.248 NA
ATOM     58  C   UNL A   1      48.499  30.789  27.386  1.00  0.00     0.031 C 
ATOM     59  C   UNL A   1      47.619  24.966  25.906  1.00  0.00     0.029 A 
ATOM     60  C   UNL A   1      47.417  26.262  26.352  1.00  0.00     0.049 A 
ATOM     61  H   UNL A   1      45.674  27.132  27.164  1.00  0.00     0.167 HD
ATOM     62  C   UNL A   1      48.076  28.605  26.830  1.00  0.00     0.074 A 
ATOM     63  C   UNL A   1      49.028  29.695  26.853  1.00  0.00     0.031 C 
ATOM     64  C   UNL A   1      48.357  27.356  26.383  1.00  0.00     0.031 A 
BRANCH  51  65
ATOM     65  C   UNL A   1      43.635  23.387  26.835  1.00  0.00    -0.014 A 
ATOM     66  C   UNL A   1      43.098  22.672  27.920  1.00  0.00     0.010 A 
ATOM     67  C   UNL A   1      43.675  22.775  25.569  1.00  0.00     0.010 A 
ATOM     68  C   UNL A   1      42.655  21.357  27.754  1.00  0.00     0.020 A 
ATOM     69  C   UNL A   1      43.202  21.470  25.391  1.00  0.00     0.020 A 
ATOM     70  C   UNL A   1      42.713  20.764  26.490  1.00  0.00     0.054 A 
BRANCH  70  71
ATOM     71  S   UNL A   1      42.118  19.060  26.301  1.00  0.00     0.124 S 
ATOM     72  O   UNL A   1      42.263  18.540  27.658  1.00  0.00    -0.237 OA
ATOM     73  O   UNL A   1      40.745  19.251  25.844  1.00  0.00    -0.237 OA
ATOM     74  O   UNL A   1      43.026  18.483  25.313  1.00  0.00    -0.744 OA
ENDBRANCH  70  71
ENDBRANCH  51  65
BRANCH  52  75
ATOM     75  C   UNL A   1      46.630  32.792  28.424  1.00  0.00    -0.014 A 
ATOM     76  C   UNL A   1      46.552  33.756  27.402  1.00  0.00     0.010 A 
ATOM     77  C   UNL A   1      47.139  33.170  29.679  1.00  0.00     0.010 A 
ATOM     78  C   UNL A   1      46.992  35.064  27.625  1.00  0.00     0.020 A 
ATOM     79  C   UNL A   1      47.551  34.485  29.916  1.00  0.00     0.020 A 
ATOM     80  C   UNL A   1      47.485  35.420  28.883  1.00  0.00     0.054 A 
BRANCH  80  81
ATOM     81  S   UNL A   1      48.004  37.136  29.163  1.00  0.00     0.124 S 
ATOM     82  O   UNL A   1      49.275  37.191  28.447  1.00  0.00    -0.237 OA
ATOM     83  O   UNL A   1      46.907  37.897  28.568  1.00  0.00    -0.237 OA
ATOM     84  O   UNL A   1      48.100  37.232  30.618  1.00  0.00    -0.744 OA
ENDBRANCH  80  81
ENDBRANCH  52  75
BRANCH  64  85
ATOM     85  C   UNL A   1      49.742  27.105  25.843  1.00  0.00    -0.014 A 
ATOM     86  C   UNL A   1      50.772  26.615  26.664  1.00  0.00     0.010 A 
ATOM     87  C   UNL A   1      49.997  27.313  24.475  1.00  0.00     0.010 A 
ATOM     88  C   UNL A   1      52.042  26.369  26.134  1.00  0.00     0.020 A 
ATOM     89  C   UNL A   1      51.255  27.037  23.934  1.00  0.00     0.020 A 
ATOM     90  C   UNL A   1      52.275  26.580  24.771  1.00  0.00     0.054 A 
BRANCH  90  91
ATOM     91  S   UNL A   1      53.918  26.210  24.100  1.00  0.00     0.124 S 
ATOM     92  O   UNL A   1      54.709  27.333  24.594  1.00  0.00    -0.237 OA
ATOM     93  O   UNL A   1      54.224  24.913  24.700  1.00  0.00    -0.237 OA
ATOM     94  O   UNL A   1      53.705  26.186  22.654  1.00  0.00    -0.744 OA
ENDBRANCH  90  91
ENDBRANCH  64  85
ENDBRANCH  38  39
ENDBRANCH  30  33
ENDBRANCH  28  29
ENDBRANCH  27  28
ENDBRANCH  26  27
ENDBRANCH   1  26
TORSDOF 20
ENDMDL
