MODEL 1
REMARK VINA RESULT:     -11.4      0.000      0.000
REMARK SMILES C[C@@H](C(=O)NCCCCCCNC(=O)c1ccc(-c2c3nc(c(-c4ccc(S(=O)(=O)[O-])cc4)c4ccc([nH]4)c(-c4ccc(S(=O)(=O)[O-])cc4)c4nc(c(-c5ccc(S(=O)(=O)[O-])cc5)c5ccc2[nH]5)C=C4)C=C3)cc1)c1ccc2c3cc(Cl)ccc3n(C(=O)c3ccc(Cl)cc3)c2c1
REMARK SMILES IDX 8 1 7 2 6 3 5 4 3 5 4 6 2 8 1 9 75 10 76 11 97 12 77 13
REMARK SMILES IDX 96 14 78 15 86 16 79 17 85 18 80 19 84 20 81 21 83 22 82 23
REMARK SMILES IDX 87 24 88 25 89 26 90 27 95 28 91 29 94 30 92 31 93 32 9 33
REMARK SMILES IDX 10 34 11 35 12 36 13 37 14 39 15 40 16 41 74 42 17 43 73 44
REMARK SMILES IDX 18 45 19 46 20 47 67 48 21 49 72 50 66 51 68 52 22 53 71 54
REMARK SMILES IDX 65 55 64 56 23 58 53 59 34 60 52 61 35 62 38 63 51 64 69 65
REMARK SMILES IDX 36 66 37 67 50 69 70 70 39 71 24 72 25 73 33 74 26 75 32 76
REMARK SMILES IDX 27 77 28 78 29 79 30 80 31 81 54 82 55 83 63 84 56 85 62 86
REMARK SMILES IDX 57 87 58 88 59 89 60 90 61 91 40 92 41 93 49 94 42 95 48 96
REMARK SMILES IDX 43 97 44 98 45 99 46 100 47 101
REMARK H PARENT 5 7 12 38 68 57 38 68
REMARK Flexibility Score: inf
ROOT
ATOM      1  C   UNL A   1      33.800  30.798  27.382  1.00  0.00     0.002 C 
ENDROOT
BRANCH   1   2
ATOM      2  C   UNL A   1      34.550  29.532  26.946  1.00  0.00     0.021 C 
BRANCH   2   3
ATOM      3  C   UNL A   1      33.655  28.295  26.835  1.00  0.00     0.116 C 
BRANCH   3   4
ATOM      4  N   UNL A   1      32.552  28.564  25.938  1.00  0.00    -0.356 N 
ATOM      5  C   UNL A   1      32.490  28.457  24.581  1.00  0.00     0.227 C 
ATOM      6  O   UNL A   1      31.504  28.955  24.033  1.00  0.00    -0.274 OA
ATOM      7  H   UNL A   1      31.724  28.871  26.372  1.00  0.00     0.163 HD
BRANCH   5   8
ATOM      8  C   UNL A   1      33.591  27.688  23.833  1.00  0.00     0.105 C 
ATOM      9  C   UNL A   1      33.844  28.166  22.400  1.00  0.00     0.023 C 
BRANCH   8  10
ATOM     10  C   UNL A   1      33.334  26.188  23.769  1.00  0.00    -0.034 A 
ATOM     11  C   UNL A   1      32.378  25.657  22.900  1.00  0.00     0.005 A 
ATOM     12  C   UNL A   1      34.127  25.326  24.539  1.00  0.00     0.032 A 
ATOM     13  C   UNL A   1      32.240  24.279  22.745  1.00  0.00     0.011 A 
ATOM     14  C   UNL A   1      33.945  23.933  24.428  1.00  0.00     0.057 A 
ATOM     15  C   UNL A   1      33.050  23.410  23.502  1.00  0.00     0.008 A 
ATOM     16  N   UNL A   1      34.564  22.869  25.105  1.00  0.00    -0.276 N 
ATOM     17  C   UNL A   1      33.153  21.999  23.563  1.00  0.00     0.009 A 
ATOM     18  C   UNL A   1      34.008  21.672  24.625  1.00  0.00     0.057 A 
ATOM     19  C   UNL A   1      32.512  20.984  22.823  1.00  0.00     0.031 A 
ATOM     20  C   UNL A   1      34.099  20.335  25.060  1.00  0.00     0.029 A 
ATOM     21  C   UNL A   1      32.659  19.661  23.217  1.00  0.00     0.041 A 
ATOM     22  C   UNL A   1      33.415  19.342  24.338  1.00  0.00     0.023 A 
ATOM     23  Cl  UNL A   1      31.854  18.424  22.332  1.00  0.00    -0.084 Cl
BRANCH  16  24
ATOM     24  C   UNL A   1      35.518  23.073  26.141  1.00  0.00     0.262 C 
ATOM     25  O   UNL A   1      35.052  23.403  27.235  1.00  0.00    -0.268 OA
BRANCH  24  26
ATOM     26  C   UNL A   1      37.010  22.998  26.100  1.00  0.00     0.040 A 
ATOM     27  C   UNL A   1      37.568  21.751  25.738  1.00  0.00     0.015 A 
ATOM     28  C   UNL A   1      37.874  24.009  26.527  1.00  0.00     0.015 A 
ATOM     29  C   UNL A   1      38.944  21.523  25.782  1.00  0.00     0.021 A 
ATOM     30  C   UNL A   1      39.262  23.791  26.540  1.00  0.00     0.021 A 
ATOM     31  C   UNL A   1      39.789  22.550  26.176  1.00  0.00     0.041 A 
ATOM     32  Cl  UNL A   1      41.486  22.279  26.240  1.00  0.00    -0.084 Cl
ENDBRANCH  24  26
ENDBRANCH  16  24
ENDBRANCH   8  10
ENDBRANCH   5   8
ENDBRANCH   3   4
ENDBRANCH   2   3
ENDBRANCH   1   2
BRANCH   1  33
ATOM     33  C   UNL A   1      34.568  31.689  28.361  1.00  0.00     0.002 C 
BRANCH  33  34
ATOM     34  C   UNL A   1      35.939  32.148  27.859  1.00  0.00     0.021 C 
BRANCH  34  35
ATOM     35  C   UNL A   1      37.112  31.636  28.689  1.00  0.00     0.116 C 
BRANCH  35  36
ATOM     36  N   UNL A   1      36.670  30.760  29.762  1.00  0.00    -0.352 N 
ATOM     37  C   UNL A   1      37.234  29.592  30.216  1.00  0.00     0.251 C 
ATOM     38  H   UNL A   1      35.852  31.045  30.231  1.00  0.00     0.163 HD
ATOM     39  O   UNL A   1      36.613  28.864  30.979  1.00  0.00    -0.269 OA
BRANCH  37  40
ATOM     40  C   UNL A   1      38.587  29.213  29.755  1.00  0.00     0.039 A 
ATOM     41  C   UNL A   1      38.911  29.385  28.408  1.00  0.00     0.014 A 
ATOM     42  C   UNL A   1      39.533  28.709  30.652  1.00  0.00     0.014 A 
ATOM     43  C   UNL A   1      40.213  29.126  27.976  1.00  0.00     0.010 A 
ATOM     44  C   UNL A   1      40.848  28.518  30.234  1.00  0.00     0.010 A 
ATOM     45  C   UNL A   1      41.205  28.737  28.895  1.00  0.00    -0.014 A 
BRANCH  45  46
ATOM     46  C   UNL A   1      42.626  28.616  28.479  1.00  0.00     0.031 A 
ATOM     47  C   UNL A   1      43.562  29.788  28.601  1.00  0.00     0.074 A 
ATOM     48  C   UNL A   1      43.052  27.462  27.925  1.00  0.00     0.049 A 
ATOM     49  N   UNL A   1      44.816  29.875  28.237  1.00  0.00    -0.248 NA
ATOM     50  C   UNL A   1      43.020  31.025  29.184  1.00  0.00     0.031 C 
ATOM     51  C   UNL A   1      42.225  26.270  27.710  1.00  0.00     0.029 A 
ATOM     52  N   UNL A   1      44.281  27.102  27.429  1.00  0.00    -0.354 N 
ATOM     53  C   UNL A   1      45.208  31.176  28.533  1.00  0.00     0.074 A 
ATOM     54  C   UNL A   1      44.051  31.853  29.075  1.00  0.00     0.031 C 
ATOM     55  C   UNL A   1      42.974  25.309  27.147  1.00  0.00     0.029 A 
ATOM     56  C   UNL A   1      44.317  25.826  26.914  1.00  0.00     0.049 A 
ATOM     57  H   UNL A   1      45.062  27.701  27.441  1.00  0.00     0.167 HD
ATOM     58  C   UNL A   1      46.426  31.747  28.376  1.00  0.00     0.031 A 
ATOM     59  C   UNL A   1      45.312  25.153  26.302  1.00  0.00     0.031 A 
ATOM     60  C   UNL A   1      47.579  31.062  27.852  1.00  0.00     0.049 A 
ATOM     61  C   UNL A   1      46.648  25.825  26.127  1.00  0.00     0.074 A 
ATOM     62  C   UNL A   1      48.874  31.536  27.733  1.00  0.00     0.029 A 
ATOM     63  N   UNL A   1      47.577  29.771  27.349  1.00  0.00    -0.354 N 
ATOM     64  N   UNL A   1      47.024  27.021  26.509  1.00  0.00    -0.248 NA
ATOM     65  C   UNL A   1      47.695  25.054  25.442  1.00  0.00     0.031 C 
ATOM     66  C   UNL A   1      49.640  30.557  27.092  1.00  0.00     0.029 A 
ATOM     67  C   UNL A   1      48.839  29.449  26.875  1.00  0.00     0.049 A 
ATOM     68  H   UNL A   1      46.796  29.172  27.330  1.00  0.00     0.167 HD
ATOM     69  C   UNL A   1      48.356  27.137  26.129  1.00  0.00     0.074 A 
ATOM     70  C   UNL A   1      48.728  25.880  25.514  1.00  0.00     0.031 C 
ATOM     71  C   UNL A   1      49.195  28.193  26.265  1.00  0.00     0.031 A 
BRANCH  58  72
ATOM     72  C   UNL A   1      46.593  33.192  28.768  1.00  0.00    -0.014 A 
ATOM     73  C   UNL A   1      47.222  33.552  29.973  1.00  0.00     0.010 A 
ATOM     74  C   UNL A   1      46.222  34.202  27.861  1.00  0.00     0.010 A 
ATOM     75  C   UNL A   1      47.469  34.896  30.266  1.00  0.00     0.020 A 
ATOM     76  C   UNL A   1      46.489  35.545  28.139  1.00  0.00     0.020 A 
ATOM     77  C   UNL A   1      47.108  35.884  29.343  1.00  0.00     0.054 A 
BRANCH  77  78
ATOM     78  S   UNL A   1      47.516  37.612  29.717  1.00  0.00     0.124 S 
ATOM     79  O   UNL A   1      48.279  37.480  30.956  1.00  0.00    -0.237 OA
ATOM     80  O   UNL A   1      48.288  38.016  28.545  1.00  0.00    -0.237 OA
ATOM     81  O   UNL A   1      46.213  38.255  29.855  1.00  0.00    -0.744 OA
ENDBRANCH  77  78
ENDBRANCH  58  72
BRANCH  59  82
ATOM     82  C   UNL A   1      45.082  23.777  25.779  1.00  0.00    -0.014 A 
ATOM     83  C   UNL A   1      45.222  22.654  26.613  1.00  0.00     0.010 A 
ATOM     84  C   UNL A   1      44.759  23.583  24.422  1.00  0.00     0.010 A 
ATOM     85  C   UNL A   1      45.087  21.364  26.092  1.00  0.00     0.020 A 
ATOM     86  C   UNL A   1      44.588  22.296  23.907  1.00  0.00     0.020 A 
ATOM     87  C   UNL A   1      44.776  21.192  24.740  1.00  0.00     0.054 A 
BRANCH  87  88
ATOM     88  S   UNL A   1      44.603  19.510  24.085  1.00  0.00     0.124 S 
ATOM     89  O   UNL A   1      43.412  19.036  24.781  1.00  0.00    -0.237 OA
ATOM     90  O   UNL A   1      44.450  19.744  22.651  1.00  0.00    -0.237 OA
ATOM     91  O   UNL A   1      45.855  18.864  24.474  1.00  0.00    -0.744 OA
ENDBRANCH  87  88
ENDBRANCH  59  82
BRANCH  71  92
ATOM     92  C   UNL A   1      50.605  28.031  25.762  1.00  0.00    -0.014 A 
ATOM     93  C   UNL A   1      51.630  27.573  26.607  1.00  0.00     0.010 A 
ATOM     94  C   UNL A   1      50.896  28.287  24.409  1.00  0.00     0.010 A 
ATOM     95  C   UNL A   1      52.927  27.404  26.118  1.00  0.00     0.020 A 
ATOM     96  C   UNL A   1      52.185  28.088  23.907  1.00  0.00     0.020 A 
ATOM     97  C   UNL A   1      53.196  27.660  24.769  1.00  0.00     0.054 A 
BRANCH  97  98
ATOM     98  S   UNL A   1      54.878  27.384  24.151  1.00  0.00     0.124 S 
ATOM     99  O   UNL A   1      54.700  26.210  23.301  1.00  0.00    -0.237 OA
ATOM    100  O   UNL A   1      55.169  28.631  23.448  1.00  0.00    -0.237 OA
ATOM    101  O   UNL A   1      55.662  27.162  25.363  1.00  0.00    -0.744 OA
ENDBRANCH  97  98
ENDBRANCH  71  92
ENDBRANCH  45  46
ENDBRANCH  37  40
ENDBRANCH  35  36
ENDBRANCH  34  35
ENDBRANCH  33  34
ENDBRANCH   1  33
TORSDOF 19
ENDMDL
MODEL 2
REMARK VINA RESULT:     -11.2      6.128      8.244
REMARK SMILES C[C@@H](C(=O)NCCCCCCNC(=O)c1ccc(-c2c3nc(c(-c4ccc(S(=O)(=O)[O-])cc4)c4ccc([nH]4)c(-c4ccc(S(=O)(=O)[O-])cc4)c4nc(c(-c5ccc(S(=O)(=O)[O-])cc5)c5ccc2[nH]5)C=C4)C=C3)cc1)c1ccc2c3cc(Cl)ccc3n(C(=O)c3ccc(Cl)cc3)c2c1
REMARK SMILES IDX 8 1 7 2 6 3 5 4 3 5 4 6 2 8 1 9 75 10 76 11 97 12 77 13
REMARK SMILES IDX 96 14 78 15 86 16 79 17 85 18 80 19 84 20 81 21 83 22 82 23
REMARK SMILES IDX 87 24 88 25 89 26 90 27 95 28 91 29 94 30 92 31 93 32 9 33
REMARK SMILES IDX 10 34 11 35 12 36 13 37 14 39 15 40 16 41 74 42 17 43 73 44
REMARK SMILES IDX 18 45 19 46 20 47 67 48 21 49 72 50 66 51 68 52 22 53 71 54
REMARK SMILES IDX 65 55 64 56 23 58 53 59 34 60 52 61 35 62 38 63 51 64 69 65
REMARK SMILES IDX 36 66 37 67 50 69 70 70 39 71 24 72 25 73 33 74 26 75 32 76
REMARK SMILES IDX 27 77 28 78 29 79 30 80 31 81 54 82 55 83 63 84 56 85 62 86
REMARK SMILES IDX 57 87 58 88 59 89 60 90 61 91 40 92 41 93 49 94 42 95 48 96
REMARK SMILES IDX 43 97 44 98 45 99 46 100 47 101
REMARK H PARENT 5 7 12 38 68 57 38 68
REMARK Flexibility Score: inf
ROOT
ATOM      1  C   UNL A   1      34.101  30.061  27.770  1.00  0.00     0.002 C 
ENDROOT
BRANCH   1   2
ATOM      2  C   UNL A   1      34.437  29.252  26.509  1.00  0.00     0.021 C 
BRANCH   2   3
ATOM      3  C   UNL A   1      33.207  28.837  25.698  1.00  0.00     0.116 C 
BRANCH   3   4
ATOM      4  N   UNL A   1      32.377  27.948  26.482  1.00  0.00    -0.356 N 
ATOM      5  C   UNL A   1      31.699  26.830  26.099  1.00  0.00     0.227 C 
ATOM      6  O   UNL A   1      30.888  26.373  26.909  1.00  0.00    -0.274 OA
ATOM      7  H   UNL A   1      32.288  28.187  27.433  1.00  0.00     0.163 HD
BRANCH   5   8
ATOM      8  C   UNL A   1      32.019  26.180  24.744  1.00  0.00     0.105 C 
ATOM      9  C   UNL A   1      30.955  26.397  23.665  1.00  0.00     0.023 C 
BRANCH   8  10
ATOM     10  C   UNL A   1      32.259  24.679  24.843  1.00  0.00    -0.034 A 
ATOM     11  C   UNL A   1      31.206  23.794  25.084  1.00  0.00     0.005 A 
ATOM     12  C   UNL A   1      33.547  24.177  24.609  1.00  0.00     0.032 A 
ATOM     13  C   UNL A   1      31.406  22.416  25.039  1.00  0.00     0.011 A 
ATOM     14  C   UNL A   1      33.761  22.785  24.625  1.00  0.00     0.057 A 
ATOM     15  C   UNL A   1      32.694  21.908  24.784  1.00  0.00     0.008 A 
ATOM     16  N   UNL A   1      34.939  22.034  24.468  1.00  0.00    -0.276 N 
ATOM     17  C   UNL A   1      33.206  20.593  24.668  1.00  0.00     0.009 A 
ATOM     18  C   UNL A   1      34.602  20.675  24.580  1.00  0.00     0.057 A 
ATOM     19  C   UNL A   1      32.565  19.337  24.706  1.00  0.00     0.031 A 
ATOM     20  C   UNL A   1      35.378  19.506  24.696  1.00  0.00     0.029 A 
ATOM     21  C   UNL A   1      33.336  18.183  24.754  1.00  0.00     0.041 A 
ATOM     22  C   UNL A   1      34.723  18.266  24.781  1.00  0.00     0.023 A 
ATOM     23  Cl  UNL A   1      32.556  16.651  24.829  1.00  0.00    -0.084 Cl
BRANCH  16  24
ATOM     24  C   UNL A   1      36.217  22.641  24.310  1.00  0.00     0.262 C 
ATOM     25  O   UNL A   1      36.423  23.171  23.215  1.00  0.00    -0.268 OA
BRANCH  24  26
ATOM     26  C   UNL A   1      37.375  22.695  25.252  1.00  0.00     0.040 A 
ATOM     27  C   UNL A   1      37.623  23.939  25.875  1.00  0.00     0.015 A 
ATOM     28  C   UNL A   1      38.299  21.664  25.445  1.00  0.00     0.015 A 
ATOM     29  C   UNL A   1      38.746  24.147  26.678  1.00  0.00     0.021 A 
ATOM     30  C   UNL A   1      39.412  21.863  26.280  1.00  0.00     0.021 A 
ATOM     31  C   UNL A   1      39.634  23.102  26.885  1.00  0.00     0.041 A 
ATOM     32  Cl  UNL A   1      41.023  23.347  27.869  1.00  0.00    -0.084 Cl
ENDBRANCH  24  26
ENDBRANCH  16  24
ENDBRANCH   8  10
ENDBRANCH   5   8
ENDBRANCH   3   4
ENDBRANCH   2   3
ENDBRANCH   1   2
BRANCH   1  33
ATOM     33  C   UNL A   1      34.644  31.491  27.774  1.00  0.00     0.002 C 
BRANCH  33  34
ATOM     34  C   UNL A   1      33.571  32.576  27.899  1.00  0.00     0.021 C 
BRANCH  34  35
ATOM     35  C   UNL A   1      34.122  33.971  28.174  1.00  0.00     0.116 C 
BRANCH  35  36
ATOM     36  N   UNL A   1      33.263  34.721  29.075  1.00  0.00    -0.352 N 
ATOM     37  C   UNL A   1      33.291  34.786  30.448  1.00  0.00     0.251 C 
ATOM     38  H   UNL A   1      32.562  35.260  28.641  1.00  0.00     0.163 HD
ATOM     39  O   UNL A   1      32.357  35.289  31.060  1.00  0.00    -0.269 OA
BRANCH  37  40
ATOM     40  C   UNL A   1      34.447  34.222  31.176  1.00  0.00     0.039 A 
ATOM     41  C   UNL A   1      34.409  32.882  31.565  1.00  0.00     0.014 A 
ATOM     42  C   UNL A   1      35.569  35.008  31.456  1.00  0.00     0.014 A 
ATOM     43  C   UNL A   1      35.531  32.308  32.164  1.00  0.00     0.010 A 
ATOM     44  C   UNL A   1      36.711  34.417  31.991  1.00  0.00     0.010 A 
ATOM     45  C   UNL A   1      36.708  33.057  32.338  1.00  0.00    -0.014 A 
BRANCH  45  46
ATOM     46  C   UNL A   1      37.958  32.416  32.824  1.00  0.00     0.031 A 
ATOM     47  C   UNL A   1      38.490  32.719  34.199  1.00  0.00     0.074 A 
ATOM     48  C   UNL A   1      38.649  31.612  31.991  1.00  0.00     0.049 A 
ATOM     49  N   UNL A   1      39.591  32.293  34.763  1.00  0.00    -0.248 NA
ATOM     50  C   UNL A   1      37.700  33.632  35.041  1.00  0.00     0.031 C 
ATOM     51  C   UNL A   1      38.259  31.279  30.618  1.00  0.00     0.029 A 
ATOM     52  N   UNL A   1      39.830  30.935  32.169  1.00  0.00    -0.354 N 
ATOM     53  C   UNL A   1      39.634  32.894  36.016  1.00  0.00     0.074 A 
ATOM     54  C   UNL A   1      38.467  33.742  36.118  1.00  0.00     0.031 C 
ATOM     55  C   UNL A   1      39.172  30.448  30.088  1.00  0.00     0.029 A 
ATOM     56  C   UNL A   1      40.235  30.226  31.060  1.00  0.00     0.049 A 
ATOM     57  H   UNL A   1      40.340  30.953  33.011  1.00  0.00     0.167 HD
ATOM     58  C   UNL A   1      40.558  32.742  36.994  1.00  0.00     0.031 A 
ATOM     59  C   UNL A   1      41.347  29.498  30.840  1.00  0.00     0.031 A 
ATOM     60  C   UNL A   1      41.708  31.882  36.893  1.00  0.00     0.049 A 
ATOM     61  C   UNL A   1      42.363  29.366  31.943  1.00  0.00     0.074 A 
ATOM     62  C   UNL A   1      42.654  31.601  37.864  1.00  0.00     0.029 A 
ATOM     63  N   UNL A   1      42.079  31.178  35.758  1.00  0.00    -0.354 N 
ATOM     64  N   UNL A   1      42.330  29.861  33.156  1.00  0.00    -0.248 NA
ATOM     65  C   UNL A   1      43.565  28.572  31.647  1.00  0.00     0.031 C 
ATOM     66  C   UNL A   1      43.636  30.785  37.294  1.00  0.00     0.029 A 
ATOM     67  C   UNL A   1      43.265  30.501  35.991  1.00  0.00     0.049 A 
ATOM     68  H   UNL A   1      41.574  31.161  34.913  1.00  0.00     0.167 HD
ATOM     69  C   UNL A   1      43.496  29.421  33.774  1.00  0.00     0.074 A 
ATOM     70  C   UNL A   1      44.196  28.597  32.812  1.00  0.00     0.031 C 
ATOM     71  C   UNL A   1      43.952  29.684  35.024  1.00  0.00     0.031 A 
BRANCH  58  72
ATOM     72  C   UNL A   1      40.381  33.521  38.271  1.00  0.00    -0.014 A 
ATOM     73  C   UNL A   1      40.984  34.779  38.446  1.00  0.00     0.010 A 
ATOM     74  C   UNL A   1      39.503  33.038  39.260  1.00  0.00     0.010 A 
ATOM     75  C   UNL A   1      40.717  35.536  39.590  1.00  0.00     0.020 A 
ATOM     76  C   UNL A   1      39.214  33.803  40.393  1.00  0.00     0.020 A 
ATOM     77  C   UNL A   1      39.827  35.047  40.553  1.00  0.00     0.054 A 
BRANCH  77  78
ATOM     78  S   UNL A   1      39.439  36.090  41.986  1.00  0.00     0.124 S 
ATOM     79  O   UNL A   1      39.360  37.417  41.380  1.00  0.00    -0.237 OA
ATOM     80  O   UNL A   1      38.171  35.534  42.449  1.00  0.00    -0.237 OA
ATOM     81  O   UNL A   1      40.573  35.883  42.883  1.00  0.00    -0.744 OA
ENDBRANCH  77  78
ENDBRANCH  58  72
BRANCH  59  82
ATOM     82  C   UNL A   1      41.582  28.861  29.513  1.00  0.00    -0.014 A 
ATOM     83  C   UNL A   1      41.309  27.497  29.308  1.00  0.00     0.010 A 
ATOM     84  C   UNL A   1      42.122  29.615  28.454  1.00  0.00     0.010 A 
ATOM     85  C   UNL A   1      41.611  26.890  28.086  1.00  0.00     0.020 A 
ATOM     86  C   UNL A   1      42.392  29.019  27.220  1.00  0.00     0.020 A 
ATOM     87  C   UNL A   1      42.157  27.654  27.050  1.00  0.00     0.054 A 
BRANCH  87  88
ATOM     88  S   UNL A   1      42.541  26.848  25.471  1.00  0.00     0.124 S 
ATOM     89  O   UNL A   1      41.344  26.046  25.244  1.00  0.00    -0.237 OA
ATOM     90  O   UNL A   1      42.723  27.985  24.572  1.00  0.00    -0.237 OA
ATOM     91  O   UNL A   1      43.756  26.091  25.763  1.00  0.00    -0.744 OA
ENDBRANCH  87  88
ENDBRANCH  59  82
BRANCH  71  92
ATOM     92  C   UNL A   1      45.260  29.058  35.432  1.00  0.00    -0.014 A 
ATOM     93  C   UNL A   1      45.303  27.777  36.007  1.00  0.00     0.010 A 
ATOM     94  C   UNL A   1      46.465  29.741  35.187  1.00  0.00     0.010 A 
ATOM     95  C   UNL A   1      46.526  27.200  36.357  1.00  0.00     0.020 A 
ATOM     96  C   UNL A   1      47.693  29.154  35.505  1.00  0.00     0.020 A 
ATOM     97  C   UNL A   1      47.715  27.892  36.102  1.00  0.00     0.054 A 
BRANCH  97  98
ATOM     98  S   UNL A   1      49.290  27.099  36.522  1.00  0.00     0.124 S 
ATOM     99  O   UNL A   1      49.119  25.765  35.953  1.00  0.00    -0.237 OA
ATOM    100  O   UNL A   1      50.267  27.950  35.848  1.00  0.00    -0.237 OA
ATOM    101  O   UNL A   1      49.327  27.153  37.981  1.00  0.00    -0.744 OA
ENDBRANCH  97  98
ENDBRANCH  71  92
ENDBRANCH  45  46
ENDBRANCH  37  40
ENDBRANCH  35  36
ENDBRANCH  34  35
ENDBRANCH  33  34
ENDBRANCH   1  33
TORSDOF 19
ENDMDL
MODEL 3
REMARK VINA RESULT:     -10.5      7.663     15.319
REMARK SMILES C[C@@H](C(=O)NCCCCCCNC(=O)c1ccc(-c2c3nc(c(-c4ccc(S(=O)(=O)[O-])cc4)c4ccc([nH]4)c(-c4ccc(S(=O)(=O)[O-])cc4)c4nc(c(-c5ccc(S(=O)(=O)[O-])cc5)c5ccc2[nH]5)C=C4)C=C3)cc1)c1ccc2c3cc(Cl)ccc3n(C(=O)c3ccc(Cl)cc3)c2c1
REMARK SMILES IDX 8 1 7 2 6 3 5 4 3 5 4 6 2 8 1 9 75 10 76 11 97 12 77 13
REMARK SMILES IDX 96 14 78 15 86 16 79 17 85 18 80 19 84 20 81 21 83 22 82 23
REMARK SMILES IDX 87 24 88 25 89 26 90 27 95 28 91 29 94 30 92 31 93 32 9 33
REMARK SMILES IDX 10 34 11 35 12 36 13 37 14 39 15 40 16 41 74 42 17 43 73 44
REMARK SMILES IDX 18 45 19 46 20 47 67 48 21 49 72 50 66 51 68 52 22 53 71 54
REMARK SMILES IDX 65 55 64 56 23 58 53 59 34 60 52 61 35 62 38 63 51 64 69 65
REMARK SMILES IDX 36 66 37 67 50 69 70 70 39 71 24 72 25 73 33 74 26 75 32 76
REMARK SMILES IDX 27 77 28 78 29 79 30 80 31 81 54 82 55 83 63 84 56 85 62 86
REMARK SMILES IDX 57 87 58 88 59 89 60 90 61 91 40 92 41 93 49 94 42 95 48 96
REMARK SMILES IDX 43 97 44 98 45 99 46 100 47 101
REMARK H PARENT 5 7 12 38 68 57 38 68
REMARK Flexibility Score: inf
ROOT
ATOM      1  C   UNL A   1      51.690  20.532  34.871  1.00  0.00     0.002 C 
ENDROOT
BRANCH   1   2
ATOM      2  C   UNL A   1      51.072  20.785  36.253  1.00  0.00     0.021 C 
BRANCH   2   3
ATOM      3  C   UNL A   1      49.570  20.496  36.317  1.00  0.00     0.116 C 
BRANCH   3   4
ATOM      4  N   UNL A   1      49.056  20.262  34.985  1.00  0.00    -0.356 N 
ATOM      5  C   UNL A   1      47.810  19.876  34.590  1.00  0.00     0.227 C 
ATOM      6  O   UNL A   1      47.688  19.533  33.412  1.00  0.00    -0.274 OA
ATOM      7  H   UNL A   1      49.702  20.401  34.256  1.00  0.00     0.163 HD
BRANCH   5   8
ATOM      8  C   UNL A   1      46.646  19.944  35.590  1.00  0.00     0.105 C 
ATOM      9  C   UNL A   1      45.637  18.798  35.477  1.00  0.00     0.023 C 
BRANCH   8  10
ATOM     10  C   UNL A   1      45.859  21.246  35.503  1.00  0.00    -0.034 A 
ATOM     11  C   UNL A   1      45.113  21.562  34.365  1.00  0.00     0.005 A 
ATOM     12  C   UNL A   1      45.825  22.099  36.615  1.00  0.00     0.032 A 
ATOM     13  C   UNL A   1      44.289  22.685  34.341  1.00  0.00     0.011 A 
ATOM     14  C   UNL A   1      45.038  23.267  36.567  1.00  0.00     0.057 A 
ATOM     15  C   UNL A   1      44.235  23.533  35.464  1.00  0.00     0.008 A 
ATOM     16  N   UNL A   1      44.864  24.296  37.508  1.00  0.00    -0.276 N 
ATOM     17  C   UNL A   1      43.507  24.715  35.745  1.00  0.00     0.009 A 
ATOM     18  C   UNL A   1      43.977  25.237  36.958  1.00  0.00     0.057 A 
ATOM     19  C   UNL A   1      42.529  25.406  35.001  1.00  0.00     0.031 A 
ATOM     20  C   UNL A   1      43.594  26.533  37.354  1.00  0.00     0.029 A 
ATOM     21  C   UNL A   1      42.106  26.657  35.433  1.00  0.00     0.041 A 
ATOM     22  C   UNL A   1      42.653  27.227  36.575  1.00  0.00     0.023 A 
ATOM     23  Cl  UNL A   1      40.933  27.514  34.510  1.00  0.00    -0.084 Cl
BRANCH  16  24
ATOM     24  C   UNL A   1      45.571  24.332  38.742  1.00  0.00     0.262 C 
ATOM     25  O   UNL A   1      44.938  23.948  39.730  1.00  0.00    -0.268 OA
BRANCH  24  26
ATOM     26  C   UNL A   1      46.955  24.811  39.041  1.00  0.00     0.040 A 
ATOM     27  C   UNL A   1      47.079  26.154  39.463  1.00  0.00     0.015 A 
ATOM     28  C   UNL A   1      48.123  24.084  38.798  1.00  0.00     0.015 A 
ATOM     29  C   UNL A   1      48.326  26.750  39.654  1.00  0.00     0.021 A 
ATOM     30  C   UNL A   1      49.379  24.674  39.022  1.00  0.00     0.021 A 
ATOM     31  C   UNL A   1      49.475  26.003  39.441  1.00  0.00     0.041 A 
ATOM     32  Cl  UNL A   1      51.018  26.728  39.668  1.00  0.00    -0.084 Cl
ENDBRANCH  24  26
ENDBRANCH  16  24
ENDBRANCH   8  10
ENDBRANCH   5   8
ENDBRANCH   3   4
ENDBRANCH   2   3
ENDBRANCH   1   2
BRANCH   1  33
ATOM     33  C   UNL A   1      52.206  21.786  34.163  1.00  0.00     0.002 C 
BRANCH  33  34
ATOM     34  C   UNL A   1      51.270  22.334  33.083  1.00  0.00     0.021 C 
BRANCH  34  35
ATOM     35  C   UNL A   1      50.775  23.752  33.347  1.00  0.00     0.116 C 
BRANCH  35  36
ATOM     36  N   UNL A   1      51.242  24.257  34.627  1.00  0.00    -0.352 N 
ATOM     37  C   UNL A   1      50.765  25.309  35.372  1.00  0.00     0.251 C 
ATOM     38  H   UNL A   1      52.008  23.776  35.018  1.00  0.00     0.163 HD
ATOM     39  O   UNL A   1      51.412  25.739  36.317  1.00  0.00    -0.269 OA
BRANCH  37  40
ATOM     40  C   UNL A   1      49.475  25.931  35.003  1.00  0.00     0.039 A 
ATOM     41  C   UNL A   1      49.479  27.030  34.141  1.00  0.00     0.014 A 
ATOM     42  C   UNL A   1      48.268  25.420  35.491  1.00  0.00     0.014 A 
ATOM     43  C   UNL A   1      48.266  27.565  33.705  1.00  0.00     0.010 A 
ATOM     44  C   UNL A   1      47.061  25.911  35.001  1.00  0.00     0.010 A 
ATOM     45  C   UNL A   1      47.047  26.980  34.093  1.00  0.00    -0.014 A 
BRANCH  45  46
ATOM     46  C   UNL A   1      45.760  27.438  33.509  1.00  0.00     0.031 A 
ATOM     47  C   UNL A   1      45.240  26.834  32.233  1.00  0.00     0.074 A 
ATOM     48  C   UNL A   1      45.095  28.452  34.099  1.00  0.00     0.049 A 
ATOM     49  N   UNL A   1      44.165  27.149  31.555  1.00  0.00    -0.248 NA
ATOM     50  C   UNL A   1      46.035  25.753  31.626  1.00  0.00     0.031 C 
ATOM     51  C   UNL A   1      45.524  29.151  35.314  1.00  0.00     0.029 A 
ATOM     52  N   UNL A   1      43.926  29.083  33.753  1.00  0.00    -0.354 N 
ATOM     53  C   UNL A   1      44.162  26.320  30.439  1.00  0.00     0.074 A 
ATOM     54  C   UNL A   1      45.358  25.509  30.511  1.00  0.00     0.031 C 
ATOM     55  C   UNL A   1      44.621  30.097  35.622  1.00  0.00     0.029 A 
ATOM     56  C   UNL A   1      43.577  30.108  34.604  1.00  0.00     0.049 A 
ATOM     57  H   UNL A   1      43.386  28.826  32.971  1.00  0.00     0.167 HD
ATOM     58  C   UNL A   1      43.238  26.236  29.453  1.00  0.00     0.031 A 
ATOM     59  C   UNL A   1      42.546  30.975  34.560  1.00  0.00     0.031 A 
ATOM     60  C   UNL A   1      42.040  27.033  29.397  1.00  0.00     0.049 A 
ATOM     61  C   UNL A   1      41.549  30.865  33.438  1.00  0.00     0.074 A 
ATOM     62  C   UNL A   1      41.006  26.959  28.479  1.00  0.00     0.029 A 
ATOM     63  N   UNL A   1      41.721  28.053  30.279  1.00  0.00    -0.354 N 
ATOM     64  N   UNL A   1      41.511  30.004  32.451  1.00  0.00    -0.248 NA
ATOM     65  C   UNL A   1      40.451  31.843  33.428  1.00  0.00     0.031 C 
ATOM     66  C   UNL A   1      40.097  27.982  28.764  1.00  0.00     0.029 A 
ATOM     67  C   UNL A   1      40.529  28.647  29.899  1.00  0.00     0.049 A 
ATOM     68  H   UNL A   1      42.260  28.316  31.059  1.00  0.00     0.167 HD
ATOM     69  C   UNL A   1      40.375  30.324  31.715  1.00  0.00     0.074 A 
ATOM     70  C   UNL A   1      39.739  31.437  32.387  1.00  0.00     0.031 C 
ATOM     71  C   UNL A   1      39.906  29.755  30.577  1.00  0.00     0.031 A 
BRANCH  58  72
ATOM     72  C   UNL A   1      43.472  25.252  28.337  1.00  0.00    -0.014 A 
ATOM     73  C   UNL A   1      44.122  25.636  27.151  1.00  0.00     0.010 A 
ATOM     74  C   UNL A   1      43.143  23.897  28.529  1.00  0.00     0.010 A 
ATOM     75  C   UNL A   1      44.432  24.685  26.175  1.00  0.00     0.020 A 
ATOM     76  C   UNL A   1      43.472  22.939  27.566  1.00  0.00     0.020 A 
ATOM     77  C   UNL A   1      44.111  23.341  26.392  1.00  0.00     0.054 A 
BRANCH  77  78
ATOM     78  S   UNL A   1      44.599  22.119  25.143  1.00  0.00     0.124 S 
ATOM     79  O   UNL A   1      44.898  22.968  23.991  1.00  0.00    -0.237 OA
ATOM     80  O   UNL A   1      45.753  21.474  25.762  1.00  0.00    -0.237 OA
ATOM     81  O   UNL A   1      43.417  21.274  25.002  1.00  0.00    -0.744 OA
ENDBRANCH  77  78
ENDBRANCH  58  72
BRANCH  59  82
ATOM     82  C   UNL A   1      42.416  32.045  35.589  1.00  0.00    -0.014 A 
ATOM     83  C   UNL A   1      41.676  31.831  36.764  1.00  0.00     0.010 A 
ATOM     84  C   UNL A   1      43.004  33.306  35.373  1.00  0.00     0.010 A 
ATOM     85  C   UNL A   1      41.489  32.868  37.683  1.00  0.00     0.020 A 
ATOM     86  C   UNL A   1      42.849  34.334  36.306  1.00  0.00     0.020 A 
ATOM     87  C   UNL A   1      42.073  34.116  37.445  1.00  0.00     0.054 A 
BRANCH  87  88
ATOM     88  S   UNL A   1      41.820  35.448  38.650  1.00  0.00     0.124 S 
ATOM     89  O   UNL A   1      43.178  35.949  38.836  1.00  0.00    -0.237 OA
ATOM     90  O   UNL A   1      40.906  36.342  37.944  1.00  0.00    -0.237 OA
ATOM     91  O   UNL A   1      41.242  34.760  39.802  1.00  0.00    -0.744 OA
ENDBRANCH  87  88
ENDBRANCH  59  82
BRANCH  71  92
ATOM     92  C   UNL A   1      38.632  30.310  29.997  1.00  0.00    -0.014 A 
ATOM     93  C   UNL A   1      37.453  29.546  29.972  1.00  0.00     0.010 A 
ATOM     94  C   UNL A   1      38.601  31.634  29.521  1.00  0.00     0.010 A 
ATOM     95  C   UNL A   1      36.273  30.084  29.452  1.00  0.00     0.020 A 
ATOM     96  C   UNL A   1      37.415  32.187  29.031  1.00  0.00     0.020 A 
ATOM     97  C   UNL A   1      36.261  31.403  28.988  1.00  0.00     0.054 A 
BRANCH  97  98
ATOM     98  S   UNL A   1      34.703  32.091  28.365  1.00  0.00     0.124 S 
ATOM     99  O   UNL A   1      34.009  30.896  27.896  1.00  0.00    -0.237 OA
ATOM    100  O   UNL A   1      34.135  32.724  29.553  1.00  0.00    -0.237 OA
ATOM    101  O   UNL A   1      35.127  33.016  27.316  1.00  0.00    -0.744 OA
ENDBRANCH  97  98
ENDBRANCH  71  92
ENDBRANCH  45  46
ENDBRANCH  37  40
ENDBRANCH  35  36
ENDBRANCH  34  35
ENDBRANCH  33  34
ENDBRANCH   1  33
TORSDOF 19
ENDMDL
