MODEL 1
REMARK VINA RESULT:     -10.4      0.000      0.000
REMARK SMILES Cc1ccc(-c2cnnc(-n3nc(C)c4c3NC(=O)C[C@@H]4c3ccc(C(=O)NCCCCCCNC(=O)c4ccc(-c5c6nc(c(-c7ccc(S(=O)(=O)[O-])cc7)c7ccc([nH]7)c(-c7ccc(S(=O)(=O)[O-])cc7)c7nc(c(-c8ccc(S(=O)(=O)[O-])cc8)c8ccc5[nH]8)C=C7)C=C6)cc4)cc3)n2)cc1
REMARK SMILES IDX 31 1 30 2 29 3 28 4 26 5 27 6 25 8 22 9 23 10 99 11 24 12
REMARK SMILES IDX 98 13 21 14 11 15 12 16 16 17 13 18 15 19 17 20 14 21 18 22
REMARK SMILES IDX 20 24 19 25 10 26 6 27 7 28 100 29 8 30 9 31 5 32 1 33 2 34
REMARK SMILES IDX 3 35 102 36 4 37 101 38 32 39 33 40 34 41 35 42 36 43 37 45
REMARK SMILES IDX 38 46 39 47 97 48 40 49 96 50 41 51 42 52 43 53 90 54 44 55
REMARK SMILES IDX 95 56 89 57 91 58 45 59 94 60 88 61 87 62 46 64 76 65 57 66
REMARK SMILES IDX 75 67 58 68 61 69 74 70 92 71 59 72 60 73 73 75 93 76 62 77
REMARK SMILES IDX 47 78 48 79 56 80 49 81 55 82 50 83 51 84 52 85 53 86 54 87
REMARK SMILES IDX 77 88 78 89 86 90 79 91 85 92 80 93 81 94 82 95 83 96 84 97
REMARK SMILES IDX 63 98 64 99 72 100 65 101 71 102 66 103 67 104 68 105 69 106
REMARK SMILES IDX 70 107
REMARK H PARENT 28 7 17 23 35 44 91 63 61 74
REMARK Flexibility Score: inf
ROOT
ATOM      1  C   UNL A   1      38.963  31.666  32.847  1.00  0.00     0.002 C 
ENDROOT
BRANCH   1   2
ATOM      2  C   UNL A   1      38.614  30.295  33.447  1.00  0.00     0.021 C 
BRANCH   2   3
ATOM      3  C   UNL A   1      39.820  29.385  33.688  1.00  0.00     0.116 C 
BRANCH   3   4
ATOM      4  N   UNL A   1      40.455  29.667  34.968  1.00  0.00    -0.352 N 
ATOM      5  C   UNL A   1      41.367  28.954  35.707  1.00  0.00     0.251 C 
ATOM      6  O   UNL A   1      41.899  29.469  36.687  1.00  0.00    -0.269 OA
ATOM      7  H   UNL A   1      40.181  30.519  35.378  1.00  0.00     0.163 HD
BRANCH   5   8
ATOM      8  C   UNL A   1      41.785  27.594  35.298  1.00  0.00     0.039 A 
ATOM      9  C   UNL A   1      42.762  24.995  34.892  1.00  0.00    -0.040 A 
ATOM     10  C   UNL A   1      41.587  25.210  35.635  1.00  0.00     0.005 A 
ATOM     11  C   UNL A   1      43.312  26.083  34.198  1.00  0.00     0.005 A 
ATOM     12  C   UNL A   1      41.097  26.502  35.830  1.00  0.00     0.014 A 
ATOM     13  C   UNL A   1      42.834  27.375  34.411  1.00  0.00     0.014 A 
BRANCH   9  14
ATOM     14  C   UNL A   1      43.382  23.614  34.935  1.00  0.00     0.064 C 
ATOM     15  N   UNL A   1      46.894  23.189  35.686  1.00  0.00    -0.180 N 
ATOM     16  N   UNL A   1      46.626  23.971  36.769  1.00  0.00    -0.168 NA
ATOM     17  C   UNL A   1      45.892  23.375  34.747  1.00  0.00     0.143 A 
ATOM     18  C   UNL A   1      45.309  24.180  36.712  1.00  0.00     0.066 A 
ATOM     19  C   UNL A   1      44.767  23.685  35.493  1.00  0.00     0.026 A 
ATOM     20  N   UNL A   1      45.828  23.338  33.366  1.00  0.00    -0.310 N 
ATOM     21  C   UNL A   1      44.689  24.972  37.804  1.00  0.00     0.069 C 
ATOM     22  C   UNL A   1      44.534  23.405  32.741  1.00  0.00     0.226 C 
ATOM     23  H   UNL A   1      46.647  23.269  32.824  1.00  0.00     0.171 HD
ATOM     24  C   UNL A   1      43.378  22.911  33.580  1.00  0.00     0.113 C 
ATOM     25  O   UNL A   1      44.474  23.727  31.578  1.00  0.00    -0.275 OA
BRANCH  15  26
ATOM     26  C   UNL A   1      47.763  22.062  35.821  1.00  0.00     0.272 A 
ATOM     27  C   UNL A   1      49.226  20.723  36.951  1.00  0.00     0.095 A 
ATOM     28  C   UNL A   1      49.624  20.160  35.748  1.00  0.00     0.164 A 
ATOM     29  N   UNL A   1      48.321  21.742  37.010  1.00  0.00    -0.208 NA
ATOM     30  N   UNL A   1      49.083  20.550  34.590  1.00  0.00    -0.153 NA
ATOM     31  N   UNL A   1      48.108  21.480  34.639  1.00  0.00    -0.109 NA
BRANCH  27  32
ATOM     32  C   UNL A   1      49.694  20.149  38.217  1.00  0.00     0.002 A 
ATOM     33  C   UNL A   1      51.299  18.587  41.925  1.00  0.00     0.044 C 
ATOM     34  C   UNL A   1      50.762  19.141  40.638  1.00  0.00    -0.051 A 
ATOM     35  C   UNL A   1      49.765  20.121  40.658  1.00  0.00     0.004 A 
ATOM     36  C   UNL A   1      51.235  18.679  39.408  1.00  0.00     0.004 A 
ATOM     37  C   UNL A   1      49.238  20.620  39.461  1.00  0.00     0.011 A 
ATOM     38  C   UNL A   1      50.704  19.174  38.214  1.00  0.00     0.011 A 
ENDBRANCH  27  32
ENDBRANCH  15  26
ENDBRANCH   9  14
ENDBRANCH   5   8
ENDBRANCH   3   4
ENDBRANCH   2   3
ENDBRANCH   1   2
BRANCH   1  39
ATOM     39  C   UNL A   1      39.414  31.675  31.375  1.00  0.00     0.002 C 
BRANCH  39  40
ATOM     40  C   UNL A   1      38.733  32.703  30.471  1.00  0.00     0.021 C 
BRANCH  40  41
ATOM     41  C   UNL A   1      37.928  32.084  29.345  1.00  0.00     0.116 C 
BRANCH  41  42
ATOM     42  N   UNL A   1      36.889  31.153  29.761  1.00  0.00    -0.352 N 
ATOM     43  C   UNL A   1      36.629  29.967  29.074  1.00  0.00     0.251 C 
ATOM     44  H   UNL A   1      36.350  31.368  30.556  1.00  0.00     0.163 HD
ATOM     45  O   UNL A   1      35.525  29.652  28.653  1.00  0.00    -0.269 OA
BRANCH  43  46
ATOM     46  C   UNL A   1      37.777  29.035  28.977  1.00  0.00     0.039 A 
ATOM     47  C   UNL A   1      38.339  28.491  30.137  1.00  0.00     0.014 A 
ATOM     48  C   UNL A   1      38.428  28.933  27.755  1.00  0.00     0.014 A 
ATOM     49  C   UNL A   1      39.651  28.028  30.099  1.00  0.00     0.010 A 
ATOM     50  C   UNL A   1      39.764  28.662  27.752  1.00  0.00     0.010 A 
ATOM     51  C   UNL A   1      40.372  28.222  28.926  1.00  0.00    -0.014 A 
BRANCH  51  52
ATOM     52  C   UNL A   1      41.761  27.898  28.712  1.00  0.00     0.031 A 
ATOM     53  C   UNL A   1      42.077  26.458  28.559  1.00  0.00     0.074 A 
ATOM     54  C   UNL A   1      42.587  28.913  28.366  1.00  0.00     0.049 A 
ATOM     55  N   UNL A   1      43.247  25.954  28.709  1.00  0.00    -0.248 NA
ATOM     56  C   UNL A   1      41.065  25.434  28.251  1.00  0.00     0.031 C 
ATOM     57  C   UNL A   1      43.879  28.819  27.699  1.00  0.00     0.029 A 
ATOM     58  N   UNL A   1      42.487  30.274  28.677  1.00  0.00    -0.354 N 
ATOM     59  C   UNL A   1      43.211  24.680  28.176  1.00  0.00     0.074 A 
ATOM     60  C   UNL A   1      41.818  24.350  28.036  1.00  0.00     0.031 C 
ATOM     61  C   UNL A   1      44.572  29.949  27.940  1.00  0.00     0.029 A 
ATOM     62  C   UNL A   1      43.799  30.717  28.907  1.00  0.00     0.049 A 
ATOM     63  H   UNL A   1      41.664  30.811  28.723  1.00  0.00     0.167 HD
ATOM     64  C   UNL A   1      44.372  24.133  27.726  1.00  0.00     0.031 A 
ATOM     65  C   UNL A   1      44.259  31.091  30.144  1.00  0.00     0.031 A 
ATOM     66  C   UNL A   1      45.466  25.071  27.939  1.00  0.00     0.049 A 
ATOM     67  C   UNL A   1      45.371  30.176  30.613  1.00  0.00     0.074 A 
ATOM     68  C   UNL A   1      46.050  25.997  27.092  1.00  0.00     0.029 A 
ATOM     69  N   UNL A   1      45.828  25.410  29.231  1.00  0.00    -0.354 N 
ATOM     70  N   UNL A   1      45.481  28.929  30.242  1.00  0.00    -0.248 NA
ATOM     71  C   UNL A   1      46.453  30.592  31.502  1.00  0.00     0.031 C 
ATOM     72  C   UNL A   1      46.719  26.948  27.900  1.00  0.00     0.029 A 
ATOM     73  C   UNL A   1      46.552  26.583  29.225  1.00  0.00     0.049 A 
ATOM     74  H   UNL A   1      45.601  24.890  30.036  1.00  0.00     0.167 HD
ATOM     75  C   UNL A   1      46.632  28.400  30.762  1.00  0.00     0.074 A 
ATOM     76  C   UNL A   1      47.192  29.470  31.568  1.00  0.00     0.031 C 
ATOM     77  C   UNL A   1      47.057  27.138  30.467  1.00  0.00     0.031 A 
BRANCH  64  78
ATOM     78  C   UNL A   1      44.522  22.932  26.826  1.00  0.00    -0.014 A 
ATOM     79  C   UNL A   1      43.376  22.131  26.614  1.00  0.00     0.010 A 
ATOM     80  C   UNL A   1      45.702  22.514  26.185  1.00  0.00     0.010 A 
ATOM     81  C   UNL A   1      43.406  20.956  25.862  1.00  0.00     0.020 A 
ATOM     82  C   UNL A   1      45.748  21.328  25.425  1.00  0.00     0.020 A 
ATOM     83  C   UNL A   1      44.598  20.553  25.277  1.00  0.00     0.054 A 
BRANCH  83  84
ATOM     84  S   UNL A   1      44.594  19.019  24.315  1.00  0.00     0.124 S 
ATOM     85  O   UNL A   1      44.504  19.513  22.943  1.00  0.00    -0.237 OA
ATOM     86  O   UNL A   1      45.871  18.414  24.683  1.00  0.00    -0.237 OA
ATOM     87  O   UNL A   1      43.408  18.312  24.795  1.00  0.00    -0.744 OA
ENDBRANCH  83  84
ENDBRANCH  64  78
BRANCH  65  88
ATOM     88  C   UNL A   1      43.206  31.667  31.035  1.00  0.00    -0.014 A 
ATOM     89  C   UNL A   1      43.008  31.039  32.283  1.00  0.00     0.010 A 
ATOM     90  C   UNL A   1      42.825  33.012  30.883  1.00  0.00     0.010 A 
ATOM     91  C   UNL A   1      42.671  31.795  33.408  1.00  0.00     0.020 A 
ATOM     92  C   UNL A   1      42.475  33.770  32.011  1.00  0.00     0.020 A 
ATOM     93  C   UNL A   1      42.495  33.172  33.275  1.00  0.00     0.054 A 
BRANCH  93  94
ATOM     94  S   UNL A   1      42.522  34.189  34.785  1.00  0.00     0.124 S 
ATOM     95  O   UNL A   1      43.454  33.459  35.638  1.00  0.00    -0.237 OA
ATOM     96  O   UNL A   1      43.003  35.478  34.279  1.00  0.00    -0.237 OA
ATOM     97  O   UNL A   1      41.130  34.176  35.222  1.00  0.00    -0.744 OA
ENDBRANCH  93  94
ENDBRANCH  65  88
BRANCH  77  98
ATOM     98  C   UNL A   1      48.079  26.339  31.234  1.00  0.00    -0.014 A 
ATOM     99  C   UNL A   1      47.936  25.985  32.582  1.00  0.00     0.010 A 
ATOM    100  C   UNL A   1      49.192  25.793  30.543  1.00  0.00     0.010 A 
ATOM    101  C   UNL A   1      48.904  25.212  33.232  1.00  0.00     0.020 A 
ATOM    102  C   UNL A   1      50.127  24.966  31.163  1.00  0.00     0.020 A 
ATOM    103  C   UNL A   1      49.998  24.717  32.521  1.00  0.00     0.054 A 
BRANCH 103 104
ATOM    104  S   UNL A   1      51.242  23.735  33.386  1.00  0.00     0.124 S 
ATOM    105  O   UNL A   1      52.436  24.558  33.216  1.00  0.00    -0.237 OA
ATOM    106  O   UNL A   1      50.712  23.672  34.745  1.00  0.00    -0.237 OA
ATOM    107  O   UNL A   1      51.246  22.466  32.665  1.00  0.00    -0.744 OA
ENDBRANCH 103 104
ENDBRANCH  77  98
ENDBRANCH  51  52
ENDBRANCH  43  46
ENDBRANCH  41  42
ENDBRANCH  40  41
ENDBRANCH  39  40
ENDBRANCH   1  39
TORSDOF 19
ENDMDL
MODEL 2
REMARK VINA RESULT:      -9.6      4.988     13.580
REMARK SMILES Cc1ccc(-c2cnnc(-n3nc(C)c4c3NC(=O)C[C@@H]4c3ccc(C(=O)NCCCCCCNC(=O)c4ccc(-c5c6nc(c(-c7ccc(S(=O)(=O)[O-])cc7)c7ccc([nH]7)c(-c7ccc(S(=O)(=O)[O-])cc7)c7nc(c(-c8ccc(S(=O)(=O)[O-])cc8)c8ccc5[nH]8)C=C7)C=C6)cc4)cc3)n2)cc1
REMARK SMILES IDX 31 1 30 2 29 3 28 4 26 5 27 6 25 8 22 9 23 10 99 11 24 12
REMARK SMILES IDX 98 13 21 14 11 15 12 16 16 17 13 18 15 19 17 20 14 21 18 22
REMARK SMILES IDX 20 24 19 25 10 26 6 27 7 28 100 29 8 30 9 31 5 32 1 33 2 34
REMARK SMILES IDX 3 35 102 36 4 37 101 38 32 39 33 40 34 41 35 42 36 43 37 45
REMARK SMILES IDX 38 46 39 47 97 48 40 49 96 50 41 51 42 52 43 53 90 54 44 55
REMARK SMILES IDX 95 56 89 57 91 58 45 59 94 60 88 61 87 62 46 64 76 65 57 66
REMARK SMILES IDX 75 67 58 68 61 69 74 70 92 71 59 72 60 73 73 75 93 76 62 77
REMARK SMILES IDX 47 78 48 79 56 80 49 81 55 82 50 83 51 84 52 85 53 86 54 87
REMARK SMILES IDX 77 88 78 89 86 90 79 91 85 92 80 93 81 94 82 95 83 96 84 97
REMARK SMILES IDX 63 98 64 99 72 100 65 101 71 102 66 103 67 104 68 105 69 106
REMARK SMILES IDX 70 107
REMARK H PARENT 28 7 17 23 35 44 91 63 61 74
REMARK Flexibility Score: inf
ROOT
ATOM      1  C   UNL A   1      45.116  25.093  25.852  1.00  0.00     0.002 C 
ENDROOT
BRANCH   1   2
ATOM      2  C   UNL A   1      46.091  25.220  27.031  1.00  0.00     0.021 C 
BRANCH   2   3
ATOM      3  C   UNL A   1      47.055  26.404  26.930  1.00  0.00     0.116 C 
BRANCH   3   4
ATOM      4  N   UNL A   1      47.008  27.021  25.611  1.00  0.00    -0.352 N 
ATOM      5  C   UNL A   1      46.603  28.268  25.205  1.00  0.00     0.251 C 
ATOM      6  O   UNL A   1      46.813  28.636  24.052  1.00  0.00    -0.269 OA
ATOM      7  H   UNL A   1      47.323  26.440  24.881  1.00  0.00     0.163 HD
BRANCH   5   8
ATOM      8  C   UNL A   1      45.983  29.217  26.157  1.00  0.00     0.039 A 
ATOM      9  C   UNL A   1      44.626  31.183  27.630  1.00  0.00    -0.040 A 
ATOM     10  C   UNL A   1      43.970  30.001  27.239  1.00  0.00     0.005 A 
ATOM     11  C   UNL A   1      46.014  31.261  27.441  1.00  0.00     0.005 A 
ATOM     12  C   UNL A   1      44.647  29.021  26.513  1.00  0.00     0.014 A 
ATOM     13  C   UNL A   1      46.684  30.291  26.698  1.00  0.00     0.014 A 
BRANCH   9  14
ATOM     14  C   UNL A   1      43.779  32.312  28.179  1.00  0.00     0.064 C 
ATOM     15  N   UNL A   1      44.538  35.754  27.370  1.00  0.00    -0.180 N 
ATOM     16  N   UNL A   1      44.535  35.317  26.079  1.00  0.00    -0.168 NA
ATOM     17  C   UNL A   1      44.710  34.662  28.205  1.00  0.00     0.143 A 
ATOM     18  C   UNL A   1      44.184  34.032  26.163  1.00  0.00     0.066 A 
ATOM     19  C   UNL A   1      44.142  33.602  27.518  1.00  0.00     0.026 A 
ATOM     20  N   UNL A   1      45.300  34.460  29.440  1.00  0.00    -0.310 N 
ATOM     21  C   UNL A   1      44.040  33.273  24.894  1.00  0.00     0.069 C 
ATOM     22  C   UNL A   1      45.112  33.189  30.087  1.00  0.00     0.226 C 
ATOM     23  H   UNL A   1      45.835  35.169  29.866  1.00  0.00     0.171 HD
ATOM     24  C   UNL A   1      43.859  32.439  29.698  1.00  0.00     0.113 C 
ATOM     25  O   UNL A   1      45.883  32.869  30.961  1.00  0.00    -0.275 OA
BRANCH  15  26
ATOM     26  C   UNL A   1      43.949  37.015  27.695  1.00  0.00     0.272 A 
ATOM     27  C   UNL A   1      43.468  39.214  27.313  1.00  0.00     0.095 A 
ATOM     28  C   UNL A   1      43.136  39.363  28.651  1.00  0.00     0.164 A 
ATOM     29  N   UNL A   1      43.947  38.039  26.811  1.00  0.00    -0.208 NA
ATOM     30  N   UNL A   1      43.209  38.333  29.500  1.00  0.00    -0.153 NA
ATOM     31  N   UNL A   1      43.577  37.137  28.999  1.00  0.00    -0.109 NA
BRANCH  27  32
ATOM     32  C   UNL A   1      43.199  40.303  26.367  1.00  0.00     0.002 A 
ATOM     33  C   UNL A   1      42.525  43.376  23.390  1.00  0.00     0.044 C 
ATOM     34  C   UNL A   1      42.767  42.298  24.405  1.00  0.00    -0.051 A 
ATOM     35  C   UNL A   1      41.711  41.493  24.841  1.00  0.00     0.004 A 
ATOM     36  C   UNL A   1      44.041  42.093  24.940  1.00  0.00     0.004 A 
ATOM     37  C   UNL A   1      41.924  40.506  25.809  1.00  0.00     0.011 A 
ATOM     38  C   UNL A   1      44.252  41.111  25.912  1.00  0.00     0.011 A 
ENDBRANCH  27  32
ENDBRANCH  15  26
ENDBRANCH   9  14
ENDBRANCH   5   8
ENDBRANCH   3   4
ENDBRANCH   2   3
ENDBRANCH   1   2
BRANCH   1  39
ATOM     39  C   UNL A   1      44.906  23.677  25.286  1.00  0.00     0.002 C 
BRANCH  39  40
ATOM     40  C   UNL A   1      43.485  23.338  24.834  1.00  0.00     0.021 C 
BRANCH  40  41
ATOM     41  C   UNL A   1      42.438  24.309  25.342  1.00  0.00     0.116 C 
BRANCH  41  42
ATOM     42  N   UNL A   1      41.418  23.730  26.205  1.00  0.00    -0.352 N 
ATOM     43  C   UNL A   1      41.367  23.984  27.576  1.00  0.00     0.251 C 
ATOM     44  H   UNL A   1      40.740  23.138  25.807  1.00  0.00     0.163 HD
ATOM     45  O   UNL A   1      41.345  23.109  28.430  1.00  0.00    -0.269 OA
BRANCH  43  46
ATOM     46  C   UNL A   1      41.225  25.411  27.944  1.00  0.00     0.039 A 
ATOM     47  C   UNL A   1      42.360  26.223  28.056  1.00  0.00     0.014 A 
ATOM     48  C   UNL A   1      39.994  25.840  28.423  1.00  0.00     0.014 A 
ATOM     49  C   UNL A   1      42.293  27.375  28.835  1.00  0.00     0.010 A 
ATOM     50  C   UNL A   1      39.969  26.853  29.334  1.00  0.00     0.010 A 
ATOM     51  C   UNL A   1      41.120  27.609  29.544  1.00  0.00    -0.014 A 
BRANCH  51  52
ATOM     52  C   UNL A   1      40.882  28.689  30.470  1.00  0.00     0.031 A 
ATOM     53  C   UNL A   1      40.060  29.812  29.962  1.00  0.00     0.074 A 
ATOM     54  C   UNL A   1      41.150  28.455  31.776  1.00  0.00     0.049 A 
ATOM     55  N   UNL A   1      40.030  30.982  30.486  1.00  0.00    -0.248 NA
ATOM     56  C   UNL A   1      39.208  29.716  28.765  1.00  0.00     0.031 C 
ATOM     57  C   UNL A   1      40.626  29.169  32.934  1.00  0.00     0.029 A 
ATOM     58  N   UNL A   1      42.086  27.580  32.340  1.00  0.00    -0.354 N 
ATOM     59  C   UNL A   1      38.935  31.636  29.956  1.00  0.00     0.074 A 
ATOM     60  C   UNL A   1      38.543  30.876  28.800  1.00  0.00     0.031 C 
ATOM     61  C   UNL A   1      41.448  28.959  33.979  1.00  0.00     0.029 A 
ATOM     62  C   UNL A   1      42.606  28.239  33.465  1.00  0.00     0.049 A 
ATOM     63  H   UNL A   1      42.328  26.683  32.014  1.00  0.00     0.167 HD
ATOM     64  C   UNL A   1      38.364  32.635  30.681  1.00  0.00     0.031 A 
ATOM     65  C   UNL A   1      43.896  28.697  33.536  1.00  0.00     0.031 A 
ATOM     66  C   UNL A   1      39.097  32.813  31.926  1.00  0.00     0.049 A 
ATOM     67  C   UNL A   1      43.935  30.206  33.667  1.00  0.00     0.074 A 
ATOM     68  C   UNL A   1      38.869  32.314  33.197  1.00  0.00     0.029 A 
ATOM     69  N   UNL A   1      40.411  33.247  31.885  1.00  0.00    -0.354 N 
ATOM     70  N   UNL A   1      43.004  30.992  33.198  1.00  0.00    -0.248 NA
ATOM     71  C   UNL A   1      44.993  30.941  34.354  1.00  0.00     0.031 C 
ATOM     72  C   UNL A   1      40.091  32.389  33.909  1.00  0.00     0.029 A 
ATOM     73  C   UNL A   1      41.043  32.948  33.073  1.00  0.00     0.049 A 
ATOM     74  H   UNL A   1      40.832  33.700  31.120  1.00  0.00     0.167 HD
ATOM     75  C   UNL A   1      43.281  32.285  33.552  1.00  0.00     0.074 A 
ATOM     76  C   UNL A   1      44.551  32.208  34.249  1.00  0.00     0.031 C 
ATOM     77  C   UNL A   1      42.432  33.318  33.277  1.00  0.00     0.031 A 
BRANCH  64  78
ATOM     78  C   UNL A   1      37.001  33.247  30.470  1.00  0.00    -0.014 A 
ATOM     79  C   UNL A   1      36.662  33.639  29.154  1.00  0.00     0.010 A 
ATOM     80  C   UNL A   1      36.033  33.485  31.461  1.00  0.00     0.010 A 
ATOM     81  C   UNL A   1      35.462  34.281  28.845  1.00  0.00     0.020 A 
ATOM     82  C   UNL A   1      34.818  34.136  31.164  1.00  0.00     0.020 A 
ATOM     83  C   UNL A   1      34.547  34.536  29.856  1.00  0.00     0.054 A 
BRANCH  83  84
ATOM     84  S   UNL A   1      33.006  35.377  29.413  1.00  0.00     0.124 S 
ATOM     85  O   UNL A   1      32.463  34.503  28.374  1.00  0.00    -0.237 OA
ATOM     86  O   UNL A   1      32.275  35.381  30.676  1.00  0.00    -0.237 OA
ATOM     87  O   UNL A   1      33.449  36.688  28.945  1.00  0.00    -0.744 OA
ENDBRANCH  83  84
ENDBRANCH  64  78
BRANCH  65  88
ATOM     88  C   UNL A   1      44.872  27.893  32.738  1.00  0.00    -0.014 A 
ATOM     89  C   UNL A   1      44.904  28.121  31.346  1.00  0.00     0.010 A 
ATOM     90  C   UNL A   1      46.010  27.356  33.366  1.00  0.00     0.010 A 
ATOM     91  C   UNL A   1      46.112  28.049  30.647  1.00  0.00     0.020 A 
ATOM     92  C   UNL A   1      47.221  27.273  32.661  1.00  0.00     0.020 A 
ATOM     93  C   UNL A   1      47.277  27.711  31.334  1.00  0.00     0.054 A 
BRANCH  93  94
ATOM     94  S   UNL A   1      48.875  28.070  30.539  1.00  0.00     0.124 S 
ATOM     95  O   UNL A   1      49.345  26.740  30.168  1.00  0.00    -0.237 OA
ATOM     96  O   UNL A   1      48.476  28.935  29.425  1.00  0.00    -0.237 OA
ATOM     97  O   UNL A   1      49.633  28.732  31.595  1.00  0.00    -0.744 OA
ENDBRANCH  93  94
ENDBRANCH  65  88
BRANCH  77  98
ATOM     98  C   UNL A   1      42.778  34.784  33.291  1.00  0.00    -0.014 A 
ATOM     99  C   UNL A   1      42.204  35.710  34.172  1.00  0.00     0.010 A 
ATOM    100  C   UNL A   1      43.835  35.254  32.468  1.00  0.00     0.010 A 
ATOM    101  C   UNL A   1      42.591  37.055  34.160  1.00  0.00     0.020 A 
ATOM    102  C   UNL A   1      44.276  36.575  32.495  1.00  0.00     0.020 A 
ATOM    103  C   UNL A   1      43.616  37.480  33.314  1.00  0.00     0.054 A 
BRANCH 103 104
ATOM    104  S   UNL A   1      44.087  39.223  33.306  1.00  0.00     0.124 S 
ATOM    105  O   UNL A   1      44.817  39.324  32.045  1.00  0.00    -0.237 OA
ATOM    106  O   UNL A   1      42.796  39.904  33.340  1.00  0.00    -0.237 OA
ATOM    107  O   UNL A   1      44.896  39.370  34.512  1.00  0.00    -0.744 OA
ENDBRANCH 103 104
ENDBRANCH  77  98
ENDBRANCH  51  52
ENDBRANCH  43  46
ENDBRANCH  41  42
ENDBRANCH  40  41
ENDBRANCH  39  40
ENDBRANCH   1  39
TORSDOF 19
ENDMDL
MODEL 3
REMARK VINA RESULT:      -9.3      5.158     13.428
REMARK SMILES Cc1ccc(-c2cnnc(-n3nc(C)c4c3NC(=O)C[C@@H]4c3ccc(C(=O)NCCCCCCNC(=O)c4ccc(-c5c6nc(c(-c7ccc(S(=O)(=O)[O-])cc7)c7ccc([nH]7)c(-c7ccc(S(=O)(=O)[O-])cc7)c7nc(c(-c8ccc(S(=O)(=O)[O-])cc8)c8ccc5[nH]8)C=C7)C=C6)cc4)cc3)n2)cc1
REMARK SMILES IDX 31 1 30 2 29 3 28 4 26 5 27 6 25 8 22 9 23 10 99 11 24 12
REMARK SMILES IDX 98 13 21 14 11 15 12 16 16 17 13 18 15 19 17 20 14 21 18 22
REMARK SMILES IDX 20 24 19 25 10 26 6 27 7 28 100 29 8 30 9 31 5 32 1 33 2 34
REMARK SMILES IDX 3 35 102 36 4 37 101 38 32 39 33 40 34 41 35 42 36 43 37 45
REMARK SMILES IDX 38 46 39 47 97 48 40 49 96 50 41 51 42 52 43 53 90 54 44 55
REMARK SMILES IDX 95 56 89 57 91 58 45 59 94 60 88 61 87 62 46 64 76 65 57 66
REMARK SMILES IDX 75 67 58 68 61 69 74 70 92 71 59 72 60 73 73 75 93 76 62 77
REMARK SMILES IDX 47 78 48 79 56 80 49 81 55 82 50 83 51 84 52 85 53 86 54 87
REMARK SMILES IDX 77 88 78 89 86 90 79 91 85 92 80 93 81 94 82 95 83 96 84 97
REMARK SMILES IDX 63 98 64 99 72 100 65 101 71 102 66 103 67 104 68 105 69 106
REMARK SMILES IDX 70 107
REMARK H PARENT 28 7 17 23 35 44 91 63 61 74
REMARK Flexibility Score: inf
ROOT
ATOM      1  C   UNL A   1      44.579  26.147  26.450  1.00  0.00     0.002 C 
ENDROOT
BRANCH   1   2
ATOM      2  C   UNL A   1      45.441  26.337  27.707  1.00  0.00     0.021 C 
BRANCH   2   3
ATOM      3  C   UNL A   1      46.754  27.084  27.466  1.00  0.00     0.116 C 
BRANCH   3   4
ATOM      4  N   UNL A   1      46.771  27.730  26.161  1.00  0.00    -0.352 N 
ATOM      5  C   UNL A   1      46.396  28.990  25.765  1.00  0.00     0.251 C 
ATOM      6  O   UNL A   1      46.659  29.380  24.630  1.00  0.00    -0.269 OA
ATOM      7  H   UNL A   1      47.111  27.162  25.432  1.00  0.00     0.163 HD
BRANCH   5   8
ATOM      8  C   UNL A   1      45.745  29.925  26.710  1.00  0.00     0.039 A 
ATOM      9  C   UNL A   1      44.354  31.880  28.165  1.00  0.00    -0.040 A 
ATOM     10  C   UNL A   1      43.692  30.730  27.696  1.00  0.00     0.005 A 
ATOM     11  C   UNL A   1      45.752  31.924  28.062  1.00  0.00     0.005 A 
ATOM     12  C   UNL A   1      44.385  29.755  26.980  1.00  0.00     0.014 A 
ATOM     13  C   UNL A   1      46.440  30.960  27.328  1.00  0.00     0.014 A 
BRANCH   9  14
ATOM     14  C   UNL A   1      43.505  33.014  28.701  1.00  0.00     0.064 C 
ATOM     15  N   UNL A   1      44.196  36.439  27.769  1.00  0.00    -0.180 N 
ATOM     16  N   UNL A   1      44.167  35.963  26.493  1.00  0.00    -0.168 NA
ATOM     17  C   UNL A   1      44.405  35.376  28.633  1.00  0.00     0.143 A 
ATOM     18  C   UNL A   1      43.836  34.676  26.624  1.00  0.00     0.066 A 
ATOM     19  C   UNL A   1      43.834  34.288  27.993  1.00  0.00     0.026 A 
ATOM     20  N   UNL A   1      45.027  35.220  29.858  1.00  0.00    -0.310 N 
ATOM     21  C   UNL A   1      43.671  33.877  25.383  1.00  0.00     0.069 C 
ATOM     22  C   UNL A   1      44.873  33.966  30.547  1.00  0.00     0.226 C 
ATOM     23  H   UNL A   1      45.563  35.948  30.248  1.00  0.00     0.171 HD
ATOM     24  C   UNL A   1      43.621  33.189  30.214  1.00  0.00     0.113 C 
ATOM     25  O   UNL A   1      45.670  33.684  31.411  1.00  0.00    -0.275 OA
BRANCH  15  26
ATOM     26  C   UNL A   1      43.598  37.702  28.071  1.00  0.00     0.272 A 
ATOM     27  C   UNL A   1      43.257  39.555  29.359  1.00  0.00     0.095 A 
ATOM     28  C   UNL A   1      42.097  39.823  28.648  1.00  0.00     0.164 A 
ATOM     29  N   UNL A   1      44.011  38.442  29.125  1.00  0.00    -0.208 NA
ATOM     30  N   UNL A   1      41.700  39.029  27.649  1.00  0.00    -0.153 NA
ATOM     31  N   UNL A   1      42.489  37.983  27.332  1.00  0.00    -0.109 NA
BRANCH  27  32
ATOM     32  C   UNL A   1      43.771  40.539  30.319  1.00  0.00     0.002 A 
ATOM     33  C   UNL A   1      45.445  43.535  32.962  1.00  0.00     0.044 C 
ATOM     34  C   UNL A   1      44.877  42.506  32.029  1.00  0.00    -0.051 A 
ATOM     35  C   UNL A   1      43.587  42.661  31.513  1.00  0.00     0.004 A 
ATOM     36  C   UNL A   1      45.617  41.375  31.676  1.00  0.00     0.004 A 
ATOM     37  C   UNL A   1      43.041  41.690  30.666  1.00  0.00     0.011 A 
ATOM     38  C   UNL A   1      45.068  40.403  30.835  1.00  0.00     0.011 A 
ENDBRANCH  27  32
ENDBRANCH  15  26
ENDBRANCH   9  14
ENDBRANCH   5   8
ENDBRANCH   3   4
ENDBRANCH   2   3
ENDBRANCH   1   2
BRANCH   1  39
ATOM     39  C   UNL A   1      44.300  24.694  26.024  1.00  0.00     0.002 C 
BRANCH  39  40
ATOM     40  C   UNL A   1      42.996  24.457  25.263  1.00  0.00     0.021 C 
BRANCH  40  41
ATOM     41  C   UNL A   1      41.948  25.526  25.504  1.00  0.00     0.116 C 
BRANCH  41  42
ATOM     42  N   UNL A   1      40.630  25.032  25.880  1.00  0.00    -0.352 N 
ATOM     43  C   UNL A   1      40.153  25.098  27.188  1.00  0.00     0.251 C 
ATOM     44  H   UNL A   1      40.056  24.638  25.184  1.00  0.00     0.163 HD
ATOM     45  O   UNL A   1      39.730  24.133  27.809  1.00  0.00    -0.269 OA
BRANCH  43  46
ATOM     46  C   UNL A   1      40.082  26.462  27.762  1.00  0.00     0.039 A 
ATOM     47  C   UNL A   1      41.209  27.293  27.737  1.00  0.00     0.014 A 
ATOM     48  C   UNL A   1      38.979  26.783  28.542  1.00  0.00     0.014 A 
ATOM     49  C   UNL A   1      41.301  28.334  28.656  1.00  0.00     0.010 A 
ATOM     50  C   UNL A   1      39.143  27.671  29.562  1.00  0.00     0.010 A 
ATOM     51  C   UNL A   1      40.306  28.435  29.622  1.00  0.00    -0.014 A 
BRANCH  51  52
ATOM     52  C   UNL A   1      40.264  29.380  30.710  1.00  0.00     0.031 A 
ATOM     53  C   UNL A   1      39.447  30.596  30.485  1.00  0.00     0.074 A 
ATOM     54  C   UNL A   1      40.697  28.952  31.919  1.00  0.00     0.049 A 
ATOM     55  N   UNL A   1      39.559  31.680  31.161  1.00  0.00    -0.248 NA
ATOM     56  C   UNL A   1      38.432  30.705  29.424  1.00  0.00     0.031 C 
ATOM     57  C   UNL A   1      40.383  29.514  33.227  1.00  0.00     0.029 A 
ATOM     58  N   UNL A   1      41.649  27.970  32.216  1.00  0.00    -0.354 N 
ATOM     59  C   UNL A   1      38.442  32.445  30.891  1.00  0.00     0.074 A 
ATOM     60  C   UNL A   1      37.848  31.873  29.713  1.00  0.00     0.031 C 
ATOM     61  C   UNL A   1      41.329  29.125  34.102  1.00  0.00     0.029 A 
ATOM     62  C   UNL A   1      42.359  28.441  33.331  1.00  0.00     0.049 A 
ATOM     63  H   UNL A   1      41.790  27.120  31.739  1.00  0.00     0.167 HD
ATOM     64  C   UNL A   1      38.037  33.351  31.821  1.00  0.00     0.031 A 
ATOM     65  C   UNL A   1      43.672  28.834  33.274  1.00  0.00     0.031 A 
ATOM     66  C   UNL A   1      38.946  33.321  32.957  1.00  0.00     0.049 A 
ATOM     67  C   UNL A   1      43.817  30.306  33.601  1.00  0.00     0.074 A 
ATOM     68  C   UNL A   1      38.869  32.655  34.168  1.00  0.00     0.029 A 
ATOM     69  N   UNL A   1      40.265  33.705  32.784  1.00  0.00    -0.354 N 
ATOM     70  N   UNL A   1      42.877  31.186  33.384  1.00  0.00    -0.248 NA
ATOM     71  C   UNL A   1      45.002  30.894  34.219  1.00  0.00     0.031 C 
ATOM     72  C   UNL A   1      40.180  32.581  34.697  1.00  0.00     0.029 A 
ATOM     73  C   UNL A   1      41.038  33.215  33.815  1.00  0.00     0.049 A 
ATOM     74  H   UNL A   1      40.601  34.246  32.033  1.00  0.00     0.167 HD
ATOM     75  C   UNL A   1      43.277  32.405  33.866  1.00  0.00     0.074 A 
ATOM     76  C   UNL A   1      44.625  32.179  34.352  1.00  0.00     0.031 C 
ATOM     77  C   UNL A   1      42.461  33.498  33.861  1.00  0.00     0.031 A 
BRANCH  64  78
ATOM     78  C   UNL A   1      36.697  34.040  31.896  1.00  0.00    -0.014 A 
ATOM     79  C   UNL A   1      35.796  33.827  30.827  1.00  0.00     0.010 A 
ATOM     80  C   UNL A   1      36.256  34.894  32.923  1.00  0.00     0.010 A 
ATOM     81  C   UNL A   1      34.557  34.465  30.748  1.00  0.00     0.020 A 
ATOM     82  C   UNL A   1      35.009  35.547  32.854  1.00  0.00     0.020 A 
ATOM     83  C   UNL A   1      34.172  35.332  31.760  1.00  0.00     0.054 A 
BRANCH  83  84
ATOM     84  S   UNL A   1      32.560  36.144  31.613  1.00  0.00     0.124 S 
ATOM     85  O   UNL A   1      31.710  35.298  32.449  1.00  0.00    -0.237 OA
ATOM     86  O   UNL A   1      32.831  37.478  32.139  1.00  0.00    -0.237 OA
ATOM     87  O   UNL A   1      32.271  36.084  30.182  1.00  0.00    -0.744 OA
ENDBRANCH  83  84
ENDBRANCH  64  78
BRANCH  65  88
ATOM     88  C   UNL A   1      44.477  28.115  32.241  1.00  0.00    -0.014 A 
ATOM     89  C   UNL A   1      45.009  28.890  31.188  1.00  0.00     0.010 A 
ATOM     90  C   UNL A   1      45.093  26.892  32.564  1.00  0.00     0.010 A 
ATOM     91  C   UNL A   1      46.257  28.578  30.643  1.00  0.00     0.020 A 
ATOM     92  C   UNL A   1      46.341  26.572  32.007  1.00  0.00     0.020 A 
ATOM     93  C   UNL A   1      46.951  27.468  31.124  1.00  0.00     0.054 A 
BRANCH  93  94
ATOM     94  S   UNL A   1      48.730  27.344  30.754  1.00  0.00     0.124 S 
ATOM     95  O   UNL A   1      49.330  27.391  32.082  1.00  0.00    -0.237 OA
ATOM     96  O   UNL A   1      48.811  26.050  30.068  1.00  0.00    -0.237 OA
ATOM     97  O   UNL A   1      48.978  28.508  29.911  1.00  0.00    -0.744 OA
ENDBRANCH  93  94
ENDBRANCH  65  88
BRANCH  77  98
ATOM     98  C   UNL A   1      42.892  34.933  34.023  1.00  0.00    -0.014 A 
ATOM     99  C   UNL A   1      43.003  35.835  32.957  1.00  0.00     0.010 A 
ATOM    100  C   UNL A   1      43.073  35.458  35.329  1.00  0.00     0.010 A 
ATOM    101  C   UNL A   1      43.376  37.166  33.174  1.00  0.00     0.020 A 
ATOM    102  C   UNL A   1      43.377  36.798  35.562  1.00  0.00     0.020 A 
ATOM    103  C   UNL A   1      43.572  37.635  34.474  1.00  0.00     0.054 A 
BRANCH 103 104
ATOM    104  S   UNL A   1      44.068  39.353  34.727  1.00  0.00     0.124 S 
ATOM    105  O   UNL A   1      44.015  39.462  36.182  1.00  0.00    -0.237 OA
ATOM    106  O   UNL A   1      45.405  39.389  34.142  1.00  0.00    -0.237 OA
ATOM    107  O   UNL A   1      43.056  40.116  34.003  1.00  0.00    -0.744 OA
ENDBRANCH 103 104
ENDBRANCH  77  98
ENDBRANCH  51  52
ENDBRANCH  43  46
ENDBRANCH  41  42
ENDBRANCH  40  41
ENDBRANCH  39  40
ENDBRANCH   1  39
TORSDOF 19
ENDMDL
