MODEL 1
REMARK VINA RESULT:     -12.2      0.000      0.000
REMARK SMILES C[C@@]1(Oc2c[nH]c3ccc(Br)c(Cl)c23)O[C@@H](C(=O)NCCCCCCNC(=O)c2ccc(-c3c4nc(c(-c5ccc(S(=O)(=O)[O-])cc5)c5ccc([nH]5)c(-c5ccc(S(=O)(=O)[O-])cc5)c5nc(c(-c6ccc(S(=O)(=O)[O-])cc6)c6ccc3[nH]6)C=C5)C=C4)cc2)[C@@](C)(O)[C@@](C)(O)[C@@]1(C)O
REMARK SMILES IDX 23 1 22 2 21 3 20 4 19 5 17 6 18 7 16 9 1 10 2 11 15 12
REMARK SMILES IDX 95 13 92 14 96 15 89 16 93 17 90 18 3 19 4 20 5 21 14 22
REMARK SMILES IDX 6 23 7 24 12 25 8 27 10 28 13 29 9 30 11 31 97 32 94 34
REMARK SMILES IDX 91 36 24 38 25 39 26 40 27 41 28 43 29 44 30 45 88 46 31 47
REMARK SMILES IDX 87 48 32 49 33 50 34 51 81 52 35 53 86 54 80 55 82 56 36 57
REMARK SMILES IDX 85 58 79 59 78 60 37 62 67 63 48 64 66 65 49 66 52 67 65 68
REMARK SMILES IDX 83 69 50 70 51 71 64 73 84 74 53 75 38 76 39 77 47 78 40 79
REMARK SMILES IDX 46 80 41 81 42 82 43 83 44 84 45 85 68 86 69 87 77 88 70 89
REMARK SMILES IDX 76 90 71 91 72 92 73 93 74 94 75 95 54 96 55 97 63 98 56 99
REMARK SMILES IDX 62 100 57 101 58 102 59 103 60 104 61 105
REMARK H PARENT 19 8 6 26 97 33 94 35 91 37 26 42 82 61 52 72
REMARK Flexibility Score: inf
ROOT
ATOM      1  C   UNL A   1      33.566  28.846  25.099  1.00  0.00     0.002 C 
ENDROOT
BRANCH   1   2
ATOM      2  C   UNL A   1      34.019  28.174  23.790  1.00  0.00     0.002 C 
BRANCH   2   3
ATOM      3  C   UNL A   1      32.997  28.094  22.657  1.00  0.00     0.021 C 
BRANCH   3   4
ATOM      4  C   UNL A   1      32.501  26.681  22.347  1.00  0.00     0.116 C 
BRANCH   4   5
ATOM      5  N   UNL A   1      33.464  25.605  22.102  1.00  0.00    -0.354 N 
ATOM      6  C   UNL A   1      33.920  24.551  22.860  1.00  0.00     0.252 C 
ATOM      7  O   UNL A   1      34.339  23.598  22.179  1.00  0.00    -0.272 OA
ATOM      8  H   UNL A   1      33.872  25.644  21.206  1.00  0.00     0.163 HD
BRANCH   6   9
ATOM      9  C   UNL A   1      34.032  24.424  24.487  1.00  0.00     0.246 C 
ATOM     10  C   UNL A   1      36.638  23.191  23.779  1.00  0.00     0.094 C 
ATOM     11  C   UNL A   1      35.794  22.896  25.050  1.00  0.00     0.240 C 
ATOM     12  O   UNL A   1      35.231  24.188  25.298  1.00  0.00    -0.322 OA
ATOM     13  C   UNL A   1      34.584  21.801  25.335  1.00  0.00     0.158 C 
ATOM     14  C   UNL A   1      33.067  22.135  24.918  1.00  0.00     0.128 C 
ATOM     15  C   UNL A   1      34.467  21.597  26.878  1.00  0.00     0.053 C 
ATOM     16  C   UNL A   1      32.806  23.653  25.094  1.00  0.00     0.129 C 
ATOM     17  C   UNL A   1      32.007  21.186  25.562  1.00  0.00     0.049 C 
ATOM     18  C   UNL A   1      32.563  24.115  26.541  1.00  0.00     0.049 C 
BRANCH  11  19
ATOM     19  O   UNL A   1      36.997  22.333  25.707  1.00  0.00    -0.457 OA
BRANCH  19  20
ATOM     20  C   UNL A   1      37.980  23.097  26.187  1.00  0.00     0.150 A 
ATOM     21  C   UNL A   1      37.942  24.447  26.408  1.00  0.00     0.130 A 
ATOM     22  C   UNL A   1      39.288  22.613  26.476  1.00  0.00     0.061 A 
ATOM     23  N   UNL A   1      39.134  24.769  27.012  1.00  0.00    -0.358 N 
ATOM     24  C   UNL A   1      39.872  23.622  27.239  1.00  0.00     0.051 A 
ATOM     25  C   UNL A   1      39.938  21.362  26.385  1.00  0.00     0.068 A 
ATOM     26  H   UNL A   1      39.420  25.680  27.248  1.00  0.00     0.166 HD
ATOM     27  C   UNL A   1      40.975  23.380  28.065  1.00  0.00     0.028 A 
ATOM     28  C   UNL A   1      40.948  21.062  27.299  1.00  0.00     0.037 A 
ATOM     29  Cl  UNL A   1      39.302  20.263  25.228  1.00  0.00    -0.082 Cl
ATOM     30  C   UNL A   1      41.439  22.057  28.145  1.00  0.00     0.019 A 
ATOM     31  Br  UNL A   1      41.579  19.286  27.541  1.00  0.00    -0.049 Br
ENDBRANCH  19  20
ENDBRANCH  11  19
BRANCH  13  32
ATOM     32  O   UNL A   1      34.959  20.531  24.767  1.00  0.00    -0.380 OA
ATOM     33  H   UNL A   1      34.896  19.842  25.448  1.00  0.00     0.211 HD
ENDBRANCH  13  32
BRANCH  14  34
ATOM     34  O   UNL A   1      32.798  21.906  23.525  1.00  0.00    -0.384 OA
ATOM     35  H   UNL A   1      31.851  21.734  23.403  1.00  0.00     0.211 HD
ENDBRANCH  14  34
BRANCH  16  36
ATOM     36  O   UNL A   1      31.582  23.993  24.408  1.00  0.00    -0.384 OA
ATOM     37  H   UNL A   1      31.498  23.452  23.607  1.00  0.00     0.211 HD
ENDBRANCH  16  36
ENDBRANCH   6   9
ENDBRANCH   4   5
ENDBRANCH   3   4
ENDBRANCH   2   3
ENDBRANCH   1   2
BRANCH   1  38
ATOM     38  C   UNL A   1      33.814  28.091  26.414  1.00  0.00     0.021 C 
BRANCH  38  39
ATOM     39  C   UNL A   1      33.791  28.982  27.644  1.00  0.00     0.116 C 
BRANCH  39  40
ATOM     40  N   UNL A   1      33.894  30.397  27.290  1.00  0.00    -0.352 N 
ATOM     41  C   UNL A   1      34.881  31.311  27.574  1.00  0.00     0.251 C 
ATOM     42  H   UNL A   1      33.139  30.751  26.767  1.00  0.00     0.163 HD
ATOM     43  O   UNL A   1      34.660  32.507  27.455  1.00  0.00    -0.269 OA
BRANCH  41  44
ATOM     44  C   UNL A   1      36.207  30.834  28.001  1.00  0.00     0.039 A 
ATOM     45  C   UNL A   1      37.039  31.651  28.773  1.00  0.00     0.014 A 
ATOM     46  C   UNL A   1      36.641  29.584  27.563  1.00  0.00     0.014 A 
ATOM     47  C   UNL A   1      38.305  31.184  29.106  1.00  0.00     0.010 A 
ATOM     48  C   UNL A   1      37.814  29.058  28.021  1.00  0.00     0.010 A 
ATOM     49  C   UNL A   1      38.675  29.892  28.713  1.00  0.00    -0.014 A 
BRANCH  49  50
ATOM     50  C   UNL A   1      39.970  29.348  29.052  1.00  0.00     0.031 A 
ATOM     51  C   UNL A   1      40.226  29.283  30.507  1.00  0.00     0.074 A 
ATOM     52  C   UNL A   1      40.765  28.767  28.132  1.00  0.00     0.049 A 
ATOM     53  N   UNL A   1      40.975  30.076  31.193  1.00  0.00    -0.248 NA
ATOM     54  C   UNL A   1      39.423  28.359  31.324  1.00  0.00     0.031 C 
ATOM     55  C   UNL A   1      40.483  28.454  26.727  1.00  0.00     0.029 A 
ATOM     56  N   UNL A   1      41.992  28.228  28.314  1.00  0.00    -0.354 N 
ATOM     57  C   UNL A   1      40.924  29.607  32.497  1.00  0.00     0.074 A 
ATOM     58  C   UNL A   1      39.808  28.697  32.556  1.00  0.00     0.031 C 
ATOM     59  C   UNL A   1      41.408  27.578  26.269  1.00  0.00     0.029 A 
ATOM     60  C   UNL A   1      42.426  27.397  27.290  1.00  0.00     0.049 A 
ATOM     61  H   UNL A   1      42.538  28.411  29.114  1.00  0.00     0.167 HD
ATOM     62  C   UNL A   1      41.959  29.805  33.359  1.00  0.00     0.031 A 
ATOM     63  C   UNL A   1      43.514  26.584  27.330  1.00  0.00     0.031 A 
ATOM     64  C   UNL A   1      42.928  30.726  32.821  1.00  0.00     0.049 A 
ATOM     65  C   UNL A   1      44.402  27.136  28.392  1.00  0.00     0.074 A 
ATOM     66  C   UNL A   1      42.890  32.047  32.423  1.00  0.00     0.029 A 
ATOM     67  N   UNL A   1      44.032  30.172  32.211  1.00  0.00    -0.354 N 
ATOM     68  N   UNL A   1      44.948  28.323  28.320  1.00  0.00    -0.248 NA
ATOM     69  C   UNL A   1      44.268  26.598  29.739  1.00  0.00     0.031 C 
ATOM     70  C   UNL A   1      43.671  32.089  31.231  1.00  0.00     0.029 A 
ATOM     71  C   UNL A   1      44.206  30.816  31.011  1.00  0.00     0.049 A 
ATOM     72  H   UNL A   1      44.594  29.446  32.569  1.00  0.00     0.167 HD
ATOM     73  C   UNL A   1      44.832  28.852  29.600  1.00  0.00     0.074 A 
ATOM     74  C   UNL A   1      44.473  27.714  30.447  1.00  0.00     0.031 C 
ATOM     75  C   UNL A   1      44.750  30.199  29.817  1.00  0.00     0.031 A 
BRANCH  62  76
ATOM     76  C   UNL A   1      42.303  28.870  34.482  1.00  0.00    -0.014 A 
ATOM     77  C   UNL A   1      42.878  29.402  35.651  1.00  0.00     0.010 A 
ATOM     78  C   UNL A   1      42.339  27.470  34.319  1.00  0.00     0.010 A 
ATOM     79  C   UNL A   1      43.517  28.575  36.582  1.00  0.00     0.020 A 
ATOM     80  C   UNL A   1      42.935  26.632  35.262  1.00  0.00     0.020 A 
ATOM     81  C   UNL A   1      43.550  27.195  36.373  1.00  0.00     0.054 A 
BRANCH  81  82
ATOM     82  S   UNL A   1      44.490  26.154  37.514  1.00  0.00     0.124 S 
ATOM     83  O   UNL A   1      43.804  26.396  38.780  1.00  0.00    -0.237 OA
ATOM     84  O   UNL A   1      44.308  24.826  36.937  1.00  0.00    -0.237 OA
ATOM     85  O   UNL A   1      45.847  26.688  37.428  1.00  0.00    -0.744 OA
ENDBRANCH  81  82
ENDBRANCH  62  76
BRANCH  63  86
ATOM     86  C   UNL A   1      43.589  25.178  26.834  1.00  0.00    -0.014 A 
ATOM     87  C   UNL A   1      42.995  24.798  25.613  1.00  0.00     0.010 A 
ATOM     88  C   UNL A   1      44.477  24.257  27.431  1.00  0.00     0.010 A 
ATOM     89  C   UNL A   1      43.330  23.579  24.986  1.00  0.00     0.020 A 
ATOM     90  C   UNL A   1      44.809  23.042  26.818  1.00  0.00     0.020 A 
ATOM     91  C   UNL A   1      44.256  22.720  25.583  1.00  0.00     0.054 A 
BRANCH  91  92
ATOM     92  S   UNL A   1      44.804  21.225  24.702  1.00  0.00     0.124 S 
ATOM     93  O   UNL A   1      44.749  21.643  23.304  1.00  0.00    -0.237 OA
ATOM     94  O   UNL A   1      46.141  21.015  25.248  1.00  0.00    -0.237 OA
ATOM     95  O   UNL A   1      43.815  20.218  25.085  1.00  0.00    -0.744 OA
ENDBRANCH  91  92
ENDBRANCH  63  86
BRANCH  75  96
ATOM     96  C   UNL A   1      45.029  31.150  28.675  1.00  0.00    -0.014 A 
ATOM     97  C   UNL A   1      44.068  31.525  27.714  1.00  0.00     0.010 A 
ATOM     98  C   UNL A   1      46.236  31.868  28.733  1.00  0.00     0.010 A 
ATOM     99  C   UNL A   1      44.310  32.605  26.846  1.00  0.00     0.020 A 
ATOM    100  C   UNL A   1      46.474  32.950  27.883  1.00  0.00     0.020 A 
ATOM    101  C   UNL A   1      45.508  33.320  26.949  1.00  0.00     0.054 A 
BRANCH 101 102
ATOM    102  S   UNL A   1      45.787  34.768  25.887  1.00  0.00     0.124 S 
ATOM    103  O   UNL A   1      47.237  34.931  25.936  1.00  0.00    -0.237 OA
ATOM    104  O   UNL A   1      45.245  34.331  24.602  1.00  0.00    -0.237 OA
ATOM    105  O   UNL A   1      45.026  35.833  26.541  1.00  0.00    -0.744 OA
ENDBRANCH 101 102
ENDBRANCH  75  96
ENDBRANCH  49  50
ENDBRANCH  41  44
ENDBRANCH  39  40
ENDBRANCH  38  39
ENDBRANCH   1  38
TORSDOF 21
ENDMDL
MODEL 2
REMARK VINA RESULT:     -12.1      2.989      9.384
REMARK SMILES C[C@@]1(Oc2c[nH]c3ccc(Br)c(Cl)c23)O[C@@H](C(=O)NCCCCCCNC(=O)c2ccc(-c3c4nc(c(-c5ccc(S(=O)(=O)[O-])cc5)c5ccc([nH]5)c(-c5ccc(S(=O)(=O)[O-])cc5)c5nc(c(-c6ccc(S(=O)(=O)[O-])cc6)c6ccc3[nH]6)C=C5)C=C4)cc2)[C@@](C)(O)[C@@](C)(O)[C@@]1(C)O
REMARK SMILES IDX 23 1 22 2 21 3 20 4 19 5 17 6 18 7 16 9 1 10 2 11 15 12
REMARK SMILES IDX 95 13 92 14 96 15 89 16 93 17 90 18 3 19 4 20 5 21 14 22
REMARK SMILES IDX 6 23 7 24 12 25 8 27 10 28 13 29 9 30 11 31 97 32 94 34
REMARK SMILES IDX 91 36 24 38 25 39 26 40 27 41 28 43 29 44 30 45 88 46 31 47
REMARK SMILES IDX 87 48 32 49 33 50 34 51 81 52 35 53 86 54 80 55 82 56 36 57
REMARK SMILES IDX 85 58 79 59 78 60 37 62 67 63 48 64 66 65 49 66 52 67 65 68
REMARK SMILES IDX 83 69 50 70 51 71 64 73 84 74 53 75 38 76 39 77 47 78 40 79
REMARK SMILES IDX 46 80 41 81 42 82 43 83 44 84 45 85 68 86 69 87 77 88 70 89
REMARK SMILES IDX 76 90 71 91 72 92 73 93 74 94 75 95 54 96 55 97 63 98 56 99
REMARK SMILES IDX 62 100 57 101 58 102 59 103 60 104 61 105
REMARK H PARENT 19 8 6 26 97 33 94 35 91 37 26 42 82 61 52 72
REMARK Flexibility Score: inf
ROOT
ATOM      1  C   UNL A   1      39.754  22.674  27.244  1.00  0.00     0.002 C 
ENDROOT
BRANCH   1   2
ATOM      2  C   UNL A   1      38.654  22.656  26.166  1.00  0.00     0.002 C 
BRANCH   2   3
ATOM      3  C   UNL A   1      38.413  21.335  25.437  1.00  0.00     0.021 C 
BRANCH   3   4
ATOM      4  C   UNL A   1      36.949  21.055  25.096  1.00  0.00     0.116 C 
BRANCH   4   5
ATOM      5  N   UNL A   1      35.918  21.194  26.127  1.00  0.00    -0.354 N 
ATOM      6  C   UNL A   1      34.557  21.393  26.085  1.00  0.00     0.252 C 
ATOM      7  O   UNL A   1      33.966  20.978  27.098  1.00  0.00    -0.272 OA
ATOM      8  H   UNL A   1      36.274  21.132  27.043  1.00  0.00     0.163 HD
BRANCH   6   9
ATOM      9  C   UNL A   1      33.659  22.136  24.938  1.00  0.00     0.246 C 
ATOM     10  C   UNL A   1      35.429  24.414  25.641  1.00  0.00     0.094 C 
ATOM     11  C   UNL A   1      33.982  24.508  25.084  1.00  0.00     0.240 C 
ATOM     12  O   UNL A   1      33.959  23.375  24.212  1.00  0.00    -0.322 OA
ATOM     13  C   UNL A   1      32.510  24.536  25.845  1.00  0.00     0.158 C 
ATOM     14  C   UNL A   1      31.798  23.166  26.291  1.00  0.00     0.128 C 
ATOM     15  C   UNL A   1      31.465  25.150  24.862  1.00  0.00     0.053 C 
ATOM     16  C   UNL A   1      32.124  22.055  25.261  1.00  0.00     0.129 C 
ATOM     17  C   UNL A   1      30.289  23.325  26.662  1.00  0.00     0.049 C 
ATOM     18  C   UNL A   1      31.313  22.111  23.955  1.00  0.00     0.049 C 
BRANCH  11  19
ATOM     19  O   UNL A   1      34.240  25.911  24.677  1.00  0.00    -0.457 OA
BRANCH  19  20
ATOM     20  C   UNL A   1      33.576  26.507  23.685  1.00  0.00     0.150 A 
ATOM     21  C   UNL A   1      33.390  26.033  22.415  1.00  0.00     0.130 A 
ATOM     22  C   UNL A   1      33.008  27.809  23.787  1.00  0.00     0.061 A 
ATOM     23  N   UNL A   1      32.552  26.928  21.793  1.00  0.00    -0.358 N 
ATOM     24  C   UNL A   1      32.155  27.904  22.689  1.00  0.00     0.051 A 
ATOM     25  C   UNL A   1      32.939  28.799  24.792  1.00  0.00     0.068 A 
ATOM     26  H   UNL A   1      32.276  26.881  20.850  1.00  0.00     0.166 HD
ATOM     27  C   UNL A   1      31.110  28.832  22.642  1.00  0.00     0.028 A 
ATOM     28  C   UNL A   1      31.827  29.640  24.832  1.00  0.00     0.037 A 
ATOM     29  Cl  UNL A   1      34.186  28.765  25.972  1.00  0.00    -0.082 Cl
ATOM     30  C   UNL A   1      30.913  29.634  23.778  1.00  0.00     0.019 A 
ATOM     31  Br  UNL A   1      31.428  30.695  26.360  1.00  0.00    -0.049 Br
ENDBRANCH  19  20
ENDBRANCH  11  19
BRANCH  13  32
ATOM     32  O   UNL A   1      32.589  25.418  26.983  1.00  0.00    -0.380 OA
ATOM     33  H   UNL A   1      33.419  25.256  27.460  1.00  0.00     0.211 HD
ENDBRANCH  13  32
BRANCH  14  34
ATOM     34  O   UNL A   1      32.307  22.637  27.527  1.00  0.00    -0.384 OA
ATOM     35  H   UNL A   1      32.533  23.369  28.122  1.00  0.00     0.211 HD
ENDBRANCH  14  34
BRANCH  16  36
ATOM     36  O   UNL A   1      31.777  20.776  25.834  1.00  0.00    -0.384 OA
ATOM     37  H   UNL A   1      30.811  20.689  25.867  1.00  0.00     0.211 HD
ENDBRANCH  16  36
ENDBRANCH   6   9
ENDBRANCH   4   5
ENDBRANCH   3   4
ENDBRANCH   2   3
ENDBRANCH   1   2
BRANCH   1  38
ATOM     38  C   UNL A   1      40.748  21.503  27.271  1.00  0.00     0.021 C 
BRANCH  38  39
ATOM     39  C   UNL A   1      42.165  21.914  27.633  1.00  0.00     0.116 C 
BRANCH  39  40
ATOM     40  N   UNL A   1      42.941  22.285  26.451  1.00  0.00    -0.352 N 
ATOM     41  C   UNL A   1      43.079  23.504  25.829  1.00  0.00     0.251 C 
ATOM     42  H   UNL A   1      43.442  21.547  26.034  1.00  0.00     0.163 HD
ATOM     43  O   UNL A   1      43.523  23.564  24.693  1.00  0.00    -0.269 OA
BRANCH  41  44
ATOM     44  C   UNL A   1      42.707  24.730  26.553  1.00  0.00     0.039 A 
ATOM     45  C   UNL A   1      41.654  25.531  26.096  1.00  0.00     0.014 A 
ATOM     46  C   UNL A   1      43.465  25.111  27.658  1.00  0.00     0.014 A 
ATOM     47  C   UNL A   1      41.374  26.709  26.776  1.00  0.00     0.010 A 
ATOM     48  C   UNL A   1      43.092  26.179  28.421  1.00  0.00     0.010 A 
ATOM     49  C   UNL A   1      42.108  27.018  27.927  1.00  0.00    -0.014 A 
BRANCH  49  50
ATOM     50  C   UNL A   1      41.842  28.219  28.685  1.00  0.00     0.031 A 
ATOM     51  C   UNL A   1      42.899  29.247  28.565  1.00  0.00     0.074 A 
ATOM     52  C   UNL A   1      40.648  28.449  29.267  1.00  0.00     0.049 A 
ATOM     53  N   UNL A   1      43.796  29.534  29.443  1.00  0.00    -0.248 NA
ATOM     54  C   UNL A   1      43.104  29.899  27.261  1.00  0.00     0.031 C 
ATOM     55  C   UNL A   1      39.405  27.675  29.169  1.00  0.00     0.029 A 
ATOM     56  N   UNL A   1      40.271  29.520  30.002  1.00  0.00    -0.354 N 
ATOM     57  C   UNL A   1      44.540  30.570  28.897  1.00  0.00     0.074 A 
ATOM     58  C   UNL A   1      44.211  30.607  27.494  1.00  0.00     0.031 C 
ATOM     59  C   UNL A   1      38.373  28.428  29.618  1.00  0.00     0.029 A 
ATOM     60  C   UNL A   1      38.902  29.660  30.177  1.00  0.00     0.049 A 
ATOM     61  H   UNL A   1      40.921  30.153  30.385  1.00  0.00     0.167 HD
ATOM     62  C   UNL A   1      45.171  31.480  29.689  1.00  0.00     0.031 A 
ATOM     63  C   UNL A   1      38.271  30.748  30.690  1.00  0.00     0.031 A 
ATOM     64  C   UNL A   1      45.155  31.079  31.073  1.00  0.00     0.049 A 
ATOM     65  C   UNL A   1      39.295  31.479  31.490  1.00  0.00     0.074 A 
ATOM     66  C   UNL A   1      45.649  29.996  31.772  1.00  0.00     0.029 A 
ATOM     67  N   UNL A   1      44.171  31.631  31.863  1.00  0.00    -0.354 N 
ATOM     68  N   UNL A   1      39.871  30.970  32.549  1.00  0.00    -0.248 NA
ATOM     69  C   UNL A   1      40.043  32.541  30.830  1.00  0.00     0.031 C 
ATOM     70  C   UNL A   1      44.621  29.666  32.703  1.00  0.00     0.029 A 
ATOM     71  C   UNL A   1      43.596  30.609  32.578  1.00  0.00     0.049 A 
ATOM     72  H   UNL A   1      43.924  32.583  31.908  1.00  0.00     0.167 HD
ATOM     73  C   UNL A   1      41.208  31.332  32.441  1.00  0.00     0.074 A 
ATOM     74  C   UNL A   1      41.239  32.361  31.401  1.00  0.00     0.031 C 
ATOM     75  C   UNL A   1      42.205  30.571  32.986  1.00  0.00     0.031 A 
BRANCH  62  76
ATOM     76  C   UNL A   1      45.428  32.903  29.286  1.00  0.00    -0.014 A 
ATOM     77  C   UNL A   1      44.331  33.770  29.133  1.00  0.00     0.010 A 
ATOM     78  C   UNL A   1      46.674  33.336  28.787  1.00  0.00     0.010 A 
ATOM     79  C   UNL A   1      44.461  34.987  28.454  1.00  0.00     0.020 A 
ATOM     80  C   UNL A   1      46.824  34.566  28.146  1.00  0.00     0.020 A 
ATOM     81  C   UNL A   1      45.707  35.370  27.954  1.00  0.00     0.054 A 
BRANCH  81  82
ATOM     82  S   UNL A   1      45.833  36.880  26.967  1.00  0.00     0.124 S 
ATOM     83  O   UNL A   1      46.628  37.744  27.835  1.00  0.00    -0.237 OA
ATOM     84  O   UNL A   1      46.504  36.401  25.763  1.00  0.00    -0.237 OA
ATOM     85  O   UNL A   1      44.443  37.287  26.784  1.00  0.00    -0.744 OA
ENDBRANCH  81  82
ENDBRANCH  62  76
BRANCH  63  86
ATOM     86  C   UNL A   1      37.022  31.378  30.169  1.00  0.00    -0.014 A 
ATOM     87  C   UNL A   1      35.977  31.762  31.033  1.00  0.00     0.010 A 
ATOM     88  C   UNL A   1      36.961  31.848  28.838  1.00  0.00     0.010 A 
ATOM     89  C   UNL A   1      34.956  32.634  30.602  1.00  0.00     0.020 A 
ATOM     90  C   UNL A   1      35.946  32.709  28.401  1.00  0.00     0.020 A 
ATOM     91  C   UNL A   1      34.963  33.123  29.293  1.00  0.00     0.054 A 
BRANCH  91  92
ATOM     92  S   UNL A   1      33.736  34.366  28.784  1.00  0.00     0.124 S 
ATOM     93  O   UNL A   1      34.573  35.430  28.236  1.00  0.00    -0.237 OA
ATOM     94  O   UNL A   1      32.931  33.631  27.813  1.00  0.00    -0.237 OA
ATOM     95  O   UNL A   1      33.047  34.702  30.029  1.00  0.00    -0.744 OA
ENDBRANCH  91  92
ENDBRANCH  63  86
BRANCH  75  96
ATOM     96  C   UNL A   1      41.844  29.445  33.928  1.00  0.00    -0.014 A 
ATOM     97  C   UNL A   1      41.618  28.117  33.512  1.00  0.00     0.010 A 
ATOM     98  C   UNL A   1      41.984  29.703  35.302  1.00  0.00     0.010 A 
ATOM     99  C   UNL A   1      41.550  27.075  34.454  1.00  0.00     0.020 A 
ATOM    100  C   UNL A   1      41.932  28.670  36.240  1.00  0.00     0.020 A 
ATOM    101  C   UNL A   1      41.724  27.359  35.813  1.00  0.00     0.054 A 
BRANCH 101 102
ATOM    102  S   UNL A   1      41.723  26.004  37.024  1.00  0.00     0.124 S 
ATOM    103  O   UNL A   1      40.362  26.045  37.553  1.00  0.00    -0.237 OA
ATOM    104  O   UNL A   1      42.043  24.839  36.201  1.00  0.00    -0.237 OA
ATOM    105  O   UNL A   1      42.765  26.386  37.976  1.00  0.00    -0.744 OA
ENDBRANCH 101 102
ENDBRANCH  75  96
ENDBRANCH  49  50
ENDBRANCH  41  44
ENDBRANCH  39  40
ENDBRANCH  38  39
ENDBRANCH   1  38
TORSDOF 21
ENDMDL
MODEL 3
REMARK VINA RESULT:     -11.4      2.075      3.628
REMARK SMILES C[C@@]1(Oc2c[nH]c3ccc(Br)c(Cl)c23)O[C@@H](C(=O)NCCCCCCNC(=O)c2ccc(-c3c4nc(c(-c5ccc(S(=O)(=O)[O-])cc5)c5ccc([nH]5)c(-c5ccc(S(=O)(=O)[O-])cc5)c5nc(c(-c6ccc(S(=O)(=O)[O-])cc6)c6ccc3[nH]6)C=C5)C=C4)cc2)[C@@](C)(O)[C@@](C)(O)[C@@]1(C)O
REMARK SMILES IDX 23 1 22 2 21 3 20 4 19 5 17 6 18 7 16 9 1 10 2 11 15 12
REMARK SMILES IDX 95 13 92 14 96 15 89 16 93 17 90 18 3 19 4 20 5 21 14 22
REMARK SMILES IDX 6 23 7 24 12 25 8 27 10 28 13 29 9 30 11 31 97 32 94 34
REMARK SMILES IDX 91 36 24 38 25 39 26 40 27 41 28 43 29 44 30 45 88 46 31 47
REMARK SMILES IDX 87 48 32 49 33 50 34 51 81 52 35 53 86 54 80 55 82 56 36 57
REMARK SMILES IDX 85 58 79 59 78 60 37 62 67 63 48 64 66 65 49 66 52 67 65 68
REMARK SMILES IDX 83 69 50 70 51 71 64 73 84 74 53 75 38 76 39 77 47 78 40 79
REMARK SMILES IDX 46 80 41 81 42 82 43 83 44 84 45 85 68 86 69 87 77 88 70 89
REMARK SMILES IDX 76 90 71 91 72 92 73 93 74 94 75 95 54 96 55 97 63 98 56 99
REMARK SMILES IDX 62 100 57 101 58 102 59 103 60 104 61 105
REMARK H PARENT 19 8 6 26 97 33 94 35 91 37 26 42 82 61 52 72
REMARK Flexibility Score: inf
ROOT
ATOM      1  C   UNL A   1      33.682  31.156  27.601  1.00  0.00     0.002 C 
ENDROOT
BRANCH   1   2
ATOM      2  C   UNL A   1      32.565  32.154  27.243  1.00  0.00     0.002 C 
BRANCH   2   3
ATOM      3  C   UNL A   1      31.403  31.628  26.402  1.00  0.00     0.021 C 
BRANCH   3   4
ATOM      4  C   UNL A   1      31.552  30.174  25.952  1.00  0.00     0.116 C 
BRANCH   4   5
ATOM      5  N   UNL A   1      32.214  29.865  24.683  1.00  0.00    -0.354 N 
ATOM      6  C   UNL A   1      32.054  28.866  23.750  1.00  0.00     0.252 C 
ATOM      7  O   UNL A   1      32.429  29.192  22.609  1.00  0.00    -0.272 OA
ATOM      8  H   UNL A   1      32.922  30.507  24.447  1.00  0.00     0.163 HD
BRANCH   6   9
ATOM      9  C   UNL A   1      31.510  27.338  23.959  1.00  0.00     0.246 C 
ATOM     10  C   UNL A   1      33.904  27.184  25.707  1.00  0.00     0.094 C 
ATOM     11  C   UNL A   1      33.238  26.002  24.949  1.00  0.00     0.240 C 
ATOM     12  O   UNL A   1      31.862  26.386  25.018  1.00  0.00    -0.322 OA
ATOM     13  C   UNL A   1      33.476  25.402  23.423  1.00  0.00     0.158 C 
ATOM     14  C   UNL A   1      32.742  26.074  22.160  1.00  0.00     0.128 C 
ATOM     15  C   UNL A   1      32.932  23.940  23.385  1.00  0.00     0.053 C 
ATOM     16  C   UNL A   1      31.345  26.589  22.589  1.00  0.00     0.129 C 
ATOM     17  C   UNL A   1      32.775  25.199  20.866  1.00  0.00     0.049 C 
ATOM     18  C   UNL A   1      30.256  25.509  22.711  1.00  0.00     0.049 C 
BRANCH  11  19
ATOM     19  O   UNL A   1      33.920  25.048  25.857  1.00  0.00    -0.457 OA
BRANCH  19  20
ATOM     20  C   UNL A   1      33.378  23.883  26.214  1.00  0.00     0.150 A 
ATOM     21  C   UNL A   1      32.115  23.673  26.697  1.00  0.00     0.130 A 
ATOM     22  C   UNL A   1      34.090  22.649  26.217  1.00  0.00     0.061 A 
ATOM     23  N   UNL A   1      31.971  22.311  26.811  1.00  0.00    -0.358 N 
ATOM     24  C   UNL A   1      33.100  21.675  26.329  1.00  0.00     0.051 A 
ATOM     25  C   UNL A   1      35.408  22.250  25.903  1.00  0.00     0.068 A 
ATOM     26  H   UNL A   1      31.182  21.856  27.181  1.00  0.00     0.166 HD
ATOM     27  C   UNL A   1      33.325  20.346  25.955  1.00  0.00     0.028 A 
ATOM     28  C   UNL A   1      35.619  20.967  25.398  1.00  0.00     0.037 A 
ATOM     29  Cl  UNL A   1      36.617  23.462  26.039  1.00  0.00    -0.082 Cl
ATOM     30  C   UNL A   1      34.578  20.038  25.403  1.00  0.00     0.019 A 
ATOM     31  Br  UNL A   1      37.250  20.484  24.552  1.00  0.00    -0.049 Br
ENDBRANCH  19  20
ENDBRANCH  11  19
BRANCH  13  32
ATOM     32  O   UNL A   1      34.893  25.334  23.163  1.00  0.00    -0.380 OA
ATOM     33  H   UNL A   1      35.189  24.413  23.234  1.00  0.00     0.211 HD
ENDBRANCH  13  32
BRANCH  14  34
ATOM     34  O   UNL A   1      33.404  27.256  21.681  1.00  0.00    -0.384 OA
ATOM     35  H   UNL A   1      33.791  27.079  20.810  1.00  0.00     0.211 HD
ENDBRANCH  14  34
BRANCH  16  36
ATOM     36  O   UNL A   1      30.845  27.475  21.564  1.00  0.00    -0.384 OA
ATOM     37  H   UNL A   1      30.977  28.396  21.840  1.00  0.00     0.211 HD
ENDBRANCH  16  36
ENDBRANCH   6   9
ENDBRANCH   4   5
ENDBRANCH   3   4
ENDBRANCH   2   3
ENDBRANCH   1   2
BRANCH   1  38
ATOM     38  C   UNL A   1      35.112  31.702  27.740  1.00  0.00     0.021 C 
BRANCH  38  39
ATOM     39  C   UNL A   1      35.182  33.072  28.392  1.00  0.00     0.116 C 
BRANCH  39  40
ATOM     40  N   UNL A   1      34.750  33.031  29.788  1.00  0.00    -0.352 N 
ATOM     41  C   UNL A   1      35.195  32.251  30.829  1.00  0.00     0.251 C 
ATOM     42  H   UNL A   1      34.027  33.658  30.017  1.00  0.00     0.163 HD
ATOM     43  O   UNL A   1      34.522  32.144  31.843  1.00  0.00    -0.269 OA
BRANCH  41  44
ATOM     44  C   UNL A   1      36.495  31.570  30.718  1.00  0.00     0.039 A 
ATOM     45  C   UNL A   1      37.676  32.310  30.599  1.00  0.00     0.014 A 
ATOM     46  C   UNL A   1      36.517  30.177  30.664  1.00  0.00     0.014 A 
ATOM     47  C   UNL A   1      38.874  31.627  30.439  1.00  0.00     0.010 A 
ATOM     48  C   UNL A   1      37.704  29.502  30.670  1.00  0.00     0.010 A 
ATOM     49  C   UNL A   1      38.865  30.227  30.467  1.00  0.00    -0.014 A 
BRANCH  49  50
ATOM     50  C   UNL A   1      40.086  29.467  30.329  1.00  0.00     0.031 A 
ATOM     51  C   UNL A   1      40.841  29.316  31.592  1.00  0.00     0.074 A 
ATOM     52  C   UNL A   1      40.385  28.792  29.201  1.00  0.00     0.049 A 
ATOM     53  N   UNL A   1      41.907  29.953  31.932  1.00  0.00    -0.248 NA
ATOM     54  C   UNL A   1      40.250  28.511  32.674  1.00  0.00     0.031 C 
ATOM     55  C   UNL A   1      39.563  28.574  28.006  1.00  0.00     0.029 A 
ATOM     56  N   UNL A   1      41.488  28.053  28.940  1.00  0.00    -0.354 N 
ATOM     57  C   UNL A   1      42.259  29.459  33.180  1.00  0.00     0.074 A 
ATOM     58  C   UNL A   1      41.108  28.743  33.670  1.00  0.00     0.031 C 
ATOM     59  C   UNL A   1      40.101  27.572  27.270  1.00  0.00     0.029 A 
ATOM     60  C   UNL A   1      41.376  27.195  27.855  1.00  0.00     0.049 A 
ATOM     61  H   UNL A   1      42.309  28.119  29.480  1.00  0.00     0.167 HD
ATOM     62  C   UNL A   1      43.554  29.457  33.599  1.00  0.00     0.031 A 
ATOM     63  C   UNL A   1      42.254  26.213  27.522  1.00  0.00     0.031 A 
ATOM     64  C   UNL A   1      44.398  30.221  32.716  1.00  0.00     0.049 A 
ATOM     65  C   UNL A   1      43.546  26.578  28.169  1.00  0.00     0.074 A 
ATOM     66  C   UNL A   1      44.435  31.542  32.318  1.00  0.00     0.029 A 
ATOM     67  N   UNL A   1      45.097  29.513  31.763  1.00  0.00    -0.354 N 
ATOM     68  N   UNL A   1      44.215  27.661  27.866  1.00  0.00    -0.248 NA
ATOM     69  C   UNL A   1      43.824  26.028  29.489  1.00  0.00     0.031 C 
ATOM     70  C   UNL A   1      44.724  31.493  30.923  1.00  0.00     0.029 A 
ATOM     71  C   UNL A   1      44.925  30.157  30.563  1.00  0.00     0.049 A 
ATOM     72  H   UNL A   1      45.623  28.694  31.915  1.00  0.00     0.167 HD
ATOM     73  C   UNL A   1      44.662  28.161  29.083  1.00  0.00     0.074 A 
ATOM     74  C   UNL A   1      44.454  27.072  30.038  1.00  0.00     0.031 C 
ATOM     75  C   UNL A   1      44.887  29.496  29.273  1.00  0.00     0.031 A 
BRANCH  62  76
ATOM     76  C   UNL A   1      44.125  28.443  34.548  1.00  0.00    -0.014 A 
ATOM     77  C   UNL A   1      44.333  27.129  34.087  1.00  0.00     0.010 A 
ATOM     78  C   UNL A   1      44.199  28.664  35.939  1.00  0.00     0.010 A 
ATOM     79  C   UNL A   1      44.542  26.075  34.983  1.00  0.00     0.020 A 
ATOM     80  C   UNL A   1      44.450  27.627  36.837  1.00  0.00     0.020 A 
ATOM     81  C   UNL A   1      44.587  26.332  36.355  1.00  0.00     0.054 A 
BRANCH  81  82
ATOM     82  S   UNL A   1      44.726  24.944  37.506  1.00  0.00     0.124 S 
ATOM     83  O   UNL A   1      45.946  24.287  37.043  1.00  0.00    -0.237 OA
ATOM     84  O   UNL A   1      44.821  25.624  38.793  1.00  0.00    -0.237 OA
ATOM     85  O   UNL A   1      43.492  24.192  37.289  1.00  0.00    -0.744 OA
ENDBRANCH  81  82
ENDBRANCH  62  76
BRANCH  63  86
ATOM     86  C   UNL A   1      41.910  24.830  27.077  1.00  0.00    -0.014 A 
ATOM     87  C   UNL A   1      42.586  24.215  26.003  1.00  0.00     0.010 A 
ATOM     88  C   UNL A   1      41.094  24.003  27.880  1.00  0.00     0.010 A 
ATOM     89  C   UNL A   1      42.501  22.824  25.787  1.00  0.00     0.020 A 
ATOM     90  C   UNL A   1      40.999  22.622  27.667  1.00  0.00     0.020 A 
ATOM     91  C   UNL A   1      41.726  22.032  26.639  1.00  0.00     0.054 A 
BRANCH  91  92
ATOM     92  S   UNL A   1      41.740  20.222  26.456  1.00  0.00     0.124 S 
ATOM     93  O   UNL A   1      40.345  19.925  26.142  1.00  0.00    -0.237 OA
ATOM     94  O   UNL A   1      42.690  20.027  25.365  1.00  0.00    -0.237 OA
ATOM     95  O   UNL A   1      42.194  19.747  27.762  1.00  0.00    -0.744 OA
ENDBRANCH  91  92
ENDBRANCH  63  86
BRANCH  75  96
ATOM     96  C   UNL A   1      44.884  30.423  28.078  1.00  0.00    -0.014 A 
ATOM     97  C   UNL A   1      43.716  30.806  27.386  1.00  0.00     0.010 A 
ATOM     98  C   UNL A   1      46.078  31.113  27.813  1.00  0.00     0.010 A 
ATOM     99  C   UNL A   1      43.749  31.866  26.463  1.00  0.00     0.020 A 
ATOM    100  C   UNL A   1      46.112  32.177  26.909  1.00  0.00     0.020 A 
ATOM    101  C   UNL A   1      44.946  32.555  26.244  1.00  0.00     0.054 A 
BRANCH 101 102
ATOM    102  S   UNL A   1      44.972  33.981  25.117  1.00  0.00     0.124 S 
ATOM    103  O   UNL A   1      44.452  33.419  23.873  1.00  0.00    -0.237 OA
ATOM    104  O   UNL A   1      44.095  34.937  25.790  1.00  0.00    -0.237 OA
ATOM    105  O   UNL A   1      46.382  34.368  25.075  1.00  0.00    -0.744 OA
ENDBRANCH 101 102
ENDBRANCH  75  96
ENDBRANCH  49  50
ENDBRANCH  41  44
ENDBRANCH  39  40
ENDBRANCH  38  39
ENDBRANCH   1  38
TORSDOF 21
ENDMDL
