MODEL 1
REMARK VINA RESULT:     -11.7      0.000      0.000
REMARK SMILES COC(=O)c1cc(F)cc(-c2ccc(C(=O)NCCCCCCNC(=O)c3ccc(-c4c5nc(c(-c6ccc(S(=O)(=O)[O-])cc6)c6ccc([nH]6)c(-c6ccc(S(=O)(=O)[O-])cc6)c6nc(c(-c7ccc(S(=O)(=O)[O-])cc7)c7ccc4[nH]7)C=C6)C=C5)cc3)cc2C)c1
REMARK SMILES IDX 20 1 19 2 18 3 17 4 15 5 16 6 14 8 11 9 12 10 88 11 13 12
REMARK SMILES IDX 87 13 89 14 10 15 5 16 6 17 90 18 7 19 8 20 9 21 3 22 4 23
REMARK SMILES IDX 2 24 1 25 21 26 22 27 23 28 24 29 25 30 26 32 27 33 28 34
REMARK SMILES IDX 86 35 29 36 85 37 30 38 31 39 32 40 79 41 33 42 84 43 78 44
REMARK SMILES IDX 80 45 34 46 83 47 77 48 76 49 35 51 65 52 46 53 64 54 47 55
REMARK SMILES IDX 50 56 63 57 81 58 48 59 49 60 62 62 82 63 51 64 36 65 37 66
REMARK SMILES IDX 45 67 38 68 44 69 39 70 40 71 41 72 42 73 43 74 66 75 67 76
REMARK SMILES IDX 75 77 68 78 74 79 69 80 70 81 71 82 72 83 73 84 52 85 53 86
REMARK SMILES IDX 61 87 54 88 60 89 55 90 56 91 57 92 58 93 59 94
REMARK H PARENT 17 7 24 31 80 50 50 61
REMARK Flexibility Score: inf
ROOT
ATOM      1  C   UNL A   1      32.900  28.701  23.402  1.00  0.00     0.002 C 
ENDROOT
BRANCH   1   2
ATOM      2  C   UNL A   1      32.603  27.466  22.556  1.00  0.00     0.021 C 
BRANCH   2   3
ATOM      3  C   UNL A   1      31.141  27.153  22.256  1.00  0.00     0.116 C 
BRANCH   3   4
ATOM      4  N   UNL A   1      30.293  27.000  23.421  1.00  0.00    -0.352 N 
ATOM      5  C   UNL A   1      30.325  26.095  24.459  1.00  0.00     0.251 C 
ATOM      6  O   UNL A   1      29.484  26.212  25.352  1.00  0.00    -0.269 OA
ATOM      7  H   UNL A   1      29.564  27.659  23.481  1.00  0.00     0.163 HD
BRANCH   5   8
ATOM      8  C   UNL A   1      31.298  24.962  24.539  1.00  0.00     0.040 A 
ATOM      9  C   UNL A   1      33.164  22.806  24.487  1.00  0.00    -0.015 A 
ATOM     10  C   UNL A   1      33.145  23.757  25.525  1.00  0.00     0.010 A 
ATOM     11  C   UNL A   1      32.166  22.898  23.498  1.00  0.00    -0.042 A 
ATOM     12  C   UNL A   1      32.184  24.765  25.591  1.00  0.00     0.014 A 
ATOM     13  C   UNL A   1      31.279  24.001  23.514  1.00  0.00     0.018 A 
ATOM     14  C   UNL A   1      31.937  21.847  22.445  1.00  0.00     0.045 C 
BRANCH   9  15
ATOM     15  C   UNL A   1      34.190  21.750  24.559  1.00  0.00    -0.014 A 
ATOM     16  C   UNL A   1      34.696  19.358  24.674  1.00  0.00     0.063 A 
ATOM     17  C   UNL A   1      36.035  19.639  24.938  1.00  0.00     0.055 A 
ATOM     18  C   UNL A   1      33.793  20.405  24.463  1.00  0.00     0.024 A 
ATOM     19  C   UNL A   1      36.442  20.968  24.994  1.00  0.00     0.124 A 
ATOM     20  F   UNL A   1      37.732  21.245  25.234  1.00  0.00    -0.207 F 
ATOM     21  C   UNL A   1      35.539  22.019  24.822  1.00  0.00     0.048 A 
BRANCH  16  22
ATOM     22  C   UNL A   1      34.156  17.982  24.626  1.00  0.00     0.337 C 
ATOM     23  O   UNL A   1      32.957  17.734  24.591  1.00  0.00    -0.246 OA
BRANCH  22  24
ATOM     24  O   UNL A   1      35.157  17.078  24.718  1.00  0.00    -0.465 OA
ATOM     25  C   UNL A   1      34.713  15.783  25.124  1.00  0.00     0.282 C 
ENDBRANCH  22  24
ENDBRANCH  16  22
ENDBRANCH   9  15
ENDBRANCH   5   8
ENDBRANCH   3   4
ENDBRANCH   2   3
ENDBRANCH   1   2
BRANCH   1  26
ATOM     26  C   UNL A   1      33.482  28.481  24.806  1.00  0.00     0.002 C 
BRANCH  26  27
ATOM     27  C   UNL A   1      32.538  28.648  25.995  1.00  0.00     0.021 C 
BRANCH  27  28
ATOM     28  C   UNL A   1      33.188  29.176  27.260  1.00  0.00     0.116 C 
BRANCH  28  29
ATOM     29  N   UNL A   1      33.776  30.495  27.085  1.00  0.00    -0.352 N 
ATOM     30  C   UNL A   1      34.813  31.036  27.829  1.00  0.00     0.251 C 
ATOM     31  H   UNL A   1      33.402  31.058  26.368  1.00  0.00     0.163 HD
ATOM     32  O   UNL A   1      34.917  32.221  28.109  1.00  0.00    -0.269 OA
BRANCH  30  33
ATOM     33  C   UNL A   1      35.902  30.100  28.157  1.00  0.00     0.039 A 
ATOM     34  C   UNL A   1      36.020  29.696  29.494  1.00  0.00     0.014 A 
ATOM     35  C   UNL A   1      36.947  29.972  27.251  1.00  0.00     0.014 A 
ATOM     36  C   UNL A   1      37.270  29.360  29.983  1.00  0.00     0.010 A 
ATOM     37  C   UNL A   1      38.201  29.787  27.761  1.00  0.00     0.010 A 
ATOM     38  C   UNL A   1      38.351  29.518  29.126  1.00  0.00    -0.014 A 
BRANCH  38  39
ATOM     39  C   UNL A   1      39.726  29.317  29.508  1.00  0.00     0.031 A 
ATOM     40  C   UNL A   1      40.255  27.968  29.276  1.00  0.00     0.074 A 
ATOM     41  C   UNL A   1      40.441  30.421  29.807  1.00  0.00     0.049 A 
ATOM     42  N   UNL A   1      41.319  27.495  29.805  1.00  0.00    -0.248 NA
ATOM     43  C   UNL A   1      39.555  26.994  28.431  1.00  0.00     0.031 C 
ATOM     44  C   UNL A   1      41.881  30.610  29.891  1.00  0.00     0.029 A 
ATOM     45  N   UNL A   1      39.914  31.602  30.330  1.00  0.00    -0.354 N 
ATOM     46  C   UNL A   1      41.638  26.358  29.090  1.00  0.00     0.074 A 
ATOM     47  C   UNL A   1      40.447  26.004  28.367  1.00  0.00     0.031 C 
ATOM     48  C   UNL A   1      42.128  31.668  30.688  1.00  0.00     0.029 A 
ATOM     49  C   UNL A   1      40.850  32.093  31.250  1.00  0.00     0.049 A 
ATOM     50  H   UNL A   1      39.050  32.012  30.099  1.00  0.00     0.167 HD
ATOM     51  C   UNL A   1      42.946  25.988  29.033  1.00  0.00     0.031 A 
ATOM     52  C   UNL A   1      40.535  32.030  32.581  1.00  0.00     0.031 A 
ATOM     53  C   UNL A   1      43.734  26.831  29.935  1.00  0.00     0.049 A 
ATOM     54  C   UNL A   1      41.394  31.006  33.300  1.00  0.00     0.074 A 
ATOM     55  C   UNL A   1      44.503  27.961  29.711  1.00  0.00     0.029 A 
ATOM     56  N   UNL A   1      43.427  26.823  31.293  1.00  0.00    -0.354 N 
ATOM     57  N   UNL A   1      41.916  29.948  32.734  1.00  0.00    -0.248 NA
ATOM     58  C   UNL A   1      41.810  31.162  34.690  1.00  0.00     0.031 C 
ATOM     59  C   UNL A   1      44.539  28.702  30.927  1.00  0.00     0.029 A 
ATOM     60  C   UNL A   1      43.815  28.011  31.885  1.00  0.00     0.049 A 
ATOM     61  H   UNL A   1      42.995  26.075  31.765  1.00  0.00     0.167 HD
ATOM     62  C   UNL A   1      42.769  29.333  33.615  1.00  0.00     0.074 A 
ATOM     63  C   UNL A   1      42.654  30.125  34.830  1.00  0.00     0.031 C 
ATOM     64  C   UNL A   1      43.541  28.248  33.298  1.00  0.00     0.031 A 
BRANCH  51  65
ATOM     65  C   UNL A   1      43.542  25.118  27.951  1.00  0.00    -0.014 A 
ATOM     66  C   UNL A   1      43.655  25.647  26.648  1.00  0.00     0.010 A 
ATOM     67  C   UNL A   1      43.947  23.776  28.107  1.00  0.00     0.010 A 
ATOM     68  C   UNL A   1      44.103  24.880  25.564  1.00  0.00     0.020 A 
ATOM     69  C   UNL A   1      44.386  22.990  27.029  1.00  0.00     0.020 A 
ATOM     70  C   UNL A   1      44.461  23.549  25.759  1.00  0.00     0.054 A 
BRANCH  70  71
ATOM     71  S   UNL A   1      45.048  22.583  24.346  1.00  0.00     0.124 S 
ATOM     72  O   UNL A   1      46.183  23.373  23.876  1.00  0.00    -0.237 OA
ATOM     73  O   UNL A   1      45.382  21.302  24.963  1.00  0.00    -0.237 OA
ATOM     74  O   UNL A   1      43.899  22.554  23.443  1.00  0.00    -0.744 OA
ENDBRANCH  70  71
ENDBRANCH  51  65
BRANCH  52  75
ATOM     75  C   UNL A   1      39.085  32.335  32.843  1.00  0.00    -0.014 A 
ATOM     76  C   UNL A   1      38.729  33.702  32.955  1.00  0.00     0.010 A 
ATOM     77  C   UNL A   1      38.064  31.408  32.569  1.00  0.00     0.010 A 
ATOM     78  C   UNL A   1      37.442  34.149  32.631  1.00  0.00     0.020 A 
ATOM     79  C   UNL A   1      36.760  31.854  32.270  1.00  0.00     0.020 A 
ATOM     80  C   UNL A   1      36.475  33.224  32.248  1.00  0.00     0.054 A 
BRANCH  80  81
ATOM     81  S   UNL A   1      34.914  33.856  31.551  1.00  0.00     0.124 S 
ATOM     82  O   UNL A   1      34.027  32.706  31.688  1.00  0.00    -0.237 OA
ATOM     83  O   UNL A   1      34.611  34.994  32.424  1.00  0.00    -0.237 OA
ATOM     84  O   UNL A   1      35.272  34.212  30.183  1.00  0.00    -0.744 OA
ENDBRANCH  80  81
ENDBRANCH  52  75
BRANCH  64  85
ATOM     85  C   UNL A   1      44.203  27.340  34.308  1.00  0.00    -0.014 A 
ATOM     86  C   UNL A   1      45.592  27.197  34.436  1.00  0.00     0.010 A 
ATOM     87  C   UNL A   1      43.405  26.692  35.285  1.00  0.00     0.010 A 
ATOM     88  C   UNL A   1      46.152  26.373  35.417  1.00  0.00     0.020 A 
ATOM     89  C   UNL A   1      43.955  25.928  36.313  1.00  0.00     0.020 A 
ATOM     90  C   UNL A   1      45.330  25.739  36.346  1.00  0.00     0.054 A 
BRANCH  90  91
ATOM     91  S   UNL A   1      46.078  24.695  37.614  1.00  0.00     0.124 S 
ATOM     92  O   UNL A   1      44.904  24.059  38.204  1.00  0.00    -0.237 OA
ATOM     93  O   UNL A   1      46.946  23.814  36.836  1.00  0.00    -0.237 OA
ATOM     94  O   UNL A   1      46.778  25.645  38.476  1.00  0.00    -0.744 OA
ENDBRANCH  90  91
ENDBRANCH  64  85
ENDBRANCH  38  39
ENDBRANCH  30  33
ENDBRANCH  28  29
ENDBRANCH  27  28
ENDBRANCH  26  27
ENDBRANCH   1  26
TORSDOF 19
ENDMDL
MODEL 2
REMARK VINA RESULT:     -11.2      3.605      5.517
REMARK SMILES COC(=O)c1cc(F)cc(-c2ccc(C(=O)NCCCCCCNC(=O)c3ccc(-c4c5nc(c(-c6ccc(S(=O)(=O)[O-])cc6)c6ccc([nH]6)c(-c6ccc(S(=O)(=O)[O-])cc6)c6nc(c(-c7ccc(S(=O)(=O)[O-])cc7)c7ccc4[nH]7)C=C6)C=C5)cc3)cc2C)c1
REMARK SMILES IDX 20 1 19 2 18 3 17 4 15 5 16 6 14 8 11 9 12 10 88 11 13 12
REMARK SMILES IDX 87 13 89 14 10 15 5 16 6 17 90 18 7 19 8 20 9 21 3 22 4 23
REMARK SMILES IDX 2 24 1 25 21 26 22 27 23 28 24 29 25 30 26 32 27 33 28 34
REMARK SMILES IDX 86 35 29 36 85 37 30 38 31 39 32 40 79 41 33 42 84 43 78 44
REMARK SMILES IDX 80 45 34 46 83 47 77 48 76 49 35 51 65 52 46 53 64 54 47 55
REMARK SMILES IDX 50 56 63 57 81 58 48 59 49 60 62 62 82 63 51 64 36 65 37 66
REMARK SMILES IDX 45 67 38 68 44 69 39 70 40 71 41 72 42 73 43 74 66 75 67 76
REMARK SMILES IDX 75 77 68 78 74 79 69 80 70 81 71 82 72 83 73 84 52 85 53 86
REMARK SMILES IDX 61 87 54 88 60 89 55 90 56 91 57 92 58 93 59 94
REMARK H PARENT 17 7 24 31 80 50 50 61
REMARK Flexibility Score: inf
ROOT
ATOM      1  C   UNL A   1      34.893  31.011  28.412  1.00  0.00     0.002 C 
ENDROOT
BRANCH   1   2
ATOM      2  C   UNL A   1      33.813  31.036  27.333  1.00  0.00     0.021 C 
BRANCH   2   3
ATOM      3  C   UNL A   1      32.893  29.824  27.231  1.00  0.00     0.116 C 
BRANCH   3   4
ATOM      4  N   UNL A   1      32.041  29.796  26.059  1.00  0.00    -0.352 N 
ATOM      5  C   UNL A   1      31.798  28.805  25.134  1.00  0.00     0.251 C 
ATOM      6  O   UNL A   1      30.990  29.043  24.234  1.00  0.00    -0.269 OA
ATOM      7  H   UNL A   1      31.550  30.632  25.895  1.00  0.00     0.163 HD
BRANCH   5   8
ATOM      8  C   UNL A   1      32.487  27.477  25.142  1.00  0.00     0.040 A 
ATOM      9  C   UNL A   1      33.618  24.860  25.183  1.00  0.00    -0.015 A 
ATOM     10  C   UNL A   1      34.152  25.896  24.393  1.00  0.00     0.010 A 
ATOM     11  C   UNL A   1      32.541  25.175  26.032  1.00  0.00    -0.042 A 
ATOM     12  C   UNL A   1      33.647  27.194  24.432  1.00  0.00     0.014 A 
ATOM     13  C   UNL A   1      31.962  26.465  25.963  1.00  0.00     0.018 A 
ATOM     14  C   UNL A   1      31.996  24.232  27.071  1.00  0.00     0.045 C 
BRANCH   9  15
ATOM     15  C   UNL A   1      34.277  23.544  25.102  1.00  0.00    -0.014 A 
ATOM     16  C   UNL A   1      34.074  21.152  24.619  1.00  0.00     0.063 A 
ATOM     17  C   UNL A   1      35.348  20.925  25.135  1.00  0.00     0.055 A 
ATOM     18  C   UNL A   1      33.559  22.453  24.582  1.00  0.00     0.024 A 
ATOM     19  C   UNL A   1      36.080  22.007  25.613  1.00  0.00     0.124 A 
ATOM     20  F   UNL A   1      37.312  21.797  26.099  1.00  0.00    -0.207 F 
ATOM     21  C   UNL A   1      35.558  23.302  25.615  1.00  0.00     0.048 A 
BRANCH  16  22
ATOM     22  C   UNL A   1      33.203  20.068  24.116  1.00  0.00     0.337 C 
ATOM     23  O   UNL A   1      32.132  20.273  23.558  1.00  0.00    -0.246 OA
BRANCH  22  24
ATOM     24  O   UNL A   1      33.717  18.860  24.443  1.00  0.00    -0.465 OA
ATOM     25  C   UNL A   1      32.772  18.000  25.082  1.00  0.00     0.282 C 
ENDBRANCH  22  24
ENDBRANCH  16  22
ENDBRANCH   9  15
ENDBRANCH   5   8
ENDBRANCH   3   4
ENDBRANCH   2   3
ENDBRANCH   1   2
BRANCH   1  26
ATOM     26  C   UNL A   1      36.351  31.200  27.965  1.00  0.00     0.002 C 
BRANCH  26  27
ATOM     27  C   UNL A   1      37.447  30.686  28.897  1.00  0.00     0.021 C 
BRANCH  27  28
ATOM     28  C   UNL A   1      37.089  29.435  29.677  1.00  0.00     0.116 C 
BRANCH  28  29
ATOM     29  N   UNL A   1      37.240  29.603  31.115  1.00  0.00    -0.352 N 
ATOM     30  C   UNL A   1      37.777  28.677  31.997  1.00  0.00     0.251 C 
ATOM     31  H   UNL A   1      36.933  30.457  31.498  1.00  0.00     0.163 HD
ATOM     32  O   UNL A   1      37.401  28.524  33.150  1.00  0.00    -0.269 OA
BRANCH  30  33
ATOM     33  C   UNL A   1      38.962  27.957  31.503  1.00  0.00     0.039 A 
ATOM     34  C   UNL A   1      40.193  28.261  32.101  1.00  0.00     0.014 A 
ATOM     35  C   UNL A   1      38.877  27.329  30.266  1.00  0.00     0.014 A 
ATOM     36  C   UNL A   1      41.350  28.129  31.355  1.00  0.00     0.010 A 
ATOM     37  C   UNL A   1      39.993  27.339  29.479  1.00  0.00     0.010 A 
ATOM     38  C   UNL A   1      41.208  27.772  30.020  1.00  0.00    -0.014 A 
BRANCH  38  39
ATOM     39  C   UNL A   1      42.297  27.696  29.080  1.00  0.00     0.031 A 
ATOM     40  C   UNL A   1      42.949  26.385  28.971  1.00  0.00     0.074 A 
ATOM     41  C   UNL A   1      42.448  28.742  28.242  1.00  0.00     0.049 A 
ATOM     42  N   UNL A   1      44.095  26.175  28.444  1.00  0.00    -0.248 NA
ATOM     43  C   UNL A   1      42.343  25.170  29.526  1.00  0.00     0.031 C 
ATOM     44  C   UNL A   1      43.192  28.842  26.994  1.00  0.00     0.029 A 
ATOM     45  N   UNL A   1      42.085  30.058  28.525  1.00  0.00    -0.354 N 
ATOM     46  C   UNL A   1      44.188  24.813  28.242  1.00  0.00     0.074 A 
ATOM     47  C   UNL A   1      43.164  24.226  29.063  1.00  0.00     0.031 C 
ATOM     48  C   UNL A   1      43.489  30.138  26.776  1.00  0.00     0.029 A 
ATOM     49  C   UNL A   1      43.067  30.883  27.958  1.00  0.00     0.049 A 
ATOM     50  H   UNL A   1      41.292  30.352  29.028  1.00  0.00     0.167 HD
ATOM     51  C   UNL A   1      44.982  24.373  27.229  1.00  0.00     0.031 A 
ATOM     52  C   UNL A   1      43.922  31.536  28.804  1.00  0.00     0.031 A 
ATOM     53  C   UNL A   1      45.729  25.500  26.666  1.00  0.00     0.049 A 
ATOM     54  C   UNL A   1      45.327  30.968  28.709  1.00  0.00     0.074 A 
ATOM     55  C   UNL A   1      45.507  26.295  25.554  1.00  0.00     0.029 A 
ATOM     56  N   UNL A   1      46.587  26.213  27.499  1.00  0.00    -0.354 N 
ATOM     57  N   UNL A   1      45.606  29.734  28.372  1.00  0.00    -0.248 NA
ATOM     58  C   UNL A   1      46.522  31.785  28.888  1.00  0.00     0.031 C 
ATOM     59  C   UNL A   1      46.135  27.550  25.793  1.00  0.00     0.029 A 
ATOM     60  C   UNL A   1      46.753  27.505  27.033  1.00  0.00     0.049 A 
ATOM     61  H   UNL A   1      47.017  25.848  28.305  1.00  0.00     0.167 HD
ATOM     62  C   UNL A   1      46.962  29.599  28.217  1.00  0.00     0.074 A 
ATOM     63  C   UNL A   1      47.491  30.909  28.567  1.00  0.00     0.031 C 
ATOM     64  C   UNL A   1      47.570  28.454  27.781  1.00  0.00     0.031 A 
BRANCH  51  65
ATOM     65  C   UNL A   1      44.837  23.030  26.552  1.00  0.00    -0.014 A 
ATOM     66  C   UNL A   1      45.984  22.435  25.987  1.00  0.00     0.010 A 
ATOM     67  C   UNL A   1      43.627  22.329  26.370  1.00  0.00     0.010 A 
ATOM     68  C   UNL A   1      45.926  21.241  25.255  1.00  0.00     0.020 A 
ATOM     69  C   UNL A   1      43.549  21.138  25.628  1.00  0.00     0.020 A 
ATOM     70  C   UNL A   1      44.704  20.600  25.073  1.00  0.00     0.054 A 
BRANCH  70  71
ATOM     71  S   UNL A   1      44.656  19.053  24.135  1.00  0.00     0.124 S 
ATOM     72  O   UNL A   1      43.512  18.364  24.726  1.00  0.00    -0.237 OA
ATOM     73  O   UNL A   1      44.471  19.526  22.766  1.00  0.00    -0.237 OA
ATOM     74  O   UNL A   1      45.954  18.440  24.408  1.00  0.00    -0.744 OA
ENDBRANCH  70  71
ENDBRANCH  51  65
BRANCH  52  75
ATOM     75  C   UNL A   1      43.234  32.036  30.044  1.00  0.00    -0.014 A 
ATOM     76  C   UNL A   1      42.193  32.981  29.861  1.00  0.00     0.010 A 
ATOM     77  C   UNL A   1      43.279  31.333  31.261  1.00  0.00     0.010 A 
ATOM     78  C   UNL A   1      41.140  33.091  30.777  1.00  0.00     0.020 A 
ATOM     79  C   UNL A   1      42.234  31.464  32.198  1.00  0.00     0.020 A 
ATOM     80  C   UNL A   1      41.145  32.298  31.922  1.00  0.00     0.054 A 
BRANCH  80  81
ATOM     81  S   UNL A   1      39.630  32.247  32.934  1.00  0.00     0.124 S 
ATOM     82  O   UNL A   1      39.914  31.155  33.858  1.00  0.00    -0.237 OA
ATOM     83  O   UNL A   1      39.597  33.585  33.531  1.00  0.00    -0.237 OA
ATOM     84  O   UNL A   1      38.578  31.985  31.958  1.00  0.00    -0.744 OA
ENDBRANCH  80  81
ENDBRANCH  52  75
BRANCH  64  85
ATOM     85  C   UNL A   1      49.042  28.148  27.938  1.00  0.00    -0.014 A 
ATOM     86  C   UNL A   1      49.632  27.757  29.148  1.00  0.00     0.010 A 
ATOM     87  C   UNL A   1      49.868  28.111  26.787  1.00  0.00     0.010 A 
ATOM     88  C   UNL A   1      50.992  27.446  29.229  1.00  0.00     0.020 A 
ATOM     89  C   UNL A   1      51.209  27.731  26.841  1.00  0.00     0.020 A 
ATOM     90  C   UNL A   1      51.774  27.441  28.076  1.00  0.00     0.054 A 
BRANCH  90  91
ATOM     91  S   UNL A   1      53.524  27.017  28.202  1.00  0.00     0.124 S 
ATOM     92  O   UNL A   1      54.143  28.338  28.279  1.00  0.00    -0.237 OA
ATOM     93  O   UNL A   1      53.577  26.227  29.430  1.00  0.00    -0.237 OA
ATOM     94  O   UNL A   1      53.789  26.270  26.976  1.00  0.00    -0.744 OA
ENDBRANCH  90  91
ENDBRANCH  64  85
ENDBRANCH  38  39
ENDBRANCH  30  33
ENDBRANCH  28  29
ENDBRANCH  27  28
ENDBRANCH  26  27
ENDBRANCH   1  26
TORSDOF 19
ENDMDL
MODEL 3
REMARK VINA RESULT:     -11.2      4.596      5.756
REMARK SMILES COC(=O)c1cc(F)cc(-c2ccc(C(=O)NCCCCCCNC(=O)c3ccc(-c4c5nc(c(-c6ccc(S(=O)(=O)[O-])cc6)c6ccc([nH]6)c(-c6ccc(S(=O)(=O)[O-])cc6)c6nc(c(-c7ccc(S(=O)(=O)[O-])cc7)c7ccc4[nH]7)C=C6)C=C5)cc3)cc2C)c1
REMARK SMILES IDX 20 1 19 2 18 3 17 4 15 5 16 6 14 8 11 9 12 10 88 11 13 12
REMARK SMILES IDX 87 13 89 14 10 15 5 16 6 17 90 18 7 19 8 20 9 21 3 22 4 23
REMARK SMILES IDX 2 24 1 25 21 26 22 27 23 28 24 29 25 30 26 32 27 33 28 34
REMARK SMILES IDX 86 35 29 36 85 37 30 38 31 39 32 40 79 41 33 42 84 43 78 44
REMARK SMILES IDX 80 45 34 46 83 47 77 48 76 49 35 51 65 52 46 53 64 54 47 55
REMARK SMILES IDX 50 56 63 57 81 58 48 59 49 60 62 62 82 63 51 64 36 65 37 66
REMARK SMILES IDX 45 67 38 68 44 69 39 70 40 71 41 72 42 73 43 74 66 75 67 76
REMARK SMILES IDX 75 77 68 78 74 79 69 80 70 81 71 82 72 83 73 84 52 85 53 86
REMARK SMILES IDX 61 87 54 88 60 89 55 90 56 91 57 92 58 93 59 94
REMARK H PARENT 17 7 24 31 80 50 50 61
REMARK Flexibility Score: inf
ROOT
ATOM      1  C   UNL A   1      35.947  29.670  27.558  1.00  0.00     0.002 C 
ENDROOT
BRANCH   1   2
ATOM      2  C   UNL A   1      37.418  30.073  27.646  1.00  0.00     0.021 C 
BRANCH   2   3
ATOM      3  C   UNL A   1      38.443  28.958  27.812  1.00  0.00     0.116 C 
BRANCH   3   4
ATOM      4  N   UNL A   1      38.386  28.252  29.076  1.00  0.00    -0.352 N 
ATOM      5  C   UNL A   1      39.009  27.100  29.506  1.00  0.00     0.251 C 
ATOM      6  O   UNL A   1      38.800  26.730  30.663  1.00  0.00    -0.269 OA
ATOM      7  H   UNL A   1      37.798  28.668  29.746  1.00  0.00     0.163 HD
BRANCH   5   8
ATOM      8  C   UNL A   1      39.889  26.261  28.635  1.00  0.00     0.040 A 
ATOM      9  C   UNL A   1      41.615  24.552  27.140  1.00  0.00    -0.015 A 
ATOM     10  C   UNL A   1      40.441  25.100  26.590  1.00  0.00     0.010 A 
ATOM     11  C   UNL A   1      41.967  24.941  28.447  1.00  0.00    -0.042 A 
ATOM     12  C   UNL A   1      39.639  25.996  27.294  1.00  0.00     0.014 A 
ATOM     13  C   UNL A   1      41.075  25.751  29.190  1.00  0.00     0.018 A 
ATOM     14  C   UNL A   1      43.283  24.599  29.091  1.00  0.00     0.045 C 
BRANCH   9  15
ATOM     15  C   UNL A   1      42.413  23.664  26.277  1.00  0.00    -0.014 A 
ATOM     16  C   UNL A   1      42.998  21.375  25.636  1.00  0.00     0.063 A 
ATOM     17  C   UNL A   1      44.052  21.847  24.856  1.00  0.00     0.055 A 
ATOM     18  C   UNL A   1      42.176  22.279  26.316  1.00  0.00     0.024 A 
ATOM     19  C   UNL A   1      44.268  23.220  24.780  1.00  0.00     0.124 A 
ATOM     20  F   UNL A   1      45.272  23.681  24.022  1.00  0.00    -0.207 F 
ATOM     21  C   UNL A   1      43.475  24.125  25.487  1.00  0.00     0.048 A 
BRANCH  16  22
ATOM     22  C   UNL A   1      42.705  19.936  25.808  1.00  0.00     0.337 C 
ATOM     23  O   UNL A   1      42.975  19.091  24.962  1.00  0.00    -0.246 OA
BRANCH  22  24
ATOM     24  O   UNL A   1      42.034  19.725  26.963  1.00  0.00    -0.465 OA
ATOM     25  C   UNL A   1      42.540  18.623  27.716  1.00  0.00     0.282 C 
ENDBRANCH  22  24
ENDBRANCH  16  22
ENDBRANCH   9  15
ENDBRANCH   5   8
ENDBRANCH   3   4
ENDBRANCH   2   3
ENDBRANCH   1   2
BRANCH   1  26
ATOM     26  C   UNL A   1      34.896  30.785  27.658  1.00  0.00     0.002 C 
BRANCH  26  27
ATOM     27  C   UNL A   1      35.372  32.167  28.104  1.00  0.00     0.021 C 
BRANCH  27  28
ATOM     28  C   UNL A   1      35.331  32.405  29.602  1.00  0.00     0.116 C 
BRANCH  28  29
ATOM     29  N   UNL A   1      36.001  33.635  29.997  1.00  0.00    -0.352 N 
ATOM     30  C   UNL A   1      37.167  33.730  30.742  1.00  0.00     0.251 C 
ATOM     31  H   UNL A   1      35.588  34.480  29.707  1.00  0.00     0.163 HD
ATOM     32  O   UNL A   1      37.405  34.625  31.539  1.00  0.00    -0.269 OA
BRANCH  30  33
ATOM     33  C   UNL A   1      38.205  32.741  30.408  1.00  0.00     0.039 A 
ATOM     34  C   UNL A   1      38.060  31.452  30.943  1.00  0.00     0.014 A 
ATOM     35  C   UNL A   1      39.421  33.208  29.926  1.00  0.00     0.014 A 
ATOM     36  C   UNL A   1      39.194  30.703  31.196  1.00  0.00     0.010 A 
ATOM     37  C   UNL A   1      40.548  32.537  30.309  1.00  0.00     0.010 A 
ATOM     38  C   UNL A   1      40.422  31.310  30.970  1.00  0.00    -0.014 A 
BRANCH  38  39
ATOM     39  C   UNL A   1      41.695  30.711  31.283  1.00  0.00     0.031 A 
ATOM     40  C   UNL A   1      42.206  29.760  30.288  1.00  0.00     0.074 A 
ATOM     41  C   UNL A   1      42.383  31.249  32.310  1.00  0.00     0.049 A 
ATOM     42  N   UNL A   1      43.136  28.907  30.497  1.00  0.00    -0.248 NA
ATOM     43  C   UNL A   1      41.637  29.667  28.939  1.00  0.00     0.031 C 
ATOM     44  C   UNL A   1      43.790  31.124  32.662  1.00  0.00     0.029 A 
ATOM     45  N   UNL A   1      41.813  31.885  33.413  1.00  0.00    -0.354 N 
ATOM     46  C   UNL A   1      43.538  28.457  29.256  1.00  0.00     0.074 A 
ATOM     47  C   UNL A   1      42.488  28.828  28.347  1.00  0.00     0.031 C 
ATOM     48  C   UNL A   1      43.925  31.378  33.979  1.00  0.00     0.029 A 
ATOM     49  C   UNL A   1      42.583  31.530  34.530  1.00  0.00     0.049 A 
ATOM     50  H   UNL A   1      41.023  32.471  33.408  1.00  0.00     0.167 HD
ATOM     51  C   UNL A   1      44.819  28.019  29.122  1.00  0.00     0.031 A 
ATOM     52  C   UNL A   1      42.025  30.681  35.448  1.00  0.00     0.031 A 
ATOM     53  C   UNL A   1      45.458  27.964  30.438  1.00  0.00     0.049 A 
ATOM     54  C   UNL A   1      42.698  29.321  35.416  1.00  0.00     0.074 A 
ATOM     55  C   UNL A   1      46.298  28.846  31.097  1.00  0.00     0.029 A 
ATOM     56  N   UNL A   1      44.907  27.137  31.413  1.00  0.00    -0.354 N 
ATOM     57  N   UNL A   1      43.275  28.805  34.360  1.00  0.00    -0.248 NA
ATOM     58  C   UNL A   1      42.857  28.491  36.605  1.00  0.00     0.031 C 
ATOM     59  C   UNL A   1      46.137  28.626  32.495  1.00  0.00     0.029 A 
ATOM     60  C   UNL A   1      45.224  27.600  32.678  1.00  0.00     0.049 A 
ATOM     61  H   UNL A   1      44.367  26.335  31.228  1.00  0.00     0.167 HD
ATOM     62  C   UNL A   1      43.928  27.651  34.715  1.00  0.00     0.074 A 
ATOM     63  C   UNL A   1      43.622  27.492  36.128  1.00  0.00     0.031 C 
ATOM     64  C   UNL A   1      44.704  26.919  33.858  1.00  0.00     0.031 A 
BRANCH  51  65
ATOM     65  C   UNL A   1      45.570  27.963  27.812  1.00  0.00    -0.014 A 
ATOM     66  C   UNL A   1      45.233  26.955  26.886  1.00  0.00     0.010 A 
ATOM     67  C   UNL A   1      46.644  28.801  27.446  1.00  0.00     0.010 A 
ATOM     68  C   UNL A   1      45.943  26.767  25.691  1.00  0.00     0.020 A 
ATOM     69  C   UNL A   1      47.374  28.618  26.259  1.00  0.00     0.020 A 
ATOM     70  C   UNL A   1      47.017  27.598  25.387  1.00  0.00     0.054 A 
BRANCH  70  71
ATOM     71  S   UNL A   1      47.909  27.343  23.833  1.00  0.00     0.124 S 
ATOM     72  O   UNL A   1      49.236  27.870  24.144  1.00  0.00    -0.237 OA
ATOM     73  O   UNL A   1      47.829  25.895  23.662  1.00  0.00    -0.237 OA
ATOM     74  O   UNL A   1      47.147  28.125  22.862  1.00  0.00    -0.744 OA
ENDBRANCH  70  71
ENDBRANCH  51  65
BRANCH  52  75
ATOM     75  C   UNL A   1      40.565  30.960  35.676  1.00  0.00    -0.014 A 
ATOM     76  C   UNL A   1      40.247  32.047  36.527  1.00  0.00     0.010 A 
ATOM     77  C   UNL A   1      39.568  30.494  34.801  1.00  0.00     0.010 A 
ATOM     78  C   UNL A   1      39.048  32.757  36.386  1.00  0.00     0.020 A 
ATOM     79  C   UNL A   1      38.348  31.190  34.677  1.00  0.00     0.020 A 
ATOM     80  C   UNL A   1      38.122  32.348  35.429  1.00  0.00     0.054 A 
BRANCH  80  81
ATOM     81  S   UNL A   1      36.720  33.456  35.067  1.00  0.00     0.124 S 
ATOM     82  O   UNL A   1      36.086  33.587  36.374  1.00  0.00    -0.237 OA
ATOM     83  O   UNL A   1      37.385  34.661  34.566  1.00  0.00    -0.237 OA
ATOM     84  O   UNL A   1      35.953  32.718  34.069  1.00  0.00    -0.744 OA
ENDBRANCH  80  81
ENDBRANCH  52  75
BRANCH  64  85
ATOM     85  C   UNL A   1      45.133  25.490  34.096  1.00  0.00    -0.014 A 
ATOM     86  C   UNL A   1      46.404  25.125  34.562  1.00  0.00     0.010 A 
ATOM     87  C   UNL A   1      44.175  24.451  33.984  1.00  0.00     0.010 A 
ATOM     88  C   UNL A   1      46.736  23.789  34.804  1.00  0.00     0.020 A 
ATOM     89  C   UNL A   1      44.472  23.124  34.294  1.00  0.00     0.020 A 
ATOM     90  C   UNL A   1      45.769  22.796  34.664  1.00  0.00     0.054 A 
BRANCH  90  91
ATOM     91  S   UNL A   1      46.216  21.080  35.001  1.00  0.00     0.124 S 
ATOM     92  O   UNL A   1      44.937  20.399  34.817  1.00  0.00    -0.237 OA
ATOM     93  O   UNL A   1      47.226  20.804  33.982  1.00  0.00    -0.237 OA
ATOM     94  O   UNL A   1      46.717  21.116  36.373  1.00  0.00    -0.744 OA
ENDBRANCH  90  91
ENDBRANCH  64  85
ENDBRANCH  38  39
ENDBRANCH  30  33
ENDBRANCH  28  29
ENDBRANCH  27  28
ENDBRANCH  26  27
ENDBRANCH   1  26
TORSDOF 19
ENDMDL
