MODEL 1
REMARK VINA RESULT:     -10.6      0.000      0.000
REMARK SMILES O=C(COc1ccccc1/C=N/N1[C@@H](S)N=N[C@H]1[C@@H]1C=C(c2ccccc2)N=N1)NCCCCCCNC(=O)c1ccc(-c2c3nc(c(-c4ccc(S(=O)(=O)[O-])cc4)c4ccc([nH]4)c(-c4ccc(S(=O)(=O)[O-])cc4)c4nc(c(-c5ccc(S(=O)(=O)[O-])cc5)c5ccc2[nH]5)C=C4)C=C3)cc1
REMARK SMILES IDX 32 1 31 2 30 3 1 4 2 5 3 7 4 8 5 9 6 10 10 11 7 12 9 13 8 14
REMARK SMILES IDX 11 15 12 16 13 17 14 18 18 19 16 20 17 21 15 22 19 24 20 25
REMARK SMILES IDX 29 26 21 27 28 28 22 29 23 30 27 31 24 32 26 33 25 34 33 35
REMARK SMILES IDX 34 36 35 37 36 38 37 39 38 40 39 42 40 43 41 44 99 45 42 46
REMARK SMILES IDX 98 47 43 48 44 49 45 50 92 51 46 52 97 53 91 54 93 55 47 56
REMARK SMILES IDX 96 57 90 58 89 59 48 61 78 62 59 63 77 64 60 65 63 66 76 67
REMARK SMILES IDX 94 68 61 69 62 70 75 72 95 73 64 74 49 75 50 76 58 77 51 78
REMARK SMILES IDX 57 79 52 80 53 81 54 82 55 83 56 84 79 85 80 86 88 87 81 88
REMARK SMILES IDX 87 89 82 90 83 91 84 92 85 93 86 94 65 95 66 96 74 97 67 98
REMARK SMILES IDX 73 99 68 100 69 101 70 102 71 103 72 104
REMARK H PARENT 30 6 15 23 37 41 93 60 63 71
REMARK Flexibility Score: inf
ROOT
ATOM      1  C   UNL A   1      36.266  21.793  24.268  1.00  0.00     0.021 C 
ENDROOT
BRANCH   1   2
ATOM      2  C   UNL A   1      36.009  23.364  23.922  1.00  0.00     0.116 C 
BRANCH   2   3
ATOM      3  N   UNL A   1      35.227  24.608  24.714  1.00  0.00    -0.353 N 
ATOM      4  O   UNL A   1      34.131  26.598  23.684  1.00  0.00    -0.271 OA
ATOM      5  C   UNL A   1      34.432  25.850  24.613  1.00  0.00     0.257 C 
ATOM      6  H   UNL A   1      35.349  24.439  25.677  1.00  0.00     0.163 HD
BRANCH   5   7
ATOM      7  C   UNL A   1      33.738  26.316  25.849  1.00  0.00     0.329 C 
BRANCH   7   8
ATOM      8  O   UNL A   1      34.612  27.192  26.471  1.00  0.00    -0.483 OA
BRANCH   8   9
ATOM      9  C   UNL A   1      34.198  28.493  26.356  1.00  0.00     0.128 A 
ATOM     10  C   UNL A   1      35.045  29.243  27.191  1.00  0.00     0.047 A 
ATOM     11  C   UNL A   1      32.937  28.946  25.875  1.00  0.00     0.037 A 
ATOM     12  C   UNL A   1      34.594  30.415  27.740  1.00  0.00     0.004 A 
ATOM     13  C   UNL A   1      32.498  30.123  26.495  1.00  0.00     0.013 A 
ATOM     14  C   UNL A   1      33.304  30.829  27.427  1.00  0.00     0.001 A 
BRANCH  11  15
ATOM     15  C   UNL A   1      31.883  28.175  25.014  1.00  0.00     0.145 C 
ATOM     16  N   UNL A   1      30.589  28.082  25.245  1.00  0.00    -0.180 NA
BRANCH  16  17
ATOM     17  N   UNL A   1      29.666  27.842  24.081  1.00  0.00    -0.233 NA
ATOM     18  C   UNL A   1      29.573  29.003  23.136  1.00  0.00     0.298 C 
ATOM     19  C   UNL A   1      30.070  26.745  22.825  1.00  0.00     0.274 C 
ATOM     20  N   UNL A   1      30.448  28.790  21.951  1.00  0.00    -0.153 NA
ATOM     21  N   UNL A   1      30.735  27.571  21.771  1.00  0.00    -0.161 NA
BRANCH  18  22
ATOM     22  S   UNL A   1      29.659  30.642  23.958  1.00  0.00    -0.128 SA
ATOM     23  H   UNL A   1      30.820  31.261  23.615  1.00  0.00     0.106 HD
ENDBRANCH  18  22
BRANCH  19  24
ATOM     24  C   UNL A   1      30.536  24.926  22.638  1.00  0.00     0.202 C 
ATOM     25  C   UNL A   1      30.573  23.805  23.713  1.00  0.00     0.037 C 
ATOM     26  N   UNL A   1      31.945  24.614  22.089  1.00  0.00    -0.177 NA
ATOM     27  C   UNL A   1      31.802  23.307  23.874  1.00  0.00     0.091 C 
ATOM     28  N   UNL A   1      32.587  23.766  22.839  1.00  0.00    -0.155 NA
BRANCH  27  29
ATOM     29  C   UNL A   1      32.276  22.712  25.218  1.00  0.00     0.002 A 
ATOM     30  C   UNL A   1      32.040  23.362  26.461  1.00  0.00     0.010 A 
ATOM     31  C   UNL A   1      33.020  21.542  25.359  1.00  0.00     0.010 A 
ATOM     32  C   UNL A   1      32.678  23.076  27.679  1.00  0.00     0.001 A 
ATOM     33  C   UNL A   1      33.561  21.148  26.619  1.00  0.00     0.001 A 
ATOM     34  C   UNL A   1      33.453  21.947  27.759  1.00  0.00     0.000 A 
ENDBRANCH  27  29
ENDBRANCH  19  24
ENDBRANCH  16  17
ENDBRANCH  11  15
ENDBRANCH   8   9
ENDBRANCH   7   8
ENDBRANCH   5   7
ENDBRANCH   2   3
ENDBRANCH   1   2
BRANCH   1  35
ATOM     35  C   UNL A   1      37.355  21.173  25.206  1.00  0.00     0.002 C 
BRANCH  35  36
ATOM     36  C   UNL A   1      38.406  22.108  25.775  1.00  0.00     0.002 C 
BRANCH  36  37
ATOM     37  C   UNL A   1      39.703  21.395  26.166  1.00  0.00     0.021 C 
BRANCH  37  38
ATOM     38  C   UNL A   1      40.824  22.315  26.664  1.00  0.00     0.116 C 
BRANCH  38  39
ATOM     39  N   UNL A   1      41.975  22.333  25.771  1.00  0.00    -0.352 N 
ATOM     40  C   UNL A   1      42.637  23.437  25.262  1.00  0.00     0.251 C 
ATOM     41  H   UNL A   1      42.325  21.454  25.497  1.00  0.00     0.163 HD
ATOM     42  O   UNL A   1      43.277  23.356  24.235  1.00  0.00    -0.269 OA
BRANCH  40  43
ATOM     43  C   UNL A   1      42.565  24.709  26.007  1.00  0.00     0.039 A 
ATOM     44  C   UNL A   1      41.697  25.725  25.592  1.00  0.00     0.014 A 
ATOM     45  C   UNL A   1      43.399  24.883  27.112  1.00  0.00     0.014 A 
ATOM     46  C   UNL A   1      41.631  26.900  26.336  1.00  0.00     0.010 A 
ATOM     47  C   UNL A   1      43.277  26.013  27.891  1.00  0.00     0.010 A 
ATOM     48  C   UNL A   1      42.419  27.036  27.488  1.00  0.00    -0.014 A 
BRANCH  48  49
ATOM     49  C   UNL A   1      42.269  28.210  28.343  1.00  0.00     0.031 A 
ATOM     50  C   UNL A   1      43.392  29.186  28.286  1.00  0.00     0.074 A 
ATOM     51  C   UNL A   1      41.113  28.526  28.962  1.00  0.00     0.049 A 
ATOM     52  N   UNL A   1      44.236  29.481  29.219  1.00  0.00    -0.248 NA
ATOM     53  C   UNL A   1      43.685  29.829  26.995  1.00  0.00     0.031 C 
ATOM     54  C   UNL A   1      39.815  27.853  28.857  1.00  0.00     0.029 A 
ATOM     55  N   UNL A   1      40.827  29.618  29.722  1.00  0.00    -0.354 N 
ATOM     56  C   UNL A   1      45.039  30.498  28.709  1.00  0.00     0.074 A 
ATOM     57  C   UNL A   1      44.775  30.540  27.292  1.00  0.00     0.031 C 
ATOM     58  C   UNL A   1      38.845  28.676  29.314  1.00  0.00     0.029 A 
ATOM     59  C   UNL A   1      39.468  29.852  29.894  1.00  0.00     0.049 A 
ATOM     60  H   UNL A   1      41.522  30.191  30.118  1.00  0.00     0.167 HD
ATOM     61  C   UNL A   1      45.688  31.381  29.520  1.00  0.00     0.031 A 
ATOM     62  C   UNL A   1      38.896  30.956  30.435  1.00  0.00     0.031 A 
ATOM     63  C   UNL A   1      45.670  30.955  30.896  1.00  0.00     0.049 A 
ATOM     64  C   UNL A   1      39.935  31.628  31.255  1.00  0.00     0.074 A 
ATOM     65  C   UNL A   1      46.118  29.839  31.576  1.00  0.00     0.029 A 
ATOM     66  N   UNL A   1      44.753  31.560  31.726  1.00  0.00    -0.354 N 
ATOM     67  N   UNL A   1      40.447  31.098  32.330  1.00  0.00    -0.248 NA
ATOM     68  C   UNL A   1      40.733  32.678  30.641  1.00  0.00     0.031 C 
ATOM     69  C   UNL A   1      45.101  29.565  32.536  1.00  0.00     0.029 A 
ATOM     70  C   UNL A   1      44.132  30.567  32.438  1.00  0.00     0.049 A 
ATOM     71  H   UNL A   1      44.577  32.526  31.795  1.00  0.00     0.167 HD
ATOM     72  C   UNL A   1      41.797  31.418  32.278  1.00  0.00     0.074 A 
ATOM     73  C   UNL A   1      41.892  32.481  31.279  1.00  0.00     0.031 C 
ATOM     74  C   UNL A   1      42.740  30.602  32.837  1.00  0.00     0.031 A 
BRANCH  61  75
ATOM     75  C   UNL A   1      45.997  32.812  29.146  1.00  0.00    -0.014 A 
ATOM     76  C   UNL A   1      44.933  33.734  29.038  1.00  0.00     0.010 A 
ATOM     77  C   UNL A   1      47.243  33.216  28.627  1.00  0.00     0.010 A 
ATOM     78  C   UNL A   1      45.092  34.958  28.373  1.00  0.00     0.020 A 
ATOM     79  C   UNL A   1      47.425  34.453  28.002  1.00  0.00     0.020 A 
ATOM     80  C   UNL A   1      46.336  35.299  27.844  1.00  0.00     0.054 A 
BRANCH  80  81
ATOM     81  S   UNL A   1      46.505  36.821  26.880  1.00  0.00     0.124 S 
ATOM     82  O   UNL A   1      45.113  37.144  26.584  1.00  0.00    -0.237 OA
ATOM     83  O   UNL A   1      47.177  37.711  27.821  1.00  0.00    -0.237 OA
ATOM     84  O   UNL A   1      47.312  36.410  25.733  1.00  0.00    -0.744 OA
ENDBRANCH  80  81
ENDBRANCH  61  75
BRANCH  62  85
ATOM     85  C   UNL A   1      37.616  31.603  30.054  1.00  0.00    -0.014 A 
ATOM     86  C   UNL A   1      36.525  31.632  30.943  1.00  0.00     0.010 A 
ATOM     87  C   UNL A   1      37.557  32.434  28.917  1.00  0.00     0.010 A 
ATOM     88  C   UNL A   1      35.449  32.511  30.737  1.00  0.00     0.020 A 
ATOM     89  C   UNL A   1      36.484  33.308  28.701  1.00  0.00     0.020 A 
ATOM     90  C   UNL A   1      35.447  33.362  29.628  1.00  0.00     0.054 A 
BRANCH  90  91
ATOM     91  S   UNL A   1      34.154  34.630  29.477  1.00  0.00     0.124 S 
ATOM     92  O   UNL A   1      32.999  33.848  29.045  1.00  0.00    -0.237 OA
ATOM     93  O   UNL A   1      34.079  35.170  30.832  1.00  0.00    -0.237 OA
ATOM     94  O   UNL A   1      34.690  35.551  28.477  1.00  0.00    -0.744 OA
ENDBRANCH  90  91
ENDBRANCH  62  85
BRANCH  74  95
ATOM     95  C   UNL A   1      42.278  29.488  33.754  1.00  0.00    -0.014 A 
ATOM     96  C   UNL A   1      41.908  28.206  33.304  1.00  0.00     0.010 A 
ATOM     97  C   UNL A   1      42.370  29.707  35.139  1.00  0.00     0.010 A 
ATOM     98  C   UNL A   1      41.606  27.182  34.215  1.00  0.00     0.020 A 
ATOM     99  C   UNL A   1      42.090  28.687  36.053  1.00  0.00     0.020 A 
ATOM    100  C   UNL A   1      41.698  27.432  35.588  1.00  0.00     0.054 A 
BRANCH 100 101
ATOM    101  S   UNL A   1      41.344  26.096  36.765  1.00  0.00     0.124 S 
ATOM    102  O   UNL A   1      40.462  26.749  37.729  1.00  0.00    -0.237 OA
ATOM    103  O   UNL A   1      40.716  25.079  35.924  1.00  0.00    -0.237 OA
ATOM    104  O   UNL A   1      42.661  25.730  37.283  1.00  0.00    -0.744 OA
ENDBRANCH 100 101
ENDBRANCH  74  95
ENDBRANCH  48  49
ENDBRANCH  40  43
ENDBRANCH  38  39
ENDBRANCH  37  38
ENDBRANCH  36  37
ENDBRANCH  35  36
ENDBRANCH   1  35
TORSDOF 23
ENDMDL
MODEL 2
REMARK VINA RESULT:     -10.5      4.927      9.013
REMARK SMILES O=C(COc1ccccc1/C=N/N1[C@@H](S)N=N[C@H]1[C@@H]1C=C(c2ccccc2)N=N1)NCCCCCCNC(=O)c1ccc(-c2c3nc(c(-c4ccc(S(=O)(=O)[O-])cc4)c4ccc([nH]4)c(-c4ccc(S(=O)(=O)[O-])cc4)c4nc(c(-c5ccc(S(=O)(=O)[O-])cc5)c5ccc2[nH]5)C=C4)C=C3)cc1
REMARK SMILES IDX 32 1 31 2 30 3 1 4 2 5 3 7 4 8 5 9 6 10 10 11 7 12 9 13 8 14
REMARK SMILES IDX 11 15 12 16 13 17 14 18 18 19 16 20 17 21 15 22 19 24 20 25
REMARK SMILES IDX 29 26 21 27 28 28 22 29 23 30 27 31 24 32 26 33 25 34 33 35
REMARK SMILES IDX 34 36 35 37 36 38 37 39 38 40 39 42 40 43 41 44 99 45 42 46
REMARK SMILES IDX 98 47 43 48 44 49 45 50 92 51 46 52 97 53 91 54 93 55 47 56
REMARK SMILES IDX 96 57 90 58 89 59 48 61 78 62 59 63 77 64 60 65 63 66 76 67
REMARK SMILES IDX 94 68 61 69 62 70 75 72 95 73 64 74 49 75 50 76 58 77 51 78
REMARK SMILES IDX 57 79 52 80 53 81 54 82 55 83 56 84 79 85 80 86 88 87 81 88
REMARK SMILES IDX 87 89 82 90 83 91 84 92 85 93 86 94 65 95 66 96 74 97 67 98
REMARK SMILES IDX 73 99 68 100 69 101 70 102 71 103 72 104
REMARK H PARENT 30 6 15 23 37 41 93 60 63 71
REMARK Flexibility Score: inf
ROOT
ATOM      1  C   UNL A   1      44.032  24.906  30.411  1.00  0.00     0.021 C 
ENDROOT
BRANCH   1   2
ATOM      2  C   UNL A   1      43.289  24.586  28.997  1.00  0.00     0.116 C 
BRANCH   2   3
ATOM      3  N   UNL A   1      41.770  24.919  28.391  1.00  0.00    -0.353 N 
ATOM      4  O   UNL A   1      40.571  27.106  28.442  1.00  0.00    -0.271 OA
ATOM      5  C   UNL A   1      40.726  25.929  28.118  1.00  0.00     0.257 C 
ATOM      6  H   UNL A   1      41.407  24.059  28.075  1.00  0.00     0.163 HD
BRANCH   5   7
ATOM      7  C   UNL A   1      39.633  25.541  27.179  1.00  0.00     0.329 C 
BRANCH   7   8
ATOM      8  O   UNL A   1      39.176  24.308  27.614  1.00  0.00    -0.483 OA
BRANCH   8   9
ATOM      9  C   UNL A   1      38.832  23.494  26.567  1.00  0.00     0.128 A 
ATOM     10  C   UNL A   1      37.485  23.782  26.282  1.00  0.00     0.047 A 
ATOM     11  C   UNL A   1      39.507  22.313  26.148  1.00  0.00     0.037 A 
ATOM     12  C   UNL A   1      36.688  22.820  25.718  1.00  0.00     0.004 A 
ATOM     13  C   UNL A   1      38.647  21.342  25.618  1.00  0.00     0.013 A 
ATOM     14  C   UNL A   1      37.261  21.585  25.429  1.00  0.00     0.001 A 
BRANCH  11  15
ATOM     15  C   UNL A   1      40.966  21.853  26.472  1.00  0.00     0.145 C 
ATOM     16  N   UNL A   1      41.821  21.292  25.640  1.00  0.00    -0.180 NA
BRANCH  16  17
ATOM     17  N   UNL A   1      43.293  21.454  25.904  1.00  0.00    -0.233 NA
ATOM     18  C   UNL A   1      44.125  20.311  25.402  1.00  0.00     0.298 C 
ATOM     19  C   UNL A   1      44.235  22.617  25.064  1.00  0.00     0.274 C 
ATOM     20  N   UNL A   1      44.746  20.646  24.091  1.00  0.00    -0.153 NA
ATOM     21  N   UNL A   1      44.806  21.893  23.887  1.00  0.00    -0.161 NA
BRANCH  18  22
ATOM     22  S   UNL A   1      43.309  18.674  25.549  1.00  0.00    -0.128 SA
ATOM     23  H   UNL A   1      44.172  17.785  26.109  1.00  0.00     0.106 HD
ENDBRANCH  18  22
BRANCH  19  24
ATOM     24  C   UNL A   1      44.235  24.480  24.764  1.00  0.00     0.202 C 
ATOM     25  C   UNL A   1      45.210  25.562  25.304  1.00  0.00     0.037 C 
ATOM     26  N   UNL A   1      42.960  25.257  25.159  1.00  0.00    -0.177 NA
ATOM     27  C   UNL A   1      44.583  26.463  26.067  1.00  0.00     0.091 C 
ATOM     28  N   UNL A   1      43.226  26.290  25.904  1.00  0.00    -0.155 NA
BRANCH  27  29
ATOM     29  C   UNL A   1      45.302  27.212  27.210  1.00  0.00     0.002 A 
ATOM     30  C   UNL A   1      44.614  28.094  28.089  1.00  0.00     0.010 A 
ATOM     31  C   UNL A   1      46.670  27.163  27.465  1.00  0.00     0.010 A 
ATOM     32  C   UNL A   1      45.206  29.038  28.944  1.00  0.00     0.001 A 
ATOM     33  C   UNL A   1      47.281  28.013  28.435  1.00  0.00     0.001 A 
ATOM     34  C   UNL A   1      46.565  28.997  29.119  1.00  0.00     0.000 A 
ENDBRANCH  27  29
ENDBRANCH  19  24
ENDBRANCH  16  17
ENDBRANCH  11  15
ENDBRANCH   8   9
ENDBRANCH   7   8
ENDBRANCH   5   7
ENDBRANCH   2   3
ENDBRANCH   1   2
BRANCH   1  35
ATOM     35  C   UNL A   1      45.532  25.282  30.653  1.00  0.00     0.002 C 
BRANCH  35  36
ATOM     36  C   UNL A   1      45.823  26.424  31.609  1.00  0.00     0.002 C 
BRANCH  36  37
ATOM     37  C   UNL A   1      46.734  26.022  32.773  1.00  0.00     0.021 C 
BRANCH  37  38
ATOM     38  C   UNL A   1      46.053  25.984  34.146  1.00  0.00     0.116 C 
BRANCH  38  39
ATOM     39  N   UNL A   1      45.057  24.925  34.250  1.00  0.00    -0.352 N 
ATOM     40  C   UNL A   1      43.773  25.015  34.757  1.00  0.00     0.251 C 
ATOM     41  H   UNL A   1      45.330  24.039  33.918  1.00  0.00     0.163 HD
ATOM     42  O   UNL A   1      43.203  24.031  35.180  1.00  0.00    -0.269 OA
BRANCH  40  43
ATOM     43  C   UNL A   1      43.102  26.331  34.754  1.00  0.00     0.039 A 
ATOM     44  C   UNL A   1      42.825  26.987  35.957  1.00  0.00     0.014 A 
ATOM     45  C   UNL A   1      42.730  26.885  33.529  1.00  0.00     0.014 A 
ATOM     46  C   UNL A   1      42.220  28.241  35.916  1.00  0.00     0.010 A 
ATOM     47  C   UNL A   1      42.203  28.158  33.486  1.00  0.00     0.010 A 
ATOM     48  C   UNL A   1      41.917  28.824  34.678  1.00  0.00    -0.014 A 
BRANCH  48  49
ATOM     49  C   UNL A   1      41.397  30.187  34.618  1.00  0.00     0.031 A 
ATOM     50  C   UNL A   1      42.429  31.260  34.575  1.00  0.00     0.074 A 
ATOM     51  C   UNL A   1      40.100  30.470  34.380  1.00  0.00     0.049 A 
ATOM     52  N   UNL A   1      42.691  32.147  35.477  1.00  0.00    -0.248 NA
ATOM     53  C   UNL A   1      43.361  31.277  33.436  1.00  0.00     0.031 C 
ATOM     54  C   UNL A   1      39.011  29.537  34.070  1.00  0.00     0.029 A 
ATOM     55  N   UNL A   1      39.508  31.686  34.233  1.00  0.00    -0.354 N 
ATOM     56  C   UNL A   1      43.680  32.967  34.939  1.00  0.00     0.074 A 
ATOM     57  C   UNL A   1      44.174  32.281  33.771  1.00  0.00     0.031 C 
ATOM     58  C   UNL A   1      37.975  30.221  33.534  1.00  0.00     0.029 A 
ATOM     59  C   UNL A   1      38.260  31.642  33.623  1.00  0.00     0.049 A 
ATOM     60  H   UNL A   1      39.927  32.524  34.534  1.00  0.00     0.167 HD
ATOM     61  C   UNL A   1      43.859  34.252  35.359  1.00  0.00     0.031 A 
ATOM     62  C   UNL A   1      37.534  32.699  33.181  1.00  0.00     0.031 A 
ATOM     63  C   UNL A   1      43.127  34.524  36.570  1.00  0.00     0.049 A 
ATOM     64  C   UNL A   1      38.036  33.901  33.893  1.00  0.00     0.074 A 
ATOM     65  C   UNL A   1      43.126  33.997  37.846  1.00  0.00     0.029 A 
ATOM     66  N   UNL A   1      41.940  35.209  36.442  1.00  0.00    -0.354 N 
ATOM     67  N   UNL A   1      37.911  34.071  35.180  1.00  0.00    -0.248 NA
ATOM     68  C   UNL A   1      39.074  34.700  33.261  1.00  0.00     0.031 C 
ATOM     69  C   UNL A   1      41.752  33.968  38.226  1.00  0.00     0.029 A 
ATOM     70  C   UNL A   1      41.006  34.546  37.196  1.00  0.00     0.049 A 
ATOM     71  H   UNL A   1      41.789  36.022  35.909  1.00  0.00     0.167 HD
ATOM     72  C   UNL A   1      39.110  34.641  35.583  1.00  0.00     0.074 A 
ATOM     73  C   UNL A   1      39.739  35.105  34.348  1.00  0.00     0.031 C 
ATOM     74  C   UNL A   1      39.606  34.429  36.839  1.00  0.00     0.031 A 
BRANCH  61  75
ATOM     75  C   UNL A   1      44.368  35.371  34.480  1.00  0.00    -0.014 A 
ATOM     76  C   UNL A   1      45.319  36.273  35.006  1.00  0.00     0.010 A 
ATOM     77  C   UNL A   1      43.748  35.737  33.269  1.00  0.00     0.010 A 
ATOM     78  C   UNL A   1      45.571  37.508  34.393  1.00  0.00     0.020 A 
ATOM     79  C   UNL A   1      44.025  36.945  32.624  1.00  0.00     0.020 A 
ATOM     80  C   UNL A   1      44.907  37.841  33.213  1.00  0.00     0.054 A 
BRANCH  80  81
ATOM     81  S   UNL A   1      45.141  39.485  32.494  1.00  0.00     0.124 S 
ATOM     82  O   UNL A   1      46.494  39.384  31.954  1.00  0.00    -0.237 OA
ATOM     83  O   UNL A   1      44.067  39.547  31.508  1.00  0.00    -0.237 OA
ATOM     84  O   UNL A   1      44.985  40.383  33.636  1.00  0.00    -0.744 OA
ENDBRANCH  80  81
ENDBRANCH  61  75
BRANCH  62  85
ATOM     85  C   UNL A   1      36.651  32.768  31.992  1.00  0.00    -0.014 A 
ATOM     86  C   UNL A   1      35.262  32.572  32.106  1.00  0.00     0.010 A 
ATOM     87  C   UNL A   1      37.140  33.300  30.781  1.00  0.00     0.010 A 
ATOM     88  C   UNL A   1      34.390  32.960  31.075  1.00  0.00     0.020 A 
ATOM     89  C   UNL A   1      36.277  33.682  29.745  1.00  0.00     0.020 A 
ATOM     90  C   UNL A   1      34.902  33.535  29.909  1.00  0.00     0.054 A 
BRANCH  90  91
ATOM     91  S   UNL A   1      33.759  34.212  28.669  1.00  0.00     0.124 S 
ATOM     92  O   UNL A   1      33.422  33.031  27.879  1.00  0.00    -0.237 OA
ATOM     93  O   UNL A   1      32.679  34.749  29.494  1.00  0.00    -0.237 OA
ATOM     94  O   UNL A   1      34.560  35.217  27.974  1.00  0.00    -0.744 OA
ENDBRANCH  90  91
ENDBRANCH  62  85
BRANCH  74  95
ATOM     95  C   UNL A   1      38.702  33.797  37.876  1.00  0.00    -0.014 A 
ATOM     96  C   UNL A   1      38.001  32.591  37.673  1.00  0.00     0.010 A 
ATOM     97  C   UNL A   1      38.683  34.370  39.159  1.00  0.00     0.010 A 
ATOM     98  C   UNL A   1      37.275  31.996  38.717  1.00  0.00     0.020 A 
ATOM     99  C   UNL A   1      37.979  33.773  40.209  1.00  0.00     0.020 A 
ATOM    100  C   UNL A   1      37.269  32.595  39.981  1.00  0.00     0.054 A 
BRANCH 100 101
ATOM    101  S   UNL A   1      36.362  31.804  41.339  1.00  0.00     0.124 S 
ATOM    102  O   UNL A   1      37.358  30.892  41.897  1.00  0.00    -0.237 OA
ATOM    103  O   UNL A   1      35.997  32.935  42.189  1.00  0.00    -0.237 OA
ATOM    104  O   UNL A   1      35.235  31.153  40.673  1.00  0.00    -0.744 OA
ENDBRANCH 100 101
ENDBRANCH  74  95
ENDBRANCH  48  49
ENDBRANCH  40  43
ENDBRANCH  38  39
ENDBRANCH  37  38
ENDBRANCH  36  37
ENDBRANCH  35  36
ENDBRANCH   1  35
TORSDOF 23
ENDMDL
MODEL 3
REMARK VINA RESULT:     -10.4      4.101     10.605
REMARK SMILES O=C(COc1ccccc1/C=N/N1[C@@H](S)N=N[C@H]1[C@@H]1C=C(c2ccccc2)N=N1)NCCCCCCNC(=O)c1ccc(-c2c3nc(c(-c4ccc(S(=O)(=O)[O-])cc4)c4ccc([nH]4)c(-c4ccc(S(=O)(=O)[O-])cc4)c4nc(c(-c5ccc(S(=O)(=O)[O-])cc5)c5ccc2[nH]5)C=C4)C=C3)cc1
REMARK SMILES IDX 32 1 31 2 30 3 1 4 2 5 3 7 4 8 5 9 6 10 10 11 7 12 9 13 8 14
REMARK SMILES IDX 11 15 12 16 13 17 14 18 18 19 16 20 17 21 15 22 19 24 20 25
REMARK SMILES IDX 29 26 21 27 28 28 22 29 23 30 27 31 24 32 26 33 25 34 33 35
REMARK SMILES IDX 34 36 35 37 36 38 37 39 38 40 39 42 40 43 41 44 99 45 42 46
REMARK SMILES IDX 98 47 43 48 44 49 45 50 92 51 46 52 97 53 91 54 93 55 47 56
REMARK SMILES IDX 96 57 90 58 89 59 48 61 78 62 59 63 77 64 60 65 63 66 76 67
REMARK SMILES IDX 94 68 61 69 62 70 75 72 95 73 64 74 49 75 50 76 58 77 51 78
REMARK SMILES IDX 57 79 52 80 53 81 54 82 55 83 56 84 79 85 80 86 88 87 81 88
REMARK SMILES IDX 87 89 82 90 83 91 84 92 85 93 86 94 65 95 66 96 74 97 67 98
REMARK SMILES IDX 73 99 68 100 69 101 70 102 71 103 72 104
REMARK H PARENT 30 6 15 23 37 41 93 60 63 71
REMARK Flexibility Score: inf
ROOT
ATOM      1  C   UNL A   1      39.333  29.354  27.624  1.00  0.00     0.021 C 
ENDROOT
BRANCH   1   2
ATOM      2  C   UNL A   1      39.942  27.876  27.941  1.00  0.00     0.116 C 
BRANCH   2   3
ATOM      3  N   UNL A   1      41.470  27.212  27.842  1.00  0.00    -0.353 N 
ATOM      4  O   UNL A   1      43.396  27.623  29.374  1.00  0.00    -0.271 OA
ATOM      5  C   UNL A   1      42.812  27.066  28.446  1.00  0.00     0.257 C 
ATOM      6  H   UNL A   1      41.484  26.682  27.012  1.00  0.00     0.163 HD
BRANCH   5   7
ATOM      7  C   UNL A   1      43.674  25.963  27.929  1.00  0.00     0.329 C 
BRANCH   7   8
ATOM      8  O   UNL A   1      44.088  25.249  29.042  1.00  0.00    -0.483 OA
BRANCH   8   9
ATOM      9  C   UNL A   1      45.412  24.905  28.962  1.00  0.00     0.128 A 
ATOM     10  C   UNL A   1      46.048  25.572  30.023  1.00  0.00     0.047 A 
ATOM     11  C   UNL A   1      46.086  24.371  27.828  1.00  0.00     0.037 A 
ATOM     12  C   UNL A   1      47.374  25.906  29.919  1.00  0.00     0.004 A 
ATOM     13  C   UNL A   1      47.426  24.773  27.741  1.00  0.00     0.013 A 
ATOM     14  C   UNL A   1      48.049  25.545  28.757  1.00  0.00     0.001 A 
BRANCH  11  15
ATOM     15  C   UNL A   1      45.479  23.686  26.560  1.00  0.00     0.145 C 
ATOM     16  N   UNL A   1      45.073  22.436  26.455  1.00  0.00    -0.180 NA
BRANCH  16  17
ATOM     17  N   UNL A   1      44.016  22.106  25.437  1.00  0.00    -0.233 NA
ATOM     18  C   UNL A   1      44.189  20.757  24.804  1.00  0.00     0.298 C 
ATOM     19  C   UNL A   1      42.397  21.773  25.898  1.00  0.00     0.274 C 
ATOM     20  N   UNL A   1      43.297  19.754  25.445  1.00  0.00    -0.153 NA
ATOM     21  N   UNL A   1      42.322  20.288  26.051  1.00  0.00    -0.161 NA
BRANCH  18  22
ATOM     22  S   UNL A   1      45.941  20.275  24.544  1.00  0.00    -0.128 SA
ATOM     23  H   UNL A   1      46.461  19.809  25.711  1.00  0.00     0.106 HD
ENDBRANCH  18  22
BRANCH  19  24
ATOM     24  C   UNL A   1      41.004  22.612  26.854  1.00  0.00     0.202 C 
ATOM     25  C   UNL A   1      39.469  22.385  26.758  1.00  0.00     0.037 C 
ATOM     26  N   UNL A   1      40.905  24.150  26.752  1.00  0.00    -0.177 NA
ATOM     27  C   UNL A   1      38.825  23.489  26.366  1.00  0.00     0.091 C 
ATOM     28  N   UNL A   1      39.706  24.545  26.436  1.00  0.00    -0.155 NA
BRANCH  27  29
ATOM     29  C   UNL A   1      37.496  23.428  25.583  1.00  0.00     0.002 A 
ATOM     30  C   UNL A   1      37.299  22.537  24.492  1.00  0.00     0.010 A 
ATOM     31  C   UNL A   1      36.396  24.252  25.805  1.00  0.00     0.010 A 
ATOM     32  C   UNL A   1      36.270  22.610  23.538  1.00  0.00     0.001 A 
ATOM     33  C   UNL A   1      35.268  24.246  24.931  1.00  0.00     0.001 A 
ATOM     34  C   UNL A   1      35.235  23.482  23.762  1.00  0.00     0.000 A 
ENDBRANCH  27  29
ENDBRANCH  19  24
ENDBRANCH  16  17
ENDBRANCH  11  15
ENDBRANCH   8   9
ENDBRANCH   7   8
ENDBRANCH   5   7
ENDBRANCH   2   3
ENDBRANCH   1   2
BRANCH   1  35
ATOM     35  C   UNL A   1      38.128  30.074  28.317  1.00  0.00     0.002 C 
BRANCH  35  36
ATOM     36  C   UNL A   1      36.947  29.219  28.738  1.00  0.00     0.002 C 
BRANCH  36  37
ATOM     37  C   UNL A   1      35.595  29.817  28.341  1.00  0.00     0.021 C 
BRANCH  37  38
ATOM     38  C   UNL A   1      35.671  31.160  27.606  1.00  0.00     0.116 C 
BRANCH  38  39
ATOM     39  N   UNL A   1      34.814  32.177  28.202  1.00  0.00    -0.352 N 
ATOM     40  C   UNL A   1      34.860  32.675  29.493  1.00  0.00     0.251 C 
ATOM     41  H   UNL A   1      34.120  32.557  27.616  1.00  0.00     0.163 HD
ATOM     42  O   UNL A   1      33.879  33.177  29.998  1.00  0.00    -0.269 OA
BRANCH  40  43
ATOM     43  C   UNL A   1      36.135  32.600  30.234  1.00  0.00     0.039 A 
ATOM     44  C   UNL A   1      36.272  31.735  31.324  1.00  0.00     0.014 A 
ATOM     45  C   UNL A   1      37.185  33.431  29.838  1.00  0.00     0.014 A 
ATOM     46  C   UNL A   1      37.498  31.667  31.981  1.00  0.00     0.010 A 
ATOM     47  C   UNL A   1      38.419  33.306  30.438  1.00  0.00     0.010 A 
ATOM     48  C   UNL A   1      38.570  32.450  31.530  1.00  0.00    -0.014 A 
BRANCH  48  49
ATOM     49  C   UNL A   1      39.891  32.298  32.130  1.00  0.00     0.031 A 
ATOM     50  C   UNL A   1      40.219  33.276  33.204  1.00  0.00     0.074 A 
ATOM     51  C   UNL A   1      40.678  31.223  31.915  1.00  0.00     0.049 A 
ATOM     52  N   UNL A   1      41.108  34.214  33.182  1.00  0.00    -0.248 NA
ATOM     53  C   UNL A   1      39.375  33.287  34.410  1.00  0.00     0.031 C 
ATOM     54  C   UNL A   1      40.368  30.013  31.147  1.00  0.00     0.029 A 
ATOM     55  N   UNL A   1      41.889  30.932  32.463  1.00  0.00    -0.354 N 
ATOM     56  C   UNL A   1      41.083  34.802  34.443  1.00  0.00     0.074 A 
ATOM     57  C   UNL A   1      39.887  34.317  35.086  1.00  0.00     0.031 C 
ATOM     58  C   UNL A   1      41.241  29.035  31.481  1.00  0.00     0.029 A 
ATOM     59  C   UNL A   1      42.261  29.598  32.347  1.00  0.00     0.049 A 
ATOM     60  H   UNL A   1      42.452  31.608  32.903  1.00  0.00     0.167 HD
ATOM     61  C   UNL A   1      42.163  35.460  34.953  1.00  0.00     0.031 A 
ATOM     62  C   UNL A   1      43.309  28.991  32.957  1.00  0.00     0.031 A 
ATOM     63  C   UNL A   1      43.163  35.707  33.946  1.00  0.00     0.049 A 
ATOM     64  C   UNL A   1      44.264  30.058  33.348  1.00  0.00     0.074 A 
ATOM     65  C   UNL A   1      43.187  36.384  32.742  1.00  0.00     0.029 A 
ATOM     66  N   UNL A   1      44.253  34.865  33.927  1.00  0.00    -0.354 N 
ATOM     67  N   UNL A   1      44.908  30.791  32.483  1.00  0.00    -0.248 NA
ATOM     68  C   UNL A   1      44.165  30.622  34.685  1.00  0.00     0.031 C 
ATOM     69  C   UNL A   1      43.977  35.568  31.881  1.00  0.00     0.029 A 
ATOM     70  C   UNL A   1      44.450  34.484  32.626  1.00  0.00     0.049 A 
ATOM     71  H   UNL A   1      44.790  34.589  34.705  1.00  0.00     0.167 HD
ATOM     72  C   UNL A   1      44.906  32.068  33.025  1.00  0.00     0.074 A 
ATOM     73  C   UNL A   1      44.535  31.881  34.426  1.00  0.00     0.031 C 
ATOM     74  C   UNL A   1      44.928  33.176  32.225  1.00  0.00     0.031 A 
BRANCH  61  75
ATOM     75  C   UNL A   1      42.497  35.536  36.425  1.00  0.00    -0.014 A 
ATOM     76  C   UNL A   1      42.677  34.337  37.147  1.00  0.00     0.010 A 
ATOM     77  C   UNL A   1      42.365  36.718  37.181  1.00  0.00     0.010 A 
ATOM     78  C   UNL A   1      42.642  34.315  38.548  1.00  0.00     0.020 A 
ATOM     79  C   UNL A   1      42.375  36.715  38.578  1.00  0.00     0.020 A 
ATOM     80  C   UNL A   1      42.473  35.506  39.253  1.00  0.00     0.054 A 
BRANCH  80  81
ATOM     81  S   UNL A   1      42.304  35.458  41.053  1.00  0.00     0.124 S 
ATOM     82  O   UNL A   1      43.531  36.120  41.486  1.00  0.00    -0.237 OA
ATOM     83  O   UNL A   1      41.070  36.208  41.268  1.00  0.00    -0.237 OA
ATOM     84  O   UNL A   1      42.221  34.030  41.351  1.00  0.00    -0.744 OA
ENDBRANCH  80  81
ENDBRANCH  61  75
BRANCH  62  85
ATOM     85  C   UNL A   1      43.390  27.600  33.467  1.00  0.00    -0.014 A 
ATOM     86  C   UNL A   1      44.265  26.664  32.886  1.00  0.00     0.010 A 
ATOM     87  C   UNL A   1      42.803  27.269  34.706  1.00  0.00     0.010 A 
ATOM     88  C   UNL A   1      44.594  25.473  33.554  1.00  0.00     0.020 A 
ATOM     89  C   UNL A   1      43.120  26.080  35.374  1.00  0.00     0.020 A 
ATOM     90  C   UNL A   1      44.038  25.199  34.806  1.00  0.00     0.054 A 
BRANCH  90  91
ATOM     91  S   UNL A   1      44.619  23.757  35.748  1.00  0.00     0.124 S 
ATOM     92  O   UNL A   1      44.234  24.100  37.113  1.00  0.00    -0.237 OA
ATOM     93  O   UNL A   1      43.873  22.659  35.138  1.00  0.00    -0.237 OA
ATOM     94  O   UNL A   1      46.058  23.738  35.493  1.00  0.00    -0.744 OA
ENDBRANCH  90  91
ENDBRANCH  62  85
BRANCH  74  95
ATOM     95  C   UNL A   1      45.233  32.997  30.752  1.00  0.00    -0.014 A 
ATOM     96  C   UNL A   1      46.535  33.005  30.215  1.00  0.00     0.010 A 
ATOM     97  C   UNL A   1      44.164  32.657  29.904  1.00  0.00     0.010 A 
ATOM     98  C   UNL A   1      46.757  32.713  28.860  1.00  0.00     0.020 A 
ATOM     99  C   UNL A   1      44.380  32.346  28.558  1.00  0.00     0.020 A 
ATOM    100  C   UNL A   1      45.674  32.386  28.039  1.00  0.00     0.054 A 
BRANCH 100 101
ATOM    101  S   UNL A   1      45.967  31.972  26.297  1.00  0.00     0.124 S 
ATOM    102  O   UNL A   1      47.374  31.580  26.296  1.00  0.00    -0.237 OA
ATOM    103  O   UNL A   1      45.012  30.892  26.054  1.00  0.00    -0.237 OA
ATOM    104  O   UNL A   1      45.673  33.217  25.588  1.00  0.00    -0.744 OA
ENDBRANCH 100 101
ENDBRANCH  74  95
ENDBRANCH  48  49
ENDBRANCH  40  43
ENDBRANCH  38  39
ENDBRANCH  37  38
ENDBRANCH  36  37
ENDBRANCH  35  36
ENDBRANCH   1  35
TORSDOF 23
ENDMDL
