MODEL 1
REMARK VINA RESULT:     -11.4      0.000      0.000
REMARK SMILES O=C(NCCCCCCNC(=O)[C@H]1[C@H]2C[C@@H]3[C@@H](OC(=O)[C@@H]31)[C@@H]2Sc1ccccc1)c1ccc(-c2c3nc(c(-c4ccc(S(=O)(=O)[O-])cc4)c4ccc([nH]4)c(-c4ccc(S(=O)(=O)[O-])cc4)c4nc(c(-c5ccc(S(=O)(=O)[O-])cc5)c5ccc2[nH]5)C=C4)C=C3)cc1
REMARK SMILES IDX 6 1 5 2 4 3 3 4 1 5 2 6 30 8 31 9 89 10 32 11 88 12 33 13
REMARK SMILES IDX 34 14 35 15 82 16 36 17 87 18 81 19 83 20 37 21 86 22 80 23
REMARK SMILES IDX 79 24 38 26 68 27 49 28 67 29 50 30 53 31 66 32 84 33 51 34
REMARK SMILES IDX 52 35 65 37 85 38 54 39 39 40 40 41 48 42 41 43 47 44 42 45
REMARK SMILES IDX 43 46 44 47 45 48 46 49 69 50 70 51 78 52 71 53 77 54 72 55
REMARK SMILES IDX 73 56 74 57 75 58 76 59 55 60 56 61 64 62 57 63 63 64 58 65
REMARK SMILES IDX 59 66 60 67 61 68 62 69 7 70 8 71 9 72 10 73 11 74 12 76
REMARK SMILES IDX 13 77 14 78 21 79 15 80 22 81 16 82 19 83 17 84 18 85 20 86
REMARK SMILES IDX 23 87 24 88 25 89 29 90 26 91 28 92 27 93
REMARK H PARENT 3 7 83 25 53 36 10 75
REMARK Flexibility Score: inf
ROOT
ATOM      1  C   UNL A   1      31.952  28.464  24.925  1.00  0.00     0.002 C 
ENDROOT
BRANCH   1   2
ATOM      2  C   UNL A   1      33.447  28.133  24.938  1.00  0.00     0.021 C 
BRANCH   2   3
ATOM      3  C   UNL A   1      34.103  28.366  26.291  1.00  0.00     0.116 C 
BRANCH   3   4
ATOM      4  N   UNL A   1      33.757  29.675  26.824  1.00  0.00    -0.352 N 
ATOM      5  O   UNL A   1      33.857  31.363  28.315  1.00  0.00    -0.269 OA
ATOM      6  C   UNL A   1      34.415  30.417  27.771  1.00  0.00     0.251 C 
ATOM      7  H   UNL A   1      32.941  30.083  26.454  1.00  0.00     0.163 HD
BRANCH   6   8
ATOM      8  C   UNL A   1      35.801  30.054  28.123  1.00  0.00     0.039 A 
ATOM      9  C   UNL A   1      36.819  30.200  27.175  1.00  0.00     0.014 A 
ATOM     10  C   UNL A   1      36.087  29.573  29.401  1.00  0.00     0.014 A 
ATOM     11  C   UNL A   1      38.095  29.742  27.461  1.00  0.00     0.010 A 
ATOM     12  C   UNL A   1      37.397  29.208  29.720  1.00  0.00     0.010 A 
ATOM     13  C   UNL A   1      38.406  29.275  28.747  1.00  0.00    -0.014 A 
BRANCH  13  14
ATOM     14  C   UNL A   1      39.817  28.960  29.073  1.00  0.00     0.031 A 
ATOM     15  C   UNL A   1      40.704  29.958  29.761  1.00  0.00     0.074 A 
ATOM     16  C   UNL A   1      40.284  27.738  28.748  1.00  0.00     0.049 A 
ATOM     17  N   UNL A   1      41.954  29.829  30.120  1.00  0.00    -0.248 NA
ATOM     18  C   UNL A   1      40.119  31.269  30.080  1.00  0.00     0.031 C 
ATOM     19  C   UNL A   1      39.508  26.690  28.074  1.00  0.00     0.029 A 
ATOM     20  N   UNL A   1      41.509  27.159  28.953  1.00  0.00    -0.354 N 
ATOM     21  C   UNL A   1      42.315  31.043  30.691  1.00  0.00     0.074 A 
ATOM     22  C   UNL A   1      41.157  31.908  30.606  1.00  0.00     0.031 C 
ATOM     23  C   UNL A   1      40.258  25.585  27.969  1.00  0.00     0.029 A 
ATOM     24  C   UNL A   1      41.588  25.867  28.491  1.00  0.00     0.049 A 
ATOM     25  H   UNL A   1      42.259  27.623  29.390  1.00  0.00     0.167 HD
ATOM     26  C   UNL A   1      43.504  31.400  31.236  1.00  0.00     0.031 A 
ATOM     27  C   UNL A   1      42.623  25.007  28.462  1.00  0.00     0.031 A 
ATOM     28  C   UNL A   1      44.653  30.532  31.299  1.00  0.00     0.049 A 
ATOM     29  C   UNL A   1      43.941  25.448  29.027  1.00  0.00     0.074 A 
ATOM     30  C   UNL A   1      45.894  30.789  31.854  1.00  0.00     0.029 A 
ATOM     31  N   UNL A   1      44.706  29.244  30.783  1.00  0.00    -0.354 N 
ATOM     32  N   UNL A   1      44.250  26.588  29.596  1.00  0.00    -0.248 NA
ATOM     33  C   UNL A   1      45.047  24.487  28.949  1.00  0.00     0.031 C 
ATOM     34  C   UNL A   1      46.717  29.684  31.615  1.00  0.00     0.029 A 
ATOM     35  C   UNL A   1      45.968  28.707  30.978  1.00  0.00     0.049 A 
ATOM     36  H   UNL A   1      43.958  28.781  30.341  1.00  0.00     0.167 HD
ATOM     37  C   UNL A   1      45.584  26.473  29.968  1.00  0.00     0.074 A 
ATOM     38  C   UNL A   1      46.012  25.145  29.576  1.00  0.00     0.031 C 
ATOM     39  C   UNL A   1      46.381  27.384  30.577  1.00  0.00     0.031 A 
BRANCH  26  40
ATOM     40  C   UNL A   1      43.636  32.801  31.777  1.00  0.00    -0.014 A 
ATOM     41  C   UNL A   1      43.890  33.894  30.928  1.00  0.00     0.010 A 
ATOM     42  C   UNL A   1      43.448  33.037  33.153  1.00  0.00     0.010 A 
ATOM     43  C   UNL A   1      43.993  35.187  31.449  1.00  0.00     0.020 A 
ATOM     44  C   UNL A   1      43.521  34.333  33.673  1.00  0.00     0.020 A 
ATOM     45  C   UNL A   1      43.809  35.398  32.820  1.00  0.00     0.054 A 
BRANCH  45  46
ATOM     46  S   UNL A   1      43.931  37.091  33.460  1.00  0.00     0.124 S 
ATOM     47  O   UNL A   1      42.619  37.272  34.079  1.00  0.00    -0.237 OA
ATOM     48  O   UNL A   1      45.054  37.001  34.389  1.00  0.00    -0.237 OA
ATOM     49  O   UNL A   1      44.172  37.898  32.267  1.00  0.00    -0.744 OA
ENDBRANCH  45  46
ENDBRANCH  26  40
BRANCH  27  50
ATOM     50  C   UNL A   1      42.447  23.660  27.856  1.00  0.00    -0.014 A 
ATOM     51  C   UNL A   1      42.834  23.413  26.528  1.00  0.00     0.010 A 
ATOM     52  C   UNL A   1      41.915  22.605  28.621  1.00  0.00     0.010 A 
ATOM     53  C   UNL A   1      42.674  22.142  25.971  1.00  0.00     0.020 A 
ATOM     54  C   UNL A   1      41.785  21.325  28.079  1.00  0.00     0.020 A 
ATOM     55  C   UNL A   1      42.154  21.105  26.752  1.00  0.00     0.054 A 
BRANCH  55  56
ATOM     56  S   UNL A   1      41.998  19.453  26.019  1.00  0.00     0.124 S 
ATOM     57  O   UNL A   1      40.559  19.355  25.798  1.00  0.00    -0.237 OA
ATOM     58  O   UNL A   1      42.818  19.565  24.815  1.00  0.00    -0.237 OA
ATOM     59  O   UNL A   1      42.536  18.569  27.051  1.00  0.00    -0.744 OA
ENDBRANCH  55  56
ENDBRANCH  27  50
BRANCH  39  60
ATOM     60  C   UNL A   1      47.792  26.961  30.894  1.00  0.00    -0.014 A 
ATOM     61  C   UNL A   1      48.858  27.257  30.026  1.00  0.00     0.010 A 
ATOM     62  C   UNL A   1      48.056  26.294  32.104  1.00  0.00     0.010 A 
ATOM     63  C   UNL A   1      50.159  26.860  30.348  1.00  0.00     0.020 A 
ATOM     64  C   UNL A   1      49.360  25.927  32.444  1.00  0.00     0.020 A 
ATOM     65  C   UNL A   1      50.401  26.200  31.557  1.00  0.00     0.054 A 
BRANCH  65  66
ATOM     66  S   UNL A   1      52.105  25.738  31.970  1.00  0.00     0.124 S 
ATOM     67  O   UNL A   1      52.839  26.197  30.794  1.00  0.00    -0.237 OA
ATOM     68  O   UNL A   1      52.350  26.490  33.198  1.00  0.00    -0.237 OA
ATOM     69  O   UNL A   1      52.040  24.288  32.137  1.00  0.00    -0.744 OA
ENDBRANCH  65  66
ENDBRANCH  39  60
ENDBRANCH  13  14
ENDBRANCH   6   8
ENDBRANCH   3   4
ENDBRANCH   2   3
ENDBRANCH   1   2
BRANCH   1  70
ATOM     70  C   UNL A   1      31.030  27.268  25.205  1.00  0.00     0.002 C 
BRANCH  70  71
ATOM     71  C   UNL A   1      30.100  26.901  24.047  1.00  0.00     0.021 C 
BRANCH  71  72
ATOM     72  C   UNL A   1      30.340  25.482  23.546  1.00  0.00     0.116 C 
BRANCH  72  73
ATOM     73  N   UNL A   1      31.585  25.388  22.808  1.00  0.00    -0.356 N 
ATOM     74  C   UNL A   1      32.745  24.713  22.967  1.00  0.00     0.224 C 
ATOM     75  H   UNL A   1      31.586  25.950  22.000  1.00  0.00     0.163 HD
ATOM     76  O   UNL A   1      33.605  24.917  22.101  1.00  0.00    -0.275 OA
BRANCH  74  77
ATOM     77  C   UNL A   1      33.058  23.731  24.098  1.00  0.00     0.097 C 
ATOM     78  C   UNL A   1      34.341  22.870  24.043  1.00  0.00     0.020 C 
ATOM     79  C   UNL A   1      33.296  24.555  25.398  1.00  0.00     0.119 C 
ATOM     80  C   UNL A   1      35.381  23.935  24.418  1.00  0.00     0.014 C 
ATOM     81  C   UNL A   1      34.359  21.908  25.259  1.00  0.00     0.097 C 
ATOM     82  C   UNL A   1      34.747  24.236  25.755  1.00  0.00     0.047 C 
ATOM     83  C   UNL A   1      32.561  23.974  26.568  1.00  0.00     0.310 C 
ATOM     84  C   UNL A   1      34.563  22.885  26.439  1.00  0.00     0.194 C 
ATOM     85  O   UNL A   1      33.348  23.038  27.184  1.00  0.00    -0.461 OA
ATOM     86  O   UNL A   1      31.422  24.248  26.914  1.00  0.00    -0.252 OA
BRANCH  81  87
ATOM     87  S   UNL A   1      35.537  20.485  25.136  1.00  0.00    -0.119 SA
BRANCH  87  88
ATOM     88  C   UNL A   1      34.533  19.099  24.638  1.00  0.00     0.008 A 
ATOM     89  C   UNL A   1      35.124  17.856  24.371  1.00  0.00     0.015 A 
ATOM     90  C   UNL A   1      33.150  19.240  24.481  1.00  0.00     0.015 A 
ATOM     91  C   UNL A   1      34.332  16.759  24.015  1.00  0.00     0.001 A 
ATOM     92  C   UNL A   1      32.358  18.139  24.147  1.00  0.00     0.001 A 
ATOM     93  C   UNL A   1      32.948  16.897  23.919  1.00  0.00     0.000 A 
ENDBRANCH  87  88
ENDBRANCH  81  87
ENDBRANCH  74  77
ENDBRANCH  72  73
ENDBRANCH  71  72
ENDBRANCH  70  71
ENDBRANCH   1  70
TORSDOF 18
ENDMDL
MODEL 2
REMARK VINA RESULT:     -11.2      1.555      2.486
REMARK SMILES O=C(NCCCCCCNC(=O)[C@H]1[C@H]2C[C@@H]3[C@@H](OC(=O)[C@@H]31)[C@@H]2Sc1ccccc1)c1ccc(-c2c3nc(c(-c4ccc(S(=O)(=O)[O-])cc4)c4ccc([nH]4)c(-c4ccc(S(=O)(=O)[O-])cc4)c4nc(c(-c5ccc(S(=O)(=O)[O-])cc5)c5ccc2[nH]5)C=C4)C=C3)cc1
REMARK SMILES IDX 6 1 5 2 4 3 3 4 1 5 2 6 30 8 31 9 89 10 32 11 88 12 33 13
REMARK SMILES IDX 34 14 35 15 82 16 36 17 87 18 81 19 83 20 37 21 86 22 80 23
REMARK SMILES IDX 79 24 38 26 68 27 49 28 67 29 50 30 53 31 66 32 84 33 51 34
REMARK SMILES IDX 52 35 65 37 85 38 54 39 39 40 40 41 48 42 41 43 47 44 42 45
REMARK SMILES IDX 43 46 44 47 45 48 46 49 69 50 70 51 78 52 71 53 77 54 72 55
REMARK SMILES IDX 73 56 74 57 75 58 76 59 55 60 56 61 64 62 57 63 63 64 58 65
REMARK SMILES IDX 59 66 60 67 61 68 62 69 7 70 8 71 9 72 10 73 11 74 12 76
REMARK SMILES IDX 13 77 14 78 21 79 15 80 22 81 16 82 19 83 17 84 18 85 20 86
REMARK SMILES IDX 23 87 24 88 25 89 29 90 26 91 28 92 27 93
REMARK H PARENT 3 7 83 25 53 36 10 75
REMARK Flexibility Score: inf
ROOT
ATOM      1  C   UNL A   1      33.331  29.118  24.354  1.00  0.00     0.002 C 
ENDROOT
BRANCH   1   2
ATOM      2  C   UNL A   1      33.686  27.873  25.170  1.00  0.00     0.021 C 
BRANCH   2   3
ATOM      3  C   UNL A   1      34.046  28.184  26.615  1.00  0.00     0.116 C 
BRANCH   3   4
ATOM      4  N   UNL A   1      33.791  29.582  26.930  1.00  0.00    -0.352 N 
ATOM      5  O   UNL A   1      34.021  31.478  28.127  1.00  0.00    -0.269 OA
ATOM      6  C   UNL A   1      34.510  30.423  27.740  1.00  0.00     0.251 C 
ATOM      7  H   UNL A   1      32.996  29.976  26.504  1.00  0.00     0.163 HD
BRANCH   6   8
ATOM      8  C   UNL A   1      35.877  30.035  28.137  1.00  0.00     0.039 A 
ATOM      9  C   UNL A   1      36.917  30.106  27.206  1.00  0.00     0.014 A 
ATOM     10  C   UNL A   1      36.122  29.603  29.441  1.00  0.00     0.014 A 
ATOM     11  C   UNL A   1      38.172  29.622  27.538  1.00  0.00     0.010 A 
ATOM     12  C   UNL A   1      37.413  29.213  29.804  1.00  0.00     0.010 A 
ATOM     13  C   UNL A   1      38.443  29.204  28.850  1.00  0.00    -0.014 A 
BRANCH  13  14
ATOM     14  C   UNL A   1      39.837  28.861  29.219  1.00  0.00     0.031 A 
ATOM     15  C   UNL A   1      40.710  29.828  29.966  1.00  0.00     0.074 A 
ATOM     16  C   UNL A   1      40.300  27.642  28.879  1.00  0.00     0.049 A 
ATOM     17  N   UNL A   1      41.944  29.672  30.368  1.00  0.00    -0.248 NA
ATOM     18  C   UNL A   1      40.130  31.138  30.299  1.00  0.00     0.031 C 
ATOM     19  C   UNL A   1      39.536  26.623  28.148  1.00  0.00     0.029 A 
ATOM     20  N   UNL A   1      41.508  27.040  29.114  1.00  0.00    -0.354 N 
ATOM     21  C   UNL A   1      42.299  30.865  30.985  1.00  0.00     0.074 A 
ATOM     22  C   UNL A   1      41.156  31.748  30.881  1.00  0.00     0.031 C 
ATOM     23  C   UNL A   1      40.275  25.511  28.041  1.00  0.00     0.029 A 
ATOM     24  C   UNL A   1      41.588  25.760  28.619  1.00  0.00     0.049 A 
ATOM     25  H   UNL A   1      42.247  27.483  29.590  1.00  0.00     0.167 HD
ATOM     26  C   UNL A   1      43.471  31.191  31.583  1.00  0.00     0.031 A 
ATOM     27  C   UNL A   1      42.612  24.888  28.606  1.00  0.00     0.031 A 
ATOM     28  C   UNL A   1      44.605  30.305  31.665  1.00  0.00     0.049 A 
ATOM     29  C   UNL A   1      43.913  25.295  29.231  1.00  0.00     0.074 A 
ATOM     30  C   UNL A   1      45.828  30.530  32.273  1.00  0.00     0.029 A 
ATOM     31  N   UNL A   1      44.661  29.032  31.116  1.00  0.00    -0.354 N 
ATOM     32  N   UNL A   1      44.216  26.415  29.842  1.00  0.00    -0.248 NA
ATOM     33  C   UNL A   1      45.009  24.321  29.167  1.00  0.00     0.031 C 
ATOM     34  C   UNL A   1      46.645  29.421  32.034  1.00  0.00     0.029 A 
ATOM     35  C   UNL A   1      45.908  28.472  31.344  1.00  0.00     0.049 A 
ATOM     36  H   UNL A   1      43.924  28.591  30.635  1.00  0.00     0.167 HD
ATOM     37  C   UNL A   1      45.533  26.271  30.259  1.00  0.00     0.074 A 
ATOM     38  C   UNL A   1      45.959  24.948  29.847  1.00  0.00     0.031 C 
ATOM     39  C   UNL A   1      46.319  27.155  30.922  1.00  0.00     0.031 A 
BRANCH  26  40
ATOM     40  C   UNL A   1      43.601  32.575  32.167  1.00  0.00    -0.014 A 
ATOM     41  C   UNL A   1      43.288  32.834  33.514  1.00  0.00     0.010 A 
ATOM     42  C   UNL A   1      44.099  33.623  31.370  1.00  0.00     0.010 A 
ATOM     43  C   UNL A   1      43.433  34.121  34.041  1.00  0.00     0.020 A 
ATOM     44  C   UNL A   1      44.272  34.906  31.900  1.00  0.00     0.020 A 
ATOM     45  C   UNL A   1      43.922  35.150  33.229  1.00  0.00     0.054 A 
BRANCH  45  46
ATOM     46  S   UNL A   1      44.115  36.804  33.947  1.00  0.00     0.124 S 
ATOM     47  O   UNL A   1      44.582  36.493  35.296  1.00  0.00    -0.237 OA
ATOM     48  O   UNL A   1      45.105  37.421  33.069  1.00  0.00    -0.237 OA
ATOM     49  O   UNL A   1      42.772  37.376  33.870  1.00  0.00    -0.744 OA
ENDBRANCH  45  46
ENDBRANCH  26  40
BRANCH  27  50
ATOM     50  C   UNL A   1      42.441  23.559  27.957  1.00  0.00    -0.014 A 
ATOM     51  C   UNL A   1      42.850  23.350  26.629  1.00  0.00     0.010 A 
ATOM     52  C   UNL A   1      41.892  22.485  28.681  1.00  0.00     0.010 A 
ATOM     53  C   UNL A   1      42.695  22.096  26.032  1.00  0.00     0.020 A 
ATOM     54  C   UNL A   1      41.767  21.221  28.099  1.00  0.00     0.020 A 
ATOM     55  C   UNL A   1      42.158  21.040  26.773  1.00  0.00     0.054 A 
BRANCH  55  56
ATOM     56  S   UNL A   1      42.008  19.410  25.989  1.00  0.00     0.124 S 
ATOM     57  O   UNL A   1      42.460  18.521  27.053  1.00  0.00    -0.237 OA
ATOM     58  O   UNL A   1      40.583  19.346  25.672  1.00  0.00    -0.237 OA
ATOM     59  O   UNL A   1      42.893  19.505  24.831  1.00  0.00    -0.744 OA
ENDBRANCH  55  56
ENDBRANCH  27  50
BRANCH  39  60
ATOM     60  C   UNL A   1      47.711  26.704  31.280  1.00  0.00    -0.014 A 
ATOM     61  C   UNL A   1      48.781  26.842  30.377  1.00  0.00     0.010 A 
ATOM     62  C   UNL A   1      47.956  26.172  32.559  1.00  0.00     0.010 A 
ATOM     63  C   UNL A   1      50.065  26.423  30.737  1.00  0.00     0.020 A 
ATOM     64  C   UNL A   1      49.245  25.785  32.933  1.00  0.00     0.020 A 
ATOM     65  C   UNL A   1      50.288  25.900  32.014  1.00  0.00     0.054 A 
BRANCH  65  66
ATOM     66  S   UNL A   1      51.972  25.407  32.471  1.00  0.00     0.124 S 
ATOM     67  O   UNL A   1      51.980  23.989  32.119  1.00  0.00    -0.237 OA
ATOM     68  O   UNL A   1      52.796  26.269  31.627  1.00  0.00    -0.237 OA
ATOM     69  O   UNL A   1      52.042  25.694  33.901  1.00  0.00    -0.744 OA
ENDBRANCH  65  66
ENDBRANCH  39  60
ENDBRANCH  13  14
ENDBRANCH   6   8
ENDBRANCH   3   4
ENDBRANCH   2   3
ENDBRANCH   1   2
BRANCH   1  70
ATOM     70  C   UNL A   1      32.813  28.828  22.937  1.00  0.00     0.002 C 
BRANCH  70  71
ATOM     71  C   UNL A   1      31.304  29.011  22.764  1.00  0.00     0.021 C 
BRANCH  71  72
ATOM     72  C   UNL A   1      30.598  27.697  22.453  1.00  0.00     0.116 C 
BRANCH  72  73
ATOM     73  N   UNL A   1      30.142  27.046  23.666  1.00  0.00    -0.356 N 
ATOM     74  C   UNL A   1      30.582  26.019  24.426  1.00  0.00     0.224 C 
ATOM     75  H   UNL A   1      29.316  27.447  24.020  1.00  0.00     0.163 HD
ATOM     76  O   UNL A   1      29.885  25.745  25.411  1.00  0.00    -0.275 OA
BRANCH  74  77
ATOM     77  C   UNL A   1      31.853  25.204  24.175  1.00  0.00     0.097 C 
ATOM     78  C   UNL A   1      32.095  23.888  24.951  1.00  0.00     0.020 C 
ATOM     79  C   UNL A   1      31.811  24.690  22.705  1.00  0.00     0.119 C 
ATOM     80  C   UNL A   1      31.122  22.966  24.203  1.00  0.00     0.014 C 
ATOM     81  C   UNL A   1      33.487  23.324  24.570  1.00  0.00     0.097 C 
ATOM     82  C   UNL A   1      31.789  23.171  22.865  1.00  0.00     0.047 C 
ATOM     83  C   UNL A   1      33.118  24.902  22.004  1.00  0.00     0.310 C 
ATOM     84  C   UNL A   1      33.273  22.905  23.098  1.00  0.00     0.194 C 
ATOM     85  O   UNL A   1      33.930  23.819  22.211  1.00  0.00    -0.461 OA
ATOM     86  O   UNL A   1      33.447  25.895  21.372  1.00  0.00    -0.252 OA
BRANCH  81  87
ATOM     87  S   UNL A   1      34.171  22.039  25.715  1.00  0.00    -0.119 SA
BRANCH  87  88
ATOM     88  C   UNL A   1      35.919  22.379  25.797  1.00  0.00     0.008 A 
ATOM     89  C   UNL A   1      36.849  21.383  25.469  1.00  0.00     0.015 A 
ATOM     90  C   UNL A   1      36.383  23.631  26.213  1.00  0.00     0.015 A 
ATOM     91  C   UNL A   1      38.221  21.661  25.498  1.00  0.00     0.001 A 
ATOM     92  C   UNL A   1      37.751  23.913  26.221  1.00  0.00     0.001 A 
ATOM     93  C   UNL A   1      38.669  22.930  25.859  1.00  0.00     0.000 A 
ENDBRANCH  87  88
ENDBRANCH  81  87
ENDBRANCH  74  77
ENDBRANCH  72  73
ENDBRANCH  71  72
ENDBRANCH  70  71
ENDBRANCH   1  70
TORSDOF 18
ENDMDL
MODEL 3
REMARK VINA RESULT:     -11.2      1.569      8.403
REMARK SMILES O=C(NCCCCCCNC(=O)[C@H]1[C@H]2C[C@@H]3[C@@H](OC(=O)[C@@H]31)[C@@H]2Sc1ccccc1)c1ccc(-c2c3nc(c(-c4ccc(S(=O)(=O)[O-])cc4)c4ccc([nH]4)c(-c4ccc(S(=O)(=O)[O-])cc4)c4nc(c(-c5ccc(S(=O)(=O)[O-])cc5)c5ccc2[nH]5)C=C4)C=C3)cc1
REMARK SMILES IDX 6 1 5 2 4 3 3 4 1 5 2 6 30 8 31 9 89 10 32 11 88 12 33 13
REMARK SMILES IDX 34 14 35 15 82 16 36 17 87 18 81 19 83 20 37 21 86 22 80 23
REMARK SMILES IDX 79 24 38 26 68 27 49 28 67 29 50 30 53 31 66 32 84 33 51 34
REMARK SMILES IDX 52 35 65 37 85 38 54 39 39 40 40 41 48 42 41 43 47 44 42 45
REMARK SMILES IDX 43 46 44 47 45 48 46 49 69 50 70 51 78 52 71 53 77 54 72 55
REMARK SMILES IDX 73 56 74 57 75 58 76 59 55 60 56 61 64 62 57 63 63 64 58 65
REMARK SMILES IDX 59 66 60 67 61 68 62 69 7 70 8 71 9 72 10 73 11 74 12 76
REMARK SMILES IDX 13 77 14 78 21 79 15 80 22 81 16 82 19 83 17 84 18 85 20 86
REMARK SMILES IDX 23 87 24 88 25 89 29 90 26 91 28 92 27 93
REMARK H PARENT 3 7 83 25 53 36 10 75
REMARK Flexibility Score: inf
ROOT
ATOM      1  C   UNL A   1      33.376  29.097  24.595  1.00  0.00     0.002 C 
ENDROOT
BRANCH   1   2
ATOM      2  C   UNL A   1      33.686  27.848  25.423  1.00  0.00     0.021 C 
BRANCH   2   3
ATOM      3  C   UNL A   1      34.006  28.156  26.879  1.00  0.00     0.116 C 
BRANCH   3   4
ATOM      4  N   UNL A   1      33.750  29.555  27.187  1.00  0.00    -0.352 N 
ATOM      5  O   UNL A   1      34.030  31.476  28.334  1.00  0.00    -0.269 OA
ATOM      6  C   UNL A   1      34.509  30.421  27.932  1.00  0.00     0.251 C 
ATOM      7  H   UNL A   1      32.923  29.930  26.809  1.00  0.00     0.163 HD
BRANCH   6   8
ATOM      8  C   UNL A   1      35.905  30.060  28.243  1.00  0.00     0.039 A 
ATOM      9  C   UNL A   1      36.890  30.189  27.260  1.00  0.00     0.014 A 
ATOM     10  C   UNL A   1      36.233  29.596  29.518  1.00  0.00     0.014 A 
ATOM     11  C   UNL A   1      38.174  29.731  27.508  1.00  0.00     0.010 A 
ATOM     12  C   UNL A   1      37.551  29.232  29.797  1.00  0.00     0.010 A 
ATOM     13  C   UNL A   1      38.527  29.282  28.790  1.00  0.00    -0.014 A 
BRANCH  13  14
ATOM     14  C   UNL A   1      39.948  28.967  29.072  1.00  0.00     0.031 A 
ATOM     15  C   UNL A   1      40.545  27.640  28.702  1.00  0.00     0.074 A 
ATOM     16  C   UNL A   1      40.702  29.917  29.661  1.00  0.00     0.049 A 
ATOM     17  N   UNL A   1      41.770  27.218  28.874  1.00  0.00    -0.248 NA
ATOM     18  C   UNL A   1      39.655  26.657  28.064  1.00  0.00     0.031 C 
ATOM     19  C   UNL A   1      40.222  31.243  30.066  1.00  0.00     0.029 A 
ATOM     20  N   UNL A   1      42.029  29.929  30.004  1.00  0.00    -0.354 N 
ATOM     21  C   UNL A   1      41.800  25.918  28.385  1.00  0.00     0.074 A 
ATOM     22  C   UNL A   1      40.459  25.609  27.933  1.00  0.00     0.031 C 
ATOM     23  C   UNL A   1      41.248  31.953  30.554  1.00  0.00     0.029 A 
ATOM     24  C   UNL A   1      42.437  31.112  30.572  1.00  0.00     0.049 A 
ATOM     25  H   UNL A   1      42.631  29.164  29.856  1.00  0.00     0.167 HD
ATOM     26  C   UNL A   1      42.850  25.064  28.320  1.00  0.00     0.031 A 
ATOM     27  C   UNL A   1      43.628  31.476  31.080  1.00  0.00     0.031 A 
ATOM     28  C   UNL A   1      44.175  25.382  28.789  1.00  0.00     0.049 A 
ATOM     29  C   UNL A   1      44.759  30.491  31.039  1.00  0.00     0.074 A 
ATOM     30  C   UNL A   1      45.314  24.596  28.744  1.00  0.00     0.029 A 
ATOM     31  N   UNL A   1      44.539  26.576  29.397  1.00  0.00    -0.354 N 
ATOM     32  N   UNL A   1      44.775  29.279  30.539  1.00  0.00    -0.248 NA
ATOM     33  C   UNL A   1      46.031  30.923  31.629  1.00  0.00     0.031 C 
ATOM     34  C   UNL A   1      46.348  25.287  29.384  1.00  0.00     0.029 A 
ATOM     35  C   UNL A   1      45.876  26.535  29.759  1.00  0.00     0.049 A 
ATOM     36  H   UNL A   1      43.936  27.338  29.548  1.00  0.00     0.167 HD
ATOM     37  C   UNL A   1      46.069  28.810  30.732  1.00  0.00     0.074 A 
ATOM     38  C   UNL A   1      46.807  29.879  31.376  1.00  0.00     0.031 C 
ATOM     39  C   UNL A   1      46.596  27.605  30.406  1.00  0.00     0.031 A 
BRANCH  26  40
ATOM     40  C   UNL A   1      42.604  23.689  27.753  1.00  0.00    -0.014 A 
ATOM     41  C   UNL A   1      42.756  23.425  26.379  1.00  0.00     0.010 A 
ATOM     42  C   UNL A   1      42.269  22.628  28.616  1.00  0.00     0.010 A 
ATOM     43  C   UNL A   1      42.539  22.139  25.875  1.00  0.00     0.020 A 
ATOM     44  C   UNL A   1      42.080  21.335  28.121  1.00  0.00     0.020 A 
ATOM     45  C   UNL A   1      42.200  21.102  26.751  1.00  0.00     0.054 A 
BRANCH  45  46
ATOM     46  S   UNL A   1      41.944  19.441  26.068  1.00  0.00     0.124 S 
ATOM     47  O   UNL A   1      42.832  19.453  24.908  1.00  0.00    -0.237 OA
ATOM     48  O   UNL A   1      42.361  18.575  27.167  1.00  0.00    -0.237 OA
ATOM     49  O   UNL A   1      40.516  19.408  25.758  1.00  0.00    -0.744 OA
ENDBRANCH  45  46
ENDBRANCH  26  40
BRANCH  27  50
ATOM     50  C   UNL A   1      43.792  32.825  31.685  1.00  0.00    -0.014 A 
ATOM     51  C   UNL A   1      43.594  33.024  33.062  1.00  0.00     0.010 A 
ATOM     52  C   UNL A   1      44.178  33.916  30.884  1.00  0.00     0.010 A 
ATOM     53  C   UNL A   1      43.760  34.294  33.622  1.00  0.00     0.020 A 
ATOM     54  C   UNL A   1      44.379  35.179  31.446  1.00  0.00     0.020 A 
ATOM     55  C   UNL A   1      44.154  35.362  32.811  1.00  0.00     0.054 A 
BRANCH  55  56
ATOM     56  S   UNL A   1      44.406  36.990  33.570  1.00  0.00     0.124 S 
ATOM     57  O   UNL A   1      43.599  36.886  34.781  1.00  0.00    -0.237 OA
ATOM     58  O   UNL A   1      45.853  37.020  33.773  1.00  0.00    -0.237 OA
ATOM     59  O   UNL A   1      43.907  37.919  32.560  1.00  0.00    -0.744 OA
ENDBRANCH  55  56
ENDBRANCH  27  50
BRANCH  39  60
ATOM     60  C   UNL A   1      48.057  27.390  30.705  1.00  0.00    -0.014 A 
ATOM     61  C   UNL A   1      48.480  26.824  31.921  1.00  0.00     0.010 A 
ATOM     62  C   UNL A   1      49.016  27.720  29.731  1.00  0.00     0.010 A 
ATOM     63  C   UNL A   1      49.841  26.628  32.171  1.00  0.00     0.020 A 
ATOM     64  C   UNL A   1      50.374  27.493  29.964  1.00  0.00     0.020 A 
ATOM     65  C   UNL A   1      50.779  26.961  31.189  1.00  0.00     0.054 A 
BRANCH  65  66
ATOM     66  S   UNL A   1      52.534  26.653  31.521  1.00  0.00     0.124 S 
ATOM     67  O   UNL A   1      52.961  27.922  32.106  1.00  0.00    -0.237 OA
ATOM     68  O   UNL A   1      52.490  25.519  32.442  1.00  0.00    -0.237 OA
ATOM     69  O   UNL A   1      53.090  26.356  30.203  1.00  0.00    -0.744 OA
ENDBRANCH  65  66
ENDBRANCH  39  60
ENDBRANCH  13  14
ENDBRANCH   6   8
ENDBRANCH   3   4
ENDBRANCH   2   3
ENDBRANCH   1   2
BRANCH   1  70
ATOM     70  C   UNL A   1      32.879  28.812  23.169  1.00  0.00     0.002 C 
BRANCH  70  71
ATOM     71  C   UNL A   1      31.376  29.019  22.969  1.00  0.00     0.021 C 
BRANCH  71  72
ATOM     72  C   UNL A   1      30.669  27.736  22.550  1.00  0.00     0.116 C 
BRANCH  72  73
ATOM     73  N   UNL A   1      30.166  27.014  23.703  1.00  0.00    -0.356 N 
ATOM     74  C   UNL A   1      30.584  25.951  24.426  1.00  0.00     0.224 C 
ATOM     75  H   UNL A   1      29.319  27.386  24.039  1.00  0.00     0.163 HD
ATOM     76  O   UNL A   1      29.845  25.616  25.360  1.00  0.00    -0.275 OA
BRANCH  74  77
ATOM     77  C   UNL A   1      31.875  25.164  24.190  1.00  0.00     0.097 C 
ATOM     78  C   UNL A   1      32.133  23.849  24.962  1.00  0.00     0.020 C 
ATOM     79  C   UNL A   1      31.868  24.659  22.717  1.00  0.00     0.119 C 
ATOM     80  C   UNL A   1      31.191  22.911  24.193  1.00  0.00     0.014 C 
ATOM     81  C   UNL A   1      33.543  23.317  24.600  1.00  0.00     0.097 C 
ATOM     82  C   UNL A   1      31.876  23.139  22.867  1.00  0.00     0.047 C 
ATOM     83  C   UNL A   1      33.182  24.903  22.038  1.00  0.00     0.310 C 
ATOM     84  C   UNL A   1      33.362  22.903  23.123  1.00  0.00     0.194 C 
ATOM     85  O   UNL A   1      34.013  23.837  22.252  1.00  0.00    -0.461 OA
ATOM     86  O   UNL A   1      33.499  25.907  21.418  1.00  0.00    -0.252 OA
BRANCH  81  87
ATOM     87  S   UNL A   1      34.235  22.040  25.749  1.00  0.00    -0.119 SA
BRANCH  87  88
ATOM     88  C   UNL A   1      35.978  22.398  25.839  1.00  0.00     0.008 A 
ATOM     89  C   UNL A   1      36.922  21.401  25.555  1.00  0.00     0.015 A 
ATOM     90  C   UNL A   1      36.426  23.668  26.219  1.00  0.00     0.015 A 
ATOM     91  C   UNL A   1      38.290  21.692  25.591  1.00  0.00     0.001 A 
ATOM     92  C   UNL A   1      37.791  23.963  26.232  1.00  0.00     0.001 A 
ATOM     93  C   UNL A   1      38.723  22.977  25.913  1.00  0.00     0.000 A 
ENDBRANCH  87  88
ENDBRANCH  81  87
ENDBRANCH  74  77
ENDBRANCH  72  73
ENDBRANCH  71  72
ENDBRANCH  70  71
ENDBRANCH   1  70
TORSDOF 18
ENDMDL
