MODEL 1
REMARK VINA RESULT:     -10.6      0.000      0.000
REMARK SMILES C[C@@](NC(=O)CCOC1CC[NH2+]CC1)(C(=O)NCCCCCCNC(=O)c1ccc(-c2c3nc(c(-c4ccc(S(=O)(=O)[O-])cc4)c4ccc([nH]4)c(-c4ccc(S(=O)(=O)[O-])cc4)c4nc(c(-c5ccc(S(=O)(=O)[O-])cc5)c5ccc2[nH]5)C=C4)C=C3)cc1)C(F)(F)F
REMARK SMILES IDX 19 1 18 2 17 3 15 4 16 5 2 7 1 8 3 9 4 10 5 12 6 13 7 14
REMARK SMILES IDX 8 15 9 16 10 17 14 18 11 19 13 20 12 21 87 24 88 25 89 26
REMARK SMILES IDX 90 27 20 28 21 29 22 30 23 31 24 32 25 33 26 35 27 36 28 37
REMARK SMILES IDX 86 38 29 39 85 40 30 41 31 42 32 43 79 44 33 45 84 46 78 47
REMARK SMILES IDX 80 48 34 49 83 50 77 51 76 52 35 54 65 55 46 56 64 57 47 58
REMARK SMILES IDX 50 59 63 60 81 61 48 62 49 63 62 65 82 66 51 67 36 68 37 69
REMARK SMILES IDX 45 70 38 71 44 72 39 73 40 74 41 75 42 76 43 77 66 78 67 79
REMARK SMILES IDX 75 80 68 81 74 82 69 83 70 84 71 85 72 86 73 87 52 88 53 89
REMARK SMILES IDX 61 90 54 91 60 92 55 93 56 94 57 95 58 96 59 97
REMARK H PARENT 17 6 3 11 12 22 12 23 24 34 80 53 50 64
REMARK Flexibility Score: inf
ROOT
ATOM      1  C   UNL A   1      33.765  25.496  24.346  1.00  0.00     0.021 C 
ENDROOT
BRANCH   1   2
ATOM      2  C   UNL A   1      34.345  24.177  23.846  1.00  0.00     0.116 C 
BRANCH   2   3
ATOM      3  N   UNL A   1      35.043  23.264  24.716  1.00  0.00    -0.354 N 
ATOM      4  C   UNL A   1      34.599  22.081  25.285  1.00  0.00     0.254 C 
ATOM      5  O   UNL A   1      35.512  21.412  25.792  1.00  0.00    -0.272 OA
ATOM      6  H   UNL A   1      35.967  23.517  24.939  1.00  0.00     0.163 HD
BRANCH   4   7
ATOM      7  C   UNL A   1      33.035  21.502  25.300  1.00  0.00     0.212 C 
ATOM      8  C   UNL A   1      33.233  20.008  25.727  1.00  0.00     0.056 C 
BRANCH   7   9
ATOM      9  N   UNL A   1      31.586  22.019  26.285  1.00  0.00    -0.334 N 
ATOM     10  C   UNL A   1      30.278  23.275  26.811  1.00  0.00     0.223 C 
ATOM     11  H   UNL A   1      31.378  21.225  26.826  1.00  0.00     0.164 HD
ATOM     12  O   UNL A   1      29.299  23.052  27.566  1.00  0.00    -0.275 OA
BRANCH  10  13
ATOM     13  C   UNL A   1      30.096  24.906  26.377  1.00  0.00     0.128 C 
BRANCH  13  14
ATOM     14  C   UNL A   1      30.263  25.286  24.946  1.00  0.00     0.170 C 
BRANCH  14  15
ATOM     15  O   UNL A   1      30.201  26.675  24.978  1.00  0.00    -0.377 OA
BRANCH  15  16
ATOM     16  C   UNL A   1      29.684  27.080  23.722  1.00  0.00     0.129 C 
ATOM     17  C   UNL A   1      30.788  28.342  22.654  1.00  0.00     0.093 C 
ATOM     18  C   UNL A   1      27.743  27.468  23.813  1.00  0.00     0.093 C 
ATOM     19  C   UNL A   1      29.868  29.806  21.752  1.00  0.00     0.263 C 
ATOM     20  C   UNL A   1      27.006  28.933  22.837  1.00  0.00     0.263 C 
ATOM     21  N   UNL A   1      28.020  29.925  21.668  1.00  0.00    -0.346 N 
ATOM     22  H   UNL A   1      27.746  29.648  20.724  1.00  0.00     0.346 HD
ATOM     23  H   UNL A   1      27.826  30.890  21.934  1.00  0.00     0.346 HD
ENDBRANCH  15  16
ENDBRANCH  14  15
ENDBRANCH  13  14
ENDBRANCH  10  13
ENDBRANCH   7   9
BRANCH   7  24
ATOM     24  C   UNL A   1      32.758  21.316  23.725  1.00  0.00     0.420 C 
ATOM     25  F   UNL A   1      33.918  21.278  23.014  1.00  0.00    -0.168 F 
ATOM     26  F   UNL A   1      32.146  20.130  23.481  1.00  0.00    -0.168 F 
ATOM     27  F   UNL A   1      32.004  22.270  23.136  1.00  0.00    -0.168 F 
ENDBRANCH   7  24
ENDBRANCH   4   7
ENDBRANCH   2   3
ENDBRANCH   1   2
BRANCH   1  28
ATOM     28  C   UNL A   1      34.021  25.810  25.838  1.00  0.00     0.002 C 
BRANCH  28  29
ATOM     29  C   UNL A   1      33.253  26.962  26.517  1.00  0.00     0.002 C 
BRANCH  29  30
ATOM     30  C   UNL A   1      33.080  28.287  25.771  1.00  0.00     0.021 C 
BRANCH  30  31
ATOM     31  C   UNL A   1      34.216  29.290  25.904  1.00  0.00     0.116 C 
BRANCH  31  32
ATOM     32  N   UNL A   1      33.906  30.391  26.798  1.00  0.00    -0.352 N 
ATOM     33  C   UNL A   1      34.594  30.844  27.897  1.00  0.00     0.251 C 
ATOM     34  H   UNL A   1      33.083  30.887  26.584  1.00  0.00     0.163 HD
ATOM     35  O   UNL A   1      34.100  31.719  28.604  1.00  0.00    -0.269 OA
BRANCH  33  36
ATOM     36  C   UNL A   1      35.908  30.260  28.249  1.00  0.00     0.039 A 
ATOM     37  C   UNL A   1      36.959  30.374  27.335  1.00  0.00     0.014 A 
ATOM     38  C   UNL A   1      36.110  29.607  29.467  1.00  0.00     0.014 A 
ATOM     39  C   UNL A   1      38.222  29.884  27.671  1.00  0.00     0.010 A 
ATOM     40  C   UNL A   1      37.391  29.208  29.839  1.00  0.00     0.010 A 
ATOM     41  C   UNL A   1      38.459  29.335  28.942  1.00  0.00    -0.014 A 
BRANCH  41  42
ATOM     42  C   UNL A   1      39.823  28.908  29.342  1.00  0.00     0.031 A 
ATOM     43  C   UNL A   1      40.705  29.821  30.150  1.00  0.00     0.074 A 
ATOM     44  C   UNL A   1      40.279  27.704  28.943  1.00  0.00     0.049 A 
ATOM     45  N   UNL A   1      41.912  29.605  30.608  1.00  0.00    -0.248 NA
ATOM     46  C   UNL A   1      40.176  31.158  30.464  1.00  0.00     0.031 C 
ATOM     47  C   UNL A   1      39.533  26.750  28.118  1.00  0.00     0.029 A 
ATOM     48  N   UNL A   1      41.471  27.070  29.185  1.00  0.00    -0.354 N 
ATOM     49  C   UNL A   1      42.288  30.778  31.254  1.00  0.00     0.074 A 
ATOM     50  C   UNL A   1      41.207  31.722  31.073  1.00  0.00     0.031 C 
ATOM     51  C   UNL A   1      40.260  25.633  27.971  1.00  0.00     0.029 A 
ATOM     52  C   UNL A   1      41.544  25.809  28.641  1.00  0.00     0.049 A 
ATOM     53  H   UNL A   1      42.205  27.479  29.698  1.00  0.00     0.167 HD
ATOM     54  C   UNL A   1      43.420  31.038  31.951  1.00  0.00     0.031 A 
ATOM     55  C   UNL A   1      42.532  24.895  28.676  1.00  0.00     0.031 A 
ATOM     56  C   UNL A   1      44.495  30.093  32.112  1.00  0.00     0.049 A 
ATOM     57  C   UNL A   1      43.793  25.217  29.427  1.00  0.00     0.074 A 
ATOM     58  C   UNL A   1      45.663  30.235  32.841  1.00  0.00     0.029 A 
ATOM     59  N   UNL A   1      44.543  28.838  31.523  1.00  0.00    -0.354 N 
ATOM     60  N   UNL A   1      44.095  26.300  30.103  1.00  0.00    -0.248 NA
ATOM     61  C   UNL A   1      44.841  24.190  29.429  1.00  0.00     0.031 C 
ATOM     62  C   UNL A   1      46.452  29.101  32.624  1.00  0.00     0.029 A 
ATOM     63  C   UNL A   1      45.740  28.213  31.834  1.00  0.00     0.049 A 
ATOM     64  H   UNL A   1      43.832  28.448  30.965  1.00  0.00     0.167 HD
ATOM     65  C   UNL A   1      45.360  26.073  30.633  1.00  0.00     0.074 A 
ATOM     66  C   UNL A   1      45.753  24.741  30.218  1.00  0.00     0.031 C 
ATOM     67  C   UNL A   1      46.127  26.893  31.395  1.00  0.00     0.031 A 
BRANCH  54  68
ATOM     68  C   UNL A   1      43.563  32.410  32.564  1.00  0.00    -0.014 A 
ATOM     69  C   UNL A   1      43.125  32.681  33.875  1.00  0.00     0.010 A 
ATOM     70  C   UNL A   1      44.164  33.444  31.823  1.00  0.00     0.010 A 
ATOM     71  C   UNL A   1      43.233  33.969  34.408  1.00  0.00     0.020 A 
ATOM     72  C   UNL A   1      44.309  34.724  32.367  1.00  0.00     0.020 A 
ATOM     73  C   UNL A   1      43.823  34.983  33.648  1.00  0.00     0.054 A 
BRANCH  73  74
ATOM     74  S   UNL A   1      43.950  36.643  34.368  1.00  0.00     0.124 S 
ATOM     75  O   UNL A   1      43.032  37.407  33.528  1.00  0.00    -0.237 OA
ATOM     76  O   UNL A   1      43.511  36.427  35.744  1.00  0.00    -0.237 OA
ATOM     77  O   UNL A   1      45.363  36.982  34.212  1.00  0.00    -0.744 OA
ENDBRANCH  73  74
ENDBRANCH  54  68
BRANCH  55  78
ATOM     78  C   UNL A   1      42.351  23.582  27.996  1.00  0.00    -0.014 A 
ATOM     79  C   UNL A   1      42.691  23.424  26.640  1.00  0.00     0.010 A 
ATOM     80  C   UNL A   1      41.867  22.471  28.711  1.00  0.00     0.010 A 
ATOM     81  C   UNL A   1      42.544  22.184  26.012  1.00  0.00     0.020 A 
ATOM     82  C   UNL A   1      41.752  21.221  28.096  1.00  0.00     0.020 A 
ATOM     83  C   UNL A   1      42.084  21.088  26.748  1.00  0.00     0.054 A 
BRANCH  83  84
ATOM     84  S   UNL A   1      41.971  19.473  25.928  1.00  0.00     0.124 S 
ATOM     85  O   UNL A   1      42.370  18.561  26.995  1.00  0.00    -0.237 OA
ATOM     86  O   UNL A   1      40.563  19.419  25.540  1.00  0.00    -0.237 OA
ATOM     87  O   UNL A   1      42.912  19.587  24.816  1.00  0.00    -0.744 OA
ENDBRANCH  83  84
ENDBRANCH  55  78
BRANCH  67  88
ATOM     88  C   UNL A   1      47.464  26.362  31.850  1.00  0.00    -0.014 A 
ATOM     89  C   UNL A   1      48.634  26.584  31.103  1.00  0.00     0.010 A 
ATOM     90  C   UNL A   1      47.554  25.659  33.066  1.00  0.00     0.010 A 
ATOM     91  C   UNL A   1      49.860  26.073  31.538  1.00  0.00     0.020 A 
ATOM     92  C   UNL A   1      48.783  25.181  33.525  1.00  0.00     0.020 A 
ATOM     93  C   UNL A   1      49.926  25.376  32.748  1.00  0.00     0.054 A 
BRANCH  93  94
ATOM     94  S   UNL A   1      51.535  24.751  33.305  1.00  0.00     0.124 S 
ATOM     95  O   UNL A   1      51.170  23.996  34.501  1.00  0.00    -0.237 OA
ATOM     96  O   UNL A   1      51.975  23.951  32.166  1.00  0.00    -0.237 OA
ATOM     97  O   UNL A   1      52.314  25.963  33.548  1.00  0.00    -0.744 OA
ENDBRANCH  93  94
ENDBRANCH  67  88
ENDBRANCH  41  42
ENDBRANCH  33  36
ENDBRANCH  31  32
ENDBRANCH  30  31
ENDBRANCH  29  30
ENDBRANCH  28  29
ENDBRANCH   1  28
TORSDOF 22
ENDMDL
MODEL 2
REMARK VINA RESULT:     -10.5      4.186      9.695
REMARK SMILES C[C@@](NC(=O)CCOC1CC[NH2+]CC1)(C(=O)NCCCCCCNC(=O)c1ccc(-c2c3nc(c(-c4ccc(S(=O)(=O)[O-])cc4)c4ccc([nH]4)c(-c4ccc(S(=O)(=O)[O-])cc4)c4nc(c(-c5ccc(S(=O)(=O)[O-])cc5)c5ccc2[nH]5)C=C4)C=C3)cc1)C(F)(F)F
REMARK SMILES IDX 19 1 18 2 17 3 15 4 16 5 2 7 1 8 3 9 4 10 5 12 6 13 7 14
REMARK SMILES IDX 8 15 9 16 10 17 14 18 11 19 13 20 12 21 87 24 88 25 89 26
REMARK SMILES IDX 90 27 20 28 21 29 22 30 23 31 24 32 25 33 26 35 27 36 28 37
REMARK SMILES IDX 86 38 29 39 85 40 30 41 31 42 32 43 79 44 33 45 84 46 78 47
REMARK SMILES IDX 80 48 34 49 83 50 77 51 76 52 35 54 65 55 46 56 64 57 47 58
REMARK SMILES IDX 50 59 63 60 81 61 48 62 49 63 62 65 82 66 51 67 36 68 37 69
REMARK SMILES IDX 45 70 38 71 44 72 39 73 40 74 41 75 42 76 43 77 66 78 67 79
REMARK SMILES IDX 75 80 68 81 74 82 69 83 70 84 71 85 72 86 73 87 52 88 53 89
REMARK SMILES IDX 61 90 54 91 60 92 55 93 56 94 57 95 58 96 59 97
REMARK H PARENT 17 6 3 11 12 22 12 23 24 34 80 53 50 64
REMARK Flexibility Score: inf
ROOT
ATOM      1  C   UNL A   1      33.109  31.015  26.992  1.00  0.00     0.021 C 
ENDROOT
BRANCH   1   2
ATOM      2  C   UNL A   1      32.671  29.870  26.086  1.00  0.00     0.116 C 
BRANCH   2   3
ATOM      3  N   UNL A   1      33.248  29.653  24.784  1.00  0.00    -0.354 N 
ATOM      4  C   UNL A   1      32.704  29.027  23.674  1.00  0.00     0.254 C 
ATOM      5  O   UNL A   1      33.361  29.210  22.639  1.00  0.00    -0.272 OA
ATOM      6  H   UNL A   1      34.162  29.999  24.665  1.00  0.00     0.163 HD
BRANCH   4   7
ATOM      7  C   UNL A   1      31.293  28.138  23.618  1.00  0.00     0.212 C 
ATOM      8  C   UNL A   1      31.529  27.211  22.378  1.00  0.00     0.056 C 
BRANCH   7   9
ATOM      9  N   UNL A   1      30.555  27.002  24.843  1.00  0.00    -0.334 N 
ATOM     10  C   UNL A   1      30.369  25.312  25.663  1.00  0.00     0.223 C 
ATOM     11  H   UNL A   1      29.920  27.570  25.334  1.00  0.00     0.164 HD
ATOM     12  O   UNL A   1      29.692  25.058  26.691  1.00  0.00    -0.275 OA
BRANCH  10  13
ATOM     13  C   UNL A   1      31.070  23.819  25.257  1.00  0.00     0.128 C 
BRANCH  13  14
ATOM     14  C   UNL A   1      31.008  23.365  23.839  1.00  0.00     0.170 C 
BRANCH  14  15
ATOM     15  O   UNL A   1      32.228  23.784  23.319  1.00  0.00    -0.377 OA
BRANCH  15  16
ATOM     16  C   UNL A   1      33.001  22.611  23.123  1.00  0.00     0.129 C 
ATOM     17  C   UNL A   1      32.020  20.954  22.628  1.00  0.00     0.093 C 
ATOM     18  C   UNL A   1      34.414  22.421  24.498  1.00  0.00     0.093 C 
ATOM     19  C   UNL A   1      32.566  19.292  23.489  1.00  0.00     0.263 C 
ATOM     20  C   UNL A   1      34.839  20.704  25.214  1.00  0.00     0.263 C 
ATOM     21  N   UNL A   1      34.080  19.165  24.552  1.00  0.00    -0.346 N 
ATOM     22  H   UNL A   1      34.795  18.694  23.997  1.00  0.00     0.346 HD
ATOM     23  H   UNL A   1      33.752  18.677  25.385  1.00  0.00     0.346 HD
ENDBRANCH  15  16
ENDBRANCH  14  15
ENDBRANCH  13  14
ENDBRANCH  10  13
ENDBRANCH   7   9
BRANCH   7  24
ATOM     24  C   UNL A   1      30.275  29.212  22.984  1.00  0.00     0.420 C 
ATOM     25  F   UNL A   1      29.110  28.626  22.592  1.00  0.00    -0.168 F 
ATOM     26  F   UNL A   1      29.919  30.141  23.906  1.00  0.00    -0.168 F 
ATOM     27  F   UNL A   1      30.719  29.889  21.903  1.00  0.00    -0.168 F 
ENDBRANCH   7  24
ENDBRANCH   4   7
ENDBRANCH   2   3
ENDBRANCH   1   2
BRANCH   1  28
ATOM     28  C   UNL A   1      34.388  30.753  27.820  1.00  0.00     0.002 C 
BRANCH  28  29
ATOM     29  C   UNL A   1      35.555  31.760  27.759  1.00  0.00     0.002 C 
BRANCH  29  30
ATOM     30  C   UNL A   1      35.620  32.893  28.787  1.00  0.00     0.021 C 
BRANCH  30  31
ATOM     31  C   UNL A   1      36.521  32.661  29.990  1.00  0.00     0.116 C 
BRANCH  31  32
ATOM     32  N   UNL A   1      36.134  31.507  30.782  1.00  0.00    -0.352 N 
ATOM     33  C   UNL A   1      36.794  30.318  30.975  1.00  0.00     0.251 C 
ATOM     34  H   UNL A   1      35.271  31.589  31.249  1.00  0.00     0.163 HD
ATOM     35  O   UNL A   1      36.239  29.408  31.585  1.00  0.00    -0.269 OA
BRANCH  33  36
ATOM     36  C   UNL A   1      38.154  30.122  30.425  1.00  0.00     0.039 A 
ATOM     37  C   UNL A   1      39.233  30.057  31.310  1.00  0.00     0.014 A 
ATOM     38  C   UNL A   1      38.371  29.999  29.050  1.00  0.00     0.014 A 
ATOM     39  C   UNL A   1      40.516  29.811  30.818  1.00  0.00     0.010 A 
ATOM     40  C   UNL A   1      39.632  29.658  28.571  1.00  0.00     0.010 A 
ATOM     41  C   UNL A   1      40.720  29.569  29.449  1.00  0.00    -0.014 A 
BRANCH  41  42
ATOM     42  C   UNL A   1      42.065  29.204  28.935  1.00  0.00     0.031 A 
ATOM     43  C   UNL A   1      42.346  27.810  28.445  1.00  0.00     0.074 A 
ATOM     44  C   UNL A   1      43.045  30.129  28.944  1.00  0.00     0.049 A 
ATOM     45  N   UNL A   1      43.450  27.322  27.941  1.00  0.00    -0.248 NA
ATOM     46  C   UNL A   1      41.254  26.828  28.557  1.00  0.00     0.031 C 
ATOM     47  C   UNL A   1      42.906  31.502  29.439  1.00  0.00     0.029 A 
ATOM     48  N   UNL A   1      44.347  30.062  28.519  1.00  0.00    -0.354 N 
ATOM     49  C   UNL A   1      43.190  25.980  27.685  1.00  0.00     0.074 A 
ATOM     50  C   UNL A   1      41.845  25.716  28.148  1.00  0.00     0.031 C 
ATOM     51  C   UNL A   1      44.055  32.161  29.235  1.00  0.00     0.029 A 
ATOM     52  C   UNL A   1      45.031  31.248  28.649  1.00  0.00     0.049 A 
ATOM     53  H   UNL A   1      44.754  29.243  28.155  1.00  0.00     0.167 HD
ATOM     54  C   UNL A   1      43.990  25.056  27.100  1.00  0.00     0.031 A 
ATOM     55  C   UNL A   1      46.300  31.568  28.334  1.00  0.00     0.031 A 
ATOM     56  C   UNL A   1      45.333  25.328  26.655  1.00  0.00     0.049 A 
ATOM     57  C   UNL A   1      47.180  30.518  27.716  1.00  0.00     0.074 A 
ATOM     58  C   UNL A   1      46.211  24.480  26.004  1.00  0.00     0.029 A 
ATOM     59  N   UNL A   1      45.999  26.533  26.831  1.00  0.00    -0.354 N 
ATOM     60  N   UNL A   1      46.889  29.278  27.404  1.00  0.00    -0.248 NA
ATOM     61  C   UNL A   1      48.557  30.916  27.398  1.00  0.00     0.031 C 
ATOM     62  C   UNL A   1      47.434  25.145  25.860  1.00  0.00     0.029 A 
ATOM     63  C   UNL A   1      47.291  26.437  26.342  1.00  0.00     0.049 A 
ATOM     64  H   UNL A   1      45.610  27.338  27.243  1.00  0.00     0.167 HD
ATOM     65  C   UNL A   1      48.041  28.753  26.828  1.00  0.00     0.074 A 
ATOM     66  C   UNL A   1      49.023  29.820  26.814  1.00  0.00     0.031 C 
ATOM     67  C   UNL A   1      48.266  27.502  26.353  1.00  0.00     0.031 A 
BRANCH  54  68
ATOM     68  C   UNL A   1      43.441  23.659  26.937  1.00  0.00    -0.014 A 
ATOM     69  C   UNL A   1      42.989  22.912  28.042  1.00  0.00     0.010 A 
ATOM     70  C   UNL A   1      43.357  23.091  25.653  1.00  0.00     0.010 A 
ATOM     71  C   UNL A   1      42.521  21.606  27.871  1.00  0.00     0.020 A 
ATOM     72  C   UNL A   1      42.852  21.799  25.474  1.00  0.00     0.020 A 
ATOM     73  C   UNL A   1      42.457  21.057  26.588  1.00  0.00     0.054 A 
BRANCH  73  74
ATOM     74  S   UNL A   1      41.842  19.362  26.398  1.00  0.00     0.124 S 
ATOM     75  O   UNL A   1      42.506  18.675  27.503  1.00  0.00    -0.237 OA
ATOM     76  O   UNL A   1      40.398  19.530  26.540  1.00  0.00    -0.237 OA
ATOM     77  O   UNL A   1      42.294  18.975  25.064  1.00  0.00    -0.744 OA
ENDBRANCH  73  74
ENDBRANCH  54  68
BRANCH  55  78
ATOM     78  C   UNL A   1      46.799  32.949  28.579  1.00  0.00    -0.014 A 
ATOM     79  C   UNL A   1      47.402  33.288  29.804  1.00  0.00     0.010 A 
ATOM     80  C   UNL A   1      46.703  33.929  27.574  1.00  0.00     0.010 A 
ATOM     81  C   UNL A   1      47.892  34.579  30.020  1.00  0.00     0.020 A 
ATOM     82  C   UNL A   1      47.222  35.211  27.773  1.00  0.00     0.020 A 
ATOM     83  C   UNL A   1      47.807  35.530  28.999  1.00  0.00     0.054 A 
BRANCH  83  84
ATOM     84  S   UNL A   1      48.515  37.176  29.280  1.00  0.00     0.124 S 
ATOM     85  O   UNL A   1      49.320  37.371  28.079  1.00  0.00    -0.237 OA
ATOM     86  O   UNL A   1      47.322  38.014  29.388  1.00  0.00    -0.237 OA
ATOM     87  O   UNL A   1      49.271  37.017  30.521  1.00  0.00    -0.744 OA
ENDBRANCH  83  84
ENDBRANCH  55  78
BRANCH  67  88
ATOM     88  C   UNL A   1      49.622  27.224  25.755  1.00  0.00    -0.014 A 
ATOM     89  C   UNL A   1      50.656  26.649  26.517  1.00  0.00     0.010 A 
ATOM     90  C   UNL A   1      49.854  27.512  24.398  1.00  0.00     0.010 A 
ATOM     91  C   UNL A   1      51.908  26.410  25.945  1.00  0.00     0.020 A 
ATOM     92  C   UNL A   1      51.092  27.238  23.812  1.00  0.00     0.020 A 
ATOM     93  C   UNL A   1      52.117  26.705  24.594  1.00  0.00     0.054 A 
BRANCH  93  94
ATOM     94  S   UNL A   1      53.742  26.356  23.869  1.00  0.00     0.124 S 
ATOM     95  O   UNL A   1      54.154  25.164  24.605  1.00  0.00    -0.237 OA
ATOM     96  O   UNL A   1      53.422  26.147  22.459  1.00  0.00    -0.237 OA
ATOM     97  O   UNL A   1      54.516  27.562  24.155  1.00  0.00    -0.744 OA
ENDBRANCH  93  94
ENDBRANCH  67  88
ENDBRANCH  41  42
ENDBRANCH  33  36
ENDBRANCH  31  32
ENDBRANCH  30  31
ENDBRANCH  29  30
ENDBRANCH  28  29
ENDBRANCH   1  28
TORSDOF 22
ENDMDL
MODEL 3
REMARK VINA RESULT:     -10.4      3.907      9.352
REMARK SMILES C[C@@](NC(=O)CCOC1CC[NH2+]CC1)(C(=O)NCCCCCCNC(=O)c1ccc(-c2c3nc(c(-c4ccc(S(=O)(=O)[O-])cc4)c4ccc([nH]4)c(-c4ccc(S(=O)(=O)[O-])cc4)c4nc(c(-c5ccc(S(=O)(=O)[O-])cc5)c5ccc2[nH]5)C=C4)C=C3)cc1)C(F)(F)F
REMARK SMILES IDX 19 1 18 2 17 3 15 4 16 5 2 7 1 8 3 9 4 10 5 12 6 13 7 14
REMARK SMILES IDX 8 15 9 16 10 17 14 18 11 19 13 20 12 21 87 24 88 25 89 26
REMARK SMILES IDX 90 27 20 28 21 29 22 30 23 31 24 32 25 33 26 35 27 36 28 37
REMARK SMILES IDX 86 38 29 39 85 40 30 41 31 42 32 43 79 44 33 45 84 46 78 47
REMARK SMILES IDX 80 48 34 49 83 50 77 51 76 52 35 54 65 55 46 56 64 57 47 58
REMARK SMILES IDX 50 59 63 60 81 61 48 62 49 63 62 65 82 66 51 67 36 68 37 69
REMARK SMILES IDX 45 70 38 71 44 72 39 73 40 74 41 75 42 76 43 77 66 78 67 79
REMARK SMILES IDX 75 80 68 81 74 82 69 83 70 84 71 85 72 86 73 87 52 88 53 89
REMARK SMILES IDX 61 90 54 91 60 92 55 93 56 94 57 95 58 96 59 97
REMARK H PARENT 17 6 3 11 12 22 12 23 24 34 80 53 50 64
REMARK Flexibility Score: inf
ROOT
ATOM      1  C   UNL A   1      37.340  22.781  25.475  1.00  0.00     0.021 C 
ENDROOT
BRANCH   1   2
ATOM      2  C   UNL A   1      36.031  22.169  25.963  1.00  0.00     0.116 C 
BRANCH   2   3
ATOM      3  N   UNL A   1      35.614  20.841  25.589  1.00  0.00    -0.354 N 
ATOM      4  C   UNL A   1      34.437  20.426  24.988  1.00  0.00     0.254 C 
ATOM      5  O   UNL A   1      34.481  19.254  24.586  1.00  0.00    -0.272 OA
ATOM      6  H   UNL A   1      36.259  20.125  25.789  1.00  0.00     0.163 HD
BRANCH   4   7
ATOM      7  C   UNL A   1      33.063  21.340  24.740  1.00  0.00     0.212 C 
ATOM      8  C   UNL A   1      32.225  20.434  23.777  1.00  0.00     0.056 C 
BRANCH   7   9
ATOM      9  N   UNL A   1      31.811  21.947  25.922  1.00  0.00    -0.334 N 
ATOM     10  C   UNL A   1      30.624  23.260  26.580  1.00  0.00     0.223 C 
ATOM     11  H   UNL A   1      31.693  21.194  26.544  1.00  0.00     0.164 HD
ATOM     12  O   UNL A   1      29.788  23.105  27.506  1.00  0.00    -0.275 OA
BRANCH  10  13
ATOM     13  C   UNL A   1      30.382  24.863  26.076  1.00  0.00     0.128 C 
BRANCH  13  14
ATOM     14  C   UNL A   1      30.632  25.206  24.648  1.00  0.00     0.170 C 
BRANCH  14  15
ATOM     15  O   UNL A   1      30.739  26.593  24.670  1.00  0.00    -0.377 OA
BRANCH  15  16
ATOM     16  C   UNL A   1      30.047  27.064  23.526  1.00  0.00     0.129 C 
ATOM     17  C   UNL A   1      30.835  28.619  22.570  1.00  0.00     0.093 C 
ATOM     18  C   UNL A   1      28.088  27.107  23.814  1.00  0.00     0.093 C 
ATOM     19  C   UNL A   1      29.617  30.013  21.956  1.00  0.00     0.263 C 
ATOM     20  C   UNL A   1      27.042  28.542  23.113  1.00  0.00     0.263 C 
ATOM     21  N   UNL A   1      27.773  29.832  22.026  1.00  0.00    -0.346 N 
ATOM     22  H   UNL A   1      27.457  29.636  21.075  1.00  0.00     0.346 HD
ATOM     23  H   UNL A   1      27.458  30.708  22.441  1.00  0.00     0.346 HD
ENDBRANCH  15  16
ENDBRANCH  14  15
ENDBRANCH  13  14
ENDBRANCH  10  13
ENDBRANCH   7   9
BRANCH   7  24
ATOM     24  C   UNL A   1      33.607  22.440  23.698  1.00  0.00     0.420 C 
ATOM     25  F   UNL A   1      32.727  22.643  22.679  1.00  0.00    -0.168 F 
ATOM     26  F   UNL A   1      33.745  23.648  24.301  1.00  0.00    -0.168 F 
ATOM     27  F   UNL A   1      34.789  22.166  23.104  1.00  0.00    -0.168 F 
ENDBRANCH   7  24
ENDBRANCH   4   7
ENDBRANCH   2   3
ENDBRANCH   1   2
BRANCH   1  28
ATOM     28  C   UNL A   1      37.756  24.097  26.171  1.00  0.00     0.002 C 
BRANCH  28  29
ATOM     29  C   UNL A   1      38.924  24.091  27.178  1.00  0.00     0.002 C 
BRANCH  29  30
ATOM     30  C   UNL A   1      40.324  23.702  26.695  1.00  0.00     0.021 C 
BRANCH  30  31
ATOM     31  C   UNL A   1      41.083  24.758  25.906  1.00  0.00     0.116 C 
BRANCH  31  32
ATOM     32  N   UNL A   1      42.525  24.600  25.978  1.00  0.00    -0.352 N 
ATOM     33  C   UNL A   1      43.441  25.284  26.740  1.00  0.00     0.251 C 
ATOM     34  H   UNL A   1      42.900  23.901  25.396  1.00  0.00     0.163 HD
ATOM     35  O   UNL A   1      44.641  25.089  26.566  1.00  0.00    -0.269 OA
BRANCH  33  36
ATOM     36  C   UNL A   1      42.988  26.275  27.742  1.00  0.00     0.039 A 
ATOM     37  C   UNL A   1      42.212  25.835  28.817  1.00  0.00     0.014 A 
ATOM     38  C   UNL A   1      43.324  27.627  27.631  1.00  0.00     0.014 A 
ATOM     39  C   UNL A   1      41.825  26.740  29.806  1.00  0.00     0.010 A 
ATOM     40  C   UNL A   1      43.021  28.506  28.666  1.00  0.00     0.010 A 
ATOM     41  C   UNL A   1      42.261  28.075  29.760  1.00  0.00    -0.014 A 
BRANCH  41  42
ATOM     42  C   UNL A   1      41.940  29.016  30.863  1.00  0.00     0.031 A 
ATOM     43  C   UNL A   1      42.807  29.083  32.090  1.00  0.00     0.074 A 
ATOM     44  C   UNL A   1      40.839  29.789  30.768  1.00  0.00     0.049 A 
ATOM     45  N   UNL A   1      42.693  29.860  33.137  1.00  0.00    -0.248 NA
ATOM     46  C   UNL A   1      43.935  28.140  32.166  1.00  0.00     0.031 C 
ATOM     47  C   UNL A   1      39.896  29.779  29.647  1.00  0.00     0.029 A 
ATOM     48  N   UNL A   1      40.332  30.738  31.618  1.00  0.00    -0.354 N 
ATOM     49  C   UNL A   1      43.724  29.495  33.995  1.00  0.00     0.074 A 
ATOM     50  C   UNL A   1      44.414  28.385  33.375  1.00  0.00     0.031 C 
ATOM     51  C   UNL A   1      38.960  30.718  29.852  1.00  0.00     0.029 A 
ATOM     52  C   UNL A   1      39.201  31.356  31.141  1.00  0.00     0.049 A 
ATOM     53  H   UNL A   1      40.739  30.955  32.488  1.00  0.00     0.167 HD
ATOM     54  C   UNL A   1      44.077  30.046  35.182  1.00  0.00     0.031 A 
ATOM     55  C   UNL A   1      38.440  32.329  31.678  1.00  0.00     0.031 A 
ATOM     56  C   UNL A   1      43.374  31.143  35.795  1.00  0.00     0.049 A 
ATOM     57  C   UNL A   1      38.832  32.903  33.011  1.00  0.00     0.074 A 
ATOM     58  C   UNL A   1      43.677  31.811  36.968  1.00  0.00     0.029 A 
ATOM     59  N   UNL A   1      42.216  31.723  35.294  1.00  0.00    -0.354 N 
ATOM     60  N   UNL A   1      39.860  32.602  33.768  1.00  0.00    -0.248 NA
ATOM     61  C   UNL A   1      37.966  33.956  33.555  1.00  0.00     0.031 C 
ATOM     62  C   UNL A   1      42.658  32.736  37.219  1.00  0.00     0.029 A 
ATOM     63  C   UNL A   1      41.767  32.709  36.158  1.00  0.00     0.049 A 
ATOM     64  H   UNL A   1      41.777  31.470  34.450  1.00  0.00     0.167 HD
ATOM     65  C   UNL A   1      39.778  33.448  34.868  1.00  0.00     0.074 A 
ATOM     66  C   UNL A   1      38.614  34.287  34.664  1.00  0.00     0.031 C 
ATOM     67  C   UNL A   1      40.594  33.523  35.951  1.00  0.00     0.031 A 
BRANCH  54  68
ATOM     68  C   UNL A   1      45.259  29.448  35.905  1.00  0.00    -0.014 A 
ATOM     69  C   UNL A   1      45.109  28.367  36.796  1.00  0.00     0.010 A 
ATOM     70  C   UNL A   1      46.548  29.962  35.675  1.00  0.00     0.010 A 
ATOM     71  C   UNL A   1      46.212  27.855  37.484  1.00  0.00     0.020 A 
ATOM     72  C   UNL A   1      47.661  29.426  36.331  1.00  0.00     0.020 A 
ATOM     73  C   UNL A   1      47.482  28.390  37.248  1.00  0.00     0.054 A 
BRANCH  73  74
ATOM     74  S   UNL A   1      48.895  27.702  38.153  1.00  0.00     0.124 S 
ATOM     75  O   UNL A   1      49.796  27.327  37.066  1.00  0.00    -0.237 OA
ATOM     76  O   UNL A   1      49.331  28.833  38.967  1.00  0.00    -0.237 OA
ATOM     77  O   UNL A   1      48.320  26.585  38.898  1.00  0.00    -0.744 OA
ENDBRANCH  73  74
ENDBRANCH  54  68
BRANCH  55  78
ATOM     78  C   UNL A   1      37.249  32.831  30.939  1.00  0.00    -0.014 A 
ATOM     79  C   UNL A   1      37.384  33.823  29.951  1.00  0.00     0.010 A 
ATOM     80  C   UNL A   1      35.973  32.296  31.199  1.00  0.00     0.010 A 
ATOM     81  C   UNL A   1      36.266  34.273  29.242  1.00  0.00     0.020 A 
ATOM     82  C   UNL A   1      34.859  32.719  30.467  1.00  0.00     0.020 A 
ATOM     83  C   UNL A   1      35.013  33.711  29.498  1.00  0.00     0.054 A 
BRANCH  83  84
ATOM     84  S   UNL A   1      33.592  34.262  28.514  1.00  0.00     0.124 S 
ATOM     85  O   UNL A   1      33.204  33.035  27.826  1.00  0.00    -0.237 OA
ATOM     86  O   UNL A   1      32.666  34.734  29.541  1.00  0.00    -0.237 OA
ATOM     87  O   UNL A   1      34.151  35.309  27.661  1.00  0.00    -0.744 OA
ENDBRANCH  83  84
ENDBRANCH  55  78
BRANCH  67  88
ATOM     88  C   UNL A   1      40.267  34.568  36.989  1.00  0.00    -0.014 A 
ATOM     89  C   UNL A   1      39.321  34.326  38.001  1.00  0.00     0.010 A 
ATOM     90  C   UNL A   1      40.947  35.800  36.971  1.00  0.00     0.010 A 
ATOM     91  C   UNL A   1      39.027  35.312  38.946  1.00  0.00     0.020 A 
ATOM     92  C   UNL A   1      40.685  36.773  37.937  1.00  0.00     0.020 A 
ATOM     93  C   UNL A   1      39.713  36.529  38.909  1.00  0.00     0.054 A 
BRANCH  93  94
ATOM     94  S   UNL A   1      39.334  37.780  40.166  1.00  0.00     0.124 S 
ATOM     95  O   UNL A   1      38.141  38.416  39.612  1.00  0.00    -0.237 OA
ATOM     96  O   UNL A   1      39.118  36.972  41.363  1.00  0.00    -0.237 OA
ATOM     97  O   UNL A   1      40.530  38.619  40.194  1.00  0.00    -0.744 OA
ENDBRANCH  93  94
ENDBRANCH  67  88
ENDBRANCH  41  42
ENDBRANCH  33  36
ENDBRANCH  31  32
ENDBRANCH  30  31
ENDBRANCH  29  30
ENDBRANCH  28  29
ENDBRANCH   1  28
TORSDOF 22
ENDMDL
