MODEL 1
REMARK VINA RESULT:     -10.9      0.000      0.000
REMARK SMILES O=C(NCCCCCCNC(=O)[C@H]1CC=CC[C@@H]1C(=O)NC1CCCCC1)c1ccc(-c2c3nc(c(-c4ccc(S(=O)(=O)[O-])cc4)c4ccc([nH]4)c(-c4ccc(S(=O)(=O)[O-])cc4)c4nc(c(-c5ccc(S(=O)(=O)[O-])cc5)c5ccc2[nH]5)C=C4)C=C3)cc1
REMARK SMILES IDX 6 1 5 2 4 3 3 4 1 5 2 6 28 8 29 9 87 10 30 11 86 12 31 13
REMARK SMILES IDX 32 14 33 15 80 16 34 17 85 18 79 19 81 20 35 21 84 22 78 23
REMARK SMILES IDX 77 24 36 26 66 27 47 28 65 29 48 30 51 31 64 32 82 33 49 34
REMARK SMILES IDX 50 35 63 37 83 38 52 39 37 40 38 41 46 42 39 43 45 44 40 45
REMARK SMILES IDX 41 46 42 47 43 48 44 49 67 50 68 51 76 52 69 53 75 54 70 55
REMARK SMILES IDX 71 56 72 57 73 58 74 59 53 60 54 61 62 62 55 63 61 64 56 65
REMARK SMILES IDX 57 66 58 67 59 68 60 69 7 70 8 71 9 72 10 73 11 74 12 76
REMARK SMILES IDX 13 77 14 78 18 79 15 80 17 81 16 82 19 83 20 84 21 85 22 87
REMARK SMILES IDX 23 88 27 89 24 90 26 91 25 92
REMARK H PARENT 3 7 81 25 51 36 10 75 21 86
REMARK Flexibility Score: inf
ROOT
ATOM      1  C   UNL A   1      35.374  22.955  23.742  1.00  0.00     0.002 C 
ENDROOT
BRANCH   1   2
ATOM      2  C   UNL A   1      35.144  23.218  25.233  1.00  0.00     0.021 C 
BRANCH   2   3
ATOM      3  C   UNL A   1      36.376  23.705  25.988  1.00  0.00     0.116 C 
BRANCH   3   4
ATOM      4  N   UNL A   1      37.458  22.735  25.965  1.00  0.00    -0.352 N 
ATOM      5  O   UNL A   1      39.602  22.041  26.062  1.00  0.00    -0.269 OA
ATOM      6  C   UNL A   1      38.782  22.915  26.292  1.00  0.00     0.251 C 
ATOM      7  H   UNL A   1      37.210  21.827  25.677  1.00  0.00     0.163 HD
BRANCH   6   8
ATOM      8  C   UNL A   1      39.192  24.194  26.905  1.00  0.00     0.039 A 
ATOM      9  C   UNL A   1      39.907  25.135  26.159  1.00  0.00     0.014 A 
ATOM     10  C   UNL A   1      38.874  24.440  28.242  1.00  0.00     0.014 A 
ATOM     11  C   UNL A   1      40.416  26.264  26.786  1.00  0.00     0.010 A 
ATOM     12  C   UNL A   1      39.317  25.618  28.849  1.00  0.00     0.010 A 
ATOM     13  C   UNL A   1      40.112  26.526  28.132  1.00  0.00    -0.014 A 
BRANCH  13  14
ATOM     14  C   UNL A   1      40.576  27.793  28.746  1.00  0.00     0.031 A 
ATOM     15  C   UNL A   1      41.996  27.962  29.210  1.00  0.00     0.074 A 
ATOM     16  C   UNL A   1      39.697  28.807  28.864  1.00  0.00     0.049 A 
ATOM     17  N   UNL A   1      42.564  29.012  29.746  1.00  0.00    -0.248 NA
ATOM     18  C   UNL A   1      42.892  26.805  29.059  1.00  0.00     0.031 C 
ATOM     19  C   UNL A   1      38.292  28.754  28.447  1.00  0.00     0.029 A 
ATOM     20  N   UNL A   1      39.853  30.080  29.344  1.00  0.00    -0.354 N 
ATOM     21  C   UNL A   1      43.874  28.639  30.018  1.00  0.00     0.074 A 
ATOM     22  C   UNL A   1      44.010  27.257  29.609  1.00  0.00     0.031 C 
ATOM     23  C   UNL A   1      37.731  29.955  28.640  1.00  0.00     0.029 A 
ATOM     24  C   UNL A   1      38.711  30.840  29.257  1.00  0.00     0.049 A 
ATOM     25  H   UNL A   1      40.699  30.418  29.716  1.00  0.00     0.167 HD
ATOM     26  C   UNL A   1      44.871  29.382  30.560  1.00  0.00     0.031 A 
ATOM     27  C   UNL A   1      38.470  32.106  29.645  1.00  0.00     0.031 A 
ATOM     28  C   UNL A   1      44.719  30.754  30.974  1.00  0.00     0.049 A 
ATOM     29  C   UNL A   1      39.578  32.894  30.276  1.00  0.00     0.074 A 
ATOM     30  C   UNL A   1      45.674  31.603  31.507  1.00  0.00     0.029 A 
ATOM     31  N   UNL A   1      43.536  31.475  30.913  1.00  0.00    -0.354 N 
ATOM     32  N   UNL A   1      40.820  32.535  30.497  1.00  0.00    -0.248 NA
ATOM     33  C   UNL A   1      39.254  34.258  30.710  1.00  0.00     0.031 C 
ATOM     34  C   UNL A   1      45.053  32.818  31.819  1.00  0.00     0.029 A 
ATOM     35  C   UNL A   1      43.727  32.749  31.423  1.00  0.00     0.049 A 
ATOM     36  H   UNL A   1      42.684  31.132  30.559  1.00  0.00     0.167 HD
ATOM     37  C   UNL A   1      41.433  33.635  31.082  1.00  0.00     0.074 A 
ATOM     38  C   UNL A   1      40.428  34.678  31.163  1.00  0.00     0.031 C 
ATOM     39  C   UNL A   1      42.712  33.770  31.510  1.00  0.00     0.031 A 
BRANCH  26  40
ATOM     40  C   UNL A   1      46.203  28.709  30.771  1.00  0.00    -0.014 A 
ATOM     41  C   UNL A   1      46.458  27.931  31.915  1.00  0.00     0.010 A 
ATOM     42  C   UNL A   1      47.212  28.840  29.799  1.00  0.00     0.010 A 
ATOM     43  C   UNL A   1      47.713  27.346  32.110  1.00  0.00     0.020 A 
ATOM     44  C   UNL A   1      48.458  28.233  29.975  1.00  0.00     0.020 A 
ATOM     45  C   UNL A   1      48.709  27.509  31.142  1.00  0.00     0.054 A 
BRANCH  45  46
ATOM     46  S   UNL A   1      50.332  26.750  31.426  1.00  0.00     0.124 S 
ATOM     47  O   UNL A   1      49.963  25.449  31.977  1.00  0.00    -0.237 OA
ATOM     48  O   UNL A   1      50.913  26.722  30.087  1.00  0.00    -0.237 OA
ATOM     49  O   UNL A   1      50.981  27.662  32.366  1.00  0.00    -0.744 OA
ENDBRANCH  45  46
ENDBRANCH  26  40
BRANCH  27  50
ATOM     50  C   UNL A   1      37.118  32.688  29.438  1.00  0.00    -0.014 A 
ATOM     51  C   UNL A   1      36.219  32.801  30.511  1.00  0.00     0.010 A 
ATOM     52  C   UNL A   1      36.748  33.192  28.177  1.00  0.00     0.010 A 
ATOM     53  C   UNL A   1      34.974  33.409  30.328  1.00  0.00     0.020 A 
ATOM     54  C   UNL A   1      35.517  33.826  27.996  1.00  0.00     0.020 A 
ATOM     55  C   UNL A   1      34.634  33.923  29.073  1.00  0.00     0.054 A 
BRANCH  55  56
ATOM     56  S   UNL A   1      33.046  34.779  28.880  1.00  0.00     0.124 S 
ATOM     57  O   UNL A   1      33.463  36.078  28.362  1.00  0.00    -0.237 OA
ATOM     58  O   UNL A   1      32.337  33.918  27.937  1.00  0.00    -0.237 OA
ATOM     59  O   UNL A   1      32.497  34.790  30.235  1.00  0.00    -0.744 OA
ENDBRANCH  55  56
ENDBRANCH  27  50
BRANCH  39  60
ATOM     60  C   UNL A   1      43.104  35.105  32.084  1.00  0.00    -0.014 A 
ATOM     61  C   UNL A   1      43.807  36.050  31.316  1.00  0.00     0.010 A 
ATOM     62  C   UNL A   1      42.728  35.431  33.399  1.00  0.00     0.010 A 
ATOM     63  C   UNL A   1      44.156  37.287  31.866  1.00  0.00     0.020 A 
ATOM     64  C   UNL A   1      43.049  36.677  33.943  1.00  0.00     0.020 A 
ATOM     65  C   UNL A   1      43.775  37.591  33.177  1.00  0.00     0.054 A 
BRANCH  65  66
ATOM     66  S   UNL A   1      44.204  39.218  33.856  1.00  0.00     0.124 S 
ATOM     67  O   UNL A   1      45.250  39.663  32.940  1.00  0.00    -0.237 OA
ATOM     68  O   UNL A   1      42.940  39.945  33.769  1.00  0.00    -0.237 OA
ATOM     69  O   UNL A   1      44.650  38.919  35.215  1.00  0.00    -0.744 OA
ENDBRANCH  65  66
ENDBRANCH  39  60
ENDBRANCH  13  14
ENDBRANCH   6   8
ENDBRANCH   3   4
ENDBRANCH   2   3
ENDBRANCH   1   2
BRANCH   1  70
ATOM     70  C   UNL A   1      34.123  23.067  22.866  1.00  0.00     0.002 C 
BRANCH  70  71
ATOM     71  C   UNL A   1      32.895  22.346  23.422  1.00  0.00     0.021 C 
BRANCH  71  72
ATOM     72  C   UNL A   1      31.607  23.151  23.291  1.00  0.00     0.116 C 
BRANCH  72  73
ATOM     73  N   UNL A   1      31.740  24.179  22.270  1.00  0.00    -0.356 N 
ATOM     74  C   UNL A   1      31.822  25.538  22.415  1.00  0.00     0.224 C 
ATOM     75  H   UNL A   1      31.778  23.851  21.344  1.00  0.00     0.163 HD
ATOM     76  O   UNL A   1      31.787  26.243  21.409  1.00  0.00    -0.275 OA
BRANCH  74  77
ATOM     77  C   UNL A   1      32.057  26.091  23.813  1.00  0.00     0.095 C 
ATOM     78  C   UNL A   1      33.177  27.123  23.688  1.00  0.00     0.041 C 
ATOM     79  C   UNL A   1      30.796  26.594  24.497  1.00  0.00     0.095 C 
ATOM     80  C   UNL A   1      32.739  28.549  23.592  1.00  0.00    -0.030 C 
ATOM     81  C   UNL A   1      30.351  27.993  24.042  1.00  0.00     0.041 C 
ATOM     82  C   UNL A   1      31.470  28.940  23.747  1.00  0.00    -0.030 C 
BRANCH  79  83
ATOM     83  C   UNL A   1      30.633  26.424  26.019  1.00  0.00     0.224 C 
ATOM     84  O   UNL A   1      29.790  25.588  26.396  1.00  0.00    -0.275 OA
ATOM     85  N   UNL A   1      31.235  27.051  27.052  1.00  0.00    -0.353 N 
ATOM     86  H   UNL A   1      30.894  26.666  27.891  1.00  0.00     0.163 HD
BRANCH  85  87
ATOM     87  C   UNL A   1      32.218  28.105  27.386  1.00  0.00     0.082 C 
ATOM     88  C   UNL A   1      33.645  27.816  26.908  1.00  0.00     0.025 C 
ATOM     89  C   UNL A   1      31.671  29.525  27.226  1.00  0.00     0.025 C 
ATOM     90  C   UNL A   1      34.609  28.988  27.024  1.00  0.00     0.002 C 
ATOM     91  C   UNL A   1      32.716  30.642  27.161  1.00  0.00     0.002 C 
ATOM     92  C   UNL A   1      34.030  30.281  26.477  1.00  0.00     0.000 C 
ENDBRANCH  85  87
ENDBRANCH  79  83
ENDBRANCH  74  77
ENDBRANCH  72  73
ENDBRANCH  71  72
ENDBRANCH  70  71
ENDBRANCH   1  70
TORSDOF 18
ENDMDL
MODEL 2
REMARK VINA RESULT:     -10.7      2.604      9.329
REMARK SMILES O=C(NCCCCCCNC(=O)[C@H]1CC=CC[C@@H]1C(=O)NC1CCCCC1)c1ccc(-c2c3nc(c(-c4ccc(S(=O)(=O)[O-])cc4)c4ccc([nH]4)c(-c4ccc(S(=O)(=O)[O-])cc4)c4nc(c(-c5ccc(S(=O)(=O)[O-])cc5)c5ccc2[nH]5)C=C4)C=C3)cc1
REMARK SMILES IDX 6 1 5 2 4 3 3 4 1 5 2 6 28 8 29 9 87 10 30 11 86 12 31 13
REMARK SMILES IDX 32 14 33 15 80 16 34 17 85 18 79 19 81 20 35 21 84 22 78 23
REMARK SMILES IDX 77 24 36 26 66 27 47 28 65 29 48 30 51 31 64 32 82 33 49 34
REMARK SMILES IDX 50 35 63 37 83 38 52 39 37 40 38 41 46 42 39 43 45 44 40 45
REMARK SMILES IDX 41 46 42 47 43 48 44 49 67 50 68 51 76 52 69 53 75 54 70 55
REMARK SMILES IDX 71 56 72 57 73 58 74 59 53 60 54 61 62 62 55 63 61 64 56 65
REMARK SMILES IDX 57 66 58 67 59 68 60 69 7 70 8 71 9 72 10 73 11 74 12 76
REMARK SMILES IDX 13 77 14 78 18 79 15 80 17 81 16 82 19 83 20 84 21 85 22 87
REMARK SMILES IDX 23 88 27 89 24 90 26 91 25 92
REMARK H PARENT 3 7 81 25 51 36 10 75 21 86
REMARK Flexibility Score: inf
ROOT
ATOM      1  C   UNL A   1      31.607  27.402  26.693  1.00  0.00     0.002 C 
ENDROOT
BRANCH   1   2
ATOM      2  C   UNL A   1      32.857  27.649  25.844  1.00  0.00     0.021 C 
BRANCH   2   3
ATOM      3  C   UNL A   1      34.031  28.252  26.606  1.00  0.00     0.116 C 
BRANCH   3   4
ATOM      4  N   UNL A   1      33.769  29.615  27.037  1.00  0.00    -0.352 N 
ATOM      5  O   UNL A   1      34.117  31.501  28.225  1.00  0.00    -0.269 OA
ATOM      6  C   UNL A   1      34.553  30.438  27.813  1.00  0.00     0.251 C 
ATOM      7  H   UNL A   1      32.917  30.002  26.732  1.00  0.00     0.163 HD
BRANCH   6   8
ATOM      8  C   UNL A   1      35.921  29.998  28.153  1.00  0.00     0.039 A 
ATOM      9  C   UNL A   1      36.192  29.455  29.412  1.00  0.00     0.014 A 
ATOM     10  C   UNL A   1      36.939  30.152  27.211  1.00  0.00     0.014 A 
ATOM     11  C   UNL A   1      37.505  29.185  29.774  1.00  0.00     0.010 A 
ATOM     12  C   UNL A   1      38.248  29.801  27.549  1.00  0.00     0.010 A 
ATOM     13  C   UNL A   1      38.543  29.339  28.842  1.00  0.00    -0.014 A 
BRANCH  13  14
ATOM     14  C   UNL A   1      39.921  28.939  29.219  1.00  0.00     0.031 A 
ATOM     15  C   UNL A   1      40.809  29.855  30.014  1.00  0.00     0.074 A 
ATOM     16  C   UNL A   1      40.358  27.720  28.848  1.00  0.00     0.049 A 
ATOM     17  N   UNL A   1      42.028  29.647  30.443  1.00  0.00    -0.248 NA
ATOM     18  C   UNL A   1      40.264  31.175  30.370  1.00  0.00     0.031 C 
ATOM     19  C   UNL A   1      39.580  26.749  28.073  1.00  0.00     0.029 A 
ATOM     20  N   UNL A   1      41.545  27.081  29.087  1.00  0.00    -0.354 N 
ATOM     21  C   UNL A   1      42.406  30.812  31.097  1.00  0.00     0.074 A 
ATOM     22  C   UNL A   1      41.295  31.733  30.989  1.00  0.00     0.031 C 
ATOM     23  C   UNL A   1      40.289  25.618  27.948  1.00  0.00     0.029 A 
ATOM     24  C   UNL A   1      41.594  25.809  28.569  1.00  0.00     0.049 A 
ATOM     25  H   UNL A   1      42.291  27.491  29.582  1.00  0.00     0.167 HD
ATOM     26  C   UNL A   1      43.574  31.087  31.729  1.00  0.00     0.031 A 
ATOM     27  C   UNL A   1      42.584  24.897  28.576  1.00  0.00     0.031 A 
ATOM     28  C   UNL A   1      44.677  30.165  31.820  1.00  0.00     0.049 A 
ATOM     29  C   UNL A   1      43.879  25.240  29.250  1.00  0.00     0.074 A 
ATOM     30  C   UNL A   1      45.892  30.336  32.462  1.00  0.00     0.029 A 
ATOM     31  N   UNL A   1      44.707  28.904  31.243  1.00  0.00    -0.354 N 
ATOM     32  N   UNL A   1      44.208  26.336  29.890  1.00  0.00    -0.248 NA
ATOM     33  C   UNL A   1      44.937  24.224  29.201  1.00  0.00     0.031 C 
ATOM     34  C   UNL A   1      46.676  29.201  32.226  1.00  0.00     0.029 A 
ATOM     35  C   UNL A   1      45.928  28.296  31.489  1.00  0.00     0.049 A 
ATOM     36  H   UNL A   1      43.969  28.499  30.732  1.00  0.00     0.167 HD
ATOM     37  C   UNL A   1      45.507  26.136  30.338  1.00  0.00     0.074 A 
ATOM     38  C   UNL A   1      45.896  24.807  29.909  1.00  0.00     0.031 C 
ATOM     39  C   UNL A   1      46.304  26.977  31.042  1.00  0.00     0.031 A 
BRANCH  26  40
ATOM     40  C   UNL A   1      43.728  32.458  32.337  1.00  0.00    -0.014 A 
ATOM     41  C   UNL A   1      43.380  32.709  33.677  1.00  0.00     0.010 A 
ATOM     42  C   UNL A   1      44.249  33.510  31.560  1.00  0.00     0.010 A 
ATOM     43  C   UNL A   1      43.497  33.997  34.211  1.00  0.00     0.020 A 
ATOM     44  C   UNL A   1      44.394  34.792  32.098  1.00  0.00     0.020 A 
ATOM     45  C   UNL A   1      43.994  35.032  33.413  1.00  0.00     0.054 A 
BRANCH  45  46
ATOM     46  S   UNL A   1      44.121  36.695  34.127  1.00  0.00     0.124 S 
ATOM     47  O   UNL A   1      44.139  36.407  35.558  1.00  0.00    -0.237 OA
ATOM     48  O   UNL A   1      45.377  37.189  33.570  1.00  0.00    -0.237 OA
ATOM     49  O   UNL A   1      42.919  37.372  33.644  1.00  0.00    -0.744 OA
ENDBRANCH  45  46
ENDBRANCH  26  40
BRANCH  27  50
ATOM     50  C   UNL A   1      42.369  23.581  27.921  1.00  0.00    -0.014 A 
ATOM     51  C   UNL A   1      42.745  23.381  26.582  1.00  0.00     0.010 A 
ATOM     52  C   UNL A   1      41.847  22.500  28.656  1.00  0.00     0.010 A 
ATOM     53  C   UNL A   1      42.603  22.124  25.989  1.00  0.00     0.020 A 
ATOM     54  C   UNL A   1      41.731  21.235  28.076  1.00  0.00     0.020 A 
ATOM     55  C   UNL A   1      42.103  21.058  26.742  1.00  0.00     0.054 A 
BRANCH  55  56
ATOM     56  S   UNL A   1      42.004  19.416  25.974  1.00  0.00     0.124 S 
ATOM     57  O   UNL A   1      42.513  18.554  27.035  1.00  0.00    -0.237 OA
ATOM     58  O   UNL A   1      40.577  19.291  25.684  1.00  0.00    -0.237 OA
ATOM     59  O   UNL A   1      42.861  19.537  24.797  1.00  0.00    -0.744 OA
ENDBRANCH  55  56
ENDBRANCH  27  50
BRANCH  39  60
ATOM     60  C   UNL A   1      47.672  26.471  31.415  1.00  0.00    -0.014 A 
ATOM     61  C   UNL A   1      47.920  25.902  32.677  1.00  0.00     0.010 A 
ATOM     62  C   UNL A   1      48.714  26.531  30.472  1.00  0.00     0.010 A 
ATOM     63  C   UNL A   1      49.196  25.433  33.001  1.00  0.00     0.020 A 
ATOM     64  C   UNL A   1      49.983  26.037  30.781  1.00  0.00     0.020 A 
ATOM     65  C   UNL A   1      50.219  25.504  32.050  1.00  0.00     0.054 A 
BRANCH  65  66
ATOM     66  S   UNL A   1      51.856  24.852  32.478  1.00  0.00     0.124 S 
ATOM     67  O   UNL A   1      52.706  25.479  31.469  1.00  0.00    -0.237 OA
ATOM     68  O   UNL A   1      52.045  25.331  33.845  1.00  0.00    -0.237 OA
ATOM     69  O   UNL A   1      51.698  23.405  32.348  1.00  0.00    -0.744 OA
ENDBRANCH  65  66
ENDBRANCH  39  60
ENDBRANCH  13  14
ENDBRANCH   6   8
ENDBRANCH   3   4
ENDBRANCH   2   3
ENDBRANCH   1   2
BRANCH   1  70
ATOM     70  C   UNL A   1      30.543  26.519  26.035  1.00  0.00     0.002 C 
BRANCH  70  71
ATOM     71  C   UNL A   1      30.631  26.453  24.510  1.00  0.00     0.021 C 
BRANCH  71  72
ATOM     72  C   UNL A   1      30.773  25.034  23.969  1.00  0.00     0.116 C 
BRANCH  72  73
ATOM     73  N   UNL A   1      30.285  24.062  24.936  1.00  0.00    -0.356 N 
ATOM     74  C   UNL A   1      30.872  22.905  25.372  1.00  0.00     0.224 C 
ATOM     75  H   UNL A   1      29.408  24.265  25.333  1.00  0.00     0.163 HD
ATOM     76  O   UNL A   1      30.224  22.147  26.090  1.00  0.00    -0.275 OA
BRANCH  74  77
ATOM     77  C   UNL A   1      32.336  22.675  25.023  1.00  0.00     0.095 C 
ATOM     78  C   UNL A   1      32.822  21.539  25.921  1.00  0.00     0.041 C 
ATOM     79  C   UNL A   1      32.591  22.472  23.538  1.00  0.00     0.095 C 
ATOM     80  C   UNL A   1      32.837  20.179  25.299  1.00  0.00    -0.030 C 
ATOM     81  C   UNL A   1      32.271  21.056  23.035  1.00  0.00     0.041 C 
ATOM     82  C   UNL A   1      32.587  19.961  24.004  1.00  0.00    -0.030 C 
BRANCH  79  83
ATOM     83  C   UNL A   1      33.889  23.009  22.906  1.00  0.00     0.224 C 
ATOM     84  O   UNL A   1      33.803  23.425  21.735  1.00  0.00    -0.275 OA
ATOM     85  N   UNL A   1      35.145  23.091  23.392  1.00  0.00    -0.353 N 
ATOM     86  H   UNL A   1      35.716  23.512  22.709  1.00  0.00     0.163 HD
BRANCH  85  87
ATOM     87  C   UNL A   1      35.979  22.781  24.574  1.00  0.00     0.082 C 
ATOM     88  C   UNL A   1      37.058  21.721  24.328  1.00  0.00     0.025 C 
ATOM     89  C   UNL A   1      36.345  24.012  25.406  1.00  0.00     0.025 C 
ATOM     90  C   UNL A   1      38.074  21.570  25.452  1.00  0.00     0.002 C 
ATOM     91  C   UNL A   1      37.507  23.837  26.387  1.00  0.00     0.002 C 
ATOM     92  C   UNL A   1      38.623  22.902  25.932  1.00  0.00     0.000 C 
ENDBRANCH  85  87
ENDBRANCH  79  83
ENDBRANCH  74  77
ENDBRANCH  72  73
ENDBRANCH  71  72
ENDBRANCH  70  71
ENDBRANCH   1  70
TORSDOF 18
ENDMDL
MODEL 3
REMARK VINA RESULT:     -10.7      3.641      4.247
REMARK SMILES O=C(NCCCCCCNC(=O)[C@H]1CC=CC[C@@H]1C(=O)NC1CCCCC1)c1ccc(-c2c3nc(c(-c4ccc(S(=O)(=O)[O-])cc4)c4ccc([nH]4)c(-c4ccc(S(=O)(=O)[O-])cc4)c4nc(c(-c5ccc(S(=O)(=O)[O-])cc5)c5ccc2[nH]5)C=C4)C=C3)cc1
REMARK SMILES IDX 6 1 5 2 4 3 3 4 1 5 2 6 28 8 29 9 87 10 30 11 86 12 31 13
REMARK SMILES IDX 32 14 33 15 80 16 34 17 85 18 79 19 81 20 35 21 84 22 78 23
REMARK SMILES IDX 77 24 36 26 66 27 47 28 65 29 48 30 51 31 64 32 82 33 49 34
REMARK SMILES IDX 50 35 63 37 83 38 52 39 37 40 38 41 46 42 39 43 45 44 40 45
REMARK SMILES IDX 41 46 42 47 43 48 44 49 67 50 68 51 76 52 69 53 75 54 70 55
REMARK SMILES IDX 71 56 72 57 73 58 74 59 53 60 54 61 62 62 55 63 61 64 56 65
REMARK SMILES IDX 57 66 58 67 59 68 60 69 7 70 8 71 9 72 10 73 11 74 12 76
REMARK SMILES IDX 13 77 14 78 18 79 15 80 17 81 16 82 19 83 20 84 21 85 22 87
REMARK SMILES IDX 23 88 27 89 24 90 26 91 25 92
REMARK H PARENT 3 7 81 25 51 36 10 75 21 86
REMARK Flexibility Score: inf
ROOT
ATOM      1  C   UNL A   1      35.923  23.895  25.642  1.00  0.00     0.002 C 
ENDROOT
BRANCH   1   2
ATOM      2  C   UNL A   1      37.387  23.451  25.662  1.00  0.00     0.021 C 
BRANCH   2   3
ATOM      3  C   UNL A   1      38.321  24.380  26.431  1.00  0.00     0.116 C 
BRANCH   3   4
ATOM      4  N   UNL A   1      39.711  24.214  26.038  1.00  0.00    -0.352 N 
ATOM      5  O   UNL A   1      41.890  24.781  25.892  1.00  0.00    -0.269 OA
ATOM      6  C   UNL A   1      40.810  24.937  26.440  1.00  0.00     0.251 C 
ATOM      7  H   UNL A   1      39.890  23.487  25.399  1.00  0.00     0.163 HD
BRANCH   6   8
ATOM      8  C   UNL A   1      40.652  25.919  27.532  1.00  0.00     0.039 A 
ATOM      9  C   UNL A   1      41.485  27.039  27.597  1.00  0.00     0.014 A 
ATOM     10  C   UNL A   1      39.674  25.702  28.505  1.00  0.00     0.014 A 
ATOM     11  C   UNL A   1      41.427  27.872  28.705  1.00  0.00     0.010 A 
ATOM     12  C   UNL A   1      39.563  26.591  29.577  1.00  0.00     0.010 A 
ATOM     13  C   UNL A   1      40.456  27.667  29.698  1.00  0.00    -0.014 A 
BRANCH  13  14
ATOM     14  C   UNL A   1      40.345  28.637  30.814  1.00  0.00     0.031 A 
ATOM     15  C   UNL A   1      41.263  28.568  32.002  1.00  0.00     0.074 A 
ATOM     16  C   UNL A   1      39.407  29.601  30.734  1.00  0.00     0.049 A 
ATOM     17  N   UNL A   1      41.311  29.352  33.049  1.00  0.00    -0.248 NA
ATOM     18  C   UNL A   1      42.251  27.478  32.023  1.00  0.00     0.031 C 
ATOM     19  C   UNL A   1      38.461  29.762  29.626  1.00  0.00     0.029 A 
ATOM     20  N   UNL A   1      39.109  30.636  31.580  1.00  0.00    -0.354 N 
ATOM     21  C   UNL A   1      42.313  28.841  33.863  1.00  0.00     0.074 A 
ATOM     22  C   UNL A   1      42.833  27.664  33.199  1.00  0.00     0.031 C 
ATOM     23  C   UNL A   1      37.724  30.863  29.834  1.00  0.00     0.029 A 
ATOM     24  C   UNL A   1      38.096  31.443  31.119  1.00  0.00     0.049 A 
ATOM     25  H   UNL A   1      39.574  30.788  32.434  1.00  0.00     0.167 HD
ATOM     26  C   UNL A   1      42.758  29.311  35.054  1.00  0.00     0.031 A 
ATOM     27  C   UNL A   1      37.515  32.522  31.674  1.00  0.00     0.031 A 
ATOM     28  C   UNL A   1      42.224  30.477  35.711  1.00  0.00     0.049 A 
ATOM     29  C   UNL A   1      38.000  33.000  33.010  1.00  0.00     0.074 A 
ATOM     30  C   UNL A   1      42.623  31.053  36.905  1.00  0.00     0.029 A 
ATOM     31  N   UNL A   1      41.167  31.241  35.236  1.00  0.00    -0.354 N 
ATOM     32  N   UNL A   1      38.971  32.522  33.751  1.00  0.00    -0.248 NA
ATOM     33  C   UNL A   1      37.311  34.162  33.585  1.00  0.00     0.031 C 
ATOM     34  C   UNL A   1      41.772  32.130  37.178  1.00  0.00     0.029 A 
ATOM     35  C   UNL A   1      40.882  32.265  36.125  1.00  0.00     0.049 A 
ATOM     36  H   UNL A   1      40.689  31.079  34.391  1.00  0.00     0.167 HD
ATOM     37  C   UNL A   1      39.023  33.336  34.875  1.00  0.00     0.074 A 
ATOM     38  C   UNL A   1      37.996  34.346  34.706  1.00  0.00     0.031 C 
ATOM     39  C   UNL A   1      39.847  33.254  35.948  1.00  0.00     0.031 A 
BRANCH  26  40
ATOM     40  C   UNL A   1      43.852  28.535  35.742  1.00  0.00    -0.014 A 
ATOM     41  C   UNL A   1      43.560  27.479  36.624  1.00  0.00     0.010 A 
ATOM     42  C   UNL A   1      45.199  28.856  35.488  1.00  0.00     0.010 A 
ATOM     43  C   UNL A   1      44.589  26.797  37.280  1.00  0.00     0.020 A 
ATOM     44  C   UNL A   1      46.232  28.158  36.119  1.00  0.00     0.020 A 
ATOM     45  C   UNL A   1      45.919  27.148  37.030  1.00  0.00     0.054 A 
BRANCH  45  46
ATOM     46  S   UNL A   1      47.234  26.256  37.906  1.00  0.00     0.124 S 
ATOM     47  O   UNL A   1      48.204  27.319  38.154  1.00  0.00    -0.237 OA
ATOM     48  O   UNL A   1      46.544  25.747  39.089  1.00  0.00    -0.237 OA
ATOM     49  O   UNL A   1      47.659  25.236  36.949  1.00  0.00    -0.744 OA
ENDBRANCH  45  46
ENDBRANCH  26  40
BRANCH  27  50
ATOM     50  C   UNL A   1      36.414  33.211  30.951  1.00  0.00    -0.014 A 
ATOM     51  C   UNL A   1      35.114  33.231  31.483  1.00  0.00     0.010 A 
ATOM     52  C   UNL A   1      36.677  33.908  29.756  1.00  0.00     0.010 A 
ATOM     53  C   UNL A   1      34.096  33.935  30.835  1.00  0.00     0.020 A 
ATOM     54  C   UNL A   1      35.670  34.638  29.121  1.00  0.00     0.020 A 
ATOM     55  C   UNL A   1      34.383  34.639  29.662  1.00  0.00     0.054 A 
BRANCH  55  56
ATOM     56  S   UNL A   1      33.064  35.612  28.882  1.00  0.00     0.124 S 
ATOM     57  O   UNL A   1      33.824  36.594  28.116  1.00  0.00    -0.237 OA
ATOM     58  O   UNL A   1      32.353  34.606  28.097  1.00  0.00    -0.237 OA
ATOM     59  O   UNL A   1      32.316  36.145  30.019  1.00  0.00    -0.744 OA
ENDBRANCH  55  56
ENDBRANCH  27  50
BRANCH  39  60
ATOM     60  C   UNL A   1      39.688  34.305  37.014  1.00  0.00    -0.014 A 
ATOM     61  C   UNL A   1      38.958  34.048  38.188  1.00  0.00     0.010 A 
ATOM     62  C   UNL A   1      40.312  35.555  36.853  1.00  0.00     0.010 A 
ATOM     63  C   UNL A   1      38.826  35.036  39.167  1.00  0.00     0.020 A 
ATOM     64  C   UNL A   1      40.208  36.535  37.843  1.00  0.00     0.020 A 
ATOM     65  C   UNL A   1      39.453  36.273  38.987  1.00  0.00     0.054 A 
BRANCH  65  66
ATOM     66  S   UNL A   1      39.302  37.526  40.290  1.00  0.00     0.124 S 
ATOM     67  O   UNL A   1      38.335  38.454  39.710  1.00  0.00    -0.237 OA
ATOM     68  O   UNL A   1      38.822  36.748  41.430  1.00  0.00    -0.237 OA
ATOM     69  O   UNL A   1      40.661  38.047  40.429  1.00  0.00    -0.744 OA
ENDBRANCH  65  66
ENDBRANCH  39  60
ENDBRANCH  13  14
ENDBRANCH   6   8
ENDBRANCH   3   4
ENDBRANCH   2   3
ENDBRANCH   1   2
BRANCH   1  70
ATOM     70  C   UNL A   1      34.955  22.902  24.992  1.00  0.00     0.002 C 
BRANCH  70  71
ATOM     71  C   UNL A   1      34.478  23.304  23.597  1.00  0.00     0.021 C 
BRANCH  71  72
ATOM     72  C   UNL A   1      32.963  23.256  23.435  1.00  0.00     0.116 C 
BRANCH  72  73
ATOM     73  N   UNL A   1      32.535  24.093  22.324  1.00  0.00    -0.356 N 
ATOM     74  C   UNL A   1      32.278  25.437  22.300  1.00  0.00     0.224 C 
ATOM     75  H   UNL A   1      32.414  23.626  21.466  1.00  0.00     0.163 HD
ATOM     76  O   UNL A   1      31.787  25.928  21.287  1.00  0.00    -0.275 OA
BRANCH  74  77
ATOM     77  C   UNL A   1      32.716  26.265  23.500  1.00  0.00     0.095 C 
ATOM     78  C   UNL A   1      33.309  27.557  22.941  1.00  0.00     0.041 C 
ATOM     79  C   UNL A   1      31.628  26.459  24.545  1.00  0.00     0.095 C 
ATOM     80  C   UNL A   1      32.392  28.738  22.920  1.00  0.00    -0.030 C 
ATOM     81  C   UNL A   1      30.606  27.550  24.191  1.00  0.00     0.041 C 
ATOM     82  C   UNL A   1      31.177  28.735  23.478  1.00  0.00    -0.030 C 
BRANCH  79  83
ATOM     83  C   UNL A   1      32.004  26.508  26.037  1.00  0.00     0.224 C 
ATOM     84  O   UNL A   1      31.662  25.528  26.727  1.00  0.00    -0.275 OA
ATOM     85  N   UNL A   1      32.631  27.457  26.765  1.00  0.00    -0.353 N 
ATOM     86  H   UNL A   1      32.716  27.133  27.690  1.00  0.00     0.163 HD
BRANCH  85  87
ATOM     87  C   UNL A   1      33.235  28.805  26.681  1.00  0.00     0.082 C 
ATOM     88  C   UNL A   1      32.255  29.955  26.932  1.00  0.00     0.025 C 
ATOM     89  C   UNL A   1      34.631  28.889  27.301  1.00  0.00     0.025 C 
ATOM     90  C   UNL A   1      32.903  31.324  27.092  1.00  0.00     0.002 C 
ATOM     91  C   UNL A   1      35.143  30.299  27.610  1.00  0.00     0.002 C 
ATOM     92  C   UNL A   1      34.085  31.307  28.045  1.00  0.00     0.000 C 
ENDBRANCH  85  87
ENDBRANCH  79  83
ENDBRANCH  74  77
ENDBRANCH  72  73
ENDBRANCH  71  72
ENDBRANCH  70  71
ENDBRANCH   1  70
TORSDOF 18
ENDMDL
