MODEL 1
REMARK VINA RESULT:     -11.2      0.000      0.000
REMARK SMILES Cc1c(Cl)cc2c(c1C)O[C@H](C(F)(F)F)C(C(=O)NCCCCCCNC(=O)c1ccc(-c3c4nc(c(-c5ccc(S(=O)(=O)[O-])cc5)c5ccc([nH]5)c(-c5ccc(S(=O)(=O)[O-])cc5)c5nc(c(-c6ccc(S(=O)(=O)[O-])cc6)c6ccc3[nH]6)C=C5)C=C4)cc1)=C2
REMARK SMILES IDX 23 1 22 2 21 3 20 4 19 5 17 6 18 7 16 9 1 10 2 11 3 12 8 13
REMARK SMILES IDX 4 14 5 15 7 16 9 17 6 18 10 19 89 20 11 21 12 22 13 23 14 24
REMARK SMILES IDX 15 25 24 26 25 27 26 28 27 29 28 31 29 32 30 33 88 34 31 35
REMARK SMILES IDX 87 36 32 37 33 38 34 39 81 40 35 41 86 42 80 43 82 44 36 45
REMARK SMILES IDX 85 46 79 47 78 48 37 50 67 51 48 52 66 53 49 54 52 55 65 56
REMARK SMILES IDX 83 57 50 58 51 59 64 61 84 62 53 63 38 64 39 65 47 66 40 67
REMARK SMILES IDX 46 68 41 69 42 70 43 71 44 72 45 73 68 74 69 75 77 76 70 77
REMARK SMILES IDX 76 78 71 79 72 80 73 81 74 82 75 83 54 84 55 85 63 86 56 87
REMARK SMILES IDX 62 88 57 89 58 90 59 91 60 92 61 93
REMARK H PARENT 19 8 26 30 82 49 52 60
REMARK Flexibility Score: inf
ROOT
ATOM      1  C   UNL A   1      31.761  29.008  25.639  1.00  0.00     0.002 C 
ENDROOT
BRANCH   1   2
ATOM      2  C   UNL A   1      31.230  28.753  24.221  1.00  0.00     0.002 C 
BRANCH   2   3
ATOM      3  C   UNL A   1      31.760  27.482  23.553  1.00  0.00     0.021 C 
BRANCH   3   4
ATOM      4  C   UNL A   1      30.716  26.378  23.439  1.00  0.00     0.116 C 
BRANCH   4   5
ATOM      5  N   UNL A   1      30.295  25.899  24.743  1.00  0.00    -0.352 N 
ATOM      6  C   UNL A   1      30.690  24.951  25.627  1.00  0.00     0.251 C 
ATOM      7  O   UNL A   1      30.035  24.897  26.673  1.00  0.00    -0.270 OA
ATOM      8  H   UNL A   1      29.512  26.394  25.075  1.00  0.00     0.163 HD
BRANCH   6   9
ATOM      9  C   UNL A   1      31.825  24.004  25.419  1.00  0.00     0.067 C 
ATOM     10  C   UNL A   1      37.587  20.909  25.115  1.00  0.00     0.046 C 
ATOM     11  C   UNL A   1      36.401  21.822  25.286  1.00  0.00    -0.026 A 
ATOM     12  C   UNL A   1      36.575  23.159  25.703  1.00  0.00     0.045 A 
ATOM     13  C   UNL A   1      35.083  21.345  25.096  1.00  0.00    -0.004 A 
ATOM     14  Cl  UNL A   1      38.139  23.810  26.062  1.00  0.00    -0.084 Cl
ATOM     15  C   UNL A   1      35.485  24.021  25.869  1.00  0.00     0.032 A 
ATOM     16  C   UNL A   1      34.004  22.239  25.242  1.00  0.00     0.131 A 
ATOM     17  C   UNL A   1      34.763  19.921  24.709  1.00  0.00     0.049 C 
ATOM     18  C   UNL A   1      34.192  23.567  25.627  1.00  0.00     0.019 A 
ATOM     19  O   UNL A   1      32.758  21.722  25.037  1.00  0.00    -0.475 OA
ATOM     20  C   UNL A   1      33.035  24.435  25.819  1.00  0.00     0.025 C 
ATOM     21  C   UNL A   1      31.684  22.656  24.774  1.00  0.00     0.314 C 
BRANCH  21  22
ATOM     22  C   UNL A   1      31.448  22.743  23.256  1.00  0.00     0.429 C 
ATOM     23  F   UNL A   1      32.331  23.599  22.686  1.00  0.00    -0.167 F 
ATOM     24  F   UNL A   1      31.615  21.552  22.634  1.00  0.00    -0.167 F 
ATOM     25  F   UNL A   1      30.204  23.175  22.950  1.00  0.00    -0.167 F 
ENDBRANCH  21  22
ENDBRANCH   6   9
ENDBRANCH   4   5
ENDBRANCH   3   4
ENDBRANCH   2   3
ENDBRANCH   1   2
BRANCH   1  26
ATOM     26  C   UNL A   1      32.726  27.946  26.175  1.00  0.00     0.021 C 
BRANCH  26  27
ATOM     27  C   UNL A   1      34.001  28.509  26.793  1.00  0.00     0.116 C 
BRANCH  27  28
ATOM     28  N   UNL A   1      33.821  29.889  27.212  1.00  0.00    -0.352 N 
ATOM     29  C   UNL A   1      34.618  30.656  28.018  1.00  0.00     0.251 C 
ATOM     30  H   UNL A   1      33.014  30.335  26.867  1.00  0.00     0.163 HD
ATOM     31  O   UNL A   1      34.188  31.715  28.478  1.00  0.00    -0.269 OA
BRANCH  29  32
ATOM     32  C   UNL A   1      35.990  30.212  28.333  1.00  0.00     0.039 A 
ATOM     33  C   UNL A   1      36.263  29.696  29.602  1.00  0.00     0.014 A 
ATOM     34  C   UNL A   1      37.011  30.339  27.385  1.00  0.00     0.014 A 
ATOM     35  C   UNL A   1      37.558  29.278  29.911  1.00  0.00     0.010 A 
ATOM     36  C   UNL A   1      38.283  29.857  27.671  1.00  0.00     0.010 A 
ATOM     37  C   UNL A   1      38.574  29.343  28.943  1.00  0.00    -0.014 A 
BRANCH  37  38
ATOM     38  C   UNL A   1      39.965  28.941  29.261  1.00  0.00     0.031 A 
ATOM     39  C   UNL A   1      40.876  29.917  29.956  1.00  0.00     0.074 A 
ATOM     40  C   UNL A   1      40.417  27.727  28.896  1.00  0.00     0.049 A 
ATOM     41  N   UNL A   1      42.142  29.792  30.257  1.00  0.00    -0.248 NA
ATOM     42  C   UNL A   1      40.291  31.211  30.347  1.00  0.00     0.031 C 
ATOM     43  C   UNL A   1      39.629  26.699  28.212  1.00  0.00     0.029 A 
ATOM     44  N   UNL A   1      41.652  27.151  29.050  1.00  0.00    -0.354 N 
ATOM     45  C   UNL A   1      42.505  30.990  30.862  1.00  0.00     0.074 A 
ATOM     46  C   UNL A   1      41.343  31.850  30.835  1.00  0.00     0.031 C 
ATOM     47  C   UNL A   1      40.392  25.608  28.034  1.00  0.00     0.029 A 
ATOM     48  C   UNL A   1      41.733  25.874  28.548  1.00  0.00     0.049 A 
ATOM     49  H   UNL A   1      42.410  27.609  29.481  1.00  0.00     0.167 HD
ATOM     50  C   UNL A   1      43.692  31.334  31.414  1.00  0.00     0.031 A 
ATOM     51  C   UNL A   1      42.772  25.018  28.500  1.00  0.00     0.031 A 
ATOM     52  C   UNL A   1      44.842  30.471  31.448  1.00  0.00     0.049 A 
ATOM     53  C   UNL A   1      44.096  25.444  29.074  1.00  0.00     0.074 A 
ATOM     54  C   UNL A   1      46.082  30.714  32.011  1.00  0.00     0.029 A 
ATOM     55  N   UNL A   1      44.892  29.199  30.901  1.00  0.00    -0.354 N 
ATOM     56  N   UNL A   1      44.413  26.570  29.669  1.00  0.00    -0.248 NA
ATOM     57  C   UNL A   1      45.203  24.484  28.970  1.00  0.00     0.031 C 
ATOM     58  C   UNL A   1      46.900  29.609  31.756  1.00  0.00     0.029 A 
ATOM     59  C   UNL A   1      46.150  28.653  31.087  1.00  0.00     0.049 A 
ATOM     60  H   UNL A   1      44.143  28.749  30.447  1.00  0.00     0.167 HD
ATOM     61  C   UNL A   1      45.751  26.446  30.025  1.00  0.00     0.074 A 
ATOM     62  C   UNL A   1      46.176  25.128  29.601  1.00  0.00     0.031 C 
ATOM     63  C   UNL A   1      46.558  27.343  30.645  1.00  0.00     0.031 A 
BRANCH  50  64
ATOM     64  C   UNL A   1      43.804  32.704  32.028  1.00  0.00    -0.014 A 
ATOM     65  C   UNL A   1      44.199  33.812  31.257  1.00  0.00     0.010 A 
ATOM     66  C   UNL A   1      43.463  32.898  33.380  1.00  0.00     0.010 A 
ATOM     67  C   UNL A   1      44.281  35.082  31.832  1.00  0.00     0.020 A 
ATOM     68  C   UNL A   1      43.516  34.172  33.951  1.00  0.00     0.020 A 
ATOM     69  C   UNL A   1      43.937  35.254  33.176  1.00  0.00     0.054 A 
BRANCH  69  70
ATOM     70  S   UNL A   1      44.018  36.923  33.883  1.00  0.00     0.124 S 
ATOM     71  O   UNL A   1      42.967  36.873  34.895  1.00  0.00    -0.237 OA
ATOM     72  O   UNL A   1      45.384  36.984  34.399  1.00  0.00    -0.237 OA
ATOM     73  O   UNL A   1      43.744  37.797  32.746  1.00  0.00    -0.744 OA
ENDBRANCH  69  70
ENDBRANCH  50  64
BRANCH  51  74
ATOM     74  C   UNL A   1      42.599  23.668  27.896  1.00  0.00    -0.014 A 
ATOM     75  C   UNL A   1      42.864  23.461  26.531  1.00  0.00     0.010 A 
ATOM     76  C   UNL A   1      42.182  22.580  28.684  1.00  0.00     0.010 A 
ATOM     77  C   UNL A   1      42.704  22.193  25.963  1.00  0.00     0.020 A 
ATOM     78  C   UNL A   1      42.048  21.305  28.126  1.00  0.00     0.020 A 
ATOM     79  C   UNL A   1      42.303  21.122  26.765  1.00  0.00     0.054 A 
BRANCH  79  80
ATOM     80  S   UNL A   1      42.157  19.477  26.013  1.00  0.00     0.124 S 
ATOM     81  O   UNL A   1      43.040  19.592  24.856  1.00  0.00    -0.237 OA
ATOM     82  O   UNL A   1      42.626  18.601  27.084  1.00  0.00    -0.237 OA
ATOM     83  O   UNL A   1      40.733  19.366  25.705  1.00  0.00    -0.744 OA
ENDBRANCH  79  80
ENDBRANCH  51  74
BRANCH  63  84
ATOM     84  C   UNL A   1      47.983  26.931  30.903  1.00  0.00    -0.014 A 
ATOM     85  C   UNL A   1      48.987  27.167  29.949  1.00  0.00     0.010 A 
ATOM     86  C   UNL A   1      48.331  26.358  32.140  1.00  0.00     0.010 A 
ATOM     87  C   UNL A   1      50.311  26.810  30.214  1.00  0.00     0.020 A 
ATOM     88  C   UNL A   1      49.660  26.027  32.421  1.00  0.00     0.020 A 
ATOM     89  C   UNL A   1      50.639  26.243  31.450  1.00  0.00     0.054 A 
BRANCH  89  90
ATOM     90  S   UNL A   1      52.373  25.829  31.782  1.00  0.00     0.124 S 
ATOM     91  O   UNL A   1      52.291  24.403  32.087  1.00  0.00    -0.237 OA
ATOM     92  O   UNL A   1      53.028  26.165  30.521  1.00  0.00    -0.237 OA
ATOM     93  O   UNL A   1      52.725  26.688  32.911  1.00  0.00    -0.744 OA
ENDBRANCH  89  90
ENDBRANCH  63  84
ENDBRANCH  37  38
ENDBRANCH  29  32
ENDBRANCH  27  28
ENDBRANCH  26  27
ENDBRANCH   1  26
TORSDOF 17
ENDMDL
MODEL 2
REMARK VINA RESULT:     -10.9      1.553      2.198
REMARK SMILES Cc1c(Cl)cc2c(c1C)O[C@H](C(F)(F)F)C(C(=O)NCCCCCCNC(=O)c1ccc(-c3c4nc(c(-c5ccc(S(=O)(=O)[O-])cc5)c5ccc([nH]5)c(-c5ccc(S(=O)(=O)[O-])cc5)c5nc(c(-c6ccc(S(=O)(=O)[O-])cc6)c6ccc3[nH]6)C=C5)C=C4)cc1)=C2
REMARK SMILES IDX 23 1 22 2 21 3 20 4 19 5 17 6 18 7 16 9 1 10 2 11 3 12 8 13
REMARK SMILES IDX 4 14 5 15 7 16 9 17 6 18 10 19 89 20 11 21 12 22 13 23 14 24
REMARK SMILES IDX 15 25 24 26 25 27 26 28 27 29 28 31 29 32 30 33 88 34 31 35
REMARK SMILES IDX 87 36 32 37 33 38 34 39 81 40 35 41 86 42 80 43 82 44 36 45
REMARK SMILES IDX 85 46 79 47 78 48 37 50 67 51 48 52 66 53 49 54 52 55 65 56
REMARK SMILES IDX 83 57 50 58 51 59 64 61 84 62 53 63 38 64 39 65 47 66 40 67
REMARK SMILES IDX 46 68 41 69 42 70 43 71 44 72 45 73 68 74 69 75 77 76 70 77
REMARK SMILES IDX 76 78 71 79 72 80 73 81 74 82 75 83 54 84 55 85 63 86 56 87
REMARK SMILES IDX 62 88 57 89 58 90 59 91 60 92 61 93
REMARK H PARENT 19 8 26 30 82 49 52 60
REMARK Flexibility Score: inf
ROOT
ATOM      1  C   UNL A   1      33.277  29.006  24.833  1.00  0.00     0.002 C 
ENDROOT
BRANCH   1   2
ATOM      2  C   UNL A   1      33.900  28.866  23.437  1.00  0.00     0.002 C 
BRANCH   2   3
ATOM      3  C   UNL A   1      32.927  28.442  22.335  1.00  0.00     0.021 C 
BRANCH   3   4
ATOM      4  C   UNL A   1      32.729  26.933  22.250  1.00  0.00     0.116 C 
BRANCH   4   5
ATOM      5  N   UNL A   1      31.431  26.531  22.762  1.00  0.00    -0.352 N 
ATOM      6  C   UNL A   1      30.913  25.475  23.433  1.00  0.00     0.251 C 
ATOM      7  O   UNL A   1      29.710  25.557  23.701  1.00  0.00    -0.270 OA
ATOM      8  H   UNL A   1      30.742  27.206  22.568  1.00  0.00     0.163 HD
BRANCH   6   9
ATOM      9  C   UNL A   1      31.680  24.265  23.852  1.00  0.00     0.067 C 
ATOM     10  C   UNL A   1      34.400  18.348  24.536  1.00  0.00     0.046 C 
ATOM     11  C   UNL A   1      33.645  19.601  24.174  1.00  0.00    -0.026 A 
ATOM     12  C   UNL A   1      32.655  19.581  23.169  1.00  0.00     0.045 A 
ATOM     13  C   UNL A   1      33.954  20.837  24.786  1.00  0.00    -0.004 A 
ATOM     14  Cl  UNL A   1      32.274  18.139  22.287  1.00  0.00    -0.084 Cl
ATOM     15  C   UNL A   1      31.945  20.735  22.818  1.00  0.00     0.032 A 
ATOM     16  C   UNL A   1      33.207  21.979  24.436  1.00  0.00     0.131 A 
ATOM     17  C   UNL A   1      35.033  21.001  25.830  1.00  0.00     0.049 C 
ATOM     18  C   UNL A   1      32.211  21.940  23.460  1.00  0.00     0.019 A 
ATOM     19  O   UNL A   1      33.547  23.141  25.067  1.00  0.00    -0.475 OA
ATOM     20  C   UNL A   1      31.507  23.165  23.097  1.00  0.00     0.025 C 
ATOM     21  C   UNL A   1      32.576  24.214  25.055  1.00  0.00     0.314 C 
BRANCH  21  22
ATOM     22  C   UNL A   1      31.794  24.206  26.380  1.00  0.00     0.429 C 
ATOM     23  F   UNL A   1      30.689  23.426  26.275  1.00  0.00    -0.167 F 
ATOM     24  F   UNL A   1      32.517  23.704  27.409  1.00  0.00    -0.167 F 
ATOM     25  F   UNL A   1      31.389  25.441  26.751  1.00  0.00    -0.167 F 
ENDBRANCH  21  22
ENDBRANCH   6   9
ENDBRANCH   4   5
ENDBRANCH   3   4
ENDBRANCH   2   3
ENDBRANCH   1   2
BRANCH   1  26
ATOM     26  C   UNL A   1      33.526  27.828  25.780  1.00  0.00     0.021 C 
BRANCH  26  27
ATOM     27  C   UNL A   1      33.604  28.212  27.254  1.00  0.00     0.116 C 
BRANCH  27  28
ATOM     28  N   UNL A   1      33.451  29.646  27.437  1.00  0.00    -0.352 N 
ATOM     29  C   UNL A   1      34.309  30.537  28.020  1.00  0.00     0.251 C 
ATOM     30  H   UNL A   1      32.612  30.030  27.091  1.00  0.00     0.163 HD
ATOM     31  O   UNL A   1      33.912  31.665  28.322  1.00  0.00    -0.269 OA
BRANCH  29  32
ATOM     32  C   UNL A   1      35.706  30.146  28.286  1.00  0.00     0.039 A 
ATOM     33  C   UNL A   1      36.060  29.715  29.567  1.00  0.00     0.014 A 
ATOM     34  C   UNL A   1      36.673  30.240  27.279  1.00  0.00     0.014 A 
ATOM     35  C   UNL A   1      37.380  29.348  29.830  1.00  0.00     0.010 A 
ATOM     36  C   UNL A   1      37.971  29.807  27.524  1.00  0.00     0.010 A 
ATOM     37  C   UNL A   1      38.341  29.379  28.807  1.00  0.00    -0.014 A 
BRANCH  37  38
ATOM     38  C   UNL A   1      39.758  29.030  29.071  1.00  0.00     0.031 A 
ATOM     39  C   UNL A   1      40.670  30.057  29.688  1.00  0.00     0.074 A 
ATOM     40  C   UNL A   1      40.230  27.817  28.729  1.00  0.00     0.049 A 
ATOM     41  N   UNL A   1      41.951  29.981  29.933  1.00  0.00    -0.248 NA
ATOM     42  C   UNL A   1      40.062  31.347  30.060  1.00  0.00     0.031 C 
ATOM     43  C   UNL A   1      39.444  26.742  28.120  1.00  0.00     0.029 A 
ATOM     44  N   UNL A   1      41.489  27.284  28.844  1.00  0.00    -0.354 N 
ATOM     45  C   UNL A   1      42.304  31.210  30.477  1.00  0.00     0.074 A 
ATOM     46  C   UNL A   1      41.115  32.034  30.475  1.00  0.00     0.031 C 
ATOM     47  C   UNL A   1      40.232  25.668  27.944  1.00  0.00     0.029 A 
ATOM     48  C   UNL A   1      41.586  25.992  28.384  1.00  0.00     0.049 A 
ATOM     49  H   UNL A   1      42.251  27.780  29.222  1.00  0.00     0.167 HD
ATOM     50  C   UNL A   1      43.504  31.610  30.959  1.00  0.00     0.031 A 
ATOM     51  C   UNL A   1      42.649  25.167  28.317  1.00  0.00     0.031 A 
ATOM     52  C   UNL A   1      44.680  30.783  30.970  1.00  0.00     0.049 A 
ATOM     53  C   UNL A   1      43.984  25.653  28.812  1.00  0.00     0.074 A 
ATOM     54  C   UNL A   1      45.937  31.083  31.464  1.00  0.00     0.029 A 
ATOM     55  N   UNL A   1      44.745  29.494  30.465  1.00  0.00    -0.354 N 
ATOM     56  N   UNL A   1      44.292  26.808  29.351  1.00  0.00    -0.248 NA
ATOM     57  C   UNL A   1      45.114  24.722  28.689  1.00  0.00     0.031 C 
ATOM     58  C   UNL A   1      46.777  29.994  31.209  1.00  0.00     0.029 A 
ATOM     59  C   UNL A   1      46.027  28.993  30.611  1.00  0.00     0.049 A 
ATOM     60  H   UNL A   1      43.991  29.005  30.064  1.00  0.00     0.167 HD
ATOM     61  C   UNL A   1      45.649  26.738  29.648  1.00  0.00     0.074 A 
ATOM     62  C   UNL A   1      46.095  25.418  29.250  1.00  0.00     0.031 C 
ATOM     63  C   UNL A   1      46.455  27.680  30.196  1.00  0.00     0.031 A 
BRANCH  50  64
ATOM     64  C   UNL A   1      43.601  33.004  31.519  1.00  0.00    -0.014 A 
ATOM     65  C   UNL A   1      43.470  33.239  32.900  1.00  0.00     0.010 A 
ATOM     66  C   UNL A   1      43.878  34.087  30.664  1.00  0.00     0.010 A 
ATOM     67  C   UNL A   1      43.581  34.534  33.412  1.00  0.00     0.020 A 
ATOM     68  C   UNL A   1      44.019  35.380  31.176  1.00  0.00     0.020 A 
ATOM     69  C   UNL A   1      43.857  35.596  32.546  1.00  0.00     0.054 A 
BRANCH  69  70
ATOM     70  S   UNL A   1      44.033  37.260  33.247  1.00  0.00     0.124 S 
ATOM     71  O   UNL A   1      42.826  37.373  34.062  1.00  0.00    -0.237 OA
ATOM     72  O   UNL A   1      45.286  37.161  33.991  1.00  0.00    -0.237 OA
ATOM     73  O   UNL A   1      44.073  38.129  32.074  1.00  0.00    -0.744 OA
ENDBRANCH  69  70
ENDBRANCH  50  64
BRANCH  51  74
ATOM     74  C   UNL A   1      42.490  23.790  27.769  1.00  0.00    -0.014 A 
ATOM     75  C   UNL A   1      42.311  22.698  28.636  1.00  0.00     0.010 A 
ATOM     76  C   UNL A   1      42.502  23.567  26.381  1.00  0.00     0.010 A 
ATOM     77  C   UNL A   1      42.159  21.406  28.123  1.00  0.00     0.020 A 
ATOM     78  C   UNL A   1      42.322  22.281  25.864  1.00  0.00     0.020 A 
ATOM     79  C   UNL A   1      42.160  21.206  26.741  1.00  0.00     0.054 A 
BRANCH  79  80
ATOM     80  S   UNL A   1      41.906  19.527  26.103  1.00  0.00     0.124 S 
ATOM     81  O   UNL A   1      40.483  19.537  25.776  1.00  0.00    -0.237 OA
ATOM     82  O   UNL A   1      42.817  19.484  24.963  1.00  0.00    -0.237 OA
ATOM     83  O   UNL A   1      42.283  18.672  27.226  1.00  0.00    -0.744 OA
ENDBRANCH  79  80
ENDBRANCH  51  74
BRANCH  63  84
ATOM     84  C   UNL A   1      47.903  27.320  30.401  1.00  0.00    -0.014 A 
ATOM     85  C   UNL A   1      48.869  27.636  29.431  1.00  0.00     0.010 A 
ATOM     86  C   UNL A   1      48.309  26.715  31.605  1.00  0.00     0.010 A 
ATOM     87  C   UNL A   1      50.214  27.326  29.648  1.00  0.00     0.020 A 
ATOM     88  C   UNL A   1      49.657  26.432  31.837  1.00  0.00     0.020 A 
ATOM     89  C   UNL A   1      50.599  26.727  30.851  1.00  0.00     0.054 A 
BRANCH  89  90
ATOM     90  S   UNL A   1      52.358  26.376  31.122  1.00  0.00     0.124 S 
ATOM     91  O   UNL A   1      52.859  26.263  29.754  1.00  0.00    -0.237 OA
ATOM     92  O   UNL A   1      52.808  27.552  31.860  1.00  0.00    -0.237 OA
ATOM     93  O   UNL A   1      52.350  25.131  31.886  1.00  0.00    -0.744 OA
ENDBRANCH  89  90
ENDBRANCH  63  84
ENDBRANCH  37  38
ENDBRANCH  29  32
ENDBRANCH  27  28
ENDBRANCH  26  27
ENDBRANCH   1  26
TORSDOF 17
ENDMDL
MODEL 3
REMARK VINA RESULT:     -10.7      2.398      3.066
REMARK SMILES Cc1c(Cl)cc2c(c1C)O[C@H](C(F)(F)F)C(C(=O)NCCCCCCNC(=O)c1ccc(-c3c4nc(c(-c5ccc(S(=O)(=O)[O-])cc5)c5ccc([nH]5)c(-c5ccc(S(=O)(=O)[O-])cc5)c5nc(c(-c6ccc(S(=O)(=O)[O-])cc6)c6ccc3[nH]6)C=C5)C=C4)cc1)=C2
REMARK SMILES IDX 23 1 22 2 21 3 20 4 19 5 17 6 18 7 16 9 1 10 2 11 3 12 8 13
REMARK SMILES IDX 4 14 5 15 7 16 9 17 6 18 10 19 89 20 11 21 12 22 13 23 14 24
REMARK SMILES IDX 15 25 24 26 25 27 26 28 27 29 28 31 29 32 30 33 88 34 31 35
REMARK SMILES IDX 87 36 32 37 33 38 34 39 81 40 35 41 86 42 80 43 82 44 36 45
REMARK SMILES IDX 85 46 79 47 78 48 37 50 67 51 48 52 66 53 49 54 52 55 65 56
REMARK SMILES IDX 83 57 50 58 51 59 64 61 84 62 53 63 38 64 39 65 47 66 40 67
REMARK SMILES IDX 46 68 41 69 42 70 43 71 44 72 45 73 68 74 69 75 77 76 70 77
REMARK SMILES IDX 76 78 71 79 72 80 73 81 74 82 75 83 54 84 55 85 63 86 56 87
REMARK SMILES IDX 62 88 57 89 58 90 59 91 60 92 61 93
REMARK H PARENT 19 8 26 30 82 49 52 60
REMARK Flexibility Score: inf
ROOT
ATOM      1  C   UNL A   1      32.524  27.834  24.528  1.00  0.00     0.002 C 
ENDROOT
BRANCH   1   2
ATOM      2  C   UNL A   1      31.126  28.399  24.241  1.00  0.00     0.002 C 
BRANCH   2   3
ATOM      3  C   UNL A   1      30.142  27.404  23.619  1.00  0.00     0.021 C 
BRANCH   3   4
ATOM      4  C   UNL A   1      30.614  25.957  23.700  1.00  0.00     0.116 C 
BRANCH   4   5
ATOM      5  N   UNL A   1      30.210  25.328  24.945  1.00  0.00    -0.352 N 
ATOM      6  C   UNL A   1      30.703  24.392  25.790  1.00  0.00     0.251 C 
ATOM      7  O   UNL A   1      30.015  24.165  26.790  1.00  0.00    -0.270 OA
ATOM      8  H   UNL A   1      29.344  25.675  25.259  1.00  0.00     0.163 HD
BRANCH   6   9
ATOM      9  C   UNL A   1      31.981  23.645  25.591  1.00  0.00     0.067 C 
ATOM     10  C   UNL A   1      38.171  21.520  25.385  1.00  0.00     0.046 C 
ATOM     11  C   UNL A   1      36.849  22.227  25.544  1.00  0.00    -0.026 A 
ATOM     12  C   UNL A   1      36.795  23.558  26.008  1.00  0.00     0.045 A 
ATOM     13  C   UNL A   1      35.631  21.553  25.295  1.00  0.00    -0.004 A 
ATOM     14  Cl  UNL A   1      38.224  24.437  26.439  1.00  0.00    -0.084 Cl
ATOM     15  C   UNL A   1      35.576  24.229  26.163  1.00  0.00     0.032 A 
ATOM     16  C   UNL A   1      34.419  22.258  25.432  1.00  0.00     0.131 A 
ATOM     17  C   UNL A   1      35.554  20.111  24.854  1.00  0.00     0.049 C 
ATOM     18  C   UNL A   1      34.381  23.584  25.865  1.00  0.00     0.019 A 
ATOM     19  O   UNL A   1      33.278  21.557  25.171  1.00  0.00    -0.475 OA
ATOM     20  C   UNL A   1      33.095  24.249  26.044  1.00  0.00     0.025 C 
ATOM     21  C   UNL A   1      32.076  22.317  24.901  1.00  0.00     0.314 C 
BRANCH  21  22
ATOM     22  C   UNL A   1      31.872  22.419  23.379  1.00  0.00     0.429 C 
ATOM     23  F   UNL A   1      32.147  21.232  22.782  1.00  0.00    -0.167 F 
ATOM     24  F   UNL A   1      30.597  22.727  23.043  1.00  0.00    -0.167 F 
ATOM     25  F   UNL A   1      32.665  23.355  22.812  1.00  0.00    -0.167 F 
ENDBRANCH  21  22
ENDBRANCH   6   9
ENDBRANCH   4   5
ENDBRANCH   3   4
ENDBRANCH   2   3
ENDBRANCH   1   2
BRANCH   1  26
ATOM     26  C   UNL A   1      33.003  27.984  25.975  1.00  0.00     0.021 C 
BRANCH  26  27
ATOM     27  C   UNL A   1      34.226  28.879  26.142  1.00  0.00     0.116 C 
BRANCH  27  28
ATOM     28  N   UNL A   1      33.846  30.236  26.498  1.00  0.00    -0.352 N 
ATOM     29  C   UNL A   1      34.324  31.029  27.505  1.00  0.00     0.251 C 
ATOM     30  H   UNL A   1      33.147  30.641  25.935  1.00  0.00     0.163 HD
ATOM     31  O   UNL A   1      33.712  32.050  27.825  1.00  0.00    -0.269 OA
BRANCH  29  32
ATOM     32  C   UNL A   1      35.569  30.660  28.204  1.00  0.00     0.039 A 
ATOM     33  C   UNL A   1      36.759  31.307  27.863  1.00  0.00     0.014 A 
ATOM     34  C   UNL A   1      35.565  29.650  29.173  1.00  0.00     0.014 A 
ATOM     35  C   UNL A   1      37.943  30.961  28.515  1.00  0.00     0.010 A 
ATOM     36  C   UNL A   1      36.731  29.356  29.870  1.00  0.00     0.010 A 
ATOM     37  C   UNL A   1      37.934  29.993  29.532  1.00  0.00    -0.014 A 
BRANCH  37  38
ATOM     38  C   UNL A   1      39.186  29.581  30.212  1.00  0.00     0.031 A 
ATOM     39  C   UNL A   1      39.624  30.307  31.457  1.00  0.00     0.074 A 
ATOM     40  C   UNL A   1      39.939  28.591  29.699  1.00  0.00     0.049 A 
ATOM     41  N   UNL A   1      40.716  30.154  32.158  1.00  0.00    -0.248 NA
ATOM     42  C   UNL A   1      38.724  31.355  31.967  1.00  0.00     0.031 C 
ATOM     43  C   UNL A   1      39.621  27.820  28.495  1.00  0.00     0.029 A 
ATOM     44  N   UNL A   1      41.132  28.065  30.125  1.00  0.00    -0.354 N 
ATOM     45  C   UNL A   1      40.638  31.089  33.184  1.00  0.00     0.074 A 
ATOM     46  C   UNL A   1      39.421  31.843  32.981  1.00  0.00     0.031 C 
ATOM     47  C   UNL A   1      40.579  26.898  28.299  1.00  0.00     0.029 A 
ATOM     48  C   UNL A   1      41.600  27.043  29.333  1.00  0.00     0.049 A 
ATOM     49  H   UNL A   1      41.608  28.386  30.925  1.00  0.00     0.167 HD
ATOM     50  C   UNL A   1      41.491  31.286  34.216  1.00  0.00     0.031 A 
ATOM     51  C   UNL A   1      42.728  26.313  29.424  1.00  0.00     0.031 A 
ATOM     52  C   UNL A   1      42.695  30.527  34.420  1.00  0.00     0.049 A 
ATOM     53  C   UNL A   1      43.685  26.586  30.552  1.00  0.00     0.074 A 
ATOM     54  C   UNL A   1      43.611  30.627  35.451  1.00  0.00     0.029 A 
ATOM     55  N   UNL A   1      43.148  29.524  33.577  1.00  0.00    -0.354 N 
ATOM     56  N   UNL A   1      43.581  27.455  31.530  1.00  0.00    -0.248 NA
ATOM     57  C   UNL A   1      44.913  25.780  30.589  1.00  0.00     0.031 C 
ATOM     58  C   UNL A   1      44.647  29.722  35.204  1.00  0.00     0.029 A 
ATOM     59  C   UNL A   1      44.346  29.015  34.050  1.00  0.00     0.049 A 
ATOM     60  H   UNL A   1      42.687  29.217  32.764  1.00  0.00     0.167 HD
ATOM     61  C   UNL A   1      44.721  27.288  32.308  1.00  0.00     0.074 A 
ATOM     62  C   UNL A   1      45.489  26.220  31.701  1.00  0.00     0.031 C 
ATOM     63  C   UNL A   1      45.102  27.960  33.423  1.00  0.00     0.031 A 
BRANCH  50  64
ATOM     64  C   UNL A   1      41.148  32.366  35.208  1.00  0.00    -0.014 A 
ATOM     65  C   UNL A   1      40.378  32.081  36.350  1.00  0.00     0.010 A 
ATOM     66  C   UNL A   1      41.642  33.671  35.024  1.00  0.00     0.010 A 
ATOM     67  C   UNL A   1      40.081  33.086  37.273  1.00  0.00     0.020 A 
ATOM     68  C   UNL A   1      41.371  34.672  35.961  1.00  0.00     0.020 A 
ATOM     69  C   UNL A   1      40.582  34.375  37.073  1.00  0.00     0.054 A 
BRANCH  69  70
ATOM     70  S   UNL A   1      40.210  35.649  38.311  1.00  0.00     0.124 S 
ATOM     71  O   UNL A   1      41.500  35.807  38.978  1.00  0.00    -0.237 OA
ATOM     72  O   UNL A   1      39.788  36.779  37.487  1.00  0.00    -0.237 OA
ATOM     73  O   UNL A   1      39.159  35.046  39.126  1.00  0.00    -0.744 OA
ENDBRANCH  69  70
ENDBRANCH  50  64
BRANCH  51  74
ATOM     74  C   UNL A   1      43.007  25.244  28.425  1.00  0.00    -0.014 A 
ATOM     75  C   UNL A   1      42.465  23.957  28.590  1.00  0.00     0.010 A 
ATOM     76  C   UNL A   1      43.804  25.510  27.297  1.00  0.00     0.010 A 
ATOM     77  C   UNL A   1      42.724  22.954  27.652  1.00  0.00     0.020 A 
ATOM     78  C   UNL A   1      44.043  24.517  26.342  1.00  0.00     0.020 A 
ATOM     79  C   UNL A   1      43.506  23.242  26.530  1.00  0.00     0.054 A 
BRANCH  79  80
ATOM     80  S   UNL A   1      43.781  21.936  25.301  1.00  0.00     0.124 S 
ATOM     81  O   UNL A   1      45.154  21.531  25.588  1.00  0.00    -0.237 OA
ATOM     82  O   UNL A   1      42.748  20.962  25.643  1.00  0.00    -0.237 OA
ATOM     83  O   UNL A   1      43.584  22.620  24.025  1.00  0.00    -0.744 OA
ENDBRANCH  79  80
ENDBRANCH  51  74
BRANCH  63  84
ATOM     84  C   UNL A   1      46.406  27.561  34.061  1.00  0.00    -0.014 A 
ATOM     85  C   UNL A   1      47.606  28.204  33.714  1.00  0.00     0.010 A 
ATOM     86  C   UNL A   1      46.421  26.573  35.064  1.00  0.00     0.010 A 
ATOM     87  C   UNL A   1      48.804  27.847  34.338  1.00  0.00     0.020 A 
ATOM     88  C   UNL A   1      47.612  26.236  35.711  1.00  0.00     0.020 A 
ATOM     89  C   UNL A   1      48.798  26.866  35.333  1.00  0.00     0.054 A 
BRANCH  89  90
ATOM     90  S   UNL A   1      50.362  26.454  36.155  1.00  0.00     0.124 S 
ATOM     91  O   UNL A   1      49.933  26.235  37.534  1.00  0.00    -0.237 OA
ATOM     92  O   UNL A   1      50.794  25.259  35.435  1.00  0.00    -0.237 OA
ATOM     93  O   UNL A   1      51.190  27.638  35.941  1.00  0.00    -0.744 OA
ENDBRANCH  89  90
ENDBRANCH  63  84
ENDBRANCH  37  38
ENDBRANCH  29  32
ENDBRANCH  27  28
ENDBRANCH  26  27
ENDBRANCH   1  26
TORSDOF 17
ENDMDL
