MODEL 1
REMARK VINA RESULT:     -10.7      0.000      0.000
REMARK SMILES NC(=O)C[C@@H](NC(=O)c1ccc(F)cc1)C(=O)NCCCCCCNC(=O)c1ccc(-c2c3nc(c(-c4ccc(S(=O)(=O)[O-])cc4)c4ccc([nH]4)c(-c4ccc(S(=O)(=O)[O-])cc4)c4nc(c(-c5ccc(S(=O)(=O)[O-])cc5)c5ccc2[nH]5)C=C4)C=C3)cc1
REMARK SMILES IDX 22 1 21 2 20 3 19 4 18 5 16 6 17 7 5 9 4 10 2 11 1 12 3 15
REMARK SMILES IDX 6 16 7 17 8 19 9 20 10 21 15 22 11 23 14 24 12 25 13 26
REMARK SMILES IDX 23 27 24 28 25 29 26 30 27 32 28 33 29 34 87 35 30 36 86 37
REMARK SMILES IDX 31 38 32 39 33 40 80 41 34 42 85 43 79 44 81 45 35 46 84 47
REMARK SMILES IDX 78 48 77 49 36 51 66 52 47 53 65 54 48 55 51 56 64 57 82 58
REMARK SMILES IDX 49 59 50 60 63 62 83 63 52 64 37 65 38 66 46 67 39 68 45 69
REMARK SMILES IDX 40 70 41 71 42 72 43 73 44 74 67 75 68 76 76 77 69 78 75 79
REMARK SMILES IDX 70 80 71 81 72 82 73 83 74 84 53 85 54 86 62 87 55 88 61 89
REMARK SMILES IDX 56 90 57 91 58 92 59 93 60 94
REMARK H PARENT 18 8 1 13 1 14 6 18 25 31 81 50 51 61
REMARK Flexibility Score: inf
ROOT
ATOM      1  C   UNL A   1      33.300  27.632  24.904  1.00  0.00     0.002 C 
ENDROOT
BRANCH   1   2
ATOM      2  C   UNL A   1      33.912  26.309  24.435  1.00  0.00     0.002 C 
BRANCH   2   3
ATOM      3  C   UNL A   1      34.164  25.287  25.550  1.00  0.00     0.021 C 
BRANCH   3   4
ATOM      4  C   UNL A   1      35.188  24.225  25.172  1.00  0.00     0.116 C 
BRANCH   4   5
ATOM      5  N   UNL A   1      35.282  23.227  26.221  1.00  0.00    -0.354 N 
ATOM      6  C   UNL A   1      34.478  22.167  26.496  1.00  0.00     0.243 C 
ATOM      7  O   UNL A   1      34.684  21.543  27.543  1.00  0.00    -0.273 OA
ATOM      8  H   UNL A   1      36.049  23.335  26.829  1.00  0.00     0.163 HD
BRANCH   6   9
ATOM      9  C   UNL A   1      33.269  21.828  25.614  1.00  0.00     0.180 C 
BRANCH   9  10
ATOM     10  C   UNL A   1      33.630  20.493  24.937  1.00  0.00     0.134 C 
BRANCH  10  11
ATOM     11  C   UNL A   1      32.747  19.350  25.349  1.00  0.00     0.220 C 
ATOM     12  N   UNL A   1      33.009  18.832  26.585  1.00  0.00    -0.370 N 
ATOM     13  H   UNL A   1      32.472  18.080  26.926  1.00  0.00     0.159 HD
ATOM     14  H   UNL A   1      33.732  19.210  27.134  1.00  0.00     0.159 HD
ATOM     15  O   UNL A   1      31.858  18.898  24.640  1.00  0.00    -0.275 OA
ENDBRANCH  10  11
ENDBRANCH   9  10
BRANCH   9  16
ATOM     16  N   UNL A   1      31.957  21.798  26.291  1.00  0.00    -0.340 N 
ATOM     17  C   UNL A   1      30.760  22.399  25.967  1.00  0.00     0.251 C 
ATOM     18  H   UNL A   1      31.933  21.258  27.113  1.00  0.00     0.164 HD
ATOM     19  O   UNL A   1      29.718  21.941  26.430  1.00  0.00    -0.269 OA
BRANCH  17  20
ATOM     20  C   UNL A   1      30.711  23.684  25.239  1.00  0.00     0.040 A 
ATOM     21  C   UNL A   1      30.401  24.896  25.861  1.00  0.00     0.017 A 
ATOM     22  C   UNL A   1      30.939  23.642  23.854  1.00  0.00     0.017 A 
ATOM     23  C   UNL A   1      30.193  26.035  25.077  1.00  0.00     0.040 A 
ATOM     24  C   UNL A   1      30.741  24.784  23.078  1.00  0.00     0.040 A 
ATOM     25  C   UNL A   1      30.343  25.964  23.694  1.00  0.00     0.123 A 
ATOM     26  F   UNL A   1      30.087  27.043  22.944  1.00  0.00    -0.207 F 
ENDBRANCH  17  20
ENDBRANCH   9  16
ENDBRANCH   6   9
ENDBRANCH   4   5
ENDBRANCH   3   4
ENDBRANCH   2   3
ENDBRANCH   1   2
BRANCH   1  27
ATOM     27  C   UNL A   1      34.184  28.457  25.839  1.00  0.00     0.021 C 
BRANCH  27  28
ATOM     28  C   UNL A   1      33.620  28.628  27.242  1.00  0.00     0.116 C 
BRANCH  28  29
ATOM     29  N   UNL A   1      33.517  30.028  27.624  1.00  0.00    -0.352 N 
ATOM     30  C   UNL A   1      34.443  30.807  28.268  1.00  0.00     0.251 C 
ATOM     31  H   UNL A   1      32.671  30.473  27.389  1.00  0.00     0.163 HD
ATOM     32  O   UNL A   1      34.136  31.922  28.680  1.00  0.00    -0.269 OA
BRANCH  30  33
ATOM     33  C   UNL A   1      35.802  30.275  28.482  1.00  0.00     0.039 A 
ATOM     34  C   UNL A   1      36.747  30.400  27.462  1.00  0.00     0.014 A 
ATOM     35  C   UNL A   1      36.147  29.684  29.701  1.00  0.00     0.014 A 
ATOM     36  C   UNL A   1      38.058  29.980  27.687  1.00  0.00     0.010 A 
ATOM     37  C   UNL A   1      37.470  29.340  29.950  1.00  0.00     0.010 A 
ATOM     38  C   UNL A   1      38.437  29.478  28.944  1.00  0.00    -0.014 A 
BRANCH  38  39
ATOM     39  C   UNL A   1      39.839  29.077  29.219  1.00  0.00     0.031 A 
ATOM     40  C   UNL A   1      40.790  30.061  29.848  1.00  0.00     0.074 A 
ATOM     41  C   UNL A   1      40.268  27.851  28.859  1.00  0.00     0.049 A 
ATOM     42  N   UNL A   1      42.063  29.922  30.111  1.00  0.00    -0.248 NA
ATOM     43  C   UNL A   1      40.243  31.382  30.207  1.00  0.00     0.031 C 
ATOM     44  C   UNL A   1      39.451  26.822  28.211  1.00  0.00     0.029 A 
ATOM     45  N   UNL A   1      41.501  27.262  28.985  1.00  0.00    -0.354 N 
ATOM     46  C   UNL A   1      42.471  31.134  30.656  1.00  0.00     0.074 A 
ATOM     47  C   UNL A   1      41.326  32.017  30.632  1.00  0.00     0.031 C 
ATOM     48  C   UNL A   1      40.195  25.719  28.028  1.00  0.00     0.029 A 
ATOM     49  C   UNL A   1      41.550  25.975  28.502  1.00  0.00     0.049 A 
ATOM     50  H   UNL A   1      42.277  27.718  29.383  1.00  0.00     0.167 HD
ATOM     51  C   UNL A   1      43.681  31.474  31.159  1.00  0.00     0.031 A 
ATOM     52  C   UNL A   1      42.575  25.103  28.443  1.00  0.00     0.031 A 
ATOM     53  C   UNL A   1      44.813  30.589  31.194  1.00  0.00     0.049 A 
ATOM     54  C   UNL A   1      43.918  25.516  28.982  1.00  0.00     0.074 A 
ATOM     55  C   UNL A   1      46.074  30.826  31.714  1.00  0.00     0.029 A 
ATOM     56  N   UNL A   1      44.823  29.295  30.695  1.00  0.00    -0.354 N 
ATOM     57  N   UNL A   1      44.269  26.651  29.540  1.00  0.00    -0.248 NA
ATOM     58  C   UNL A   1      45.001  24.527  28.894  1.00  0.00     0.031 C 
ATOM     59  C   UNL A   1      46.860  29.691  31.488  1.00  0.00     0.029 A 
ATOM     60  C   UNL A   1      46.071  28.727  30.880  1.00  0.00     0.049 A 
ATOM     61  H   UNL A   1      44.055  28.847  30.273  1.00  0.00     0.167 HD
ATOM     62  C   UNL A   1      45.604  26.500  29.898  1.00  0.00     0.074 A 
ATOM     63  C   UNL A   1      45.992  25.159  29.509  1.00  0.00     0.031 C 
ATOM     64  C   UNL A   1      46.436  27.389  30.494  1.00  0.00     0.031 A 
BRANCH  51  65
ATOM     65  C   UNL A   1      43.839  32.861  31.724  1.00  0.00    -0.014 A 
ATOM     66  C   UNL A   1      44.013  33.970  30.875  1.00  0.00     0.010 A 
ATOM     67  C   UNL A   1      43.755  33.068  33.112  1.00  0.00     0.010 A 
ATOM     68  C   UNL A   1      44.132  35.256  31.406  1.00  0.00     0.020 A 
ATOM     69  C   UNL A   1      43.844  34.358  33.646  1.00  0.00     0.020 A 
ATOM     70  C   UNL A   1      44.045  35.442  32.789  1.00  0.00     0.054 A 
BRANCH  70  71
ATOM     71  S   UNL A   1      44.159  37.129  33.445  1.00  0.00     0.124 S 
ATOM     72  O   UNL A   1      45.354  37.047  34.279  1.00  0.00    -0.237 OA
ATOM     73  O   UNL A   1      44.293  37.934  32.233  1.00  0.00    -0.237 OA
ATOM     74  O   UNL A   1      42.903  37.304  34.171  1.00  0.00    -0.744 OA
ENDBRANCH  70  71
ENDBRANCH  51  65
BRANCH  52  75
ATOM     75  C   UNL A   1      42.377  23.746  27.860  1.00  0.00    -0.014 A 
ATOM     76  C   UNL A   1      42.241  22.623  28.695  1.00  0.00     0.010 A 
ATOM     77  C   UNL A   1      42.350  23.567  26.465  1.00  0.00     0.010 A 
ATOM     78  C   UNL A   1      42.118  21.343  28.147  1.00  0.00     0.020 A 
ATOM     79  C   UNL A   1      42.195  22.292  25.914  1.00  0.00     0.020 A 
ATOM     80  C   UNL A   1      42.100  21.185  26.759  1.00  0.00     0.054 A 
BRANCH  80  81
ATOM     81  S   UNL A   1      41.926  19.517  26.069  1.00  0.00     0.124 S 
ATOM     82  O   UNL A   1      42.333  18.681  27.193  1.00  0.00    -0.237 OA
ATOM     83  O   UNL A   1      40.509  19.465  25.720  1.00  0.00    -0.237 OA
ATOM     84  O   UNL A   1      42.840  19.523  24.928  1.00  0.00    -0.744 OA
ENDBRANCH  80  81
ENDBRANCH  52  75
BRANCH  64  85
ATOM     85  C   UNL A   1      47.835  26.928  30.805  1.00  0.00    -0.014 A 
ATOM     86  C   UNL A   1      48.893  27.152  29.907  1.00  0.00     0.010 A 
ATOM     87  C   UNL A   1      48.102  26.309  32.040  1.00  0.00     0.010 A 
ATOM     88  C   UNL A   1      50.188  26.735  30.225  1.00  0.00     0.020 A 
ATOM     89  C   UNL A   1      49.400  25.918  32.374  1.00  0.00     0.020 A 
ATOM     90  C   UNL A   1      50.433  26.121  31.458  1.00  0.00     0.054 A 
BRANCH  90  91
ATOM     91  S   UNL A   1      52.130  25.630  31.865  1.00  0.00     0.124 S 
ATOM     92  O   UNL A   1      51.966  24.218  32.199  1.00  0.00    -0.237 OA
ATOM     93  O   UNL A   1      52.849  25.902  30.622  1.00  0.00    -0.237 OA
ATOM     94  O   UNL A   1      52.483  26.499  32.984  1.00  0.00    -0.744 OA
ENDBRANCH  90  91
ENDBRANCH  64  85
ENDBRANCH  38  39
ENDBRANCH  30  33
ENDBRANCH  28  29
ENDBRANCH  27  28
ENDBRANCH   1  27
TORSDOF 20
ENDMDL
MODEL 2
REMARK VINA RESULT:     -10.0      1.872      2.973
REMARK SMILES NC(=O)C[C@@H](NC(=O)c1ccc(F)cc1)C(=O)NCCCCCCNC(=O)c1ccc(-c2c3nc(c(-c4ccc(S(=O)(=O)[O-])cc4)c4ccc([nH]4)c(-c4ccc(S(=O)(=O)[O-])cc4)c4nc(c(-c5ccc(S(=O)(=O)[O-])cc5)c5ccc2[nH]5)C=C4)C=C3)cc1
REMARK SMILES IDX 22 1 21 2 20 3 19 4 18 5 16 6 17 7 5 9 4 10 2 11 1 12 3 15
REMARK SMILES IDX 6 16 7 17 8 19 9 20 10 21 15 22 11 23 14 24 12 25 13 26
REMARK SMILES IDX 23 27 24 28 25 29 26 30 27 32 28 33 29 34 87 35 30 36 86 37
REMARK SMILES IDX 31 38 32 39 33 40 80 41 34 42 85 43 79 44 81 45 35 46 84 47
REMARK SMILES IDX 78 48 77 49 36 51 66 52 47 53 65 54 48 55 51 56 64 57 82 58
REMARK SMILES IDX 49 59 50 60 63 62 83 63 52 64 37 65 38 66 46 67 39 68 45 69
REMARK SMILES IDX 40 70 41 71 42 72 43 73 44 74 67 75 68 76 76 77 69 78 75 79
REMARK SMILES IDX 70 80 71 81 72 82 73 83 74 84 53 85 54 86 62 87 55 88 61 89
REMARK SMILES IDX 56 90 57 91 58 92 59 93 60 94
REMARK H PARENT 18 8 1 13 1 14 6 18 25 31 81 50 51 61
REMARK Flexibility Score: inf
ROOT
ATOM      1  C   UNL A   1      31.575  27.816  26.090  1.00  0.00     0.002 C 
ENDROOT
BRANCH   1   2
ATOM      2  C   UNL A   1      31.066  27.146  24.810  1.00  0.00     0.002 C 
BRANCH   2   3
ATOM      3  C   UNL A   1      31.385  27.906  23.517  1.00  0.00     0.021 C 
BRANCH   3   4
ATOM      4  C   UNL A   1      32.789  27.637  22.992  1.00  0.00     0.116 C 
BRANCH   4   5
ATOM      5  N   UNL A   1      32.722  26.907  21.740  1.00  0.00    -0.354 N 
ATOM      6  C   UNL A   1      32.980  25.600  21.474  1.00  0.00     0.243 C 
ATOM      7  O   UNL A   1      32.997  25.245  20.291  1.00  0.00    -0.273 OA
ATOM      8  H   UNL A   1      32.448  27.442  20.962  1.00  0.00     0.163 HD
BRANCH   6   9
ATOM      9  C   UNL A   1      33.369  24.617  22.587  1.00  0.00     0.180 C 
BRANCH   9  10
ATOM     10  C   UNL A   1      32.506  23.367  22.336  1.00  0.00     0.134 C 
BRANCH  10  11
ATOM     11  C   UNL A   1      31.423  23.167  23.356  1.00  0.00     0.220 C 
ATOM     12  N   UNL A   1      30.323  23.960  23.198  1.00  0.00    -0.370 N 
ATOM     13  H   UNL A   1      29.570  23.887  23.827  1.00  0.00     0.159 HD
ATOM     14  H   UNL A   1      30.283  24.602  22.454  1.00  0.00     0.159 HD
ATOM     15  O   UNL A   1      31.504  22.362  24.275  1.00  0.00    -0.275 OA
ENDBRANCH  10  11
ENDBRANCH   9  10
BRANCH   9  16
ATOM     16  N   UNL A   1      34.809  24.312  22.712  1.00  0.00    -0.340 N 
ATOM     17  C   UNL A   1      35.472  23.391  23.493  1.00  0.00     0.251 C 
ATOM     18  H   UNL A   1      35.393  24.858  22.140  1.00  0.00     0.164 HD
ATOM     19  O   UNL A   1      36.601  23.035  23.167  1.00  0.00    -0.269 OA
BRANCH  17  20
ATOM     20  C   UNL A   1      34.944  22.967  24.807  1.00  0.00     0.040 A 
ATOM     21  C   UNL A   1      34.927  21.634  25.223  1.00  0.00     0.017 A 
ATOM     22  C   UNL A   1      34.396  23.967  25.627  1.00  0.00     0.017 A 
ATOM     23  C   UNL A   1      34.246  21.290  26.395  1.00  0.00     0.040 A 
ATOM     24  C   UNL A   1      33.728  23.620  26.801  1.00  0.00     0.040 A 
ATOM     25  C   UNL A   1      33.635  22.281  27.160  1.00  0.00     0.123 A 
ATOM     26  F   UNL A   1      32.937  21.939  28.250  1.00  0.00    -0.207 F 
ENDBRANCH  17  20
ENDBRANCH   9  16
ENDBRANCH   6   9
ENDBRANCH   4   5
ENDBRANCH   3   4
ENDBRANCH   2   3
ENDBRANCH   1   2
BRANCH   1  27
ATOM     27  C   UNL A   1      32.865  27.224  26.658  1.00  0.00     0.021 C 
BRANCH  27  28
ATOM     28  C   UNL A   1      34.062  28.163  26.597  1.00  0.00     0.116 C 
BRANCH  28  29
ATOM     29  N   UNL A   1      33.696  29.537  26.898  1.00  0.00    -0.352 N 
ATOM     30  C   UNL A   1      34.388  30.464  27.634  1.00  0.00     0.251 C 
ATOM     31  H   UNL A   1      32.837  29.841  26.525  1.00  0.00     0.163 HD
ATOM     32  O   UNL A   1      33.860  31.527  27.948  1.00  0.00    -0.269 OA
BRANCH  30  33
ATOM     33  C   UNL A   1      35.765  30.154  28.063  1.00  0.00     0.039 A 
ATOM     34  C   UNL A   1      35.980  29.673  29.355  1.00  0.00     0.014 A 
ATOM     35  C   UNL A   1      36.834  30.308  27.175  1.00  0.00     0.014 A 
ATOM     36  C   UNL A   1      37.266  29.292  29.740  1.00  0.00     0.010 A 
ATOM     37  C   UNL A   1      38.098  29.855  27.534  1.00  0.00     0.010 A 
ATOM     38  C   UNL A   1      38.328  29.350  28.822  1.00  0.00    -0.014 A 
BRANCH  38  39
ATOM     39  C   UNL A   1      39.692  28.899  29.195  1.00  0.00     0.031 A 
ATOM     40  C   UNL A   1      40.615  29.834  29.931  1.00  0.00     0.074 A 
ATOM     41  C   UNL A   1      40.114  27.672  28.830  1.00  0.00     0.049 A 
ATOM     42  N   UNL A   1      41.858  29.648  30.290  1.00  0.00    -0.248 NA
ATOM     43  C   UNL A   1      40.078  31.159  30.288  1.00  0.00     0.031 C 
ATOM     44  C   UNL A   1      39.324  26.688  28.086  1.00  0.00     0.029 A 
ATOM     45  N   UNL A   1      41.316  27.043  29.035  1.00  0.00    -0.354 N 
ATOM     46  C   UNL A   1      42.254  30.830  30.905  1.00  0.00     0.074 A 
ATOM     47  C   UNL A   1      41.140  31.747  30.818  1.00  0.00     0.031 C 
ATOM     48  C   UNL A   1      40.050  25.569  27.926  1.00  0.00     0.029 A 
ATOM     49  C   UNL A   1      41.369  25.770  28.516  1.00  0.00     0.049 A 
ATOM     50  H   UNL A   1      42.070  27.462  29.509  1.00  0.00     0.167 HD
ATOM     51  C   UNL A   1      43.429  31.118  31.514  1.00  0.00     0.031 A 
ATOM     52  C   UNL A   1      42.371  24.869  28.510  1.00  0.00     0.031 A 
ATOM     53  C   UNL A   1      44.530  30.198  31.610  1.00  0.00     0.049 A 
ATOM     54  C   UNL A   1      43.676  25.225  29.168  1.00  0.00     0.074 A 
ATOM     55  C   UNL A   1      45.750  30.381  32.238  1.00  0.00     0.029 A 
ATOM     56  N   UNL A   1      44.544  28.921  31.072  1.00  0.00    -0.354 N 
ATOM     57  N   UNL A   1      44.012  26.332  29.789  1.00  0.00    -0.248 NA
ATOM     58  C   UNL A   1      44.735  24.207  29.134  1.00  0.00     0.031 C 
ATOM     59  C   UNL A   1      46.520  29.231  32.038  1.00  0.00     0.029 A 
ATOM     60  C   UNL A   1      45.757  28.310  31.337  1.00  0.00     0.049 A 
ATOM     61  H   UNL A   1      43.800  28.510  30.575  1.00  0.00     0.167 HD
ATOM     62  C   UNL A   1      45.309  26.129  30.248  1.00  0.00     0.074 A 
ATOM     63  C   UNL A   1      45.690  24.789  29.847  1.00  0.00     0.031 C 
ATOM     64  C   UNL A   1      46.114  26.974  30.938  1.00  0.00     0.031 A 
BRANCH  51  65
ATOM     65  C   UNL A   1      43.578  32.482  32.135  1.00  0.00    -0.014 A 
ATOM     66  C   UNL A   1      44.063  33.567  31.382  1.00  0.00     0.010 A 
ATOM     67  C   UNL A   1      43.178  32.696  33.466  1.00  0.00     0.010 A 
ATOM     68  C   UNL A   1      44.174  34.835  31.959  1.00  0.00     0.020 A 
ATOM     69  C   UNL A   1      43.260  33.969  34.038  1.00  0.00     0.020 A 
ATOM     70  C   UNL A   1      43.769  35.028  33.284  1.00  0.00     0.054 A 
BRANCH  70  71
ATOM     71  S   UNL A   1      43.884  36.695  33.989  1.00  0.00     0.124 S 
ATOM     72  O   UNL A   1      44.531  37.434  32.909  1.00  0.00    -0.237 OA
ATOM     73  O   UNL A   1      42.485  37.035  34.235  1.00  0.00    -0.237 OA
ATOM     74  O   UNL A   1      44.697  36.507  35.189  1.00  0.00    -0.744 OA
ENDBRANCH  70  71
ENDBRANCH  51  65
BRANCH  52  75
ATOM     75  C   UNL A   1      42.183  23.538  27.869  1.00  0.00    -0.014 A 
ATOM     76  C   UNL A   1      41.645  22.463  28.598  1.00  0.00     0.010 A 
ATOM     77  C   UNL A   1      42.566  23.330  26.531  1.00  0.00     0.010 A 
ATOM     78  C   UNL A   1      41.528  21.198  28.016  1.00  0.00     0.020 A 
ATOM     79  C   UNL A   1      42.420  22.075  25.935  1.00  0.00     0.020 A 
ATOM     80  C   UNL A   1      41.920  21.011  26.688  1.00  0.00     0.054 A 
BRANCH  80  81
ATOM     81  S   UNL A   1      41.746  19.365  25.946  1.00  0.00     0.124 S 
ATOM     82  O   UNL A   1      42.658  19.447  24.810  1.00  0.00    -0.237 OA
ATOM     83  O   UNL A   1      42.165  18.483  27.033  1.00  0.00    -0.237 OA
ATOM     84  O   UNL A   1      40.326  19.292  25.607  1.00  0.00    -0.744 OA
ENDBRANCH  80  81
ENDBRANCH  52  75
BRANCH  64  85
ATOM     85  C   UNL A   1      47.470  26.462  31.344  1.00  0.00    -0.014 A 
ATOM     86  C   UNL A   1      47.657  25.775  32.556  1.00  0.00     0.010 A 
ATOM     87  C   UNL A   1      48.562  26.624  30.471  1.00  0.00     0.010 A 
ATOM     88  C   UNL A   1      48.920  25.289  32.904  1.00  0.00     0.020 A 
ATOM     89  C   UNL A   1      49.819  26.114  30.801  1.00  0.00     0.020 A 
ATOM     90  C   UNL A   1      49.993  25.462  32.022  1.00  0.00     0.054 A 
BRANCH  90  91
ATOM     91  S   UNL A   1      51.612  24.782  32.477  1.00  0.00     0.124 S 
ATOM     92  O   UNL A   1      51.410  23.351  32.270  1.00  0.00    -0.237 OA
ATOM     93  O   UNL A   1      52.511  25.434  31.526  1.00  0.00    -0.237 OA
ATOM     94  O   UNL A   1      51.782  25.193  33.868  1.00  0.00    -0.744 OA
ENDBRANCH  90  91
ENDBRANCH  64  85
ENDBRANCH  38  39
ENDBRANCH  30  33
ENDBRANCH  28  29
ENDBRANCH  27  28
ENDBRANCH   1  27
TORSDOF 20
ENDMDL
MODEL 3
REMARK VINA RESULT:      -9.6      3.396      7.713
REMARK SMILES NC(=O)C[C@@H](NC(=O)c1ccc(F)cc1)C(=O)NCCCCCCNC(=O)c1ccc(-c2c3nc(c(-c4ccc(S(=O)(=O)[O-])cc4)c4ccc([nH]4)c(-c4ccc(S(=O)(=O)[O-])cc4)c4nc(c(-c5ccc(S(=O)(=O)[O-])cc5)c5ccc2[nH]5)C=C4)C=C3)cc1
REMARK SMILES IDX 22 1 21 2 20 3 19 4 18 5 16 6 17 7 5 9 4 10 2 11 1 12 3 15
REMARK SMILES IDX 6 16 7 17 8 19 9 20 10 21 15 22 11 23 14 24 12 25 13 26
REMARK SMILES IDX 23 27 24 28 25 29 26 30 27 32 28 33 29 34 87 35 30 36 86 37
REMARK SMILES IDX 31 38 32 39 33 40 80 41 34 42 85 43 79 44 81 45 35 46 84 47
REMARK SMILES IDX 78 48 77 49 36 51 66 52 47 53 65 54 48 55 51 56 64 57 82 58
REMARK SMILES IDX 49 59 50 60 63 62 83 63 52 64 37 65 38 66 46 67 39 68 45 69
REMARK SMILES IDX 40 70 41 71 42 72 43 73 44 74 67 75 68 76 76 77 69 78 75 79
REMARK SMILES IDX 70 80 71 81 72 82 73 83 74 84 53 85 54 86 62 87 55 88 61 89
REMARK SMILES IDX 56 90 57 91 58 92 59 93 60 94
REMARK H PARENT 18 8 1 13 1 14 6 18 25 31 81 50 51 61
REMARK Flexibility Score: inf
ROOT
ATOM      1  C   UNL A   1      36.724  20.664  25.038  1.00  0.00     0.002 C 
ENDROOT
BRANCH   1   2
ATOM      2  C   UNL A   1      36.840  22.137  24.634  1.00  0.00     0.002 C 
BRANCH   2   3
ATOM      3  C   UNL A   1      36.590  23.136  25.770  1.00  0.00     0.021 C 
BRANCH   3   4
ATOM      4  C   UNL A   1      35.145  23.609  25.847  1.00  0.00     0.116 C 
BRANCH   4   5
ATOM      5  N   UNL A   1      34.479  22.998  26.983  1.00  0.00    -0.354 N 
ATOM      6  C   UNL A   1      33.155  22.835  27.237  1.00  0.00     0.243 C 
ATOM      7  O   UNL A   1      32.830  22.414  28.352  1.00  0.00    -0.273 OA
ATOM      8  H   UNL A   1      35.082  22.647  27.677  1.00  0.00     0.163 HD
BRANCH   6   9
ATOM      9  C   UNL A   1      32.085  23.280  26.231  1.00  0.00     0.180 C 
BRANCH   9  10
ATOM     10  C   UNL A   1      31.885  22.071  25.299  1.00  0.00     0.134 C 
BRANCH  10  11
ATOM     11  C   UNL A   1      32.131  22.380  23.850  1.00  0.00     0.220 C 
ATOM     12  N   UNL A   1      32.292  23.703  23.559  1.00  0.00    -0.370 N 
ATOM     13  H   UNL A   1      32.457  23.986  22.630  1.00  0.00     0.159 HD
ATOM     14  H   UNL A   1      32.244  24.375  24.276  1.00  0.00     0.159 HD
ATOM     15  O   UNL A   1      32.179  21.522  22.979  1.00  0.00    -0.275 OA
ENDBRANCH  10  11
ENDBRANCH   9  10
BRANCH   9  16
ATOM     16  N   UNL A   1      30.821  23.784  26.806  1.00  0.00    -0.340 N 
ATOM     17  C   UNL A   1      30.081  24.909  26.514  1.00  0.00     0.251 C 
ATOM     18  H   UNL A   1      30.442  23.220  27.518  1.00  0.00     0.164 HD
ATOM     19  O   UNL A   1      28.892  24.937  26.821  1.00  0.00    -0.269 OA
BRANCH  17  20
ATOM     20  C   UNL A   1      30.717  26.147  26.017  1.00  0.00     0.040 A 
ATOM     21  C   UNL A   1      31.563  26.932  26.803  1.00  0.00     0.017 A 
ATOM     22  C   UNL A   1      30.395  26.550  24.711  1.00  0.00     0.017 A 
ATOM     23  C   UNL A   1      31.978  28.180  26.328  1.00  0.00     0.040 A 
ATOM     24  C   UNL A   1      30.821  27.791  24.238  1.00  0.00     0.040 A 
ATOM     25  C   UNL A   1      31.586  28.606  25.062  1.00  0.00     0.123 A 
ATOM     26  F   UNL A   1      31.939  29.826  24.636  1.00  0.00    -0.207 F 
ENDBRANCH  17  20
ENDBRANCH   9  16
ENDBRANCH   6   9
ENDBRANCH   4   5
ENDBRANCH   3   4
ENDBRANCH   2   3
ENDBRANCH   1   2
BRANCH   1  27
ATOM     27  C   UNL A   1      38.026  19.868  24.954  1.00  0.00     0.021 C 
BRANCH  27  28
ATOM     28  C   UNL A   1      39.165  20.443  25.785  1.00  0.00     0.116 C 
BRANCH  28  29
ATOM     29  N   UNL A   1      40.192  19.454  26.066  1.00  0.00    -0.352 N 
ATOM     30  C   UNL A   1      41.513  19.658  26.372  1.00  0.00     0.251 C 
ATOM     31  H   UNL A   1      39.901  18.514  26.032  1.00  0.00     0.163 HD
ATOM     32  O   UNL A   1      42.295  18.712  26.406  1.00  0.00    -0.269 OA
BRANCH  30  33
ATOM     33  C   UNL A   1      41.984  21.032  26.633  1.00  0.00     0.039 A 
ATOM     34  C   UNL A   1      42.234  21.424  27.948  1.00  0.00     0.014 A 
ATOM     35  C   UNL A   1      42.207  21.916  25.573  1.00  0.00     0.014 A 
ATOM     36  C   UNL A   1      42.763  22.691  28.197  1.00  0.00     0.010 A 
ATOM     37  C   UNL A   1      42.807  23.145  25.816  1.00  0.00     0.010 A 
ATOM     38  C   UNL A   1      43.085  23.548  27.131  1.00  0.00    -0.014 A 
BRANCH  38  39
ATOM     39  C   UNL A   1      43.699  24.877  27.372  1.00  0.00     0.031 A 
ATOM     40  C   UNL A   1      42.848  26.016  27.868  1.00  0.00     0.074 A 
ATOM     41  C   UNL A   1      45.004  25.071  27.098  1.00  0.00     0.049 A 
ATOM     42  N   UNL A   1      43.184  27.262  28.080  1.00  0.00    -0.248 NA
ATOM     43  C   UNL A   1      41.429  25.723  28.137  1.00  0.00     0.031 C 
ATOM     44  C   UNL A   1      45.924  24.054  26.582  1.00  0.00     0.029 A 
ATOM     45  N   UNL A   1      45.785  26.193  27.215  1.00  0.00    -0.354 N 
ATOM     46  C   UNL A   1      42.022  27.901  28.498  1.00  0.00     0.074 A 
ATOM     47  C   UNL A   1      40.960  26.921  28.453  1.00  0.00     0.031 C 
ATOM     48  C   UNL A   1      47.149  24.590  26.458  1.00  0.00     0.029 A 
ATOM     49  C   UNL A   1      47.095  25.995  26.843  1.00  0.00     0.049 A 
ATOM     50  H   UNL A   1      45.441  27.058  27.535  1.00  0.00     0.167 HD
ATOM     51  C   UNL A   1      41.859  29.180  28.910  1.00  0.00     0.031 A 
ATOM     52  C   UNL A   1      48.133  26.854  26.811  1.00  0.00     0.031 A 
ATOM     53  C   UNL A   1      42.920  30.148  28.967  1.00  0.00     0.049 A 
ATOM     54  C   UNL A   1      47.917  28.278  27.247  1.00  0.00     0.074 A 
ATOM     55  C   UNL A   1      42.864  31.460  29.404  1.00  0.00     0.029 A 
ATOM     56  N   UNL A   1      44.230  29.909  28.582  1.00  0.00    -0.354 N 
ATOM     57  N   UNL A   1      46.820  28.848  27.686  1.00  0.00    -0.248 NA
ATOM     58  C   UNL A   1      49.081  29.172  27.192  1.00  0.00     0.031 C 
ATOM     59  C   UNL A   1      44.132  32.028  29.239  1.00  0.00     0.029 A 
ATOM     60  C   UNL A   1      44.989  31.053  28.755  1.00  0.00     0.049 A 
ATOM     61  H   UNL A   1      44.570  29.052  28.237  1.00  0.00     0.167 HD
ATOM     62  C   UNL A   1      47.171  30.159  27.992  1.00  0.00     0.074 A 
ATOM     63  C   UNL A   1      48.585  30.291  27.701  1.00  0.00     0.031 C 
ATOM     64  C   UNL A   1      46.396  31.163  28.468  1.00  0.00     0.031 A 
BRANCH  51  65
ATOM     65  C   UNL A   1      40.480  29.603  29.346  1.00  0.00    -0.014 A 
ATOM     66  C   UNL A   1      40.140  29.659  30.710  1.00  0.00     0.010 A 
ATOM     67  C   UNL A   1      39.532  30.002  28.386  1.00  0.00     0.010 A 
ATOM     68  C   UNL A   1      38.867  30.078  31.105  1.00  0.00     0.020 A 
ATOM     69  C   UNL A   1      38.267  30.450  28.780  1.00  0.00     0.020 A 
ATOM     70  C   UNL A   1      37.939  30.472  30.137  1.00  0.00     0.054 A 
BRANCH  70  71
ATOM     71  S   UNL A   1      36.311  31.053  30.685  1.00  0.00     0.124 S 
ATOM     72  O   UNL A   1      36.575  32.458  30.977  1.00  0.00    -0.237 OA
ATOM     73  O   UNL A   1      35.471  30.801  29.516  1.00  0.00    -0.237 OA
ATOM     74  O   UNL A   1      36.020  30.219  31.849  1.00  0.00    -0.744 OA
ENDBRANCH  70  71
ENDBRANCH  51  65
BRANCH  52  75
ATOM     75  C   UNL A   1      49.475  26.395  26.356  1.00  0.00    -0.014 A 
ATOM     76  C   UNL A   1      50.336  25.722  27.241  1.00  0.00     0.010 A 
ATOM     77  C   UNL A   1      49.911  26.652  25.043  1.00  0.00     0.010 A 
ATOM     78  C   UNL A   1      51.620  25.347  26.834  1.00  0.00     0.020 A 
ATOM     79  C   UNL A   1      51.181  26.250  24.623  1.00  0.00     0.020 A 
ATOM     80  C   UNL A   1      52.036  25.618  25.527  1.00  0.00     0.054 A 
BRANCH  80  81
ATOM     81  S   UNL A   1      53.701  25.111  25.015  1.00  0.00     0.124 S 
ATOM     82  O   UNL A   1      54.531  25.705  26.057  1.00  0.00    -0.237 OA
ATOM     83  O   UNL A   1      53.606  23.653  25.032  1.00  0.00    -0.237 OA
ATOM     84  O   UNL A   1      53.843  25.702  23.686  1.00  0.00    -0.744 OA
ENDBRANCH  80  81
ENDBRANCH  52  75
BRANCH  64  85
ATOM     85  C   UNL A   1      47.066  32.481  28.750  1.00  0.00    -0.014 A 
ATOM     86  C   UNL A   1      47.119  33.495  27.777  1.00  0.00     0.010 A 
ATOM     87  C   UNL A   1      47.602  32.727  30.027  1.00  0.00     0.010 A 
ATOM     88  C   UNL A   1      47.727  34.719  28.066  1.00  0.00     0.020 A 
ATOM     89  C   UNL A   1      48.183  33.960  30.330  1.00  0.00     0.020 A 
ATOM     90  C   UNL A   1      48.255  34.943  29.343  1.00  0.00     0.054 A 
BRANCH  90  91
ATOM     91  S   UNL A   1      48.998  36.557  29.707  1.00  0.00     0.124 S 
ATOM     92  O   UNL A   1      48.335  37.423  28.736  1.00  0.00    -0.237 OA
ATOM     93  O   UNL A   1      48.623  36.775  31.103  1.00  0.00    -0.237 OA
ATOM     94  O   UNL A   1      50.424  36.341  29.478  1.00  0.00    -0.744 OA
ENDBRANCH  90  91
ENDBRANCH  64  85
ENDBRANCH  38  39
ENDBRANCH  30  33
ENDBRANCH  28  29
ENDBRANCH  27  28
ENDBRANCH   1  27
TORSDOF 20
ENDMDL
