MODEL 1
REMARK VINA RESULT:     -10.4      0.000      0.000
REMARK SMILES C[C@H]1SCCC[C@]1(Nc1ccc(Cl)cc1)C(=O)NCCCCCCNC(=O)c1ccc(-c2c3nc(c(-c4ccc(S(=O)(=O)[O-])cc4)c4ccc([nH]4)c(-c4ccc(S(=O)(=O)[O-])cc4)c4nc(c(-c5ccc(S(=O)(=O)[O-])cc5)c5ccc2[nH]5)C=C4)C=C3)cc1
REMARK SMILES IDX 22 1 21 2 20 3 19 4 18 5 16 6 17 7 7 9 1 10 2 11 3 12 4 13
REMARK SMILES IDX 6 14 5 15 8 16 9 18 10 19 15 20 11 21 14 22 12 23 13 24
REMARK SMILES IDX 23 25 24 26 25 27 26 28 27 30 28 31 29 32 87 33 30 34 86 35
REMARK SMILES IDX 31 36 32 37 33 38 80 39 34 40 85 41 79 42 81 43 35 44 84 45
REMARK SMILES IDX 78 46 77 47 36 49 66 50 47 51 65 52 48 53 51 54 64 55 82 56
REMARK SMILES IDX 49 57 50 58 63 60 83 61 52 62 37 63 38 64 46 65 39 66 45 67
REMARK SMILES IDX 40 68 41 69 42 70 43 71 44 72 67 73 68 74 76 75 69 76 75 77
REMARK SMILES IDX 70 78 71 79 72 80 73 81 74 82 53 83 54 84 62 85 55 86 61 87
REMARK SMILES IDX 56 88 57 89 58 90 59 91 60 92
REMARK H PARENT 18 8 8 17 25 29 81 48 51 59
REMARK Flexibility Score: inf
ROOT
ATOM      1  C   UNL A   1      34.455  22.560  26.110  1.00  0.00     0.002 C 
ENDROOT
BRANCH   1   2
ATOM      2  C   UNL A   1      34.708  21.851  24.775  1.00  0.00     0.002 C 
BRANCH   2   3
ATOM      3  C   UNL A   1      34.234  22.623  23.544  1.00  0.00     0.021 C 
BRANCH   3   4
ATOM      4  C   UNL A   1      33.411  23.860  23.888  1.00  0.00     0.116 C 
BRANCH   4   5
ATOM      5  N   UNL A   1      33.664  24.912  22.927  1.00  0.00    -0.354 N 
ATOM      6  C   UNL A   1      33.055  26.109  22.707  1.00  0.00     0.246 C 
ATOM      7  O   UNL A   1      33.562  26.779  21.795  1.00  0.00    -0.272 OA
ATOM      8  H   UNL A   1      34.418  24.729  22.321  1.00  0.00     0.163 HD
BRANCH   6   9
ATOM      9  C   UNL A   1      31.795  26.638  23.497  1.00  0.00     0.128 C 
ATOM     10  C   UNL A   1      30.365  24.404  23.212  1.00  0.00     0.022 C 
ATOM     11  C   UNL A   1      30.493  25.908  22.991  1.00  0.00     0.078 C 
ATOM     12  S   UNL A   1      28.957  26.596  23.754  1.00  0.00    -0.156 SA
ATOM     13  C   UNL A   1      29.112  28.278  23.130  1.00  0.00     0.070 C 
ATOM     14  C   UNL A   1      31.660  28.157  23.121  1.00  0.00     0.040 C 
ATOM     15  C   UNL A   1      30.412  28.891  23.616  1.00  0.00     0.014 C 
BRANCH   9  16
ATOM     16  N   UNL A   1      31.922  26.536  24.977  1.00  0.00    -0.370 N 
ATOM     17  H   UNL A   1      31.564  25.715  25.387  1.00  0.00     0.161 HD
BRANCH  16  18
ATOM     18  C   UNL A   1      32.482  27.453  25.848  1.00  0.00     0.035 A 
ATOM     19  C   UNL A   1      31.738  28.347  26.625  1.00  0.00     0.027 A 
ATOM     20  C   UNL A   1      33.877  27.628  25.818  1.00  0.00     0.027 A 
ATOM     21  C   UNL A   1      32.348  29.421  27.286  1.00  0.00     0.022 A 
ATOM     22  C   UNL A   1      34.494  28.711  26.458  1.00  0.00     0.022 A 
ATOM     23  C   UNL A   1      33.720  29.615  27.175  1.00  0.00     0.041 A 
ATOM     24  Cl  UNL A   1      34.450  30.998  27.891  1.00  0.00    -0.084 Cl
ENDBRANCH  16  18
ENDBRANCH   9  16
ENDBRANCH   6   9
ENDBRANCH   4   5
ENDBRANCH   3   4
ENDBRANCH   2   3
ENDBRANCH   1   2
BRANCH   1  25
ATOM     25  C   UNL A   1      35.659  23.313  26.680  1.00  0.00     0.021 C 
BRANCH  25  26
ATOM     26  C   UNL A   1      36.794  23.534  25.684  1.00  0.00     0.116 C 
BRANCH  26  27
ATOM     27  N   UNL A   1      37.897  22.613  25.910  1.00  0.00    -0.352 N 
ATOM     28  C   UNL A   1      39.167  22.879  26.356  1.00  0.00     0.251 C 
ATOM     29  H   UNL A   1      37.706  21.668  25.715  1.00  0.00     0.163 HD
ATOM     30  O   UNL A   1      40.047  22.033  26.269  1.00  0.00    -0.269 OA
BRANCH  28  31
ATOM     31  C   UNL A   1      39.458  24.209  26.929  1.00  0.00     0.039 A 
ATOM     32  C   UNL A   1      39.094  24.475  28.249  1.00  0.00     0.014 A 
ATOM     33  C   UNL A   1      40.115  25.175  26.161  1.00  0.00     0.014 A 
ATOM     34  C   UNL A   1      39.453  25.695  28.825  1.00  0.00     0.010 A 
ATOM     35  C   UNL A   1      40.536  26.357  26.758  1.00  0.00     0.010 A 
ATOM     36  C   UNL A   1      40.210  26.628  28.096  1.00  0.00    -0.014 A 
BRANCH  36  37
ATOM     37  C   UNL A   1      40.689  27.889  28.713  1.00  0.00     0.031 A 
ATOM     38  C   UNL A   1      42.099  27.990  29.224  1.00  0.00     0.074 A 
ATOM     39  C   UNL A   1      39.829  28.913  28.883  1.00  0.00     0.049 A 
ATOM     40  N   UNL A   1      42.679  28.978  29.855  1.00  0.00    -0.248 NA
ATOM     41  C   UNL A   1      42.962  26.816  29.021  1.00  0.00     0.031 C 
ATOM     42  C   UNL A   1      38.430  28.926  28.449  1.00  0.00     0.029 A 
ATOM     43  N   UNL A   1      40.005  30.139  29.472  1.00  0.00    -0.354 N 
ATOM     44  C   UNL A   1      43.967  28.541  30.139  1.00  0.00     0.074 A 
ATOM     45  C   UNL A   1      44.065  27.179  29.659  1.00  0.00     0.031 C 
ATOM     46  C   UNL A   1      37.888  30.116  28.751  1.00  0.00     0.029 A 
ATOM     47  C   UNL A   1      38.880  30.929  29.448  1.00  0.00     0.049 A 
ATOM     48  H   UNL A   1      40.857  30.428  29.873  1.00  0.00     0.167 HD
ATOM     49  C   UNL A   1      44.980  29.216  30.731  1.00  0.00     0.031 A 
ATOM     50  C   UNL A   1      38.667  32.165  29.941  1.00  0.00     0.031 A 
ATOM     51  C   UNL A   1      44.870  30.567  31.213  1.00  0.00     0.049 A 
ATOM     52  C   UNL A   1      39.788  32.873  30.650  1.00  0.00     0.074 A 
ATOM     53  C   UNL A   1      45.850  31.362  31.780  1.00  0.00     0.029 A 
ATOM     54  N   UNL A   1      43.703  31.319  31.202  1.00  0.00    -0.354 N 
ATOM     55  N   UNL A   1      41.022  32.472  30.844  1.00  0.00    -0.248 NA
ATOM     56  C   UNL A   1      39.487  34.196  31.211  1.00  0.00     0.031 C 
ATOM     57  C   UNL A   1      45.260  32.567  32.174  1.00  0.00     0.029 A 
ATOM     58  C   UNL A   1      43.928  32.552  31.791  1.00  0.00     0.049 A 
ATOM     59  H   UNL A   1      42.843  31.020  30.829  1.00  0.00     0.167 HD
ATOM     60  C   UNL A   1      41.653  33.507  31.525  1.00  0.00     0.074 A 
ATOM     61  C   UNL A   1      40.667  34.555  31.699  1.00  0.00     0.031 C 
ATOM     62  C   UNL A   1      42.934  33.582  31.964  1.00  0.00     0.031 A 
BRANCH  49  63
ATOM     63  C   UNL A   1      46.285  28.483  30.917  1.00  0.00    -0.014 A 
ATOM     64  C   UNL A   1      47.291  28.518  29.931  1.00  0.00     0.010 A 
ATOM     65  C   UNL A   1      46.512  27.750  32.095  1.00  0.00     0.010 A 
ATOM     66  C   UNL A   1      48.465  27.779  30.092  1.00  0.00     0.020 A 
ATOM     67  C   UNL A   1      47.701  27.037  32.275  1.00  0.00     0.020 A 
ATOM     68  C   UNL A   1      48.658  27.036  31.259  1.00  0.00     0.054 A 
BRANCH  68  69
ATOM     69  S   UNL A   1      50.184  26.069  31.431  1.00  0.00     0.124 S 
ATOM     70  O   UNL A   1      50.350  25.529  30.084  1.00  0.00    -0.237 OA
ATOM     71  O   UNL A   1      51.161  27.080  31.827  1.00  0.00    -0.237 OA
ATOM     72  O   UNL A   1      49.858  25.085  32.460  1.00  0.00    -0.744 OA
ENDBRANCH  68  69
ENDBRANCH  49  63
BRANCH  50  73
ATOM     73  C   UNL A   1      37.343  32.819  29.754  1.00  0.00    -0.014 A 
ATOM     74  C   UNL A   1      36.349  32.694  30.741  1.00  0.00     0.010 A 
ATOM     75  C   UNL A   1      37.075  33.592  28.610  1.00  0.00     0.010 A 
ATOM     76  C   UNL A   1      35.112  33.326  30.587  1.00  0.00     0.020 A 
ATOM     77  C   UNL A   1      35.849  34.249  28.464  1.00  0.00     0.020 A 
ATOM     78  C   UNL A   1      34.873  34.105  29.452  1.00  0.00     0.054 A 
BRANCH  78  79
ATOM     79  S   UNL A   1      33.283  34.967  29.308  1.00  0.00     0.124 S 
ATOM     80  O   UNL A   1      33.697  36.301  28.885  1.00  0.00    -0.237 OA
ATOM     81  O   UNL A   1      32.586  34.171  28.301  1.00  0.00    -0.237 OA
ATOM     82  O   UNL A   1      32.724  34.882  30.655  1.00  0.00    -0.744 OA
ENDBRANCH  78  79
ENDBRANCH  50  73
BRANCH  62  83
ATOM     83  C   UNL A   1      43.357  34.847  32.665  1.00  0.00    -0.014 A 
ATOM     84  C   UNL A   1      43.846  35.950  31.943  1.00  0.00     0.010 A 
ATOM     85  C   UNL A   1      43.182  34.962  34.056  1.00  0.00     0.010 A 
ATOM     86  C   UNL A   1      44.165  37.140  32.600  1.00  0.00     0.020 A 
ATOM     87  C   UNL A   1      43.471  36.161  34.714  1.00  0.00     0.020 A 
ATOM     88  C   UNL A   1      43.968  37.241  33.982  1.00  0.00     0.054 A 
BRANCH  88  89
ATOM     89  S   UNL A   1      44.314  38.823  34.796  1.00  0.00     0.124 S 
ATOM     90  O   UNL A   1      45.724  39.030  34.475  1.00  0.00    -0.237 OA
ATOM     91  O   UNL A   1      43.380  39.733  34.138  1.00  0.00    -0.237 OA
ATOM     92  O   UNL A   1      44.028  38.559  36.205  1.00  0.00    -0.744 OA
ENDBRANCH  88  89
ENDBRANCH  62  83
ENDBRANCH  36  37
ENDBRANCH  28  31
ENDBRANCH  26  27
ENDBRANCH  25  26
ENDBRANCH   1  25
TORSDOF 18
ENDMDL
MODEL 2
REMARK VINA RESULT:     -10.1      4.120      9.665
REMARK SMILES C[C@H]1SCCC[C@]1(Nc1ccc(Cl)cc1)C(=O)NCCCCCCNC(=O)c1ccc(-c2c3nc(c(-c4ccc(S(=O)(=O)[O-])cc4)c4ccc([nH]4)c(-c4ccc(S(=O)(=O)[O-])cc4)c4nc(c(-c5ccc(S(=O)(=O)[O-])cc5)c5ccc2[nH]5)C=C4)C=C3)cc1
REMARK SMILES IDX 22 1 21 2 20 3 19 4 18 5 16 6 17 7 7 9 1 10 2 11 3 12 4 13
REMARK SMILES IDX 6 14 5 15 8 16 9 18 10 19 15 20 11 21 14 22 12 23 13 24
REMARK SMILES IDX 23 25 24 26 25 27 26 28 27 30 28 31 29 32 87 33 30 34 86 35
REMARK SMILES IDX 31 36 32 37 33 38 80 39 34 40 85 41 79 42 81 43 35 44 84 45
REMARK SMILES IDX 78 46 77 47 36 49 66 50 47 51 65 52 48 53 51 54 64 55 82 56
REMARK SMILES IDX 49 57 50 58 63 60 83 61 52 62 37 63 38 64 46 65 39 66 45 67
REMARK SMILES IDX 40 68 41 69 42 70 43 71 44 72 67 73 68 74 76 75 69 76 75 77
REMARK SMILES IDX 70 78 71 79 72 80 73 81 74 82 53 83 54 84 62 85 55 86 61 87
REMARK SMILES IDX 56 88 57 89 58 90 59 91 60 92
REMARK H PARENT 18 8 8 17 25 29 81 48 51 59
REMARK Flexibility Score: inf
ROOT
ATOM      1  C   UNL A   1      34.368  32.542  28.419  1.00  0.00     0.002 C 
ENDROOT
BRANCH   1   2
ATOM      2  C   UNL A   1      33.892  31.292  27.670  1.00  0.00     0.002 C 
BRANCH   2   3
ATOM      3  C   UNL A   1      34.960  30.215  27.486  1.00  0.00     0.021 C 
BRANCH   3   4
ATOM      4  C   UNL A   1      34.409  28.906  26.929  1.00  0.00     0.116 C 
BRANCH   4   5
ATOM      5  N   UNL A   1      33.204  28.530  27.634  1.00  0.00    -0.354 N 
ATOM      6  C   UNL A   1      32.051  27.942  27.215  1.00  0.00     0.246 C 
ATOM      7  O   UNL A   1      31.222  27.745  28.117  1.00  0.00    -0.272 OA
ATOM      8  H   UNL A   1      33.222  28.736  28.597  1.00  0.00     0.163 HD
BRANCH   6   9
ATOM      9  C   UNL A   1      31.731  27.548  25.720  1.00  0.00     0.128 C 
ATOM     10  C   UNL A   1      31.507  30.056  24.842  1.00  0.00     0.022 C 
ATOM     11  C   UNL A   1      30.878  28.679  25.031  1.00  0.00     0.078 C 
ATOM     12  S   UNL A   1      30.326  28.211  23.332  1.00  0.00    -0.156 SA
ATOM     13  C   UNL A   1      29.350  26.768  23.786  1.00  0.00     0.070 C 
ATOM     14  C   UNL A   1      30.833  26.262  25.798  1.00  0.00     0.040 C 
ATOM     15  C   UNL A   1      30.229  25.751  24.489  1.00  0.00     0.014 C 
BRANCH   9  16
ATOM     16  N   UNL A   1      32.938  27.222  24.911  1.00  0.00    -0.370 N 
ATOM     17  H   UNL A   1      33.356  27.976  24.434  1.00  0.00     0.161 HD
BRANCH  16  18
ATOM     18  C   UNL A   1      33.544  25.990  24.746  1.00  0.00     0.035 A 
ATOM     19  C   UNL A   1      34.304  25.355  25.734  1.00  0.00     0.027 A 
ATOM     20  C   UNL A   1      33.557  25.425  23.459  1.00  0.00     0.027 A 
ATOM     21  C   UNL A   1      35.108  24.246  25.437  1.00  0.00     0.022 A 
ATOM     22  C   UNL A   1      34.372  24.330  23.146  1.00  0.00     0.022 A 
ATOM     23  C   UNL A   1      35.160  23.757  24.137  1.00  0.00     0.041 A 
ATOM     24  Cl  UNL A   1      36.233  22.470  23.749  1.00  0.00    -0.084 Cl
ENDBRANCH  16  18
ENDBRANCH   9  16
ENDBRANCH   6   9
ENDBRANCH   4   5
ENDBRANCH   3   4
ENDBRANCH   2   3
ENDBRANCH   1   2
BRANCH   1  25
ATOM     25  C   UNL A   1      33.530  33.799  28.174  1.00  0.00     0.021 C 
BRANCH  25  26
ATOM     26  C   UNL A   1      34.053  35.052  28.871  1.00  0.00     0.116 C 
BRANCH  26  27
ATOM     27  N   UNL A   1      33.117  35.543  29.870  1.00  0.00    -0.352 N 
ATOM     28  C   UNL A   1      33.067  35.271  31.214  1.00  0.00     0.251 C 
ATOM     29  H   UNL A   1      32.423  36.156  29.536  1.00  0.00     0.163 HD
ATOM     30  O   UNL A   1      32.082  35.575  31.874  1.00  0.00    -0.269 OA
BRANCH  28  31
ATOM     31  C   UNL A   1      34.215  34.592  31.847  1.00  0.00     0.039 A 
ATOM     32  C   UNL A   1      34.066  33.281  32.301  1.00  0.00     0.014 A 
ATOM     33  C   UNL A   1      35.444  35.251  31.962  1.00  0.00     0.014 A 
ATOM     34  C   UNL A   1      35.173  32.602  32.811  1.00  0.00     0.010 A 
ATOM     35  C   UNL A   1      36.560  34.550  32.401  1.00  0.00     0.010 A 
ATOM     36  C   UNL A   1      36.436  33.219  32.828  1.00  0.00    -0.014 A 
BRANCH  36  37
ATOM     37  C   UNL A   1      37.648  32.489  33.273  1.00  0.00     0.031 A 
ATOM     38  C   UNL A   1      38.321  32.862  34.565  1.00  0.00     0.074 A 
ATOM     39  C   UNL A   1      38.186  31.546  32.474  1.00  0.00     0.049 A 
ATOM     40  N   UNL A   1      39.423  32.391  35.086  1.00  0.00    -0.248 NA
ATOM     41  C   UNL A   1      37.682  33.920  35.362  1.00  0.00     0.031 C 
ATOM     42  C   UNL A   1      37.637  31.112  31.188  1.00  0.00     0.029 A 
ATOM     43  N   UNL A   1      39.317  30.785  32.626  1.00  0.00    -0.354 N 
ATOM     44  C   UNL A   1      39.621  33.105  36.262  1.00  0.00     0.074 A 
ATOM     45  C   UNL A   1      38.552  34.077  36.348  1.00  0.00     0.031 C 
ATOM     46  C   UNL A   1      38.410  30.135  30.687  1.00  0.00     0.029 A 
ATOM     47  C   UNL A   1      39.538  29.912  31.587  1.00  0.00     0.049 A 
ATOM     48  H   UNL A   1      39.915  30.856  33.406  1.00  0.00     0.167 HD
ATOM     49  C   UNL A   1      40.594  32.955  37.192  1.00  0.00     0.031 A 
ATOM     50  C   UNL A   1      40.541  29.038  31.376  1.00  0.00     0.031 A 
ATOM     51  C   UNL A   1      41.657  31.992  37.092  1.00  0.00     0.049 A 
ATOM     52  C   UNL A   1      41.645  28.932  32.392  1.00  0.00     0.074 A 
ATOM     53  C   UNL A   1      42.662  31.721  38.004  1.00  0.00     0.029 A 
ATOM     54  N   UNL A   1      41.865  31.151  36.007  1.00  0.00    -0.354 N 
ATOM     55  N   UNL A   1      41.775  29.563  33.534  1.00  0.00    -0.248 NA
ATOM     56  C   UNL A   1      42.738  27.999  32.089  1.00  0.00     0.031 C 
ATOM     57  C   UNL A   1      43.517  30.768  37.441  1.00  0.00     0.029 A 
ATOM     58  C   UNL A   1      43.006  30.393  36.207  1.00  0.00     0.049 A 
ATOM     59  H   UNL A   1      41.286  31.102  35.213  1.00  0.00     0.167 HD
ATOM     60  C   UNL A   1      42.951  29.084  34.100  1.00  0.00     0.074 A 
ATOM     61  C   UNL A   1      43.487  28.102  33.178  1.00  0.00     0.031 C 
ATOM     62  C   UNL A   1      43.532  29.425  35.277  1.00  0.00     0.031 A 
BRANCH  49  63
ATOM     63  C   UNL A   1      40.563  33.883  38.381  1.00  0.00    -0.014 A 
ATOM     64  C   UNL A   1      39.874  33.539  39.560  1.00  0.00     0.010 A 
ATOM     65  C   UNL A   1      41.235  35.117  38.321  1.00  0.00     0.010 A 
ATOM     66  C   UNL A   1      39.801  34.439  40.626  1.00  0.00     0.020 A 
ATOM     67  C   UNL A   1      41.194  36.006  39.399  1.00  0.00     0.020 A 
ATOM     68  C   UNL A   1      40.455  35.671  40.534  1.00  0.00     0.054 A 
BRANCH  68  69
ATOM     69  S   UNL A   1      40.325  36.828  41.926  1.00  0.00     0.124 S 
ATOM     70  O   UNL A   1      39.286  37.744  41.459  1.00  0.00    -0.237 OA
ATOM     71  O   UNL A   1      39.942  35.957  43.033  1.00  0.00    -0.237 OA
ATOM     72  O   UNL A   1      41.664  37.405  42.024  1.00  0.00    -0.744 OA
ENDBRANCH  68  69
ENDBRANCH  49  63
BRANCH  50  73
ATOM     73  C   UNL A   1      40.530  28.175  30.163  1.00  0.00    -0.014 A 
ATOM     74  C   UNL A   1      41.446  28.410  29.122  1.00  0.00     0.010 A 
ATOM     75  C   UNL A   1      39.630  27.100  30.050  1.00  0.00     0.010 A 
ATOM     76  C   UNL A   1      41.460  27.590  27.991  1.00  0.00     0.020 A 
ATOM     77  C   UNL A   1      39.659  26.260  28.933  1.00  0.00     0.020 A 
ATOM     78  C   UNL A   1      40.570  26.516  27.907  1.00  0.00     0.054 A 
BRANCH  78  79
ATOM     79  S   UNL A   1      40.654  25.428  26.457  1.00  0.00     0.124 S 
ATOM     80  O   UNL A   1      41.055  26.354  25.403  1.00  0.00    -0.237 OA
ATOM     81  O   UNL A   1      41.661  24.449  26.859  1.00  0.00    -0.237 OA
ATOM     82  O   UNL A   1      39.295  24.902  26.345  1.00  0.00    -0.744 OA
ENDBRANCH  78  79
ENDBRANCH  50  73
BRANCH  62  83
ATOM     83  C   UNL A   1      44.811  28.722  35.651  1.00  0.00    -0.014 A 
ATOM     84  C   UNL A   1      44.794  27.442  36.233  1.00  0.00     0.010 A 
ATOM     85  C   UNL A   1      46.048  29.316  35.339  1.00  0.00     0.010 A 
ATOM     86  C   UNL A   1      45.990  26.774  36.508  1.00  0.00     0.020 A 
ATOM     87  C   UNL A   1      47.245  28.639  35.584  1.00  0.00     0.020 A 
ATOM     88  C   UNL A   1      47.209  27.375  36.174  1.00  0.00     0.054 A 
BRANCH  88  89
ATOM     89  S   UNL A   1      48.741  26.451  36.467  1.00  0.00     0.124 S 
ATOM     90  O   UNL A   1      48.827  26.458  37.926  1.00  0.00    -0.237 OA
ATOM     91  O   UNL A   1      48.454  25.154  35.861  1.00  0.00    -0.237 OA
ATOM     92  O   UNL A   1      49.761  27.241  35.779  1.00  0.00    -0.744 OA
ENDBRANCH  88  89
ENDBRANCH  62  83
ENDBRANCH  36  37
ENDBRANCH  28  31
ENDBRANCH  26  27
ENDBRANCH  25  26
ENDBRANCH   1  25
TORSDOF 18
ENDMDL
MODEL 3
REMARK VINA RESULT:      -9.9      2.005      2.591
REMARK SMILES C[C@H]1SCCC[C@]1(Nc1ccc(Cl)cc1)C(=O)NCCCCCCNC(=O)c1ccc(-c2c3nc(c(-c4ccc(S(=O)(=O)[O-])cc4)c4ccc([nH]4)c(-c4ccc(S(=O)(=O)[O-])cc4)c4nc(c(-c5ccc(S(=O)(=O)[O-])cc5)c5ccc2[nH]5)C=C4)C=C3)cc1
REMARK SMILES IDX 22 1 21 2 20 3 19 4 18 5 16 6 17 7 7 9 1 10 2 11 3 12 4 13
REMARK SMILES IDX 6 14 5 15 8 16 9 18 10 19 15 20 11 21 14 22 12 23 13 24
REMARK SMILES IDX 23 25 24 26 25 27 26 28 27 30 28 31 29 32 87 33 30 34 86 35
REMARK SMILES IDX 31 36 32 37 33 38 80 39 34 40 85 41 79 42 81 43 35 44 84 45
REMARK SMILES IDX 78 46 77 47 36 49 66 50 47 51 65 52 48 53 51 54 64 55 82 56
REMARK SMILES IDX 49 57 50 58 63 60 83 61 52 62 37 63 38 64 46 65 39 66 45 67
REMARK SMILES IDX 40 68 41 69 42 70 43 71 44 72 67 73 68 74 76 75 69 76 75 77
REMARK SMILES IDX 70 78 71 79 72 80 73 81 74 82 53 83 54 84 62 85 55 86 61 87
REMARK SMILES IDX 56 88 57 89 58 90 59 91 60 92
REMARK H PARENT 18 8 8 17 25 29 81 48 51 59
REMARK Flexibility Score: inf
ROOT
ATOM      1  C   UNL A   1      36.426  22.445  23.915  1.00  0.00     0.002 C 
ENDROOT
BRANCH   1   2
ATOM      2  C   UNL A   1      35.071  21.957  24.440  1.00  0.00     0.002 C 
BRANCH   2   3
ATOM      3  C   UNL A   1      33.859  22.604  23.772  1.00  0.00     0.021 C 
BRANCH   3   4
ATOM      4  C   UNL A   1      33.581  24.020  24.265  1.00  0.00     0.116 C 
BRANCH   4   5
ATOM      5  N   UNL A   1      33.812  24.974  23.203  1.00  0.00    -0.354 N 
ATOM      6  C   UNL A   1      33.169  26.122  22.855  1.00  0.00     0.246 C 
ATOM      7  O   UNL A   1      33.665  26.708  21.881  1.00  0.00    -0.272 OA
ATOM      8  H   UNL A   1      34.578  24.753  22.625  1.00  0.00     0.163 HD
BRANCH   6   9
ATOM      9  C   UNL A   1      31.884  26.689  23.575  1.00  0.00     0.128 C 
ATOM     10  C   UNL A   1      30.446  24.458  23.314  1.00  0.00     0.022 C 
ATOM     11  C   UNL A   1      30.595  25.952  23.045  1.00  0.00     0.078 C 
ATOM     12  S   UNL A   1      29.038  26.679  23.722  1.00  0.00    -0.156 SA
ATOM     13  C   UNL A   1      29.233  28.336  23.045  1.00  0.00     0.070 C 
ATOM     14  C   UNL A   1      31.778  28.194  23.140  1.00  0.00     0.040 C 
ATOM     15  C   UNL A   1      30.519  28.956  23.559  1.00  0.00     0.014 C 
BRANCH   9  16
ATOM     16  N   UNL A   1      31.953  26.639  25.061  1.00  0.00    -0.370 N 
ATOM     17  H   UNL A   1      31.576  25.834  25.486  1.00  0.00     0.161 HD
BRANCH  16  18
ATOM     18  C   UNL A   1      32.483  27.585  25.920  1.00  0.00     0.035 A 
ATOM     19  C   UNL A   1      31.712  28.507  26.638  1.00  0.00     0.027 A 
ATOM     20  C   UNL A   1      33.878  27.758  25.937  1.00  0.00     0.027 A 
ATOM     21  C   UNL A   1      32.299  29.603  27.284  1.00  0.00     0.022 A 
ATOM     22  C   UNL A   1      34.473  28.861  26.562  1.00  0.00     0.022 A 
ATOM     23  C   UNL A   1      33.675  29.791  27.217  1.00  0.00     0.041 A 
ATOM     24  Cl  UNL A   1      34.381  31.196  27.911  1.00  0.00    -0.084 Cl
ENDBRANCH  16  18
ENDBRANCH   9  16
ENDBRANCH   6   9
ENDBRANCH   4   5
ENDBRANCH   3   4
ENDBRANCH   2   3
ENDBRANCH   1   2
BRANCH   1  25
ATOM     25  C   UNL A   1      36.973  23.696  24.606  1.00  0.00     0.021 C 
BRANCH  25  26
ATOM     26  C   UNL A   1      37.298  23.509  26.085  1.00  0.00     0.116 C 
BRANCH  26  27
ATOM     27  N   UNL A   1      38.140  22.345  26.310  1.00  0.00    -0.352 N 
ATOM     28  C   UNL A   1      39.491  22.288  26.546  1.00  0.00     0.251 C 
ATOM     29  H   UNL A   1      37.677  21.477  26.288  1.00  0.00     0.163 HD
ATOM     30  O   UNL A   1      40.089  21.223  26.481  1.00  0.00    -0.269 OA
BRANCH  28  31
ATOM     31  C   UNL A   1      40.211  23.536  26.866  1.00  0.00     0.039 A 
ATOM     32  C   UNL A   1      40.239  24.567  25.925  1.00  0.00     0.014 A 
ATOM     33  C   UNL A   1      40.832  23.690  28.110  1.00  0.00     0.014 A 
ATOM     34  C   UNL A   1      40.835  25.784  26.260  1.00  0.00     0.010 A 
ATOM     35  C   UNL A   1      41.358  24.925  28.467  1.00  0.00     0.010 A 
ATOM     36  C   UNL A   1      41.364  25.984  27.546  1.00  0.00    -0.014 A 
BRANCH  36  37
ATOM     37  C   UNL A   1      41.914  27.297  27.962  1.00  0.00     0.031 A 
ATOM     38  C   UNL A   1      43.396  27.545  27.907  1.00  0.00     0.074 A 
ATOM     39  C   UNL A   1      41.087  28.236  28.462  1.00  0.00     0.049 A 
ATOM     40  N   UNL A   1      44.072  28.596  28.290  1.00  0.00    -0.248 NA
ATOM     41  C   UNL A   1      44.229  26.456  27.371  1.00  0.00     0.031 C 
ATOM     42  C   UNL A   1      39.633  28.105  28.586  1.00  0.00     0.029 A 
ATOM     43  N   UNL A   1      41.351  29.485  28.964  1.00  0.00    -0.354 N 
ATOM     44  C   UNL A   1      45.408  28.292  28.061  1.00  0.00     0.074 A 
ATOM     45  C   UNL A   1      45.450  26.937  27.554  1.00  0.00     0.031 C 
ATOM     46  C   UNL A   1      39.131  29.242  29.092  1.00  0.00     0.029 A 
ATOM     47  C   UNL A   1      40.228  30.161  29.380  1.00  0.00     0.049 A 
ATOM     48  H   UNL A   1      42.259  29.863  29.020  1.00  0.00     0.167 HD
ATOM     49  C   UNL A   1      46.499  29.074  28.241  1.00  0.00     0.031 A 
ATOM     50  C   UNL A   1      40.098  31.380  29.939  1.00  0.00     0.031 A 
ATOM     51  C   UNL A   1      46.447  30.417  28.754  1.00  0.00     0.049 A 
ATOM     52  C   UNL A   1      41.329  32.207  30.188  1.00  0.00     0.074 A 
ATOM     53  C   UNL A   1      47.486  31.314  28.925  1.00  0.00     0.029 A 
ATOM     54  N   UNL A   1      45.295  31.051  29.197  1.00  0.00    -0.354 N 
ATOM     55  N   UNL A   1      42.578  31.932  29.896  1.00  0.00    -0.248 NA
ATOM     56  C   UNL A   1      41.134  33.506  30.845  1.00  0.00     0.031 C 
ATOM     57  C   UNL A   1      46.974  32.464  29.535  1.00  0.00     0.029 A 
ATOM     58  C   UNL A   1      45.604  32.311  29.681  1.00  0.00     0.049 A 
ATOM     59  H   UNL A   1      44.391  30.663  29.169  1.00  0.00     0.167 HD
ATOM     60  C   UNL A   1      43.315  33.036  30.309  1.00  0.00     0.074 A 
ATOM     61  C   UNL A   1      42.370  33.986  30.860  1.00  0.00     0.031 C 
ATOM     62  C   UNL A   1      44.653  33.244  30.235  1.00  0.00     0.031 A 
BRANCH  49  63
ATOM     63  C   UNL A   1      47.842  28.475  27.908  1.00  0.00    -0.014 A 
ATOM     64  C   UNL A   1      48.428  28.650  26.639  1.00  0.00     0.010 A 
ATOM     65  C   UNL A   1      48.533  27.727  28.879  1.00  0.00     0.010 A 
ATOM     66  C   UNL A   1      49.641  28.032  26.328  1.00  0.00     0.020 A 
ATOM     67  C   UNL A   1      49.765  27.136  28.582  1.00  0.00     0.020 A 
ATOM     68  C   UNL A   1      50.297  27.271  27.300  1.00  0.00     0.054 A 
BRANCH  68  69
ATOM     69  S   UNL A   1      51.861  26.463  26.860  1.00  0.00     0.124 S 
ATOM     70  O   UNL A   1      52.089  26.967  25.507  1.00  0.00    -0.237 OA
ATOM     71  O   UNL A   1      52.779  26.965  27.880  1.00  0.00    -0.237 OA
ATOM     72  O   UNL A   1      51.554  25.038  26.950  1.00  0.00    -0.744 OA
ENDBRANCH  68  69
ENDBRANCH  49  63
BRANCH  50  73
ATOM     73  C   UNL A   1      38.744  31.899  30.277  1.00  0.00    -0.014 A 
ATOM     74  C   UNL A   1      38.163  31.596  31.521  1.00  0.00     0.010 A 
ATOM     75  C   UNL A   1      38.041  32.719  29.377  1.00  0.00     0.010 A 
ATOM     76  C   UNL A   1      36.903  32.099  31.857  1.00  0.00     0.020 A 
ATOM     77  C   UNL A   1      36.792  33.248  29.720  1.00  0.00     0.020 A 
ATOM     78  C   UNL A   1      36.229  32.928  30.956  1.00  0.00     0.054 A 
BRANCH  78  79
ATOM     79  S   UNL A   1      34.625  33.621  31.444  1.00  0.00     0.124 S 
ATOM     80  O   UNL A   1      34.125  32.611  32.371  1.00  0.00    -0.237 OA
ATOM     81  O   UNL A   1      35.006  34.898  32.044  1.00  0.00    -0.237 OA
ATOM     82  O   UNL A   1      33.899  33.727  30.181  1.00  0.00    -0.744 OA
ENDBRANCH  78  79
ENDBRANCH  50  73
BRANCH  62  83
ATOM     83  C   UNL A   1      45.183  34.557  30.748  1.00  0.00    -0.014 A 
ATOM     84  C   UNL A   1      45.632  34.692  32.073  1.00  0.00     0.010 A 
ATOM     85  C   UNL A   1      45.310  35.647  29.867  1.00  0.00     0.010 A 
ATOM     86  C   UNL A   1      46.186  35.897  32.512  1.00  0.00     0.020 A 
ATOM     87  C   UNL A   1      45.892  36.844  30.293  1.00  0.00     0.020 A 
ATOM     88  C   UNL A   1      46.321  36.963  31.615  1.00  0.00     0.054 A 
BRANCH  88  89
ATOM     89  S   UNL A   1      47.118  38.487  32.191  1.00  0.00     0.124 S 
ATOM     90  O   UNL A   1      47.771  38.967  30.975  1.00  0.00    -0.237 OA
ATOM     91  O   UNL A   1      45.986  39.285  32.654  1.00  0.00    -0.237 OA
ATOM     92  O   UNL A   1      48.023  38.029  33.244  1.00  0.00    -0.744 OA
ENDBRANCH  88  89
ENDBRANCH  62  83
ENDBRANCH  36  37
ENDBRANCH  28  31
ENDBRANCH  26  27
ENDBRANCH  25  26
ENDBRANCH   1  25
TORSDOF 18
ENDMDL
