MODEL 1
REMARK VINA RESULT:     -10.1      0.000      0.000
REMARK SMILES CSCC[C@@H](CO)n1ccnc1-c1ccccc1C(=O)NCCCCCCNC(=O)c1ccc(-c2c3nc(c(-c4ccc(S(=O)(=O)[O-])cc4)c4ccc([nH]4)c(-c4ccc(S(=O)(=O)[O-])cc4)c4nc(c(-c5ccc(S(=O)(=O)[O-])cc5)c5ccc2[nH]5)C=C4)C=C3)cc1
REMARK SMILES IDX 23 1 22 2 21 3 19 4 20 5 18 7 13 8 14 9 15 10 17 11 16 12
REMARK SMILES IDX 12 13 8 14 9 15 10 16 11 17 5 18 4 19 3 20 2 21 1 22 6 23
REMARK SMILES IDX 7 24 24 26 25 27 26 28 27 29 28 30 29 31 30 33 31 34 32 35
REMARK SMILES IDX 90 36 33 37 89 38 34 39 35 40 36 41 83 42 37 43 88 44 82 45
REMARK SMILES IDX 84 46 38 47 87 48 81 49 80 50 39 52 69 53 50 54 68 55 51 56
REMARK SMILES IDX 54 57 67 58 85 59 52 60 53 61 66 63 86 64 55 65 40 66 41 67
REMARK SMILES IDX 49 68 42 69 48 70 43 71 44 72 45 73 46 74 47 75 70 76 71 77
REMARK SMILES IDX 79 78 72 79 78 80 73 81 74 82 75 83 76 84 77 85 56 86 57 87
REMARK SMILES IDX 65 88 58 89 64 90 59 91 60 92 61 93 62 94 63 95
REMARK H PARENT 21 6 7 25 28 32 84 51 54 62
REMARK Flexibility Score: inf
ROOT
ATOM      1  C   UNL A   1      37.397  22.942  25.535  1.00  0.00     0.021 C 
ENDROOT
BRANCH   1   2
ATOM      2  C   UNL A   1      36.200  23.566  24.834  1.00  0.00     0.116 C 
BRANCH   2   3
ATOM      3  N   UNL A   1      35.500  24.614  25.527  1.00  0.00    -0.352 N 
ATOM      4  C   UNL A   1      34.399  25.358  25.167  1.00  0.00     0.252 C 
ATOM      5  O   UNL A   1      34.032  26.182  26.013  1.00  0.00    -0.269 OA
ATOM      6  H   UNL A   1      35.872  24.840  26.409  1.00  0.00     0.163 HD
BRANCH   4   7
ATOM      7  C   UNL A   1      33.639  25.296  23.865  1.00  0.00     0.050 A 
ATOM      8  C   UNL A   1      32.939  24.234  23.262  1.00  0.00     0.030 A 
ATOM      9  C   UNL A   1      32.338  24.431  21.989  1.00  0.00     0.013 A 
ATOM     10  C   UNL A   1      32.349  25.658  21.337  1.00  0.00     0.001 A 
ATOM     11  C   UNL A   1      33.608  26.546  23.183  1.00  0.00     0.014 A 
ATOM     12  C   UNL A   1      32.971  26.729  21.949  1.00  0.00     0.001 A 
BRANCH   8  13
ATOM     13  C   UNL A   1      32.747  22.874  23.758  1.00  0.00     0.141 A 
ATOM     14  N   UNL A   1      32.097  22.455  24.915  1.00  0.00    -0.326 N 
ATOM     15  C   UNL A   1      32.021  21.077  24.833  1.00  0.00     0.108 A 
ATOM     16  C   UNL A   1      32.672  20.718  23.683  1.00  0.00     0.131 A 
ATOM     17  N   UNL A   1      33.090  21.827  23.025  1.00  0.00    -0.237 NA
BRANCH  14  18
ATOM     18  C   UNL A   1      31.844  23.253  26.131  1.00  0.00     0.115 C 
BRANCH  18  19
ATOM     19  C   UNL A   1      30.390  23.208  26.639  1.00  0.00     0.039 C 
BRANCH  19  20
ATOM     20  C   UNL A   1      29.639  24.548  26.597  1.00  0.00     0.071 C 
BRANCH  20  21
ATOM     21  S   UNL A   1      30.526  25.937  25.803  1.00  0.00    -0.165 SA
ATOM     22  C   UNL A   1      29.720  26.046  24.183  1.00  0.00     0.085 C 
ENDBRANCH  20  21
ENDBRANCH  19  20
ENDBRANCH  18  19
BRANCH  18  23
ATOM     23  C   UNL A   1      32.833  22.929  27.277  1.00  0.00     0.181 C 
BRANCH  23  24
ATOM     24  O   UNL A   1      32.214  22.203  28.337  1.00  0.00    -0.394 OA
ATOM     25  H   UNL A   1      32.887  21.692  28.815  1.00  0.00     0.210 HD
ENDBRANCH  23  24
ENDBRANCH  18  23
ENDBRANCH  14  18
ENDBRANCH   8  13
ENDBRANCH   4   7
ENDBRANCH   2   3
ENDBRANCH   1   2
BRANCH   1  26
ATOM     26  C   UNL A   1      38.252  23.834  26.448  1.00  0.00     0.002 C 
BRANCH  26  27
ATOM     27  C   UNL A   1      39.502  23.275  27.153  1.00  0.00     0.002 C 
BRANCH  27  28
ATOM     28  C   UNL A   1      40.161  21.985  26.650  1.00  0.00     0.021 C 
BRANCH  28  29
ATOM     29  C   UNL A   1      41.586  21.730  27.098  1.00  0.00     0.116 C 
BRANCH  29  30
ATOM     30  N   UNL A   1      42.610  21.857  26.053  1.00  0.00    -0.352 N 
ATOM     31  C   UNL A   1      43.028  23.006  25.370  1.00  0.00     0.251 C 
ATOM     32  H   UNL A   1      43.065  21.022  25.800  1.00  0.00     0.163 HD
ATOM     33  O   UNL A   1      43.616  22.918  24.308  1.00  0.00    -0.269 OA
BRANCH  31  34
ATOM     34  C   UNL A   1      42.737  24.332  25.966  1.00  0.00     0.039 A 
ATOM     35  C   UNL A   1      41.833  25.268  25.451  1.00  0.00     0.014 A 
ATOM     36  C   UNL A   1      43.396  24.614  27.143  1.00  0.00     0.014 A 
ATOM     37  C   UNL A   1      41.631  26.454  26.169  1.00  0.00     0.010 A 
ATOM     38  C   UNL A   1      42.828  25.478  28.015  1.00  0.00     0.010 A 
ATOM     39  C   UNL A   1      42.170  26.549  27.457  1.00  0.00    -0.014 A 
BRANCH  39  40
ATOM     40  C   UNL A   1      42.097  27.711  28.331  1.00  0.00     0.031 A 
ATOM     41  C   UNL A   1      43.197  28.678  28.125  1.00  0.00     0.074 A 
ATOM     42  C   UNL A   1      40.949  28.041  28.974  1.00  0.00     0.049 A 
ATOM     43  N   UNL A   1      44.178  28.941  28.920  1.00  0.00    -0.248 NA
ATOM     44  C   UNL A   1      43.321  29.295  26.793  1.00  0.00     0.031 C 
ATOM     45  C   UNL A   1      39.636  27.372  28.919  1.00  0.00     0.029 A 
ATOM     46  N   UNL A   1      40.668  29.146  29.713  1.00  0.00    -0.354 N 
ATOM     47  C   UNL A   1      44.912  29.934  28.283  1.00  0.00     0.074 A 
ATOM     48  C   UNL A   1      44.494  29.917  26.904  1.00  0.00     0.031 C 
ATOM     49  C   UNL A   1      38.675  28.204  29.384  1.00  0.00     0.029 A 
ATOM     50  C   UNL A   1      39.312  29.390  29.924  1.00  0.00     0.049 A 
ATOM     51  H   UNL A   1      41.371  29.734  30.074  1.00  0.00     0.167 HD
ATOM     52  C   UNL A   1      45.591  30.884  28.983  1.00  0.00     0.031 A 
ATOM     53  C   UNL A   1      38.756  30.505  30.469  1.00  0.00     0.031 A 
ATOM     54  C   UNL A   1      45.642  30.561  30.387  1.00  0.00     0.049 A 
ATOM     55  C   UNL A   1      39.847  31.219  31.182  1.00  0.00     0.074 A 
ATOM     56  C   UNL A   1      46.152  29.511  31.124  1.00  0.00     0.029 A 
ATOM     57  N   UNL A   1      44.716  31.182  31.197  1.00  0.00    -0.354 N 
ATOM     58  N   UNL A   1      40.471  30.727  32.217  1.00  0.00    -0.248 NA
ATOM     59  C   UNL A   1      40.577  32.241  30.447  1.00  0.00     0.031 C 
ATOM     60  C   UNL A   1      45.177  29.268  32.136  1.00  0.00     0.029 A 
ATOM     61  C   UNL A   1      44.171  30.231  32.021  1.00  0.00     0.049 A 
ATOM     62  H   UNL A   1      44.488  32.140  31.186  1.00  0.00     0.167 HD
ATOM     63  C   UNL A   1      41.808  31.047  32.018  1.00  0.00     0.074 A 
ATOM     64  C   UNL A   1      41.799  32.056  30.958  1.00  0.00     0.031 C 
ATOM     65  C   UNL A   1      42.808  30.261  32.518  1.00  0.00     0.031 A 
BRANCH  52  66
ATOM     66  C   UNL A   1      45.843  32.286  28.482  1.00  0.00    -0.014 A 
ATOM     67  C   UNL A   1      46.928  33.009  29.018  1.00  0.00     0.010 A 
ATOM     68  C   UNL A   1      44.919  33.011  27.702  1.00  0.00     0.010 A 
ATOM     69  C   UNL A   1      47.038  34.394  28.842  1.00  0.00     0.020 A 
ATOM     70  C   UNL A   1      45.044  34.382  27.479  1.00  0.00     0.020 A 
ATOM     71  C   UNL A   1      46.084  35.073  28.083  1.00  0.00     0.054 A 
BRANCH  71  72
ATOM     72  S   UNL A   1      46.170  36.874  27.954  1.00  0.00     0.124 S 
ATOM     73  O   UNL A   1      44.883  37.276  28.513  1.00  0.00    -0.237 OA
ATOM     74  O   UNL A   1      47.342  37.186  28.766  1.00  0.00    -0.237 OA
ATOM     75  O   UNL A   1      46.331  37.106  26.519  1.00  0.00    -0.744 OA
ENDBRANCH  71  72
ENDBRANCH  52  66
BRANCH  53  76
ATOM     76  C   UNL A   1      37.454  31.148  30.142  1.00  0.00    -0.014 A 
ATOM     77  C   UNL A   1      36.686  31.816  31.117  1.00  0.00     0.010 A 
ATOM     78  C   UNL A   1      37.091  31.337  28.792  1.00  0.00     0.010 A 
ATOM     79  C   UNL A   1      35.624  32.669  30.751  1.00  0.00     0.020 A 
ATOM     80  C   UNL A   1      36.037  32.185  28.420  1.00  0.00     0.020 A 
ATOM     81  C   UNL A   1      35.317  32.862  29.402  1.00  0.00     0.054 A 
BRANCH  81  82
ATOM     82  S   UNL A   1      34.046  34.078  28.931  1.00  0.00     0.124 S 
ATOM     83  O   UNL A   1      33.412  34.378  30.212  1.00  0.00    -0.237 OA
ATOM     84  O   UNL A   1      34.837  35.158  28.349  1.00  0.00    -0.237 OA
ATOM     85  O   UNL A   1      33.206  33.349  27.981  1.00  0.00    -0.744 OA
ENDBRANCH  81  82
ENDBRANCH  53  76
BRANCH  65  86
ATOM     86  C   UNL A   1      42.445  29.184  33.521  1.00  0.00    -0.014 A 
ATOM     87  C   UNL A   1      42.096  27.863  33.174  1.00  0.00     0.010 A 
ATOM     88  C   UNL A   1      42.635  29.487  34.881  1.00  0.00     0.010 A 
ATOM     89  C   UNL A   1      41.922  26.881  34.165  1.00  0.00     0.020 A 
ATOM     90  C   UNL A   1      42.481  28.512  35.869  1.00  0.00     0.020 A 
ATOM     91  C   UNL A   1      42.117  27.214  35.509  1.00  0.00     0.054 A 
BRANCH  91  92
ATOM     92  S   UNL A   1      41.934  25.939  36.789  1.00  0.00     0.124 S 
ATOM     93  O   UNL A   1      42.615  26.536  37.933  1.00  0.00    -0.237 OA
ATOM     94  O   UNL A   1      40.483  25.810  36.915  1.00  0.00    -0.237 OA
ATOM     95  O   UNL A   1      42.601  24.771  36.213  1.00  0.00    -0.744 OA
ENDBRANCH  91  92
ENDBRANCH  65  86
ENDBRANCH  39  40
ENDBRANCH  31  34
ENDBRANCH  29  30
ENDBRANCH  28  29
ENDBRANCH  27  28
ENDBRANCH  26  27
ENDBRANCH   1  26
TORSDOF 23
ENDMDL
MODEL 2
REMARK VINA RESULT:      -9.9      1.070      2.436
REMARK SMILES CSCC[C@@H](CO)n1ccnc1-c1ccccc1C(=O)NCCCCCCNC(=O)c1ccc(-c2c3nc(c(-c4ccc(S(=O)(=O)[O-])cc4)c4ccc([nH]4)c(-c4ccc(S(=O)(=O)[O-])cc4)c4nc(c(-c5ccc(S(=O)(=O)[O-])cc5)c5ccc2[nH]5)C=C4)C=C3)cc1
REMARK SMILES IDX 23 1 22 2 21 3 19 4 20 5 18 7 13 8 14 9 15 10 17 11 16 12
REMARK SMILES IDX 12 13 8 14 9 15 10 16 11 17 5 18 4 19 3 20 2 21 1 22 6 23
REMARK SMILES IDX 7 24 24 26 25 27 26 28 27 29 28 30 29 31 30 33 31 34 32 35
REMARK SMILES IDX 90 36 33 37 89 38 34 39 35 40 36 41 83 42 37 43 88 44 82 45
REMARK SMILES IDX 84 46 38 47 87 48 81 49 80 50 39 52 69 53 50 54 68 55 51 56
REMARK SMILES IDX 54 57 67 58 85 59 52 60 53 61 66 63 86 64 55 65 40 66 41 67
REMARK SMILES IDX 49 68 42 69 48 70 43 71 44 72 45 73 46 74 47 75 70 76 71 77
REMARK SMILES IDX 79 78 72 79 78 80 73 81 74 82 75 83 76 84 77 85 56 86 57 87
REMARK SMILES IDX 65 88 58 89 64 90 59 91 60 92 61 93 62 94 63 95
REMARK H PARENT 21 6 7 25 28 32 84 51 54 62
REMARK Flexibility Score: inf
ROOT
ATOM      1  C   UNL A   1      37.910  22.850  25.966  1.00  0.00     0.021 C 
ENDROOT
BRANCH   1   2
ATOM      2  C   UNL A   1      36.455  23.230  25.740  1.00  0.00     0.116 C 
BRANCH   2   3
ATOM      3  N   UNL A   1      35.549  23.067  26.846  1.00  0.00    -0.352 N 
ATOM      4  C   UNL A   1      34.336  22.423  26.934  1.00  0.00     0.252 C 
ATOM      5  O   UNL A   1      33.813  22.455  28.055  1.00  0.00    -0.269 OA
ATOM      6  H   UNL A   1      35.847  23.489  27.683  1.00  0.00     0.163 HD
BRANCH   4   7
ATOM      7  C   UNL A   1      33.582  21.736  25.822  1.00  0.00     0.050 A 
ATOM      8  C   UNL A   1      32.481  22.168  25.059  1.00  0.00     0.030 A 
ATOM      9  C   UNL A   1      31.924  21.294  24.085  1.00  0.00     0.013 A 
ATOM     10  C   UNL A   1      32.466  20.046  23.800  1.00  0.00     0.001 A 
ATOM     11  C   UNL A   1      34.129  20.465  25.486  1.00  0.00     0.014 A 
ATOM     12  C   UNL A   1      33.589  19.638  24.492  1.00  0.00     0.001 A 
BRANCH   8  13
ATOM     13  C   UNL A   1      31.763  23.437  25.135  1.00  0.00     0.141 A 
ATOM     14  N   UNL A   1      31.675  24.444  24.178  1.00  0.00    -0.326 N 
ATOM     15  C   UNL A   1      30.733  25.339  24.650  1.00  0.00     0.108 A 
ATOM     16  C   UNL A   1      30.343  24.881  25.880  1.00  0.00     0.131 A 
ATOM     17  N   UNL A   1      30.963  23.707  26.153  1.00  0.00    -0.237 NA
BRANCH  14  18
ATOM     18  C   UNL A   1      32.613  24.699  23.066  1.00  0.00     0.115 C 
BRANCH  18  19
ATOM     19  C   UNL A   1      32.200  25.847  22.126  1.00  0.00     0.039 C 
BRANCH  19  20
ATOM     20  C   UNL A   1      33.156  27.050  22.101  1.00  0.00     0.071 C 
BRANCH  20  21
ATOM     21  S   UNL A   1      32.526  28.589  22.863  1.00  0.00    -0.165 SA
ATOM     22  C   UNL A   1      30.741  28.472  22.570  1.00  0.00     0.085 C 
ENDBRANCH  20  21
ENDBRANCH  19  20
ENDBRANCH  18  19
BRANCH  18  23
ATOM     23  C   UNL A   1      34.073  24.885  23.546  1.00  0.00     0.181 C 
BRANCH  23  24
ATOM     24  O   UNL A   1      34.158  25.675  24.730  1.00  0.00    -0.394 OA
ATOM     25  H   UNL A   1      34.090  25.100  25.509  1.00  0.00     0.210 HD
ENDBRANCH  23  24
ENDBRANCH  18  23
ENDBRANCH  14  18
ENDBRANCH   8  13
ENDBRANCH   4   7
ENDBRANCH   2   3
ENDBRANCH   1   2
BRANCH   1  26
ATOM     26  C   UNL A   1      38.809  23.834  26.729  1.00  0.00     0.002 C 
BRANCH  26  27
ATOM     27  C   UNL A   1      39.931  23.325  27.654  1.00  0.00     0.002 C 
BRANCH  27  28
ATOM     28  C   UNL A   1      40.633  21.994  27.357  1.00  0.00     0.021 C 
BRANCH  28  29
ATOM     29  C   UNL A   1      42.137  21.964  27.542  1.00  0.00     0.116 C 
BRANCH  29  30
ATOM     30  N   UNL A   1      42.929  22.103  26.314  1.00  0.00    -0.352 N 
ATOM     31  C   UNL A   1      43.076  23.223  25.487  1.00  0.00     0.251 C 
ATOM     32  H   UNL A   1      43.424  21.299  26.034  1.00  0.00     0.163 HD
ATOM     33  O   UNL A   1      43.464  23.104  24.340  1.00  0.00    -0.269 OA
BRANCH  31  34
ATOM     34  C   UNL A   1      42.745  24.560  26.038  1.00  0.00     0.039 A 
ATOM     35  C   UNL A   1      41.803  25.444  25.501  1.00  0.00     0.014 A 
ATOM     36  C   UNL A   1      43.407  24.908  27.195  1.00  0.00     0.014 A 
ATOM     37  C   UNL A   1      41.568  26.649  26.177  1.00  0.00     0.010 A 
ATOM     38  C   UNL A   1      42.819  25.784  28.042  1.00  0.00     0.010 A 
ATOM     39  C   UNL A   1      42.118  26.810  27.453  1.00  0.00    -0.014 A 
BRANCH  39  40
ATOM     40  C   UNL A   1      42.015  27.999  28.285  1.00  0.00     0.031 A 
ATOM     41  C   UNL A   1      43.102  28.977  28.061  1.00  0.00     0.074 A 
ATOM     42  C   UNL A   1      40.853  28.334  28.902  1.00  0.00     0.049 A 
ATOM     43  N   UNL A   1      44.068  29.284  28.859  1.00  0.00    -0.248 NA
ATOM     44  C   UNL A   1      43.234  29.549  26.709  1.00  0.00     0.031 C 
ATOM     45  C   UNL A   1      39.551  27.641  28.852  1.00  0.00     0.029 A 
ATOM     46  N   UNL A   1      40.544  29.459  29.597  1.00  0.00    -0.354 N 
ATOM     47  C   UNL A   1      44.795  30.266  28.197  1.00  0.00     0.074 A 
ATOM     48  C   UNL A   1      44.395  30.194  26.815  1.00  0.00     0.031 C 
ATOM     49  C   UNL A   1      38.571  28.473  29.276  1.00  0.00     0.029 A 
ATOM     50  C   UNL A   1      39.181  29.687  29.782  1.00  0.00     0.049 A 
ATOM     51  H   UNL A   1      41.232  30.070  29.947  1.00  0.00     0.167 HD
ATOM     52  C   UNL A   1      45.449  31.251  28.873  1.00  0.00     0.031 A 
ATOM     53  C   UNL A   1      38.600  30.812  30.280  1.00  0.00     0.031 A 
ATOM     54  C   UNL A   1      45.486  30.977  30.288  1.00  0.00     0.049 A 
ATOM     55  C   UNL A   1      39.670  31.568  30.982  1.00  0.00     0.074 A 
ATOM     56  C   UNL A   1      46.002  29.962  31.068  1.00  0.00     0.029 A 
ATOM     57  N   UNL A   1      44.538  31.611  31.063  1.00  0.00    -0.354 N 
ATOM     58  N   UNL A   1      40.287  31.122  32.042  1.00  0.00    -0.248 NA
ATOM     59  C   UNL A   1      40.394  32.576  30.221  1.00  0.00     0.031 C 
ATOM     60  C   UNL A   1      45.017  29.738  32.074  1.00  0.00     0.029 A 
ATOM     61  C   UNL A   1      43.997  30.680  31.912  1.00  0.00     0.049 A 
ATOM     62  H   UNL A   1      44.295  32.564  31.016  1.00  0.00     0.167 HD
ATOM     63  C   UNL A   1      41.622  31.456  31.849  1.00  0.00     0.074 A 
ATOM     64  C   UNL A   1      41.611  32.428  30.755  1.00  0.00     0.031 C 
ATOM     65  C   UNL A   1      42.627  30.705  32.390  1.00  0.00     0.031 A 
BRANCH  52  66
ATOM     66  C   UNL A   1      45.685  32.638  28.326  1.00  0.00    -0.014 A 
ATOM     67  C   UNL A   1      45.924  32.786  26.945  1.00  0.00     0.010 A 
ATOM     68  C   UNL A   1      45.932  33.763  29.139  1.00  0.00     0.010 A 
ATOM     69  C   UNL A   1      46.452  33.973  26.421  1.00  0.00     0.020 A 
ATOM     70  C   UNL A   1      46.413  34.966  28.622  1.00  0.00     0.020 A 
ATOM     71  C   UNL A   1      46.706  35.051  27.268  1.00  0.00     0.054 A 
BRANCH  71  72
ATOM     72  S   UNL A   1      47.491  36.538  26.604  1.00  0.00     0.124 S 
ATOM     73  O   UNL A   1      48.282  36.994  27.744  1.00  0.00    -0.237 OA
ATOM     74  O   UNL A   1      48.249  36.008  25.475  1.00  0.00    -0.237 OA
ATOM     75  O   UNL A   1      46.359  37.390  26.245  1.00  0.00    -0.744 OA
ENDBRANCH  71  72
ENDBRANCH  52  66
BRANCH  53  76
ATOM     76  C   UNL A   1      37.293  31.421  29.914  1.00  0.00    -0.014 A 
ATOM     77  C   UNL A   1      36.361  31.831  30.888  1.00  0.00     0.010 A 
ATOM     78  C   UNL A   1      37.073  31.853  28.588  1.00  0.00     0.010 A 
ATOM     79  C   UNL A   1      35.277  32.670  30.556  1.00  0.00     0.020 A 
ATOM     80  C   UNL A   1      35.998  32.688  28.249  1.00  0.00     0.020 A 
ATOM     81  C   UNL A   1      35.112  33.107  29.239  1.00  0.00     0.054 A 
BRANCH  81  82
ATOM     82  S   UNL A   1      33.801  34.308  28.846  1.00  0.00     0.124 S 
ATOM     83  O   UNL A   1      32.941  33.546  27.943  1.00  0.00    -0.237 OA
ATOM     84  O   UNL A   1      33.234  34.604  30.158  1.00  0.00    -0.237 OA
ATOM     85  O   UNL A   1      34.523  35.416  28.223  1.00  0.00    -0.744 OA
ENDBRANCH  81  82
ENDBRANCH  53  76
BRANCH  65  86
ATOM     86  C   UNL A   1      42.267  29.658  33.425  1.00  0.00    -0.014 A 
ATOM     87  C   UNL A   1      41.893  28.334  33.116  1.00  0.00     0.010 A 
ATOM     88  C   UNL A   1      42.488  29.990  34.774  1.00  0.00     0.010 A 
ATOM     89  C   UNL A   1      41.722  27.379  34.134  1.00  0.00     0.020 A 
ATOM     90  C   UNL A   1      42.339  29.041  35.788  1.00  0.00     0.020 A 
ATOM     91  C   UNL A   1      41.948  27.741  35.466  1.00  0.00     0.054 A 
BRANCH  91  92
ATOM     92  S   UNL A   1      41.770  26.499  36.779  1.00  0.00     0.124 S 
ATOM     93  O   UNL A   1      40.522  26.894  37.423  1.00  0.00    -0.237 OA
ATOM     94  O   UNL A   1      41.725  25.242  36.034  1.00  0.00    -0.237 OA
ATOM     95  O   UNL A   1      42.972  26.681  37.594  1.00  0.00    -0.744 OA
ENDBRANCH  91  92
ENDBRANCH  65  86
ENDBRANCH  39  40
ENDBRANCH  31  34
ENDBRANCH  29  30
ENDBRANCH  28  29
ENDBRANCH  27  28
ENDBRANCH  26  27
ENDBRANCH   1  26
TORSDOF 23
ENDMDL
MODEL 3
REMARK VINA RESULT:      -9.6      3.235      9.118
REMARK SMILES CSCC[C@@H](CO)n1ccnc1-c1ccccc1C(=O)NCCCCCCNC(=O)c1ccc(-c2c3nc(c(-c4ccc(S(=O)(=O)[O-])cc4)c4ccc([nH]4)c(-c4ccc(S(=O)(=O)[O-])cc4)c4nc(c(-c5ccc(S(=O)(=O)[O-])cc5)c5ccc2[nH]5)C=C4)C=C3)cc1
REMARK SMILES IDX 23 1 22 2 21 3 19 4 20 5 18 7 13 8 14 9 15 10 17 11 16 12
REMARK SMILES IDX 12 13 8 14 9 15 10 16 11 17 5 18 4 19 3 20 2 21 1 22 6 23
REMARK SMILES IDX 7 24 24 26 25 27 26 28 27 29 28 30 29 31 30 33 31 34 32 35
REMARK SMILES IDX 90 36 33 37 89 38 34 39 35 40 36 41 83 42 37 43 88 44 82 45
REMARK SMILES IDX 84 46 38 47 87 48 81 49 80 50 39 52 69 53 50 54 68 55 51 56
REMARK SMILES IDX 54 57 67 58 85 59 52 60 53 61 66 63 86 64 55 65 40 66 41 67
REMARK SMILES IDX 49 68 42 69 48 70 43 71 44 72 45 73 46 74 47 75 70 76 71 77
REMARK SMILES IDX 79 78 72 79 78 80 73 81 74 82 75 83 76 84 77 85 56 86 57 87
REMARK SMILES IDX 65 88 58 89 64 90 59 91 60 92 61 93 62 94 63 95
REMARK H PARENT 21 6 7 25 28 32 84 51 54 62
REMARK Flexibility Score: inf
ROOT
ATOM      1  C   UNL A   1      33.974  29.714  26.897  1.00  0.00     0.021 C 
ENDROOT
BRANCH   1   2
ATOM      2  C   UNL A   1      34.013  28.305  26.325  1.00  0.00     0.116 C 
BRANCH   2   3
ATOM      3  N   UNL A   1      32.964  27.403  26.718  1.00  0.00    -0.352 N 
ATOM      4  C   UNL A   1      32.241  26.484  25.990  1.00  0.00     0.252 C 
ATOM      5  O   UNL A   1      31.409  25.844  26.645  1.00  0.00    -0.269 OA
ATOM      6  H   UNL A   1      32.720  27.449  27.670  1.00  0.00     0.163 HD
BRANCH   4   7
ATOM      7  C   UNL A   1      32.333  26.216  24.508  1.00  0.00     0.050 A 
ATOM      8  C   UNL A   1      31.365  26.341  23.493  1.00  0.00     0.030 A 
ATOM      9  C   UNL A   1      31.702  25.975  22.162  1.00  0.00     0.013 A 
ATOM     10  C   UNL A   1      32.978  25.562  21.798  1.00  0.00     0.001 A 
ATOM     11  C   UNL A   1      33.636  25.816  24.097  1.00  0.00     0.014 A 
ATOM     12  C   UNL A   1      33.957  25.502  22.770  1.00  0.00     0.001 A 
BRANCH   8  13
ATOM     13  C   UNL A   1      29.979  26.788  23.608  1.00  0.00     0.141 A 
ATOM     14  N   UNL A   1      29.400  27.955  23.119  1.00  0.00    -0.326 N 
ATOM     15  C   UNL A   1      28.039  27.819  23.320  1.00  0.00     0.108 A 
ATOM     16  C   UNL A   1      27.858  26.628  23.969  1.00  0.00     0.131 A 
ATOM     17  N   UNL A   1      29.048  25.998  24.117  1.00  0.00    -0.237 NA
BRANCH  14  18
ATOM     18  C   UNL A   1      30.091  29.213  22.773  1.00  0.00     0.115 C 
BRANCH  18  19
ATOM     19  C   UNL A   1      29.471  29.984  21.592  1.00  0.00     0.039 C 
BRANCH  19  20
ATOM     20  C   UNL A   1      28.220  30.809  21.933  1.00  0.00     0.071 C 
BRANCH  20  21
ATOM     21  S   UNL A   1      28.274  32.577  21.465  1.00  0.00    -0.165 SA
ATOM     22  C   UNL A   1      28.875  33.368  22.980  1.00  0.00     0.085 C 
ENDBRANCH  20  21
ENDBRANCH  19  20
ENDBRANCH  18  19
BRANCH  18  23
ATOM     23  C   UNL A   1      30.282  30.146  23.994  1.00  0.00     0.181 C 
BRANCH  23  24
ATOM     24  O   UNL A   1      31.056  29.537  25.025  1.00  0.00    -0.394 OA
ATOM     25  H   UNL A   1      31.150  30.155  25.767  1.00  0.00     0.210 HD
ENDBRANCH  23  24
ENDBRANCH  18  23
ENDBRANCH  14  18
ENDBRANCH   8  13
ENDBRANCH   4   7
ENDBRANCH   2   3
ENDBRANCH   1   2
BRANCH   1  26
ATOM     26  C   UNL A   1      35.156  30.182  27.761  1.00  0.00     0.002 C 
BRANCH  26  27
ATOM     27  C   UNL A   1      35.601  31.657  27.758  1.00  0.00     0.002 C 
BRANCH  27  28
ATOM     28  C   UNL A   1      35.691  32.439  29.074  1.00  0.00     0.021 C 
BRANCH  28  29
ATOM     29  C   UNL A   1      34.502  32.335  30.008  1.00  0.00     0.116 C 
BRANCH  29  30
ATOM     30  N   UNL A   1      34.683  32.944  31.333  1.00  0.00    -0.352 N 
ATOM     31  C   UNL A   1      35.467  32.497  32.404  1.00  0.00     0.251 C 
ATOM     32  H   UNL A   1      34.186  33.779  31.488  1.00  0.00     0.163 HD
ATOM     33  O   UNL A   1      35.255  32.891  33.536  1.00  0.00    -0.269 OA
BRANCH  31  34
ATOM     34  C   UNL A   1      36.559  31.532  32.130  1.00  0.00     0.039 A 
ATOM     35  C   UNL A   1      36.387  30.162  31.904  1.00  0.00     0.014 A 
ATOM     36  C   UNL A   1      37.825  32.069  32.058  1.00  0.00     0.014 A 
ATOM     37  C   UNL A   1      37.521  29.395  31.603  1.00  0.00     0.010 A 
ATOM     38  C   UNL A   1      38.758  31.439  31.307  1.00  0.00     0.010 A 
ATOM     39  C   UNL A   1      38.720  30.065  31.332  1.00  0.00    -0.014 A 
BRANCH  39  40
ATOM     40  C   UNL A   1      40.001  29.440  31.040  1.00  0.00     0.031 A 
ATOM     41  C   UNL A   1      40.844  29.228  32.237  1.00  0.00     0.074 A 
ATOM     42  C   UNL A   1      40.220  28.785  29.872  1.00  0.00     0.049 A 
ATOM     43  N   UNL A   1      41.937  29.835  32.553  1.00  0.00    -0.248 NA
ATOM     44  C   UNL A   1      40.307  28.363  33.302  1.00  0.00     0.031 C 
ATOM     45  C   UNL A   1      39.287  28.563  28.751  1.00  0.00     0.029 A 
ATOM     46  N   UNL A   1      41.293  28.043  29.492  1.00  0.00    -0.354 N 
ATOM     47  C   UNL A   1      42.349  29.255  33.746  1.00  0.00     0.074 A 
ATOM     48  C   UNL A   1      41.200  28.563  34.272  1.00  0.00     0.031 C 
ATOM     49  C   UNL A   1      39.746  27.566  27.960  1.00  0.00     0.029 A 
ATOM     50  C   UNL A   1      41.073  27.192  28.410  1.00  0.00     0.049 A 
ATOM     51  H   UNL A   1      42.163  28.101  29.949  1.00  0.00     0.167 HD
ATOM     52  C   UNL A   1      43.667  29.141  34.070  1.00  0.00     0.031 A 
ATOM     53  C   UNL A   1      41.911  26.226  27.947  1.00  0.00     0.031 A 
ATOM     54  C   UNL A   1      44.494  29.901  33.167  1.00  0.00     0.049 A 
ATOM     55  C   UNL A   1      43.254  26.520  28.511  1.00  0.00     0.074 A 
ATOM     56  C   UNL A   1      44.591  31.236  32.829  1.00  0.00     0.029 A 
ATOM     57  N   UNL A   1      45.088  29.202  32.137  1.00  0.00    -0.354 N 
ATOM     58  N   UNL A   1      43.936  27.594  28.218  1.00  0.00    -0.248 NA
ATOM     59  C   UNL A   1      43.612  25.882  29.769  1.00  0.00     0.031 C 
ATOM     60  C   UNL A   1      44.798  31.242  31.418  1.00  0.00     0.029 A 
ATOM     61  C   UNL A   1      44.904  29.919  30.982  1.00  0.00     0.049 A 
ATOM     62  H   UNL A   1      45.560  28.342  32.218  1.00  0.00     0.167 HD
ATOM     63  C   UNL A   1      44.489  28.008  29.423  1.00  0.00     0.074 A 
ATOM     64  C   UNL A   1      44.329  26.865  30.323  1.00  0.00     0.031 C 
ATOM     65  C   UNL A   1      44.759  29.326  29.665  1.00  0.00     0.031 A 
BRANCH  52  66
ATOM     66  C   UNL A   1      44.235  28.033  34.923  1.00  0.00    -0.014 A 
ATOM     67  C   UNL A   1      44.826  28.369  36.158  1.00  0.00     0.010 A 
ATOM     68  C   UNL A   1      44.440  26.718  34.457  1.00  0.00     0.010 A 
ATOM     69  C   UNL A   1      45.638  27.460  36.849  1.00  0.00     0.020 A 
ATOM     70  C   UNL A   1      45.207  25.788  35.159  1.00  0.00     0.020 A 
ATOM     71  C   UNL A   1      45.833  26.178  36.334  1.00  0.00     0.054 A 
BRANCH  71  72
ATOM     72  S   UNL A   1      46.971  25.049  37.170  1.00  0.00     0.124 S 
ATOM     73  O   UNL A   1      46.231  23.791  37.127  1.00  0.00    -0.237 OA
ATOM     74  O   UNL A   1      48.156  25.120  36.321  1.00  0.00    -0.237 OA
ATOM     75  O   UNL A   1      47.125  25.640  38.498  1.00  0.00    -0.744 OA
ENDBRANCH  71  72
ENDBRANCH  52  66
BRANCH  53  76
ATOM     76  C   UNL A   1      41.565  24.913  27.336  1.00  0.00    -0.014 A 
ATOM     77  C   UNL A   1      42.478  24.199  26.535  1.00  0.00     0.010 A 
ATOM     78  C   UNL A   1      40.412  24.226  27.771  1.00  0.00     0.010 A 
ATOM     79  C   UNL A   1      42.264  22.842  26.215  1.00  0.00     0.020 A 
ATOM     80  C   UNL A   1      40.191  22.876  27.458  1.00  0.00     0.020 A 
ATOM     81  C   UNL A   1      41.128  22.184  26.694  1.00  0.00     0.054 A 
BRANCH  81  82
ATOM     82  S   UNL A   1      40.932  20.397  26.404  1.00  0.00     0.124 S 
ATOM     83  O   UNL A   1      40.974  19.854  27.760  1.00  0.00    -0.237 OA
ATOM     84  O   UNL A   1      39.638  20.321  25.733  1.00  0.00    -0.237 OA
ATOM     85  O   UNL A   1      42.081  20.055  25.566  1.00  0.00    -0.744 OA
ENDBRANCH  81  82
ENDBRANCH  53  76
BRANCH  65  86
ATOM     86  C   UNL A   1      44.698  30.299  28.504  1.00  0.00    -0.014 A 
ATOM     87  C   UNL A   1      43.506  30.857  28.000  1.00  0.00     0.010 A 
ATOM     88  C   UNL A   1      45.922  30.795  28.021  1.00  0.00     0.010 A 
ATOM     89  C   UNL A   1      43.542  31.868  27.023  1.00  0.00     0.020 A 
ATOM     90  C   UNL A   1      45.966  31.811  27.064  1.00  0.00     0.020 A 
ATOM     91  C   UNL A   1      44.776  32.339  26.562  1.00  0.00     0.054 A 
BRANCH  91  92
ATOM     92  S   UNL A   1      44.827  33.673  25.331  1.00  0.00     0.124 S 
ATOM     93  O   UNL A   1      43.989  34.700  25.942  1.00  0.00    -0.237 OA
ATOM     94  O   UNL A   1      46.252  33.988  25.251  1.00  0.00    -0.237 OA
ATOM     95  O   UNL A   1      44.271  33.056  24.127  1.00  0.00    -0.744 OA
ENDBRANCH  91  92
ENDBRANCH  65  86
ENDBRANCH  39  40
ENDBRANCH  31  34
ENDBRANCH  29  30
ENDBRANCH  28  29
ENDBRANCH  27  28
ENDBRANCH  26  27
ENDBRANCH   1  26
TORSDOF 23
ENDMDL
