MODEL 1
REMARK VINA RESULT:     -12.2      0.000      0.000
REMARK SMILES O=C(NCCCCCCNC(=O)c1c(S(=O)(=O)N2CCCCC2)sc2c1CC[NH2+]C2)c1ccc(-c2c3nc(c(-c4ccc(S(=O)(=O)[O-])cc4)c4ccc([nH]4)c(-c4ccc(S(=O)(=O)[O-])cc4)c4nc(c(-c5ccc(S(=O)(=O)[O-])cc5)c5ccc2[nH]5)C=C4)C=C3)cc1
REMARK SMILES IDX 6 1 5 2 4 3 3 4 1 5 2 6 31 8 32 9 90 10 33 11 89 12 34 13
REMARK SMILES IDX 35 14 36 15 83 16 37 17 88 18 82 19 84 20 38 21 87 22 81 23
REMARK SMILES IDX 80 24 39 26 69 27 50 28 68 29 51 30 54 31 67 32 85 33 52 34
REMARK SMILES IDX 53 35 66 37 86 38 55 39 40 40 41 41 49 42 42 43 48 44 43 45
REMARK SMILES IDX 44 46 45 47 46 48 47 49 70 50 71 51 79 52 72 53 78 54 73 55
REMARK SMILES IDX 74 56 75 57 76 58 77 59 56 60 57 61 65 62 58 63 64 64 59 65
REMARK SMILES IDX 60 66 61 67 62 68 63 69 7 70 8 71 9 72 10 73 11 74 12 76
REMARK SMILES IDX 13 77 14 78 26 79 24 80 25 81 27 82 30 83 28 84 29 85 15 88
REMARK SMILES IDX 16 89 17 90 18 91 19 92 23 93 20 94 22 95 21 96
REMARK H PARENT 3 7 84 25 54 36 10 75 29 86 29 87
REMARK Flexibility Score: inf
ROOT
ATOM      1  C   UNL A   1      39.543  21.455  25.779  1.00  0.00     0.002 C 
ENDROOT
BRANCH   1   2
ATOM      2  C   UNL A   1      40.026  20.083  26.267  1.00  0.00     0.021 C 
BRANCH   2   3
ATOM      3  C   UNL A   1      41.495  20.003  26.679  1.00  0.00     0.116 C 
BRANCH   3   4
ATOM      4  N   UNL A   1      42.426  20.464  25.671  1.00  0.00    -0.352 N 
ATOM      5  O   UNL A   1      43.962  21.569  24.543  1.00  0.00    -0.269 OA
ATOM      6  C   UNL A   1      43.163  21.600  25.485  1.00  0.00     0.251 C 
ATOM      7  H   UNL A   1      42.558  19.807  24.951  1.00  0.00     0.163 HD
BRANCH   6   8
ATOM      8  C   UNL A   1      43.053  22.849  26.292  1.00  0.00     0.039 A 
ATOM      9  C   UNL A   1      43.352  22.980  27.649  1.00  0.00     0.014 A 
ATOM     10  C   UNL A   1      42.582  23.986  25.605  1.00  0.00     0.014 A 
ATOM     11  C   UNL A   1      43.140  24.187  28.315  1.00  0.00     0.010 A 
ATOM     12  C   UNL A   1      42.383  25.199  26.261  1.00  0.00     0.010 A 
ATOM     13  C   UNL A   1      42.639  25.294  27.626  1.00  0.00    -0.014 A 
BRANCH  13  14
ATOM     14  C   UNL A   1      42.485  26.551  28.360  1.00  0.00     0.031 A 
ATOM     15  C   UNL A   1      43.602  27.536  28.242  1.00  0.00     0.074 A 
ATOM     16  C   UNL A   1      41.339  26.919  28.968  1.00  0.00     0.049 A 
ATOM     17  N   UNL A   1      44.293  28.101  29.180  1.00  0.00    -0.248 NA
ATOM     18  C   UNL A   1      44.027  27.906  26.882  1.00  0.00     0.031 C 
ATOM     19  C   UNL A   1      40.041  26.244  28.897  1.00  0.00     0.029 A 
ATOM     20  N   UNL A   1      41.064  28.056  29.672  1.00  0.00    -0.354 N 
ATOM     21  C   UNL A   1      45.119  29.032  28.547  1.00  0.00     0.074 A 
ATOM     22  C   UNL A   1      44.993  28.789  27.132  1.00  0.00     0.031 C 
ATOM     23  C   UNL A   1      39.080  27.094  29.318  1.00  0.00     0.029 A 
ATOM     24  C   UNL A   1      39.708  28.311  29.807  1.00  0.00     0.049 A 
ATOM     25  H   UNL A   1      41.763  28.641  30.046  1.00  0.00     0.167 HD
ATOM     26  C   UNL A   1      45.712  30.068  29.206  1.00  0.00     0.031 A 
ATOM     27  C   UNL A   1      39.129  29.468  30.209  1.00  0.00     0.031 A 
ATOM     28  C   UNL A   1      45.735  29.879  30.629  1.00  0.00     0.049 A 
ATOM     29  C   UNL A   1      40.144  30.272  30.929  1.00  0.00     0.074 A 
ATOM     30  C   UNL A   1      46.273  28.943  31.488  1.00  0.00     0.029 A 
ATOM     31  N   UNL A   1      44.858  30.620  31.384  1.00  0.00    -0.354 N 
ATOM     32  N   UNL A   1      40.652  29.944  32.082  1.00  0.00    -0.248 NA
ATOM     33  C   UNL A   1      40.869  31.301  30.200  1.00  0.00     0.031 C 
ATOM     34  C   UNL A   1      45.363  28.874  32.584  1.00  0.00     0.029 A 
ATOM     35  C   UNL A   1      44.335  29.783  32.333  1.00  0.00     0.049 A 
ATOM     36  H   UNL A   1      44.646  31.574  31.264  1.00  0.00     0.167 HD
ATOM     37  C   UNL A   1      41.955  30.418  32.048  1.00  0.00     0.074 A 
ATOM     38  C   UNL A   1      41.986  31.352  30.928  1.00  0.00     0.031 C 
ATOM     39  C   UNL A   1      42.950  29.804  32.755  1.00  0.00     0.031 A 
BRANCH  26  40
ATOM     40  C   UNL A   1      45.951  31.428  28.586  1.00  0.00    -0.014 A 
ATOM     41  C   UNL A   1      44.841  32.227  28.232  1.00  0.00     0.010 A 
ATOM     42  C   UNL A   1      47.205  31.815  28.066  1.00  0.00     0.010 A 
ATOM     43  C   UNL A   1      44.966  33.290  27.326  1.00  0.00     0.020 A 
ATOM     44  C   UNL A   1      47.348  32.903  27.201  1.00  0.00     0.020 A 
ATOM     45  C   UNL A   1      46.219  33.602  26.797  1.00  0.00     0.054 A 
BRANCH  45  46
ATOM     46  S   UNL A   1      46.349  34.861  25.501  1.00  0.00     0.124 S 
ATOM     47  O   UNL A   1      46.036  36.079  26.241  1.00  0.00    -0.237 OA
ATOM     48  O   UNL A   1      47.735  34.721  25.066  1.00  0.00    -0.237 OA
ATOM     49  O   UNL A   1      45.347  34.445  24.521  1.00  0.00    -0.744 OA
ENDBRANCH  45  46
ENDBRANCH  26  40
BRANCH  27  50
ATOM     50  C   UNL A   1      37.837  30.034  29.750  1.00  0.00    -0.014 A 
ATOM     51  C   UNL A   1      36.901  30.550  30.664  1.00  0.00     0.010 A 
ATOM     52  C   UNL A   1      37.634  30.301  28.381  1.00  0.00     0.010 A 
ATOM     53  C   UNL A   1      35.827  31.344  30.225  1.00  0.00     0.020 A 
ATOM     54  C   UNL A   1      36.561  31.078  27.934  1.00  0.00     0.020 A 
ATOM     55  C   UNL A   1      35.673  31.616  28.862  1.00  0.00     0.054 A 
BRANCH  55  56
ATOM     56  S   UNL A   1      34.385  32.774  28.317  1.00  0.00     0.124 S 
ATOM     57  O   UNL A   1      35.139  33.706  27.484  1.00  0.00    -0.237 OA
ATOM     58  O   UNL A   1      33.452  31.903  27.608  1.00  0.00    -0.237 OA
ATOM     59  O   UNL A   1      33.874  33.335  29.568  1.00  0.00    -0.744 OA
ENDBRANCH  55  56
ENDBRANCH  27  50
BRANCH  39  60
ATOM     60  C   UNL A   1      42.566  28.836  33.850  1.00  0.00    -0.014 A 
ATOM     61  C   UNL A   1      42.361  27.462  33.626  1.00  0.00     0.010 A 
ATOM     62  C   UNL A   1      42.566  29.308  35.175  1.00  0.00     0.010 A 
ATOM     63  C   UNL A   1      42.135  26.586  34.697  1.00  0.00     0.020 A 
ATOM     64  C   UNL A   1      42.361  28.438  36.249  1.00  0.00     0.020 A 
ATOM     65  C   UNL A   1      42.139  27.081  36.004  1.00  0.00     0.054 A 
BRANCH  65  66
ATOM     66  S   UNL A   1      41.917  25.929  37.389  1.00  0.00     0.124 S 
ATOM     67  O   UNL A   1      40.521  26.139  37.756  1.00  0.00    -0.237 OA
ATOM     68  O   UNL A   1      42.223  24.633  36.786  1.00  0.00    -0.237 OA
ATOM     69  O   UNL A   1      42.893  26.384  38.379  1.00  0.00    -0.744 OA
ENDBRANCH  65  66
ENDBRANCH  39  60
ENDBRANCH  13  14
ENDBRANCH   6   8
ENDBRANCH   3   4
ENDBRANCH   2   3
ENDBRANCH   1   2
BRANCH   1  70
ATOM     70  C   UNL A   1      39.518  22.594  26.806  1.00  0.00     0.002 C 
BRANCH  70  71
ATOM     71  C   UNL A   1      38.682  23.831  26.457  1.00  0.00     0.021 C 
BRANCH  71  72
ATOM     72  C   UNL A   1      37.260  23.555  25.981  1.00  0.00     0.116 C 
BRANCH  72  73
ATOM     73  N   UNL A   1      37.145  23.313  24.559  1.00  0.00    -0.352 N 
ATOM     74  C   UNL A   1      36.041  23.275  23.747  1.00  0.00     0.253 C 
ATOM     75  H   UNL A   1      38.000  23.150  24.099  1.00  0.00     0.163 HD
ATOM     76  O   UNL A   1      36.212  23.025  22.555  1.00  0.00    -0.269 OA
BRANCH  74  77
ATOM     77  C   UNL A   1      34.688  23.385  24.295  1.00  0.00     0.074 A 
ATOM     78  C   UNL A   1      34.018  22.403  25.030  1.00  0.00     0.148 A 
ATOM     79  C   UNL A   1      33.932  24.628  24.292  1.00  0.00    -0.009 A 
ATOM     80  S   UNL A   1      32.492  22.971  25.577  1.00  0.00    -0.120 S 
ATOM     81  C   UNL A   1      32.725  24.510  24.945  1.00  0.00     0.064 A 
ATOM     82  C   UNL A   1      34.323  25.950  23.688  1.00  0.00     0.099 C 
ATOM     83  C   UNL A   1      31.737  25.617  25.157  1.00  0.00     0.308 C 
ATOM     84  C   UNL A   1      33.401  27.088  24.193  1.00  0.00     0.265 C 
ATOM     85  N   UNL A   1      31.969  26.719  24.205  1.00  0.00    -0.342 N 
ATOM     86  H   UNL A   1      31.689  26.421  23.270  1.00  0.00     0.346 HD
ATOM     87  H   UNL A   1      31.418  27.528  24.490  1.00  0.00     0.346 HD
BRANCH  78  88
ATOM     88  S   UNL A   1      34.478  20.744  25.570  1.00  0.00     0.253 S 
ATOM     89  O   UNL A   1      35.923  20.761  25.579  1.00  0.00    -0.206 OA
ATOM     90  O   UNL A   1      33.706  20.558  26.778  1.00  0.00    -0.206 OA
BRANCH  88  91
ATOM     91  N   UNL A   1      34.037  19.538  24.438  1.00  0.00    -0.197 NA
ATOM     92  C   UNL A   1      34.750  18.248  24.551  1.00  0.00     0.102 C 
ATOM     93  C   UNL A   1      32.611  19.552  24.023  1.00  0.00     0.102 C 
ATOM     94  C   UNL A   1      34.342  17.257  23.471  1.00  0.00     0.017 C 
ATOM     95  C   UNL A   1      32.260  18.485  22.999  1.00  0.00     0.017 C 
ATOM     96  C   UNL A   1      32.831  17.133  23.383  1.00  0.00     0.003 C 
ENDBRANCH  88  91
ENDBRANCH  78  88
ENDBRANCH  74  77
ENDBRANCH  72  73
ENDBRANCH  71  72
ENDBRANCH  70  71
ENDBRANCH   1  70
TORSDOF 18
ENDMDL
MODEL 2
REMARK VINA RESULT:     -12.0      2.593      4.762
REMARK SMILES O=C(NCCCCCCNC(=O)c1c(S(=O)(=O)N2CCCCC2)sc2c1CC[NH2+]C2)c1ccc(-c2c3nc(c(-c4ccc(S(=O)(=O)[O-])cc4)c4ccc([nH]4)c(-c4ccc(S(=O)(=O)[O-])cc4)c4nc(c(-c5ccc(S(=O)(=O)[O-])cc5)c5ccc2[nH]5)C=C4)C=C3)cc1
REMARK SMILES IDX 6 1 5 2 4 3 3 4 1 5 2 6 31 8 32 9 90 10 33 11 89 12 34 13
REMARK SMILES IDX 35 14 36 15 83 16 37 17 88 18 82 19 84 20 38 21 87 22 81 23
REMARK SMILES IDX 80 24 39 26 69 27 50 28 68 29 51 30 54 31 67 32 85 33 52 34
REMARK SMILES IDX 53 35 66 37 86 38 55 39 40 40 41 41 49 42 42 43 48 44 43 45
REMARK SMILES IDX 44 46 45 47 46 48 47 49 70 50 71 51 79 52 72 53 78 54 73 55
REMARK SMILES IDX 74 56 75 57 76 58 77 59 56 60 57 61 65 62 58 63 64 64 59 65
REMARK SMILES IDX 60 66 61 67 62 68 63 69 7 70 8 71 9 72 10 73 11 74 12 76
REMARK SMILES IDX 13 77 14 78 26 79 24 80 25 81 27 82 30 83 28 84 29 85 15 88
REMARK SMILES IDX 16 89 17 90 18 91 19 92 23 93 20 94 22 95 21 96
REMARK H PARENT 3 7 84 25 54 36 10 75 29 86 29 87
REMARK Flexibility Score: inf
ROOT
ATOM      1  C   UNL A   1      35.193  23.332  23.892  1.00  0.00     0.002 C 
ENDROOT
BRANCH   1   2
ATOM      2  C   UNL A   1      36.545  22.622  24.033  1.00  0.00     0.021 C 
BRANCH   2   3
ATOM      3  C   UNL A   1      36.847  22.036  25.412  1.00  0.00     0.116 C 
BRANCH   3   4
ATOM      4  N   UNL A   1      38.148  21.411  25.525  1.00  0.00    -0.352 N 
ATOM      5  O   UNL A   1      40.199  20.864  26.111  1.00  0.00    -0.269 OA
ATOM      6  C   UNL A   1      39.328  21.740  26.130  1.00  0.00     0.251 C 
ATOM      7  H   UNL A   1      38.193  20.547  25.056  1.00  0.00     0.163 HD
BRANCH   6   8
ATOM      8  C   UNL A   1      39.643  23.053  26.764  1.00  0.00     0.039 A 
ATOM      9  C   UNL A   1      38.942  24.245  26.578  1.00  0.00     0.014 A 
ATOM     10  C   UNL A   1      40.769  23.072  27.611  1.00  0.00     0.014 A 
ATOM     11  C   UNL A   1      39.376  25.430  27.172  1.00  0.00     0.010 A 
ATOM     12  C   UNL A   1      41.199  24.250  28.219  1.00  0.00     0.010 A 
ATOM     13  C   UNL A   1      40.515  25.438  27.978  1.00  0.00    -0.014 A 
BRANCH  13  14
ATOM     14  C   UNL A   1      40.897  26.698  28.619  1.00  0.00     0.031 A 
ATOM     15  C   UNL A   1      42.105  27.387  28.073  1.00  0.00     0.074 A 
ATOM     16  C   UNL A   1      40.128  27.330  29.528  1.00  0.00     0.049 A 
ATOM     17  N   UNL A   1      43.173  27.773  28.694  1.00  0.00    -0.248 NA
ATOM     18  C   UNL A   1      42.132  27.642  26.624  1.00  0.00     0.031 C 
ATOM     19  C   UNL A   1      38.762  26.985  29.929  1.00  0.00     0.029 A 
ATOM     20  N   UNL A   1      40.363  28.502  30.189  1.00  0.00    -0.354 N 
ATOM     21  C   UNL A   1      43.934  28.478  27.759  1.00  0.00     0.074 A 
ATOM     22  C   UNL A   1      43.299  28.268  26.482  1.00  0.00     0.031 C 
ATOM     23  C   UNL A   1      38.210  28.041  30.564  1.00  0.00     0.029 A 
ATOM     24  C   UNL A   1      39.220  29.074  30.729  1.00  0.00     0.049 A 
ATOM     25  H   UNL A   1      41.258  28.903  30.274  1.00  0.00     0.167 HD
ATOM     26  C   UNL A   1      44.926  29.343  28.110  1.00  0.00     0.031 A 
ATOM     27  C   UNL A   1      39.081  30.337  31.199  1.00  0.00     0.031 A 
ATOM     28  C   UNL A   1      45.372  29.157  29.463  1.00  0.00     0.049 A 
ATOM     29  C   UNL A   1      40.429  30.876  31.491  1.00  0.00     0.074 A 
ATOM     30  C   UNL A   1      45.937  28.121  30.178  1.00  0.00     0.029 A 
ATOM     31  N   UNL A   1      44.982  30.088  30.395  1.00  0.00    -0.354 N 
ATOM     32  N   UNL A   1      41.200  30.439  32.445  1.00  0.00    -0.248 NA
ATOM     33  C   UNL A   1      41.087  31.700  30.490  1.00  0.00     0.031 C 
ATOM     34  C   UNL A   1      45.446  28.274  31.508  1.00  0.00     0.029 A 
ATOM     35  C   UNL A   1      44.624  29.402  31.525  1.00  0.00     0.049 A 
ATOM     36  H   UNL A   1      44.962  31.064  30.272  1.00  0.00     0.167 HD
ATOM     37  C   UNL A   1      42.491  30.587  31.962  1.00  0.00     0.074 A 
ATOM     38  C   UNL A   1      42.363  31.484  30.819  1.00  0.00     0.031 C 
ATOM     39  C   UNL A   1      43.497  29.754  32.362  1.00  0.00     0.031 A 
BRANCH  26  40
ATOM     40  C   UNL A   1      45.249  30.605  27.339  1.00  0.00    -0.014 A 
ATOM     41  C   UNL A   1      46.586  30.856  26.959  1.00  0.00     0.010 A 
ATOM     42  C   UNL A   1      44.346  31.686  27.242  1.00  0.00     0.010 A 
ATOM     43  C   UNL A   1      47.014  32.143  26.602  1.00  0.00     0.020 A 
ATOM     44  C   UNL A   1      44.753  32.960  26.839  1.00  0.00     0.020 A 
ATOM     45  C   UNL A   1      46.095  33.192  26.571  1.00  0.00     0.054 A 
BRANCH  45  46
ATOM     46  S   UNL A   1      46.682  34.880  26.278  1.00  0.00     0.124 S 
ATOM     47  O   UNL A   1      45.430  35.631  26.272  1.00  0.00    -0.237 OA
ATOM     48  O   UNL A   1      47.555  35.112  27.424  1.00  0.00    -0.237 OA
ATOM     49  O   UNL A   1      47.363  34.784  24.989  1.00  0.00    -0.744 OA
ENDBRANCH  45  46
ENDBRANCH  26  40
BRANCH  27  50
ATOM     50  C   UNL A   1      37.872  31.194  31.131  1.00  0.00    -0.014 A 
ATOM     51  C   UNL A   1      36.751  30.939  31.940  1.00  0.00     0.010 A 
ATOM     52  C   UNL A   1      37.923  32.426  30.447  1.00  0.00     0.010 A 
ATOM     53  C   UNL A   1      35.740  31.903  32.095  1.00  0.00     0.020 A 
ATOM     54  C   UNL A   1      36.915  33.385  30.584  1.00  0.00     0.020 A 
ATOM     55  C   UNL A   1      35.837  33.128  31.427  1.00  0.00     0.054 A 
BRANCH  55  56
ATOM     56  S   UNL A   1      34.616  34.431  31.758  1.00  0.00     0.124 S 
ATOM     57  O   UNL A   1      33.537  33.688  32.402  1.00  0.00    -0.237 OA
ATOM     58  O   UNL A   1      35.356  35.348  32.621  1.00  0.00    -0.237 OA
ATOM     59  O   UNL A   1      34.302  34.955  30.430  1.00  0.00    -0.744 OA
ENDBRANCH  55  56
ENDBRANCH  27  50
BRANCH  39  60
ATOM     60  C   UNL A   1      43.287  28.909  33.596  1.00  0.00    -0.014 A 
ATOM     61  C   UNL A   1      42.607  27.676  33.578  1.00  0.00     0.010 A 
ATOM     62  C   UNL A   1      43.933  29.302  34.782  1.00  0.00     0.010 A 
ATOM     63  C   UNL A   1      42.553  26.870  34.724  1.00  0.00     0.020 A 
ATOM     64  C   UNL A   1      43.900  28.494  35.922  1.00  0.00     0.020 A 
ATOM     65  C   UNL A   1      43.203  27.285  35.890  1.00  0.00     0.054 A 
BRANCH  65  66
ATOM     66  S   UNL A   1      43.188  26.202  37.346  1.00  0.00     0.124 S 
ATOM     67  O   UNL A   1      43.776  24.970  36.831  1.00  0.00    -0.237 OA
ATOM     68  O   UNL A   1      44.007  26.938  38.307  1.00  0.00    -0.237 OA
ATOM     69  O   UNL A   1      41.771  26.111  37.698  1.00  0.00    -0.744 OA
ENDBRANCH  65  66
ENDBRANCH  39  60
ENDBRANCH  13  14
ENDBRANCH   6   8
ENDBRANCH   3   4
ENDBRANCH   2   3
ENDBRANCH   1   2
BRANCH   1  70
ATOM     70  C   UNL A   1      34.743  24.219  25.060  1.00  0.00     0.002 C 
BRANCH  70  71
ATOM     71  C   UNL A   1      33.477  23.792  25.813  1.00  0.00     0.021 C 
BRANCH  71  72
ATOM     72  C   UNL A   1      32.898  24.825  26.773  1.00  0.00     0.116 C 
BRANCH  72  73
ATOM     73  N   UNL A   1      31.489  25.092  26.580  1.00  0.00    -0.352 N 
ATOM     74  C   UNL A   1      30.855  25.992  25.762  1.00  0.00     0.253 C 
ATOM     75  H   UNL A   1      30.886  24.536  27.124  1.00  0.00     0.163 HD
ATOM     76  O   UNL A   1      29.627  26.038  25.798  1.00  0.00    -0.269 OA
BRANCH  74  77
ATOM     77  C   UNL A   1      31.610  26.969  24.974  1.00  0.00     0.074 A 
ATOM     78  C   UNL A   1      32.063  28.213  25.424  1.00  0.00     0.148 A 
ATOM     79  C   UNL A   1      32.146  26.675  23.654  1.00  0.00    -0.009 A 
ATOM     80  S   UNL A   1      32.999  29.004  24.221  1.00  0.00    -0.120 S 
ATOM     81  C   UNL A   1      32.899  27.714  23.150  1.00  0.00     0.064 A 
ATOM     82  C   UNL A   1      31.973  25.421  22.841  1.00  0.00     0.099 C 
ATOM     83  C   UNL A   1      33.624  27.708  21.838  1.00  0.00     0.308 C 
ATOM     84  C   UNL A   1      32.971  25.383  21.656  1.00  0.00     0.265 C 
ATOM     85  N   UNL A   1      33.078  26.673  20.940  1.00  0.00    -0.342 N 
ATOM     86  H   UNL A   1      32.153  26.959  20.619  1.00  0.00     0.346 HD
ATOM     87  H   UNL A   1      33.703  26.561  20.141  1.00  0.00     0.346 HD
BRANCH  78  88
ATOM     88  S   UNL A   1      31.931  29.071  27.006  1.00  0.00     0.253 S 
ATOM     89  O   UNL A   1      31.179  30.267  26.700  1.00  0.00    -0.206 OA
ATOM     90  O   UNL A   1      31.423  28.054  27.898  1.00  0.00    -0.206 OA
BRANCH  88  91
ATOM     91  N   UNL A   1      33.446  29.614  27.588  1.00  0.00    -0.197 NA
ATOM     92  C   UNL A   1      34.602  28.736  27.313  1.00  0.00     0.102 C 
ATOM     93  C   UNL A   1      33.630  31.088  27.588  1.00  0.00     0.102 C 
ATOM     94  C   UNL A   1      35.895  29.264  27.915  1.00  0.00     0.017 C 
ATOM     95  C   UNL A   1      34.975  31.538  28.134  1.00  0.00     0.017 C 
ATOM     96  C   UNL A   1      36.115  30.721  27.552  1.00  0.00     0.003 C 
ENDBRANCH  88  91
ENDBRANCH  78  88
ENDBRANCH  74  77
ENDBRANCH  72  73
ENDBRANCH  71  72
ENDBRANCH  70  71
ENDBRANCH   1  70
TORSDOF 18
ENDMDL
MODEL 3
REMARK VINA RESULT:     -12.0      1.067      3.228
REMARK SMILES O=C(NCCCCCCNC(=O)c1c(S(=O)(=O)N2CCCCC2)sc2c1CC[NH2+]C2)c1ccc(-c2c3nc(c(-c4ccc(S(=O)(=O)[O-])cc4)c4ccc([nH]4)c(-c4ccc(S(=O)(=O)[O-])cc4)c4nc(c(-c5ccc(S(=O)(=O)[O-])cc5)c5ccc2[nH]5)C=C4)C=C3)cc1
REMARK SMILES IDX 6 1 5 2 4 3 3 4 1 5 2 6 31 8 32 9 90 10 33 11 89 12 34 13
REMARK SMILES IDX 35 14 36 15 83 16 37 17 88 18 82 19 84 20 38 21 87 22 81 23
REMARK SMILES IDX 80 24 39 26 69 27 50 28 68 29 51 30 54 31 67 32 85 33 52 34
REMARK SMILES IDX 53 35 66 37 86 38 55 39 40 40 41 41 49 42 42 43 48 44 43 45
REMARK SMILES IDX 44 46 45 47 46 48 47 49 70 50 71 51 79 52 72 53 78 54 73 55
REMARK SMILES IDX 74 56 75 57 76 58 77 59 56 60 57 61 65 62 58 63 64 64 59 65
REMARK SMILES IDX 60 66 61 67 62 68 63 69 7 70 8 71 9 72 10 73 11 74 12 76
REMARK SMILES IDX 13 77 14 78 26 79 24 80 25 81 27 82 30 83 28 84 29 85 15 88
REMARK SMILES IDX 16 89 17 90 18 91 19 92 23 93 20 94 22 95 21 96
REMARK H PARENT 3 7 84 25 54 36 10 75 29 86 29 87
REMARK Flexibility Score: inf
ROOT
ATOM      1  C   UNL A   1      39.455  21.577  26.092  1.00  0.00     0.002 C 
ENDROOT
BRANCH   1   2
ATOM      2  C   UNL A   1      40.385  21.090  27.210  1.00  0.00     0.021 C 
BRANCH   2   3
ATOM      3  C   UNL A   1      41.470  20.100  26.788  1.00  0.00     0.116 C 
BRANCH   3   4
ATOM      4  N   UNL A   1      42.330  20.570  25.723  1.00  0.00    -0.352 N 
ATOM      5  O   UNL A   1      43.773  21.694  24.496  1.00  0.00    -0.269 OA
ATOM      6  C   UNL A   1      43.031  21.718  25.484  1.00  0.00     0.251 C 
ATOM      7  H   UNL A   1      42.432  19.908  25.001  1.00  0.00     0.163 HD
BRANCH   6   8
ATOM      8  C   UNL A   1      42.944  22.972  26.286  1.00  0.00     0.039 A 
ATOM      9  C   UNL A   1      43.446  23.159  27.576  1.00  0.00     0.014 A 
ATOM     10  C   UNL A   1      42.273  24.049  25.674  1.00  0.00     0.014 A 
ATOM     11  C   UNL A   1      43.240  24.360  28.255  1.00  0.00     0.010 A 
ATOM     12  C   UNL A   1      42.078  25.256  26.341  1.00  0.00     0.010 A 
ATOM     13  C   UNL A   1      42.541  25.404  27.647  1.00  0.00    -0.014 A 
BRANCH  13  14
ATOM     14  C   UNL A   1      42.399  26.661  28.383  1.00  0.00     0.031 A 
ATOM     15  C   UNL A   1      43.526  27.634  28.270  1.00  0.00     0.074 A 
ATOM     16  C   UNL A   1      41.256  27.039  28.990  1.00  0.00     0.049 A 
ATOM     17  N   UNL A   1      44.221  28.190  29.211  1.00  0.00    -0.248 NA
ATOM     18  C   UNL A   1      43.958  28.004  26.912  1.00  0.00     0.031 C 
ATOM     19  C   UNL A   1      39.950  26.378  28.915  1.00  0.00     0.029 A 
ATOM     20  N   UNL A   1      40.991  28.177  29.697  1.00  0.00    -0.354 N 
ATOM     21  C   UNL A   1      45.058  29.114  28.583  1.00  0.00     0.074 A 
ATOM     22  C   UNL A   1      44.933  28.876  27.167  1.00  0.00     0.031 C 
ATOM     23  C   UNL A   1      38.998  27.237  29.336  1.00  0.00     0.029 A 
ATOM     24  C   UNL A   1      39.637  28.446  29.830  1.00  0.00     0.049 A 
ATOM     25  H   UNL A   1      41.695  28.753  30.074  1.00  0.00     0.167 HD
ATOM     26  C   UNL A   1      45.660  30.141  29.246  1.00  0.00     0.031 A 
ATOM     27  C   UNL A   1      39.069  29.608  30.234  1.00  0.00     0.031 A 
ATOM     28  C   UNL A   1      45.679  29.947  30.669  1.00  0.00     0.049 A 
ATOM     29  C   UNL A   1      40.091  30.399  30.958  1.00  0.00     0.074 A 
ATOM     30  C   UNL A   1      46.205  29.003  31.526  1.00  0.00     0.029 A 
ATOM     31  N   UNL A   1      44.807  30.696  31.424  1.00  0.00    -0.354 N 
ATOM     32  N   UNL A   1      40.593  30.062  32.111  1.00  0.00    -0.248 NA
ATOM     33  C   UNL A   1      40.828  31.422  30.234  1.00  0.00     0.031 C 
ATOM     34  C   UNL A   1      45.292  28.941  32.620  1.00  0.00     0.029 A 
ATOM     35  C   UNL A   1      44.273  29.862  32.369  1.00  0.00     0.049 A 
ATOM     36  H   UNL A   1      44.606  31.652  31.306  1.00  0.00     0.167 HD
ATOM     37  C   UNL A   1      41.901  30.522  32.082  1.00  0.00     0.074 A 
ATOM     38  C   UNL A   1      41.945  31.459  30.965  1.00  0.00     0.031 C 
ATOM     39  C   UNL A   1      42.888  29.896  32.788  1.00  0.00     0.031 A 
BRANCH  26  40
ATOM     40  C   UNL A   1      45.915  31.501  28.630  1.00  0.00    -0.014 A 
ATOM     41  C   UNL A   1      44.820  32.256  28.154  1.00  0.00     0.010 A 
ATOM     42  C   UNL A   1      47.201  31.923  28.232  1.00  0.00     0.010 A 
ATOM     43  C   UNL A   1      45.000  33.310  27.248  1.00  0.00     0.020 A 
ATOM     44  C   UNL A   1      47.393  33.004  27.368  1.00  0.00     0.020 A 
ATOM     45  C   UNL A   1      46.288  33.659  26.841  1.00  0.00     0.054 A 
BRANCH  45  46
ATOM     46  S   UNL A   1      46.505  34.904  25.544  1.00  0.00     0.124 S 
ATOM     47  O   UNL A   1      46.277  36.142  26.283  1.00  0.00    -0.237 OA
ATOM     48  O   UNL A   1      47.879  34.668  25.110  1.00  0.00    -0.237 OA
ATOM     49  O   UNL A   1      45.478  34.557  24.565  1.00  0.00    -0.744 OA
ENDBRANCH  45  46
ENDBRANCH  26  40
BRANCH  27  50
ATOM     50  C   UNL A   1      37.784  30.188  29.774  1.00  0.00    -0.014 A 
ATOM     51  C   UNL A   1      36.809  30.619  30.690  1.00  0.00     0.010 A 
ATOM     52  C   UNL A   1      37.623  30.556  28.422  1.00  0.00     0.010 A 
ATOM     53  C   UNL A   1      35.737  31.429  30.275  1.00  0.00     0.020 A 
ATOM     54  C   UNL A   1      36.553  31.350  27.998  1.00  0.00     0.020 A 
ATOM     55  C   UNL A   1      35.626  31.802  28.933  1.00  0.00     0.054 A 
BRANCH  55  56
ATOM     56  S   UNL A   1      34.337  32.980  28.432  1.00  0.00     0.124 S 
ATOM     57  O   UNL A   1      33.885  33.508  29.715  1.00  0.00    -0.237 OA
ATOM     58  O   UNL A   1      35.073  33.916  27.586  1.00  0.00    -0.237 OA
ATOM     59  O   UNL A   1      33.364  32.147  27.726  1.00  0.00    -0.744 OA
ENDBRANCH  55  56
ENDBRANCH  27  50
BRANCH  39  60
ATOM     60  C   UNL A   1      42.492  28.929  33.880  1.00  0.00    -0.014 A 
ATOM     61  C   UNL A   1      42.053  27.617  33.624  1.00  0.00     0.010 A 
ATOM     62  C   UNL A   1      42.721  29.312  35.214  1.00  0.00     0.010 A 
ATOM     63  C   UNL A   1      41.823  26.719  34.676  1.00  0.00     0.020 A 
ATOM     64  C   UNL A   1      42.512  28.417  36.266  1.00  0.00     0.020 A 
ATOM     65  C   UNL A   1      42.057  27.126  35.992  1.00  0.00     0.054 A 
BRANCH  65  66
ATOM     66  S   UNL A   1      41.825  25.936  37.342  1.00  0.00     0.124 S 
ATOM     67  O   UNL A   1      42.838  26.350  38.308  1.00  0.00    -0.237 OA
ATOM     68  O   UNL A   1      40.439  26.165  37.745  1.00  0.00    -0.237 OA
ATOM     69  O   UNL A   1      42.068  24.640  36.709  1.00  0.00    -0.744 OA
ENDBRANCH  65  66
ENDBRANCH  39  60
ENDBRANCH  13  14
ENDBRANCH   6   8
ENDBRANCH   3   4
ENDBRANCH   2   3
ENDBRANCH   1   2
BRANCH   1  70
ATOM     70  C   UNL A   1      38.825  22.965  26.262  1.00  0.00     0.002 C 
BRANCH  70  71
ATOM     71  C   UNL A   1      37.449  23.190  25.624  1.00  0.00     0.021 C 
BRANCH  71  72
ATOM     72  C   UNL A   1      36.495  22.001  25.673  1.00  0.00     0.116 C 
BRANCH  72  73
ATOM     73  N   UNL A   1      35.467  22.106  26.686  1.00  0.00    -0.352 N 
ATOM     74  C   UNL A   1      34.107  21.945  26.597  1.00  0.00     0.253 C 
ATOM     75  H   UNL A   1      35.796  22.327  27.586  1.00  0.00     0.163 HD
ATOM     76  O   UNL A   1      33.440  22.111  27.616  1.00  0.00    -0.269 OA
BRANCH  74  77
ATOM     77  C   UNL A   1      33.449  21.726  25.307  1.00  0.00     0.074 A 
ATOM     78  C   UNL A   1      33.235  22.691  24.320  1.00  0.00     0.148 A 
ATOM     79  C   UNL A   1      33.092  20.404  24.817  1.00  0.00    -0.009 A 
ATOM     80  S   UNL A   1      32.525  21.999  22.918  1.00  0.00    -0.120 S 
ATOM     81  C   UNL A   1      32.570  20.440  23.542  1.00  0.00     0.064 A 
ATOM     82  C   UNL A   1      33.236  19.082  25.523  1.00  0.00     0.099 C 
ATOM     83  C   UNL A   1      32.149  19.247  22.739  1.00  0.00     0.308 C 
ATOM     84  C   UNL A   1      33.056  17.901  24.537  1.00  0.00     0.265 C 
ATOM     85  N   UNL A   1      31.916  18.081  23.611  1.00  0.00    -0.342 N 
ATOM     86  H   UNL A   1      31.063  18.229  24.151  1.00  0.00     0.346 HD
ATOM     87  H   UNL A   1      31.820  17.245  23.033  1.00  0.00     0.346 HD
BRANCH  78  88
ATOM     88  S   UNL A   1      33.635  24.448  24.211  1.00  0.00     0.253 S 
ATOM     89  O   UNL A   1      34.455  24.698  25.375  1.00  0.00    -0.206 OA
ATOM     90  O   UNL A   1      34.146  24.594  22.867  1.00  0.00    -0.206 OA
BRANCH  88  91
ATOM     91  N   UNL A   1      32.258  25.448  24.393  1.00  0.00    -0.197 NA
ATOM     92  C   UNL A   1      32.345  26.490  25.438  1.00  0.00     0.102 C 
ATOM     93  C   UNL A   1      31.511  25.728  23.141  1.00  0.00     0.102 C 
ATOM     94  C   UNL A   1      31.059  27.292  25.574  1.00  0.00     0.017 C 
ATOM     95  C   UNL A   1      30.280  26.598  23.342  1.00  0.00     0.017 C 
ATOM     96  C   UNL A   1      30.582  27.796  24.223  1.00  0.00     0.003 C 
ENDBRANCH  88  91
ENDBRANCH  78  88
ENDBRANCH  74  77
ENDBRANCH  72  73
ENDBRANCH  71  72
ENDBRANCH  70  71
ENDBRANCH   1  70
TORSDOF 18
ENDMDL
