MODEL 1
REMARK VINA RESULT:     -11.0      0.000      0.000
REMARK SMILES O=C(NCCCCCCNC(=O)c1ccc(S(=O)(=O)Cc2ncccn2)c(F)c1)c1ccc(-c2c3nc(c(-c4ccc(S(=O)(=O)[O-])cc4)c4ccc([nH]4)c(-c4ccc(S(=O)(=O)[O-])cc4)c4nc(c(-c5ccc(S(=O)(=O)[O-])cc5)c5ccc2[nH]5)C=C4)C=C3)cc1
REMARK SMILES IDX 6 1 5 2 4 3 3 4 1 5 2 6 30 8 31 9 89 10 32 11 88 12 33 13
REMARK SMILES IDX 34 14 35 15 82 16 36 17 87 18 81 19 83 20 37 21 86 22 80 23
REMARK SMILES IDX 79 24 38 26 68 27 49 28 67 29 50 30 53 31 66 32 84 33 51 34
REMARK SMILES IDX 52 35 65 37 85 38 54 39 39 40 40 41 48 42 41 43 47 44 42 45
REMARK SMILES IDX 43 46 44 47 45 48 46 49 69 50 70 51 78 52 71 53 77 54 72 55
REMARK SMILES IDX 73 56 74 57 75 58 76 59 55 60 56 61 64 62 57 63 63 64 58 65
REMARK SMILES IDX 59 66 60 67 61 68 62 69 7 70 8 71 9 72 10 73 11 74 12 76
REMARK SMILES IDX 13 77 14 78 29 79 15 80 27 81 16 82 28 83 17 84 18 85 19 86
REMARK SMILES IDX 20 87 21 88 22 89 26 90 23 91 25 92 24 93
REMARK H PARENT 3 7 83 25 53 36 10 75
REMARK Flexibility Score: inf
ROOT
ATOM      1  C   UNL A   1      31.793  28.635  25.697  1.00  0.00     0.002 C 
ENDROOT
BRANCH   1   2
ATOM      2  C   UNL A   1      32.929  27.664  26.025  1.00  0.00     0.021 C 
BRANCH   2   3
ATOM      3  C   UNL A   1      34.037  28.236  26.901  1.00  0.00     0.116 C 
BRANCH   3   4
ATOM      4  N   UNL A   1      33.750  29.588  27.348  1.00  0.00    -0.352 N 
ATOM      5  O   UNL A   1      34.071  31.494  28.508  1.00  0.00    -0.269 OA
ATOM      6  C   UNL A   1      34.541  30.446  28.072  1.00  0.00     0.251 C 
ATOM      7  H   UNL A   1      32.864  29.938  27.098  1.00  0.00     0.163 HD
BRANCH   6   8
ATOM      8  C   UNL A   1      35.954  30.097  28.340  1.00  0.00     0.039 A 
ATOM      9  C   UNL A   1      36.927  30.236  27.347  1.00  0.00     0.014 A 
ATOM     10  C   UNL A   1      36.313  29.645  29.614  1.00  0.00     0.014 A 
ATOM     11  C   UNL A   1      38.231  29.815  27.590  1.00  0.00     0.010 A 
ATOM     12  C   UNL A   1      37.639  29.293  29.879  1.00  0.00     0.010 A 
ATOM     13  C   UNL A   1      38.606  29.356  28.863  1.00  0.00    -0.014 A 
BRANCH  13  14
ATOM     14  C   UNL A   1      40.028  29.033  29.136  1.00  0.00     0.031 A 
ATOM     15  C   UNL A   1      40.613  27.701  28.757  1.00  0.00     0.074 A 
ATOM     16  C   UNL A   1      40.797  29.965  29.732  1.00  0.00     0.049 A 
ATOM     17  N   UNL A   1      41.835  27.264  28.926  1.00  0.00    -0.248 NA
ATOM     18  C   UNL A   1      39.714  26.731  28.109  1.00  0.00     0.031 C 
ATOM     19  C   UNL A   1      40.336  31.292  30.153  1.00  0.00     0.029 A 
ATOM     20  N   UNL A   1      42.124  29.950  30.077  1.00  0.00    -0.354 N 
ATOM     21  C   UNL A   1      41.851  25.966  28.426  1.00  0.00     0.074 A 
ATOM     22  C   UNL A   1      40.510  25.679  27.963  1.00  0.00     0.031 C 
ATOM     23  C   UNL A   1      41.370  31.974  30.667  1.00  0.00     0.029 A 
ATOM     24  C   UNL A   1      42.549  31.116  30.667  1.00  0.00     0.049 A 
ATOM     25  H   UNL A   1      42.715  29.179  29.918  1.00  0.00     0.167 HD
ATOM     26  C   UNL A   1      42.889  25.098  28.360  1.00  0.00     0.031 A 
ATOM     27  C   UNL A   1      43.749  31.455  31.177  1.00  0.00     0.031 A 
ATOM     28  C   UNL A   1      44.221  25.391  28.826  1.00  0.00     0.049 A 
ATOM     29  C   UNL A   1      44.871  30.463  31.120  1.00  0.00     0.074 A 
ATOM     30  C   UNL A   1      45.349  24.590  28.765  1.00  0.00     0.029 A 
ATOM     31  N   UNL A   1      44.604  26.571  29.445  1.00  0.00    -0.354 N 
ATOM     32  N   UNL A   1      44.875  29.257  30.605  1.00  0.00    -0.248 NA
ATOM     33  C   UNL A   1      46.150  30.873  31.714  1.00  0.00     0.031 C 
ATOM     34  C   UNL A   1      46.400  25.265  29.395  1.00  0.00     0.029 A 
ATOM     35  C   UNL A   1      45.941  26.509  29.799  1.00  0.00     0.049 A 
ATOM     36  H   UNL A   1      44.011  27.341  29.608  1.00  0.00     0.167 HD
ATOM     37  C   UNL A   1      46.160  28.767  30.802  1.00  0.00     0.074 A 
ATOM     38  C   UNL A   1      46.911  29.816  31.464  1.00  0.00     0.031 C 
ATOM     39  C   UNL A   1      46.671  27.558  30.466  1.00  0.00     0.031 A 
BRANCH  26  40
ATOM     40  C   UNL A   1      42.624  23.731  27.785  1.00  0.00    -0.014 A 
ATOM     41  C   UNL A   1      42.889  23.443  26.435  1.00  0.00     0.010 A 
ATOM     42  C   UNL A   1      42.157  22.702  28.624  1.00  0.00     0.010 A 
ATOM     43  C   UNL A   1      42.656  22.161  25.926  1.00  0.00     0.020 A 
ATOM     44  C   UNL A   1      41.945  21.413  28.124  1.00  0.00     0.020 A 
ATOM     45  C   UNL A   1      42.181  21.156  26.773  1.00  0.00     0.054 A 
BRANCH  45  46
ATOM     46  S   UNL A   1      41.904  19.497  26.090  1.00  0.00     0.124 S 
ATOM     47  O   UNL A   1      42.397  18.643  27.168  1.00  0.00    -0.237 OA
ATOM     48  O   UNL A   1      40.458  19.472  25.881  1.00  0.00    -0.237 OA
ATOM     49  O   UNL A   1      42.708  19.485  24.869  1.00  0.00    -0.744 OA
ENDBRANCH  45  46
ENDBRANCH  26  40
BRANCH  27  50
ATOM     50  C   UNL A   1      43.929  32.793  31.802  1.00  0.00    -0.014 A 
ATOM     51  C   UNL A   1      43.714  32.976  33.179  1.00  0.00     0.010 A 
ATOM     52  C   UNL A   1      44.356  33.885  31.023  1.00  0.00     0.010 A 
ATOM     53  C   UNL A   1      43.912  34.230  33.762  1.00  0.00     0.020 A 
ATOM     54  C   UNL A   1      44.581  35.133  31.608  1.00  0.00     0.020 A 
ATOM     55  C   UNL A   1      44.348  35.299  32.974  1.00  0.00     0.054 A 
BRANCH  55  56
ATOM     56  S   UNL A   1      44.659  36.903  33.764  1.00  0.00     0.124 S 
ATOM     57  O   UNL A   1      43.360  37.557  33.643  1.00  0.00    -0.237 OA
ATOM     58  O   UNL A   1      45.052  36.520  35.117  1.00  0.00    -0.237 OA
ATOM     59  O   UNL A   1      45.729  37.479  32.953  1.00  0.00    -0.744 OA
ENDBRANCH  55  56
ENDBRANCH  27  50
BRANCH  39  60
ATOM     60  C   UNL A   1      48.117  27.309  30.796  1.00  0.00    -0.014 A 
ATOM     61  C   UNL A   1      48.488  26.652  31.983  1.00  0.00     0.010 A 
ATOM     62  C   UNL A   1      49.115  27.693  29.882  1.00  0.00     0.010 A 
ATOM     63  C   UNL A   1      49.834  26.408  32.262  1.00  0.00     0.020 A 
ATOM     64  C   UNL A   1      50.461  27.427  30.146  1.00  0.00     0.020 A 
ATOM     65  C   UNL A   1      50.813  26.798  31.343  1.00  0.00     0.054 A 
BRANCH  65  66
ATOM     66  S   UNL A   1      52.550  26.426  31.705  1.00  0.00     0.124 S 
ATOM     67  O   UNL A   1      52.434  25.313  32.644  1.00  0.00    -0.237 OA
ATOM     68  O   UNL A   1      53.088  26.087  30.390  1.00  0.00    -0.237 OA
ATOM     69  O   UNL A   1      53.059  27.672  32.277  1.00  0.00    -0.744 OA
ENDBRANCH  65  66
ENDBRANCH  39  60
ENDBRANCH  13  14
ENDBRANCH   6   8
ENDBRANCH   3   4
ENDBRANCH   2   3
ENDBRANCH   1   2
BRANCH   1  70
ATOM     70  C   UNL A   1      31.153  28.462  24.316  1.00  0.00     0.002 C 
BRANCH  70  71
ATOM     71  C   UNL A   1      30.490  27.104  24.054  1.00  0.00     0.021 C 
BRANCH  71  72
ATOM     72  C   UNL A   1      30.699  26.537  22.650  1.00  0.00     0.116 C 
BRANCH  72  73
ATOM     73  N   UNL A   1      31.957  26.976  22.067  1.00  0.00    -0.352 N 
ATOM     74  C   UNL A   1      33.187  26.377  22.123  1.00  0.00     0.251 C 
ATOM     75  H   UNL A   1      31.919  27.820  21.562  1.00  0.00     0.163 HD
ATOM     76  O   UNL A   1      34.193  26.941  21.706  1.00  0.00    -0.269 OA
BRANCH  74  77
ATOM     77  C   UNL A   1      33.305  25.033  22.715  1.00  0.00     0.042 A 
ATOM     78  C   UNL A   1      32.927  23.903  21.983  1.00  0.00     0.015 A 
ATOM     79  C   UNL A   1      33.788  24.913  24.019  1.00  0.00     0.054 A 
ATOM     80  C   UNL A   1      32.999  22.644  22.580  1.00  0.00     0.024 A 
ATOM     81  C   UNL A   1      33.830  23.657  24.615  1.00  0.00     0.142 A 
ATOM     82  C   UNL A   1      33.445  22.527  23.905  1.00  0.00     0.103 A 
ATOM     83  F   UNL A   1      34.201  23.579  25.897  1.00  0.00    -0.206 F 
BRANCH  82  84
ATOM     84  S   UNL A   1      33.393  20.936  24.668  1.00  0.00     0.188 S 
ATOM     85  O   UNL A   1      34.781  20.500  24.683  1.00  0.00    -0.223 OA
ATOM     86  O   UNL A   1      32.706  21.105  25.938  1.00  0.00    -0.223 OA
BRANCH  84  87
ATOM     87  C   UNL A   1      32.507  19.773  23.694  1.00  0.00     0.219 C 
BRANCH  87  88
ATOM     88  C   UNL A   1      32.753  18.367  24.125  1.00  0.00     0.143 A 
ATOM     89  N   UNL A   1      33.612  17.653  23.364  1.00  0.00    -0.240 NA
ATOM     90  N   UNL A   1      32.237  17.915  25.278  1.00  0.00    -0.240 NA
ATOM     91  C   UNL A   1      33.923  16.414  23.785  1.00  0.00     0.115 A 
ATOM     92  C   UNL A   1      32.582  16.669  25.660  1.00  0.00     0.115 A 
ATOM     93  C   UNL A   1      33.432  15.864  24.942  1.00  0.00     0.040 A 
ENDBRANCH  87  88
ENDBRANCH  84  87
ENDBRANCH  82  84
ENDBRANCH  74  77
ENDBRANCH  72  73
ENDBRANCH  71  72
ENDBRANCH  70  71
ENDBRANCH   1  70
TORSDOF 19
ENDMDL
MODEL 2
REMARK VINA RESULT:     -10.8      2.510      8.174
REMARK SMILES O=C(NCCCCCCNC(=O)c1ccc(S(=O)(=O)Cc2ncccn2)c(F)c1)c1ccc(-c2c3nc(c(-c4ccc(S(=O)(=O)[O-])cc4)c4ccc([nH]4)c(-c4ccc(S(=O)(=O)[O-])cc4)c4nc(c(-c5ccc(S(=O)(=O)[O-])cc5)c5ccc2[nH]5)C=C4)C=C3)cc1
REMARK SMILES IDX 6 1 5 2 4 3 3 4 1 5 2 6 30 8 31 9 89 10 32 11 88 12 33 13
REMARK SMILES IDX 34 14 35 15 82 16 36 17 87 18 81 19 83 20 37 21 86 22 80 23
REMARK SMILES IDX 79 24 38 26 68 27 49 28 67 29 50 30 53 31 66 32 84 33 51 34
REMARK SMILES IDX 52 35 65 37 85 38 54 39 39 40 40 41 48 42 41 43 47 44 42 45
REMARK SMILES IDX 43 46 44 47 45 48 46 49 69 50 70 51 78 52 71 53 77 54 72 55
REMARK SMILES IDX 73 56 74 57 75 58 76 59 55 60 56 61 64 62 57 63 63 64 58 65
REMARK SMILES IDX 59 66 60 67 61 68 62 69 7 70 8 71 9 72 10 73 11 74 12 76
REMARK SMILES IDX 13 77 14 78 29 79 15 80 27 81 16 82 28 83 17 84 18 85 19 86
REMARK SMILES IDX 20 87 21 88 22 89 26 90 23 91 25 92 24 93
REMARK H PARENT 3 7 83 25 53 36 10 75
REMARK Flexibility Score: inf
ROOT
ATOM      1  C   UNL A   1      31.792  29.234  25.342  1.00  0.00     0.002 C 
ENDROOT
BRANCH   1   2
ATOM      2  C   UNL A   1      33.098  28.450  25.475  1.00  0.00     0.021 C 
BRANCH   2   3
ATOM      3  C   UNL A   1      34.181  29.131  26.303  1.00  0.00     0.116 C 
BRANCH   3   4
ATOM      4  N   UNL A   1      33.815  30.481  26.694  1.00  0.00    -0.352 N 
ATOM      5  O   UNL A   1      33.831  32.341  27.967  1.00  0.00    -0.269 OA
ATOM      6  C   UNL A   1      34.378  31.287  27.653  1.00  0.00     0.251 C 
ATOM      7  H   UNL A   1      33.057  30.874  26.203  1.00  0.00     0.163 HD
BRANCH   6   8
ATOM      8  C   UNL A   1      35.633  30.874  28.320  1.00  0.00     0.039 A 
ATOM      9  C   UNL A   1      36.827  31.560  28.086  1.00  0.00     0.014 A 
ATOM     10  C   UNL A   1      35.607  29.795  29.209  1.00  0.00     0.014 A 
ATOM     11  C   UNL A   1      38.013  31.100  28.650  1.00  0.00     0.010 A 
ATOM     12  C   UNL A   1      36.787  29.379  29.832  1.00  0.00     0.010 A 
ATOM     13  C   UNL A   1      38.004  30.016  29.543  1.00  0.00    -0.014 A 
BRANCH  13  14
ATOM     14  C   UNL A   1      39.259  29.621  30.229  1.00  0.00     0.031 A 
ATOM     15  C   UNL A   1      39.721  30.321  31.476  1.00  0.00     0.074 A 
ATOM     16  C   UNL A   1      39.985  28.610  29.711  1.00  0.00     0.049 A 
ATOM     17  N   UNL A   1      40.793  30.097  32.193  1.00  0.00    -0.248 NA
ATOM     18  C   UNL A   1      38.879  31.416  31.984  1.00  0.00     0.031 C 
ATOM     19  C   UNL A   1      39.639  27.862  28.499  1.00  0.00     0.029 A 
ATOM     20  N   UNL A   1      41.151  28.029  30.138  1.00  0.00    -0.354 N 
ATOM     21  C   UNL A   1      40.767  31.030  33.224  1.00  0.00     0.074 A 
ATOM     22  C   UNL A   1      39.581  31.837  33.029  1.00  0.00     0.031 C 
ATOM     23  C   UNL A   1      40.552  26.900  28.300  1.00  0.00     0.029 A 
ATOM     24  C   UNL A   1      41.577  27.001  29.333  1.00  0.00     0.049 A 
ATOM     25  H   UNL A   1      41.636  28.320  30.944  1.00  0.00     0.167 HD
ATOM     26  C   UNL A   1      41.651  31.195  34.238  1.00  0.00     0.031 A 
ATOM     27  C   UNL A   1      42.683  26.235  29.398  1.00  0.00     0.031 A 
ATOM     28  C   UNL A   1      42.830  30.387  34.424  1.00  0.00     0.049 A 
ATOM     29  C   UNL A   1      43.661  26.461  30.512  1.00  0.00     0.074 A 
ATOM     30  C   UNL A   1      43.765  30.453  35.443  1.00  0.00     0.029 A 
ATOM     31  N   UNL A   1      43.243  29.377  33.569  1.00  0.00    -0.354 N 
ATOM     32  N   UNL A   1      43.595  27.322  31.500  1.00  0.00    -0.248 NA
ATOM     33  C   UNL A   1      44.862  25.617  30.522  1.00  0.00     0.031 C 
ATOM     34  C   UNL A   1      44.770  29.517  35.176  1.00  0.00     0.029 A 
ATOM     35  C   UNL A   1      44.434  28.832  34.020  1.00  0.00     0.049 A 
ATOM     36  H   UNL A   1      42.760  29.088  32.761  1.00  0.00     0.167 HD
ATOM     37  C   UNL A   1      44.741  27.115  32.257  1.00  0.00     0.074 A 
ATOM     38  C   UNL A   1      45.471  26.034  31.624  1.00  0.00     0.031 C 
ATOM     39  C   UNL A   1      45.153  27.762  33.374  1.00  0.00     0.031 A 
BRANCH  26  40
ATOM     40  C   UNL A   1      41.394  32.310  35.218  1.00  0.00    -0.014 A 
ATOM     41  C   UNL A   1      41.948  33.589  35.030  1.00  0.00     0.010 A 
ATOM     42  C   UNL A   1      40.537  32.092  36.312  1.00  0.00     0.010 A 
ATOM     43  C   UNL A   1      41.680  34.617  35.939  1.00  0.00     0.020 A 
ATOM     44  C   UNL A   1      40.248  33.124  37.211  1.00  0.00     0.020 A 
ATOM     45  C   UNL A   1      40.835  34.376  37.027  1.00  0.00     0.054 A 
BRANCH  45  46
ATOM     46  S   UNL A   1      40.490  35.733  38.181  1.00  0.00     0.124 S 
ATOM     47  O   UNL A   1      39.805  36.693  37.320  1.00  0.00    -0.237 OA
ATOM     48  O   UNL A   1      39.655  35.090  39.193  1.00  0.00    -0.237 OA
ATOM     49  O   UNL A   1      41.815  36.145  38.640  1.00  0.00    -0.744 OA
ENDBRANCH  45  46
ENDBRANCH  26  40
BRANCH  27  50
ATOM     50  C   UNL A   1      42.922  25.200  28.357  1.00  0.00    -0.014 A 
ATOM     51  C   UNL A   1      43.661  25.503  27.201  1.00  0.00     0.010 A 
ATOM     52  C   UNL A   1      42.439  23.890  28.540  1.00  0.00     0.010 A 
ATOM     53  C   UNL A   1      43.903  24.516  26.241  1.00  0.00     0.020 A 
ATOM     54  C   UNL A   1      42.704  22.896  27.595  1.00  0.00     0.020 A 
ATOM     55  C   UNL A   1      43.426  23.219  26.446  1.00  0.00     0.054 A 
BRANCH  55  56
ATOM     56  S   UNL A   1      43.806  21.939  25.217  1.00  0.00     0.124 S 
ATOM     57  O   UNL A   1      42.750  20.962  25.462  1.00  0.00    -0.237 OA
ATOM     58  O   UNL A   1      43.712  22.670  23.957  1.00  0.00    -0.237 OA
ATOM     59  O   UNL A   1      45.154  21.509  25.579  1.00  0.00    -0.744 OA
ENDBRANCH  55  56
ENDBRANCH  27  50
BRANCH  39  60
ATOM     60  C   UNL A   1      46.446  27.309  33.993  1.00  0.00    -0.014 A 
ATOM     61  C   UNL A   1      47.668  27.908  33.640  1.00  0.00     0.010 A 
ATOM     62  C   UNL A   1      46.431  26.303  34.977  1.00  0.00     0.010 A 
ATOM     63  C   UNL A   1      48.857  27.490  34.242  1.00  0.00     0.020 A 
ATOM     64  C   UNL A   1      47.615  25.901  35.599  1.00  0.00     0.020 A 
ATOM     65  C   UNL A   1      48.824  26.489  35.218  1.00  0.00     0.054 A 
BRANCH  65  66
ATOM     66  S   UNL A   1      50.374  25.998  36.020  1.00  0.00     0.124 S 
ATOM     67  O   UNL A   1      50.601  24.670  35.457  1.00  0.00    -0.237 OA
ATOM     68  O   UNL A   1      51.306  27.035  35.581  1.00  0.00    -0.237 OA
ATOM     69  O   UNL A   1      50.050  26.025  37.445  1.00  0.00    -0.744 OA
ENDBRANCH  65  66
ENDBRANCH  39  60
ENDBRANCH  13  14
ENDBRANCH   6   8
ENDBRANCH   3   4
ENDBRANCH   2   3
ENDBRANCH   1   2
BRANCH   1  70
ATOM     70  C   UNL A   1      30.928  28.879  24.128  1.00  0.00     0.002 C 
BRANCH  70  71
ATOM     71  C   UNL A   1      30.427  27.432  24.067  1.00  0.00     0.021 C 
BRANCH  71  72
ATOM     72  C   UNL A   1      30.694  26.705  22.749  1.00  0.00     0.116 C 
BRANCH  72  73
ATOM     73  N   UNL A   1      31.939  27.136  22.132  1.00  0.00    -0.352 N 
ATOM     74  C   UNL A   1      33.165  26.528  22.151  1.00  0.00     0.251 C 
ATOM     75  H   UNL A   1      31.892  27.983  21.631  1.00  0.00     0.163 HD
ATOM     76  O   UNL A   1      34.163  27.086  21.706  1.00  0.00    -0.269 OA
BRANCH  74  77
ATOM     77  C   UNL A   1      33.289  25.181  22.734  1.00  0.00     0.042 A 
ATOM     78  C   UNL A   1      32.933  24.052  21.988  1.00  0.00     0.015 A 
ATOM     79  C   UNL A   1      33.757  25.057  24.043  1.00  0.00     0.054 A 
ATOM     80  C   UNL A   1      33.011  22.790  22.578  1.00  0.00     0.024 A 
ATOM     81  C   UNL A   1      33.805  23.797  24.630  1.00  0.00     0.142 A 
ATOM     82  C   UNL A   1      33.442  22.668  23.907  1.00  0.00     0.103 A 
ATOM     83  F   UNL A   1      34.161  23.713  25.916  1.00  0.00    -0.206 F 
BRANCH  82  84
ATOM     84  S   UNL A   1      33.397  21.071  24.658  1.00  0.00     0.188 S 
ATOM     85  O   UNL A   1      34.785  20.635  24.657  1.00  0.00    -0.223 OA
ATOM     86  O   UNL A   1      32.721  21.229  25.936  1.00  0.00    -0.223 OA
BRANCH  84  87
ATOM     87  C   UNL A   1      32.502  19.915  23.682  1.00  0.00     0.219 C 
BRANCH  87  88
ATOM     88  C   UNL A   1      32.749  18.506  24.103  1.00  0.00     0.143 A 
ATOM     89  N   UNL A   1      33.655  17.818  23.374  1.00  0.00    -0.240 NA
ATOM     90  N   UNL A   1      32.184  18.027  25.222  1.00  0.00    -0.240 NA
ATOM     91  C   UNL A   1      33.965  16.577  23.791  1.00  0.00     0.115 A 
ATOM     92  C   UNL A   1      32.530  16.781  25.600  1.00  0.00     0.115 A 
ATOM     93  C   UNL A   1      33.427  16.000  24.912  1.00  0.00     0.040 A 
ENDBRANCH  87  88
ENDBRANCH  84  87
ENDBRANCH  82  84
ENDBRANCH  74  77
ENDBRANCH  72  73
ENDBRANCH  71  72
ENDBRANCH  70  71
ENDBRANCH   1  70
TORSDOF 19
ENDMDL
MODEL 3
REMARK VINA RESULT:     -10.8      0.405      8.087
REMARK SMILES O=C(NCCCCCCNC(=O)c1ccc(S(=O)(=O)Cc2ncccn2)c(F)c1)c1ccc(-c2c3nc(c(-c4ccc(S(=O)(=O)[O-])cc4)c4ccc([nH]4)c(-c4ccc(S(=O)(=O)[O-])cc4)c4nc(c(-c5ccc(S(=O)(=O)[O-])cc5)c5ccc2[nH]5)C=C4)C=C3)cc1
REMARK SMILES IDX 6 1 5 2 4 3 3 4 1 5 2 6 30 8 31 9 89 10 32 11 88 12 33 13
REMARK SMILES IDX 34 14 35 15 82 16 36 17 87 18 81 19 83 20 37 21 86 22 80 23
REMARK SMILES IDX 79 24 38 26 68 27 49 28 67 29 50 30 53 31 66 32 84 33 51 34
REMARK SMILES IDX 52 35 65 37 85 38 54 39 39 40 40 41 48 42 41 43 47 44 42 45
REMARK SMILES IDX 43 46 44 47 45 48 46 49 69 50 70 51 78 52 71 53 77 54 72 55
REMARK SMILES IDX 73 56 74 57 75 58 76 59 55 60 56 61 64 62 57 63 63 64 58 65
REMARK SMILES IDX 59 66 60 67 61 68 62 69 7 70 8 71 9 72 10 73 11 74 12 76
REMARK SMILES IDX 13 77 14 78 29 79 15 80 27 81 16 82 28 83 17 84 18 85 19 86
REMARK SMILES IDX 20 87 21 88 22 89 26 90 23 91 25 92 24 93
REMARK H PARENT 3 7 83 25 53 36 10 75
REMARK Flexibility Score: inf
ROOT
ATOM      1  C   UNL A   1      31.853  28.626  25.669  1.00  0.00     0.002 C 
ENDROOT
BRANCH   1   2
ATOM      2  C   UNL A   1      33.269  28.048  25.690  1.00  0.00     0.021 C 
BRANCH   2   3
ATOM      3  C   UNL A   1      34.095  28.402  26.922  1.00  0.00     0.116 C 
BRANCH   3   4
ATOM      4  N   UNL A   1      33.789  29.726  27.434  1.00  0.00    -0.352 N 
ATOM      5  O   UNL A   1      34.080  31.573  28.693  1.00  0.00    -0.269 OA
ATOM      6  C   UNL A   1      34.565  30.554  28.208  1.00  0.00     0.251 C 
ATOM      7  H   UNL A   1      32.901  30.079  27.194  1.00  0.00     0.163 HD
BRANCH   6   8
ATOM      8  C   UNL A   1      35.979  30.207  28.471  1.00  0.00     0.039 A 
ATOM      9  C   UNL A   1      36.942  30.318  27.465  1.00  0.00     0.014 A 
ATOM     10  C   UNL A   1      36.349  29.784  29.751  1.00  0.00     0.014 A 
ATOM     11  C   UNL A   1      38.247  29.899  27.705  1.00  0.00     0.010 A 
ATOM     12  C   UNL A   1      37.677  29.433  30.012  1.00  0.00     0.010 A 
ATOM     13  C   UNL A   1      38.634  29.470  28.985  1.00  0.00    -0.014 A 
BRANCH  13  14
ATOM     14  C   UNL A   1      40.057  29.147  29.251  1.00  0.00     0.031 A 
ATOM     15  C   UNL A   1      40.985  30.157  29.869  1.00  0.00     0.074 A 
ATOM     16  C   UNL A   1      40.510  27.919  28.930  1.00  0.00     0.049 A 
ATOM     17  N   UNL A   1      42.254  30.031  30.165  1.00  0.00    -0.248 NA
ATOM     18  C   UNL A   1      40.422  31.477  30.194  1.00  0.00     0.031 C 
ATOM     19  C   UNL A   1      39.703  26.859  28.318  1.00  0.00     0.029 A 
ATOM     20  N   UNL A   1      41.747  27.349  29.081  1.00  0.00    -0.354 N 
ATOM     21  C   UNL A   1      42.648  31.256  30.691  1.00  0.00     0.074 A 
ATOM     22  C   UNL A   1      41.486  32.120  30.658  1.00  0.00     0.031 C 
ATOM     23  C   UNL A   1      40.456  25.758  28.178  1.00  0.00     0.029 A 
ATOM     24  C   UNL A   1      41.810  26.051  28.633  1.00  0.00     0.049 A 
ATOM     25  H   UNL A   1      42.516  27.822  29.473  1.00  0.00     0.167 HD
ATOM     26  C   UNL A   1      43.865  31.624  31.160  1.00  0.00     0.031 A 
ATOM     27  C   UNL A   1      42.846  25.193  28.571  1.00  0.00     0.031 A 
ATOM     28  C   UNL A   1      45.017  30.757  31.187  1.00  0.00     0.049 A 
ATOM     29  C   UNL A   1      44.190  25.637  29.065  1.00  0.00     0.074 A 
ATOM     30  C   UNL A   1      46.283  31.027  31.679  1.00  0.00     0.029 A 
ATOM     31  N   UNL A   1      45.048  29.461  30.696  1.00  0.00    -0.354 N 
ATOM     32  N   UNL A   1      44.530  26.786  29.598  1.00  0.00    -0.248 NA
ATOM     33  C   UNL A   1      45.291  24.672  28.950  1.00  0.00     0.031 C 
ATOM     34  C   UNL A   1      47.093  29.912  31.437  1.00  0.00     0.029 A 
ATOM     35  C   UNL A   1      46.318  28.928  30.845  1.00  0.00     0.049 A 
ATOM     36  H   UNL A   1      44.279  28.989  30.301  1.00  0.00     0.167 HD
ATOM     37  C   UNL A   1      45.884  26.679  29.893  1.00  0.00     0.074 A 
ATOM     38  C   UNL A   1      46.293  25.345  29.499  1.00  0.00     0.031 C 
ATOM     39  C   UNL A   1      46.712  27.602  30.439  1.00  0.00     0.031 A 
BRANCH  26  40
ATOM     40  C   UNL A   1      44.028  33.035  31.658  1.00  0.00    -0.014 A 
ATOM     41  C   UNL A   1      43.805  33.363  33.008  1.00  0.00     0.010 A 
ATOM     42  C   UNL A   1      44.465  34.040  30.775  1.00  0.00     0.010 A 
ATOM     43  C   UNL A   1      43.982  34.676  33.455  1.00  0.00     0.020 A 
ATOM     44  C   UNL A   1      44.666  35.349  31.224  1.00  0.00     0.020 A 
ATOM     45  C   UNL A   1      44.406  35.662  32.560  1.00  0.00     0.054 A 
BRANCH  45  46
ATOM     46  S   UNL A   1      44.645  37.354  33.172  1.00  0.00     0.124 S 
ATOM     47  O   UNL A   1      43.890  37.330  34.421  1.00  0.00    -0.237 OA
ATOM     48  O   UNL A   1      46.096  37.441  33.317  1.00  0.00    -0.237 OA
ATOM     49  O   UNL A   1      44.076  38.189  32.116  1.00  0.00    -0.744 OA
ENDBRANCH  45  46
ENDBRANCH  26  40
BRANCH  27  50
ATOM     50  C   UNL A   1      42.642  23.836  27.996  1.00  0.00    -0.014 A 
ATOM     51  C   UNL A   1      42.320  22.747  28.823  1.00  0.00     0.010 A 
ATOM     52  C   UNL A   1      42.735  23.639  26.605  1.00  0.00     0.010 A 
ATOM     53  C   UNL A   1      42.104  21.482  28.270  1.00  0.00     0.020 A 
ATOM     54  C   UNL A   1      42.493  22.381  26.047  1.00  0.00     0.020 A 
ATOM     55  C   UNL A   1      42.189  21.308  26.886  1.00  0.00     0.054 A 
BRANCH  55  56
ATOM     56  S   UNL A   1      41.843  19.671  26.184  1.00  0.00     0.124 S 
ATOM     57  O   UNL A   1      42.337  18.782  27.231  1.00  0.00    -0.237 OA
ATOM     58  O   UNL A   1      40.393  19.700  26.009  1.00  0.00    -0.237 OA
ATOM     59  O   UNL A   1      42.612  19.664  24.942  1.00  0.00    -0.744 OA
ENDBRANCH  55  56
ENDBRANCH  27  50
BRANCH  39  60
ATOM     60  C   UNL A   1      48.143  27.197  30.656  1.00  0.00    -0.014 A 
ATOM     61  C   UNL A   1      49.140  27.520  29.719  1.00  0.00     0.010 A 
ATOM     62  C   UNL A   1      48.503  26.525  31.839  1.00  0.00     0.010 A 
ATOM     63  C   UNL A   1      50.469  27.156  29.948  1.00  0.00     0.020 A 
ATOM     64  C   UNL A   1      49.835  26.182  32.083  1.00  0.00     0.020 A 
ATOM     65  C   UNL A   1      50.808  26.488  31.129  1.00  0.00     0.054 A 
BRANCH  65  66
ATOM     66  S   UNL A   1      52.547  26.069  31.426  1.00  0.00     0.124 S 
ATOM     67  O   UNL A   1      53.096  26.071  30.073  1.00  0.00    -0.237 OA
ATOM     68  O   UNL A   1      52.998  27.159  32.289  1.00  0.00    -0.237 OA
ATOM     69  O   UNL A   1      52.483  24.759  32.071  1.00  0.00    -0.744 OA
ENDBRANCH  65  66
ENDBRANCH  39  60
ENDBRANCH  13  14
ENDBRANCH   6   8
ENDBRANCH   3   4
ENDBRANCH   2   3
ENDBRANCH   1   2
BRANCH   1  70
ATOM     70  C   UNL A   1      31.050  28.364  24.391  1.00  0.00     0.002 C 
BRANCH  70  71
ATOM     71  C   UNL A   1      30.589  26.916  24.180  1.00  0.00     0.021 C 
BRANCH  71  72
ATOM     72  C   UNL A   1      30.688  26.405  22.743  1.00  0.00     0.116 C 
BRANCH  72  73
ATOM     73  N   UNL A   1      31.894  26.875  22.079  1.00  0.00    -0.352 N 
ATOM     74  C   UNL A   1      33.154  26.340  22.102  1.00  0.00     0.251 C 
ATOM     75  H   UNL A   1      31.789  27.691  21.539  1.00  0.00     0.163 HD
ATOM     76  O   UNL A   1      34.109  26.931  21.610  1.00  0.00    -0.269 OA
BRANCH  74  77
ATOM     77  C   UNL A   1      33.367  25.033  22.749  1.00  0.00     0.042 A 
ATOM     78  C   UNL A   1      32.981  23.854  22.104  1.00  0.00     0.015 A 
ATOM     79  C   UNL A   1      33.949  24.999  24.017  1.00  0.00     0.054 A 
ATOM     80  C   UNL A   1      33.146  22.631  22.755  1.00  0.00     0.024 A 
ATOM     81  C   UNL A   1      34.084  23.778  24.669  1.00  0.00     0.142 A 
ATOM     82  C   UNL A   1      33.692  22.600  24.046  1.00  0.00     0.103 A 
ATOM     83  F   UNL A   1      34.551  23.779  25.922  1.00  0.00    -0.206 F 
BRANCH  82  84
ATOM     84  S   UNL A   1      33.759  21.049  24.889  1.00  0.00     0.188 S 
ATOM     85  O   UNL A   1      35.176  20.720  24.923  1.00  0.00    -0.223 OA
ATOM     86  O   UNL A   1      33.059  21.230  26.151  1.00  0.00    -0.223 OA
BRANCH  84  87
ATOM     87  C   UNL A   1      32.964  19.775  23.976  1.00  0.00     0.219 C 
BRANCH  87  88
ATOM     88  C   UNL A   1      33.270  18.418  24.512  1.00  0.00     0.143 A 
ATOM     89  N   UNL A   1      32.344  17.881  25.335  1.00  0.00    -0.240 NA
ATOM     90  N   UNL A   1      34.348  17.748  24.075  1.00  0.00    -0.240 NA
ATOM     91  C   UNL A   1      32.552  16.620  25.756  1.00  0.00     0.115 A 
ATOM     92  C   UNL A   1      34.510  16.486  24.522  1.00  0.00     0.115 A 
ATOM     93  C   UNL A   1      33.632  15.865  25.376  1.00  0.00     0.040 A 
ENDBRANCH  87  88
ENDBRANCH  84  87
ENDBRANCH  82  84
ENDBRANCH  74  77
ENDBRANCH  72  73
ENDBRANCH  71  72
ENDBRANCH  70  71
ENDBRANCH   1  70
TORSDOF 19
ENDMDL
