MODEL 1
REMARK VINA RESULT:     -15.1      0.000      0.000
REMARK SMILES Cc1ccc(C2=NN(C(=O)CCC(=O)NCCCCCCNC(=O)c3ccc(-c4c5nc(c(-c6ccc(S(=O)(=O)[O-])cc6)c6ccc([nH]6)c(-c6ccc(S(=O)(=O)[O-])cc6)c6nc(c(-c7ccc(S(=O)(=O)[O-])cc7)c7ccc4[nH]7)C=C6)C=C5)cc3)[C@H](C[C@@H]3C=c4cccc(C)c4=NC3=O)C2)cc1
REMARK SMILES IDX 17 1 16 2 15 3 13 4 14 5 12 7 11 8 9 9 10 10 8 11 6 12 7 13
REMARK SMILES IDX 99 14 85 15 5 16 1 17 2 18 3 19 101 20 4 21 100 22 86 23
REMARK SMILES IDX 87 24 88 25 97 26 89 27 96 28 98 29 90 30 95 31 91 32 93 33
REMARK SMILES IDX 92 34 94 35 18 36 19 37 20 38 21 39 22 40 23 41 24 43 25 44
REMARK SMILES IDX 26 45 84 46 27 47 83 48 28 49 29 50 30 51 77 52 31 53 82 54
REMARK SMILES IDX 76 55 78 56 32 57 81 58 75 59 74 60 33 62 63 63 44 64 62 65
REMARK SMILES IDX 45 66 48 67 61 68 79 69 46 70 47 71 60 73 80 74 49 75 34 76
REMARK SMILES IDX 35 77 43 78 36 79 42 80 37 81 38 82 39 83 40 84 41 85 64 86
REMARK SMILES IDX 65 87 73 88 66 89 72 90 67 91 68 92 69 93 70 94 71 95 50 96
REMARK SMILES IDX 51 97 59 98 52 99 58 100 53 101 54 102 55 103 56 104 57 105
REMARK H PARENT 15 6 22 42 78 61 48 72
REMARK Flexibility Score: inf
ROOT
ATOM      1  C   UNL A   1      32.057  27.139  26.974  1.00  0.00     0.021 C 
ENDROOT
BRANCH   1   2
ATOM      2  C   UNL A   1      30.579  26.479  25.474  1.00  0.00     0.116 C 
BRANCH   2   3
ATOM      3  N   UNL A   1      30.362  27.011  23.961  1.00  0.00    -0.356 N 
ATOM      4  C   UNL A   1      31.119  27.193  22.864  1.00  0.00     0.220 C 
ATOM      5  O   UNL A   1      30.566  27.726  21.899  1.00  0.00    -0.275 OA
ATOM      6  H   UNL A   1      29.426  27.269  23.800  1.00  0.00     0.163 HD
BRANCH   4   7
ATOM      7  C   UNL A   1      32.540  26.729  22.803  1.00  0.00     0.110 C 
BRANCH   7   8
ATOM      8  C   UNL A   1      32.802  25.342  22.242  1.00  0.00     0.112 C 
BRANCH   8   9
ATOM      9  C   UNL A   1      32.155  24.159  22.987  1.00  0.00     0.243 C 
ATOM     10  O   UNL A   1      30.931  24.039  22.996  1.00  0.00    -0.273 OA
BRANCH   9  11
ATOM     11  N   UNL A   1      33.055  23.331  23.770  1.00  0.00    -0.230 N 
ATOM     12  C   UNL A   1      32.571  20.920  25.130  1.00  0.00     0.070 C 
ATOM     13  N   UNL A   1      32.611  21.571  23.742  1.00  0.00    -0.174 NA
ATOM     14  C   UNL A   1      33.025  22.383  26.644  1.00  0.00     0.086 C 
ATOM     15  C   UNL A   1      33.630  23.922  25.422  1.00  0.00     0.118 C 
BRANCH  12  16
ATOM     16  C   UNL A   1      33.044  19.148  25.007  1.00  0.00    -0.002 A 
ATOM     17  C   UNL A   1      33.827  14.890  25.061  1.00  0.00     0.044 C 
ATOM     18  C   UNL A   1      33.841  16.370  25.206  1.00  0.00    -0.051 A 
ATOM     19  C   UNL A   1      34.548  17.305  24.440  1.00  0.00     0.004 A 
ATOM     20  C   UNL A   1      32.901  16.828  26.044  1.00  0.00     0.004 A 
ATOM     21  C   UNL A   1      34.203  18.707  24.380  1.00  0.00     0.010 A 
ATOM     22  C   UNL A   1      32.435  18.078  25.749  1.00  0.00     0.010 A 
ENDBRANCH  12  16
BRANCH  15  23
ATOM     23  C   UNL A   1      35.203  24.460  25.128  1.00  0.00     0.045 C 
BRANCH  23  24
ATOM     24  C   UNL A   1      36.343  23.560  25.737  1.00  0.00     0.106 C 
ATOM     25  C   UNL A   1      37.628  24.300  25.993  1.00  0.00    -0.003 C 
ATOM     26  C   UNL A   1      36.752  22.246  25.047  1.00  0.00     0.253 C 
ATOM     27  C   UNL A   1      38.646  23.684  26.590  1.00  0.00    -0.003 A 
ATOM     28  N   UNL A   1      37.873  21.579  25.552  1.00  0.00    -0.212 NA
ATOM     29  O   UNL A   1      36.037  21.751  24.180  1.00  0.00    -0.272 OA
ATOM     30  C   UNL A   1      39.588  24.342  27.459  1.00  0.00     0.010 A 
ATOM     31  C   UNL A   1      38.748  22.235  26.260  1.00  0.00     0.077 A 
ATOM     32  C   UNL A   1      40.578  23.641  28.023  1.00  0.00     0.001 A 
ATOM     33  C   UNL A   1      40.050  21.623  26.728  1.00  0.00    -0.025 A 
ATOM     34  C   UNL A   1      40.849  22.294  27.583  1.00  0.00     0.005 A 
ATOM     35  C   UNL A   1      40.505  20.368  26.058  1.00  0.00     0.047 C 
ENDBRANCH  23  24
ENDBRANCH  15  23
ENDBRANCH   9  11
ENDBRANCH   8   9
ENDBRANCH   7   8
ENDBRANCH   4   7
ENDBRANCH   2   3
ENDBRANCH   1   2
BRANCH   1  36
ATOM     36  C   UNL A   1      31.746  29.083  27.242  1.00  0.00     0.002 C 
BRANCH  36  37
ATOM     37  C   UNL A   1      33.206  30.173  26.726  1.00  0.00     0.002 C 
BRANCH  37  38
ATOM     38  C   UNL A   1      33.961  31.638  27.594  1.00  0.00     0.021 C 
BRANCH  38  39
ATOM     39  C   UNL A   1      33.341  33.215  28.027  1.00  0.00     0.116 C 
BRANCH  39  40
ATOM     40  N   UNL A   1      33.929  33.998  29.162  1.00  0.00    -0.352 N 
ATOM     41  C   UNL A   1      34.845  33.797  30.211  1.00  0.00     0.251 C 
ATOM     42  H   UNL A   1      33.571  34.915  29.179  1.00  0.00     0.163 HD
ATOM     43  O   UNL A   1      34.726  34.573  31.169  1.00  0.00    -0.269 OA
BRANCH  41  44
ATOM     44  C   UNL A   1      36.001  32.830  30.279  1.00  0.00     0.039 A 
ATOM     45  C   UNL A   1      35.922  31.735  31.189  1.00  0.00     0.014 A 
ATOM     46  C   UNL A   1      37.168  32.959  29.543  1.00  0.00     0.014 A 
ATOM     47  C   UNL A   1      37.049  30.948  31.526  1.00  0.00     0.010 A 
ATOM     48  C   UNL A   1      38.289  32.169  29.867  1.00  0.00     0.010 A 
ATOM     49  C   UNL A   1      38.268  31.226  30.918  1.00  0.00    -0.014 A 
BRANCH  49  50
ATOM     50  C   UNL A   1      39.574  30.648  31.293  1.00  0.00     0.031 A 
ATOM     51  C   UNL A   1      39.998  29.340  30.725  1.00  0.00     0.074 A 
ATOM     52  C   UNL A   1      40.506  31.405  31.928  1.00  0.00     0.049 A 
ATOM     53  N   UNL A   1      41.066  28.693  31.068  1.00  0.00    -0.248 NA
ATOM     54  C   UNL A   1      39.198  28.624  29.735  1.00  0.00     0.031 C 
ATOM     55  C   UNL A   1      41.962  31.331  31.776  1.00  0.00     0.029 A 
ATOM     56  N   UNL A   1      40.337  32.368  32.927  1.00  0.00    -0.354 N 
ATOM     57  C   UNL A   1      41.249  27.678  30.153  1.00  0.00     0.074 A 
ATOM     58  C   UNL A   1      40.012  27.613  29.412  1.00  0.00     0.031 C 
ATOM     59  C   UNL A   1      42.552  32.064  32.738  1.00  0.00     0.029 A 
ATOM     60  C   UNL A   1      41.515  32.407  33.696  1.00  0.00     0.049 A 
ATOM     61  H   UNL A   1      39.536  32.922  33.069  1.00  0.00     0.167 HD
ATOM     62  C   UNL A   1      42.480  27.107  30.007  1.00  0.00     0.031 A 
ATOM     63  C   UNL A   1      41.552  32.084  35.023  1.00  0.00     0.031 A 
ATOM     64  C   UNL A   1      43.434  27.637  30.974  1.00  0.00     0.049 A 
ATOM     65  C   UNL A   1      42.574  31.031  35.375  1.00  0.00     0.074 A 
ATOM     66  C   UNL A   1      44.388  28.635  30.884  1.00  0.00     0.029 A 
ATOM     67  N   UNL A   1      43.300  27.324  32.318  1.00  0.00    -0.354 N 
ATOM     68  N   UNL A   1      43.055  30.186  34.512  1.00  0.00    -0.248 NA
ATOM     69  C   UNL A   1      43.003  30.748  36.742  1.00  0.00     0.031 C 
ATOM     70  C   UNL A   1      44.789  28.970  32.200  1.00  0.00     0.029 A 
ATOM     71  C   UNL A   1      44.102  28.151  33.080  1.00  0.00     0.049 A 
ATOM     72  H   UNL A   1      42.719  26.615  32.677  1.00  0.00     0.167 HD
ATOM     73  C   UNL A   1      43.701  29.184  35.182  1.00  0.00     0.074 A 
ATOM     74  C   UNL A   1      43.701  29.612  36.567  1.00  0.00     0.031 C 
ATOM     75  C   UNL A   1      44.095  28.054  34.533  1.00  0.00     0.031 A 
BRANCH  62  76
ATOM     76  C   UNL A   1      42.926  26.294  28.808  1.00  0.00    -0.014 A 
ATOM     77  C   UNL A   1      43.630  25.089  29.032  1.00  0.00     0.010 A 
ATOM     78  C   UNL A   1      42.737  26.658  27.463  1.00  0.00     0.010 A 
ATOM     79  C   UNL A   1      44.193  24.340  27.991  1.00  0.00     0.020 A 
ATOM     80  C   UNL A   1      43.313  25.926  26.406  1.00  0.00     0.020 A 
ATOM     81  C   UNL A   1      44.050  24.778  26.679  1.00  0.00     0.054 A 
BRANCH  81  82
ATOM     82  S   UNL A   1      44.836  23.822  25.356  1.00  0.00     0.124 S 
ATOM     83  O   UNL A   1      45.664  22.877  26.101  1.00  0.00    -0.237 OA
ATOM     84  O   UNL A   1      43.691  23.243  24.661  1.00  0.00    -0.237 OA
ATOM     85  O   UNL A   1      45.580  24.826  24.597  1.00  0.00    -0.744 OA
ENDBRANCH  81  82
ENDBRANCH  62  76
BRANCH  63  86
ATOM     86  C   UNL A   1      40.225  32.055  35.702  1.00  0.00    -0.014 A 
ATOM     87  C   UNL A   1      39.328  30.985  35.560  1.00  0.00     0.010 A 
ATOM     88  C   UNL A   1      39.998  33.010  36.712  1.00  0.00     0.010 A 
ATOM     89  C   UNL A   1      38.249  30.854  36.448  1.00  0.00     0.020 A 
ATOM     90  C   UNL A   1      38.956  32.856  37.621  1.00  0.00     0.020 A 
ATOM     91  C   UNL A   1      38.102  31.763  37.505  1.00  0.00     0.054 A 
BRANCH  91  92
ATOM     92  S   UNL A   1      36.867  31.536  38.823  1.00  0.00     0.124 S 
ATOM     93  O   UNL A   1      35.915  32.621  38.598  1.00  0.00    -0.237 OA
ATOM     94  O   UNL A   1      36.364  30.193  38.545  1.00  0.00    -0.237 OA
ATOM     95  O   UNL A   1      37.665  31.658  40.037  1.00  0.00    -0.744 OA
ENDBRANCH  91  92
ENDBRANCH  63  86
BRANCH  75  96
ATOM     96  C   UNL A   1      44.555  26.783  35.194  1.00  0.00    -0.014 A 
ATOM     97  C   UNL A   1      43.764  26.017  36.065  1.00  0.00     0.010 A 
ATOM     98  C   UNL A   1      45.827  26.263  34.857  1.00  0.00     0.010 A 
ATOM     99  C   UNL A   1      44.261  24.854  36.665  1.00  0.00     0.020 A 
ATOM    100  C   UNL A   1      46.311  25.074  35.406  1.00  0.00     0.020 A 
ATOM    101  C   UNL A   1      45.541  24.401  36.346  1.00  0.00     0.054 A 
BRANCH 101 102
ATOM    102  S   UNL A   1      46.187  22.921  37.157  1.00  0.00     0.124 S 
ATOM    103  O   UNL A   1      45.650  21.859  36.308  1.00  0.00    -0.237 OA
ATOM    104  O   UNL A   1      47.634  23.110  37.083  1.00  0.00    -0.237 OA
ATOM    105  O   UNL A   1      45.624  22.991  38.503  1.00  0.00    -0.744 OA
ENDBRANCH 101 102
ENDBRANCH  75  96
ENDBRANCH  49  50
ENDBRANCH  41  44
ENDBRANCH  39  40
ENDBRANCH  38  39
ENDBRANCH  37  38
ENDBRANCH  36  37
ENDBRANCH   1  36
TORSDOF 22
ENDMDL
MODEL 2
REMARK VINA RESULT:     -14.0      3.726     10.299
REMARK SMILES Cc1ccc(C2=NN(C(=O)CCC(=O)NCCCCCCNC(=O)c3ccc(-c4c5nc(c(-c6ccc(S(=O)(=O)[O-])cc6)c6ccc([nH]6)c(-c6ccc(S(=O)(=O)[O-])cc6)c6nc(c(-c7ccc(S(=O)(=O)[O-])cc7)c7ccc4[nH]7)C=C6)C=C5)cc3)[C@H](C[C@@H]3C=c4cccc(C)c4=NC3=O)C2)cc1
REMARK SMILES IDX 17 1 16 2 15 3 13 4 14 5 12 7 11 8 9 9 10 10 8 11 6 12 7 13
REMARK SMILES IDX 99 14 85 15 5 16 1 17 2 18 3 19 101 20 4 21 100 22 86 23
REMARK SMILES IDX 87 24 88 25 97 26 89 27 96 28 98 29 90 30 95 31 91 32 93 33
REMARK SMILES IDX 92 34 94 35 18 36 19 37 20 38 21 39 22 40 23 41 24 43 25 44
REMARK SMILES IDX 26 45 84 46 27 47 83 48 28 49 29 50 30 51 77 52 31 53 82 54
REMARK SMILES IDX 76 55 78 56 32 57 81 58 75 59 74 60 33 62 63 63 44 64 62 65
REMARK SMILES IDX 45 66 48 67 61 68 79 69 46 70 47 71 60 73 80 74 49 75 34 76
REMARK SMILES IDX 35 77 43 78 36 79 42 80 37 81 38 82 39 83 40 84 41 85 64 86
REMARK SMILES IDX 65 87 73 88 66 89 72 90 67 91 68 92 69 93 70 94 71 95 50 96
REMARK SMILES IDX 51 97 59 98 52 99 58 100 53 101 54 102 55 103 56 104 57 105
REMARK H PARENT 15 6 22 42 78 61 48 72
REMARK Flexibility Score: inf
ROOT
ATOM      1  C   UNL A   1      40.619  28.091  27.164  1.00  0.00     0.021 C 
ENDROOT
BRANCH   1   2
ATOM      2  C   UNL A   1      39.017  28.814  28.500  1.00  0.00     0.116 C 
BRANCH   2   3
ATOM      3  N   UNL A   1      38.088  30.130  28.349  1.00  0.00    -0.356 N 
ATOM      4  C   UNL A   1      36.790  30.396  28.116  1.00  0.00     0.220 C 
ATOM      5  O   UNL A   1      36.490  31.586  27.982  1.00  0.00    -0.275 OA
ATOM      6  H   UNL A   1      38.612  30.956  28.457  1.00  0.00     0.163 HD
BRANCH   4   7
ATOM      7  C   UNL A   1      35.759  29.312  28.073  1.00  0.00     0.110 C 
BRANCH   7   8
ATOM      8  C   UNL A   1      34.997  29.121  26.772  1.00  0.00     0.112 C 
BRANCH   8   9
ATOM      9  C   UNL A   1      33.523  28.688  26.891  1.00  0.00     0.243 C 
ATOM     10  O   UNL A   1      33.019  28.536  28.003  1.00  0.00    -0.273 OA
BRANCH   9  11
ATOM     11  N   UNL A   1      32.860  28.338  25.648  1.00  0.00    -0.230 N 
ATOM     12  C   UNL A   1      30.325  29.070  24.681  1.00  0.00     0.070 C 
ATOM     13  N   UNL A   1      31.705  29.614  25.070  1.00  0.00    -0.174 NA
ATOM     14  C   UNL A   1      30.250  26.943  25.013  1.00  0.00     0.086 C 
ATOM     15  C   UNL A   1      32.243  26.615  25.399  1.00  0.00     0.118 C 
BRANCH  12  16
ATOM     16  C   UNL A   1      29.605  30.090  23.332  1.00  0.00    -0.002 A 
ATOM     17  C   UNL A   1      27.722  32.774  20.503  1.00  0.00     0.044 C 
ATOM     18  C   UNL A   1      28.125  31.651  21.393  1.00  0.00    -0.051 A 
ATOM     19  C   UNL A   1      28.823  30.487  21.049  1.00  0.00     0.004 A 
ATOM     20  C   UNL A   1      27.957  31.921  22.694  1.00  0.00     0.004 A 
ATOM     21  C   UNL A   1      29.514  29.662  22.013  1.00  0.00     0.010 A 
ATOM     22  C   UNL A   1      28.839  31.292  23.525  1.00  0.00     0.010 A 
ENDBRANCH  12  16
BRANCH  15  23
ATOM     23  C   UNL A   1      33.399  25.920  24.384  1.00  0.00     0.045 C 
BRANCH  23  24
ATOM     24  C   UNL A   1      33.849  24.464  24.781  1.00  0.00     0.106 C 
ATOM     25  C   UNL A   1      35.163  24.050  24.176  1.00  0.00    -0.003 C 
ATOM     26  C   UNL A   1      32.901  23.269  24.568  1.00  0.00     0.253 C 
ATOM     27  C   UNL A   1      35.708  22.878  24.500  1.00  0.00    -0.003 A 
ATOM     28  N   UNL A   1      33.421  21.991  24.794  1.00  0.00    -0.212 NA
ATOM     29  O   UNL A   1      31.709  23.456  24.340  1.00  0.00    -0.272 OA
ATOM     30  C   UNL A   1      37.128  22.642  24.573  1.00  0.00     0.010 A 
ATOM     31  C   UNL A   1      34.710  21.804  24.762  1.00  0.00     0.077 A 
ATOM     32  C   UNL A   1      37.586  21.434  24.914  1.00  0.00     0.001 A 
ATOM     33  C   UNL A   1      35.344  20.434  24.863  1.00  0.00    -0.025 A 
ATOM     34  C   UNL A   1      36.682  20.311  24.976  1.00  0.00     0.005 A 
ATOM     35  C   UNL A   1      34.469  19.248  24.625  1.00  0.00     0.047 C 
ENDBRANCH  23  24
ENDBRANCH  15  23
ENDBRANCH   9  11
ENDBRANCH   8   9
ENDBRANCH   7   8
ENDBRANCH   4   7
ENDBRANCH   2   3
ENDBRANCH   1   2
BRANCH   1  36
ATOM     36  C   UNL A   1      41.062  26.253  27.774  1.00  0.00     0.002 C 
BRANCH  36  37
ATOM     37  C   UNL A   1      41.297  25.011  26.365  1.00  0.00     0.002 C 
BRANCH  37  38
ATOM     38  C   UNL A   1      42.863  24.432  25.539  1.00  0.00     0.021 C 
BRANCH  38  39
ATOM     39  C   UNL A   1      43.837  22.990  25.709  1.00  0.00     0.116 C 
BRANCH  39  40
ATOM     40  N   UNL A   1      45.257  23.061  26.188  1.00  0.00    -0.352 N 
ATOM     41  C   UNL A   1      46.011  23.786  27.129  1.00  0.00     0.251 C 
ATOM     42  H   UNL A   1      45.822  22.417  25.705  1.00  0.00     0.163 HD
ATOM     43  O   UNL A   1      47.229  23.827  26.907  1.00  0.00    -0.269 OA
BRANCH  41  44
ATOM     44  C   UNL A   1      45.547  24.434  28.409  1.00  0.00     0.039 A 
ATOM     45  C   UNL A   1      46.500  25.137  29.203  1.00  0.00     0.014 A 
ATOM     46  C   UNL A   1      44.252  24.355  28.898  1.00  0.00     0.014 A 
ATOM     47  C   UNL A   1      46.232  25.532  30.535  1.00  0.00     0.010 A 
ATOM     48  C   UNL A   1      43.978  24.757  30.219  1.00  0.00     0.010 A 
ATOM     49  C   UNL A   1      44.981  25.261  31.077  1.00  0.00    -0.014 A 
BRANCH  49  50
ATOM     50  C   UNL A   1      44.599  25.417  32.495  1.00  0.00     0.031 A 
ATOM     51  C   UNL A   1      44.321  26.771  33.046  1.00  0.00     0.074 A 
ATOM     52  C   UNL A   1      44.237  24.336  33.234  1.00  0.00     0.049 A 
ATOM     53  N   UNL A   1      44.088  27.032  34.291  1.00  0.00    -0.248 NA
ATOM     54  C   UNL A   1      44.334  27.969  32.210  1.00  0.00     0.031 C 
ATOM     55  C   UNL A   1      43.232  24.288  34.300  1.00  0.00     0.029 A 
ATOM     56  N   UNL A   1      44.767  23.042  33.235  1.00  0.00    -0.354 N 
ATOM     57  C   UNL A   1      43.624  28.329  34.365  1.00  0.00     0.074 A 
ATOM     58  C   UNL A   1      43.895  28.898  33.066  1.00  0.00     0.031 C 
ATOM     59  C   UNL A   1      43.325  23.116  34.953  1.00  0.00     0.029 A 
ATOM     60  C   UNL A   1      44.561  22.490  34.512  1.00  0.00     0.049 A 
ATOM     61  H   UNL A   1      45.206  22.596  32.476  1.00  0.00     0.167 HD
ATOM     62  C   UNL A   1      42.916  28.738  35.457  1.00  0.00     0.031 A 
ATOM     63  C   UNL A   1      45.584  22.130  35.344  1.00  0.00     0.031 A 
ATOM     64  C   UNL A   1      42.845  27.693  36.471  1.00  0.00     0.049 A 
ATOM     65  C   UNL A   1      45.508  22.746  36.720  1.00  0.00     0.074 A 
ATOM     66  C   UNL A   1      41.878  26.748  36.763  1.00  0.00     0.029 A 
ATOM     67  N   UNL A   1      43.984  27.338  37.177  1.00  0.00    -0.354 N 
ATOM     68  N   UNL A   1      44.843  23.832  36.981  1.00  0.00    -0.248 NA
ATOM     69  C   UNL A   1      46.300  22.281  37.856  1.00  0.00     0.031 C 
ATOM     70  C   UNL A   1      42.464  25.775  37.608  1.00  0.00     0.029 A 
ATOM     71  C   UNL A   1      43.773  26.152  37.853  1.00  0.00     0.049 A 
ATOM     72  H   UNL A   1      44.822  27.855  37.193  1.00  0.00     0.167 HD
ATOM     73  C   UNL A   1      45.217  24.298  38.211  1.00  0.00     0.074 A 
ATOM     74  C   UNL A   1      46.078  23.262  38.748  1.00  0.00     0.031 C 
ATOM     75  C   UNL A   1      44.845  25.541  38.626  1.00  0.00     0.031 A 
BRANCH  62  76
ATOM     76  C   UNL A   1      42.023  29.961  35.507  1.00  0.00    -0.014 A 
ATOM     77  C   UNL A   1      40.668  29.826  35.129  1.00  0.00     0.010 A 
ATOM     78  C   UNL A   1      42.438  31.257  35.861  1.00  0.00     0.010 A 
ATOM     79  C   UNL A   1      39.802  30.921  35.020  1.00  0.00     0.020 A 
ATOM     80  C   UNL A   1      41.586  32.372  35.737  1.00  0.00     0.020 A 
ATOM     81  C   UNL A   1      40.275  32.197  35.303  1.00  0.00     0.054 A 
BRANCH  81  82
ATOM     82  S   UNL A   1      39.152  33.604  35.098  1.00  0.00     0.124 S 
ATOM     83  O   UNL A   1      39.101  33.755  33.646  1.00  0.00    -0.237 OA
ATOM     84  O   UNL A   1      37.924  33.122  35.723  1.00  0.00    -0.237 OA
ATOM     85  O   UNL A   1      39.824  34.691  35.806  1.00  0.00    -0.744 OA
ENDBRANCH  81  82
ENDBRANCH  62  76
BRANCH  63  86
ATOM     86  C   UNL A   1      46.915  21.999  34.686  1.00  0.00    -0.014 A 
ATOM     87  C   UNL A   1      47.868  23.029  34.699  1.00  0.00     0.010 A 
ATOM     88  C   UNL A   1      47.305  20.710  34.274  1.00  0.00     0.010 A 
ATOM     89  C   UNL A   1      49.199  22.755  34.350  1.00  0.00     0.020 A 
ATOM     90  C   UNL A   1      48.633  20.427  33.973  1.00  0.00     0.020 A 
ATOM     91  C   UNL A   1      49.582  21.443  34.039  1.00  0.00     0.054 A 
BRANCH  91  92
ATOM     92  S   UNL A   1      51.322  20.966  33.793  1.00  0.00     0.124 S 
ATOM     93  O   UNL A   1      51.392  19.613  34.340  1.00  0.00    -0.237 OA
ATOM     94  O   UNL A   1      51.466  21.064  32.342  1.00  0.00    -0.237 OA
ATOM     95  O   UNL A   1      52.045  21.978  34.555  1.00  0.00    -0.744 OA
ENDBRANCH  91  92
ENDBRANCH  63  86
BRANCH  75  96
ATOM     96  C   UNL A   1      45.412  26.269  39.815  1.00  0.00    -0.014 A 
ATOM     97  C   UNL A   1      46.770  26.583  39.973  1.00  0.00     0.010 A 
ATOM     98  C   UNL A   1      44.522  26.756  40.801  1.00  0.00     0.010 A 
ATOM     99  C   UNL A   1      47.236  27.245  41.115  1.00  0.00     0.020 A 
ATOM    100  C   UNL A   1      44.968  27.466  41.917  1.00  0.00     0.020 A 
ATOM    101  C   UNL A   1      46.331  27.664  42.091  1.00  0.00     0.054 A 
BRANCH 101 102
ATOM    102  S   UNL A   1      46.948  28.481  43.581  1.00  0.00     0.124 S 
ATOM    103  O   UNL A   1      46.748  29.891  43.251  1.00  0.00    -0.237 OA
ATOM    104  O   UNL A   1      46.077  27.954  44.630  1.00  0.00    -0.237 OA
ATOM    105  O   UNL A   1      48.341  28.048  43.660  1.00  0.00    -0.744 OA
ENDBRANCH 101 102
ENDBRANCH  75  96
ENDBRANCH  49  50
ENDBRANCH  41  44
ENDBRANCH  39  40
ENDBRANCH  38  39
ENDBRANCH  37  38
ENDBRANCH  36  37
ENDBRANCH   1  36
TORSDOF 22
ENDMDL
MODEL 3
REMARK VINA RESULT:     -13.3      4.176      6.762
REMARK SMILES Cc1ccc(C2=NN(C(=O)CCC(=O)NCCCCCCNC(=O)c3ccc(-c4c5nc(c(-c6ccc(S(=O)(=O)[O-])cc6)c6ccc([nH]6)c(-c6ccc(S(=O)(=O)[O-])cc6)c6nc(c(-c7ccc(S(=O)(=O)[O-])cc7)c7ccc4[nH]7)C=C6)C=C5)cc3)[C@H](C[C@@H]3C=c4cccc(C)c4=NC3=O)C2)cc1
REMARK SMILES IDX 17 1 16 2 15 3 13 4 14 5 12 7 11 8 9 9 10 10 8 11 6 12 7 13
REMARK SMILES IDX 99 14 85 15 5 16 1 17 2 18 3 19 101 20 4 21 100 22 86 23
REMARK SMILES IDX 87 24 88 25 97 26 89 27 96 28 98 29 90 30 95 31 91 32 93 33
REMARK SMILES IDX 92 34 94 35 18 36 19 37 20 38 21 39 22 40 23 41 24 43 25 44
REMARK SMILES IDX 26 45 84 46 27 47 83 48 28 49 29 50 30 51 77 52 31 53 82 54
REMARK SMILES IDX 76 55 78 56 32 57 81 58 75 59 74 60 33 62 63 63 44 64 62 65
REMARK SMILES IDX 45 66 48 67 61 68 79 69 46 70 47 71 60 73 80 74 49 75 34 76
REMARK SMILES IDX 35 77 43 78 36 79 42 80 37 81 38 82 39 83 40 84 41 85 64 86
REMARK SMILES IDX 65 87 73 88 66 89 72 90 67 91 68 92 69 93 70 94 71 95 50 96
REMARK SMILES IDX 51 97 59 98 52 99 58 100 53 101 54 102 55 103 56 104 57 105
REMARK H PARENT 15 6 22 42 78 61 48 72
REMARK Flexibility Score: inf
ROOT
ATOM      1  C   UNL A   1      31.391  28.137  27.483  1.00  0.00     0.021 C 
ENDROOT
BRANCH   1   2
ATOM      2  C   UNL A   1      30.588  26.736  25.978  1.00  0.00     0.116 C 
BRANCH   2   3
ATOM      3  N   UNL A   1      30.406  26.954  24.384  1.00  0.00    -0.356 N 
ATOM      4  C   UNL A   1      31.119  27.487  23.376  1.00  0.00     0.220 C 
ATOM      5  O   UNL A   1      30.562  27.537  22.277  1.00  0.00    -0.275 OA
ATOM      6  H   UNL A   1      29.543  26.601  24.069  1.00  0.00     0.163 HD
BRANCH   4   7
ATOM      7  C   UNL A   1      32.530  27.947  23.568  1.00  0.00     0.110 C 
BRANCH   7   8
ATOM      8  C   UNL A   1      33.621  26.890  23.553  1.00  0.00     0.112 C 
BRANCH   8   9
ATOM      9  C   UNL A   1      33.935  26.198  24.893  1.00  0.00     0.243 C 
ATOM     10  O   UNL A   1      33.961  26.860  25.930  1.00  0.00    -0.273 OA
BRANCH   9  11
ATOM     11  N   UNL A   1      34.332  24.804  24.814  1.00  0.00    -0.230 N 
ATOM     12  C   UNL A   1      36.883  23.663  24.524  1.00  0.00     0.070 C 
ATOM     13  N   UNL A   1      36.000  24.498  25.460  1.00  0.00    -0.174 NA
ATOM     14  C   UNL A   1      35.803  23.184  22.723  1.00  0.00     0.086 C 
ATOM     15  C   UNL A   1      33.937  23.830  23.295  1.00  0.00     0.118 C 
BRANCH  12  16
ATOM     16  C   UNL A   1      38.062  22.653  25.509  1.00  0.00    -0.002 A 
ATOM     17  C   UNL A   1      41.017  20.695  27.995  1.00  0.00     0.044 C 
ATOM     18  C   UNL A   1      40.204  21.284  26.898  1.00  0.00    -0.051 A 
ATOM     19  C   UNL A   1      39.330  20.626  26.023  1.00  0.00     0.004 A 
ATOM     20  C   UNL A   1      40.182  22.624  26.916  1.00  0.00     0.004 A 
ATOM     21  C   UNL A   1      38.297  21.304  25.274  1.00  0.00     0.010 A 
ATOM     22  C   UNL A   1      39.037  23.182  26.424  1.00  0.00     0.010 A 
ENDBRANCH  12  16
BRANCH  15  23
ATOM     23  C   UNL A   1      32.608  22.896  23.753  1.00  0.00     0.045 C 
BRANCH  23  24
ATOM     24  C   UNL A   1      32.946  21.423  24.195  1.00  0.00     0.106 C 
ATOM     25  C   UNL A   1      32.525  20.379  23.196  1.00  0.00    -0.003 C 
ATOM     26  C   UNL A   1      32.485  20.894  25.566  1.00  0.00     0.253 C 
ATOM     27  C   UNL A   1      32.831  19.099  23.399  1.00  0.00    -0.003 A 
ATOM     28  N   UNL A   1      32.681  19.534  25.827  1.00  0.00    -0.212 NA
ATOM     29  O   UNL A   1      32.087  21.671  26.429  1.00  0.00    -0.272 OA
ATOM     30  C   UNL A   1      33.108  18.159  22.343  1.00  0.00     0.010 A 
ATOM     31  C   UNL A   1      32.839  18.703  24.835  1.00  0.00     0.077 A 
ATOM     32  C   UNL A   1      33.414  16.892  22.640  1.00  0.00     0.001 A 
ATOM     33  C   UNL A   1      32.922  17.205  25.025  1.00  0.00    -0.025 A 
ATOM     34  C   UNL A   1      33.236  16.404  23.987  1.00  0.00     0.005 A 
ATOM     35  C   UNL A   1      32.449  16.645  26.326  1.00  0.00     0.047 C 
ENDBRANCH  23  24
ENDBRANCH  15  23
ENDBRANCH   9  11
ENDBRANCH   8   9
ENDBRANCH   7   8
ENDBRANCH   4   7
ENDBRANCH   2   3
ENDBRANCH   1   2
BRANCH   1  36
ATOM     36  C   UNL A   1      31.952  29.761  26.485  1.00  0.00     0.002 C 
BRANCH  36  37
ATOM     37  C   UNL A   1      33.143  30.878  27.443  1.00  0.00     0.002 C 
BRANCH  37  38
ATOM     38  C   UNL A   1      34.858  30.520  28.078  1.00  0.00     0.021 C 
BRANCH  38  39
ATOM     39  C   UNL A   1      35.885  31.315  29.248  1.00  0.00     0.116 C 
BRANCH  39  40
ATOM     40  N   UNL A   1      36.186  30.686  30.576  1.00  0.00    -0.352 N 
ATOM     41  C   UNL A   1      36.941  29.611  31.079  1.00  0.00     0.251 C 
ATOM     42  H   UNL A   1      35.721  31.160  31.302  1.00  0.00     0.163 HD
ATOM     43  O   UNL A   1      36.578  29.186  32.184  1.00  0.00    -0.269 OA
BRANCH  41  44
ATOM     44  C   UNL A   1      38.180  28.977  30.498  1.00  0.00     0.039 A 
ATOM     45  C   UNL A   1      39.347  28.888  31.313  1.00  0.00     0.014 A 
ATOM     46  C   UNL A   1      38.280  28.511  29.196  1.00  0.00     0.014 A 
ATOM     47  C   UNL A   1      40.620  28.574  30.780  1.00  0.00     0.010 A 
ATOM     48  C   UNL A   1      39.543  28.185  28.666  1.00  0.00     0.010 A 
ATOM     49  C   UNL A   1      40.731  28.302  29.421  1.00  0.00    -0.014 A 
BRANCH  49  50
ATOM     50  C   UNL A   1      41.992  28.155  28.667  1.00  0.00     0.031 A 
ATOM     51  C   UNL A   1      42.621  26.815  28.524  1.00  0.00     0.074 A 
ATOM     52  C   UNL A   1      42.445  29.165  27.879  1.00  0.00     0.049 A 
ATOM     53  N   UNL A   1      43.775  26.590  27.982  1.00  0.00    -0.248 NA
ATOM     54  C   UNL A   1      41.994  25.601  29.040  1.00  0.00     0.031 C 
ATOM     55  C   UNL A   1      43.169  29.043  26.611  1.00  0.00     0.029 A 
ATOM     56  N   UNL A   1      42.419  30.545  28.101  1.00  0.00    -0.354 N 
ATOM     57  C   UNL A   1      43.891  25.228  27.800  1.00  0.00     0.074 A 
ATOM     58  C   UNL A   1      42.810  24.653  28.566  1.00  0.00     0.031 C 
ATOM     59  C   UNL A   1      43.657  30.245  26.254  1.00  0.00     0.029 A 
ATOM     60  C   UNL A   1      43.500  31.117  27.406  1.00  0.00     0.049 A 
ATOM     61  H   UNL A   1      41.761  31.031  28.647  1.00  0.00     0.167 HD
ATOM     62  C   UNL A   1      44.786  24.736  26.895  1.00  0.00     0.031 A 
ATOM     63  C   UNL A   1      44.528  31.767  28.027  1.00  0.00     0.031 A 
ATOM     64  C   UNL A   1      45.587  25.800  26.302  1.00  0.00     0.049 A 
ATOM     65  C   UNL A   1      45.899  31.247  27.667  1.00  0.00     0.074 A 
ATOM     66  C   UNL A   1      45.464  26.503  25.117  1.00  0.00     0.029 A 
ATOM     67  N   UNL A   1      46.529  26.465  27.071  1.00  0.00    -0.354 N 
ATOM     68  N   UNL A   1      46.107  30.053  27.197  1.00  0.00    -0.248 NA
ATOM     69  C   UNL A   1      47.136  31.963  27.960  1.00  0.00     0.031 C 
ATOM     70  C   UNL A   1      46.299  27.642  25.201  1.00  0.00     0.029 A 
ATOM     71  C   UNL A   1      46.951  27.609  26.422  1.00  0.00     0.049 A 
ATOM     72  H   UNL A   1      46.850  26.166  27.953  1.00  0.00     0.167 HD
ATOM     73  C   UNL A   1      47.444  29.774  27.267  1.00  0.00     0.074 A 
ATOM     74  C   UNL A   1      48.055  31.020  27.687  1.00  0.00     0.031 C 
ATOM     75  C   UNL A   1      47.903  28.510  27.055  1.00  0.00     0.031 A 
BRANCH  62  76
ATOM     76  C   UNL A   1      44.749  23.340  26.306  1.00  0.00    -0.014 A 
ATOM     77  C   UNL A   1      45.968  22.738  25.917  1.00  0.00     0.010 A 
ATOM     78  C   UNL A   1      43.586  22.589  26.064  1.00  0.00     0.010 A 
ATOM     79  C   UNL A   1      46.021  21.509  25.247  1.00  0.00     0.020 A 
ATOM     80  C   UNL A   1      43.621  21.362  25.374  1.00  0.00     0.020 A 
ATOM     81  C   UNL A   1      44.841  20.836  24.957  1.00  0.00     0.054 A 
BRANCH  81  82
ATOM     82  S   UNL A   1      44.933  19.277  24.039  1.00  0.00     0.124 S 
ATOM     83  O   UNL A   1      44.033  18.413  24.798  1.00  0.00    -0.237 OA
ATOM     84  O   UNL A   1      44.464  19.664  22.712  1.00  0.00    -0.237 OA
ATOM     85  O   UNL A   1      46.346  18.912  24.116  1.00  0.00    -0.744 OA
ENDBRANCH  81  82
ENDBRANCH  62  76
BRANCH  63  86
ATOM     86  C   UNL A   1      44.259  32.170  29.438  1.00  0.00    -0.014 A 
ATOM     87  C   UNL A   1      44.031  33.503  29.812  1.00  0.00     0.010 A 
ATOM     88  C   UNL A   1      43.972  31.141  30.356  1.00  0.00     0.010 A 
ATOM     89  C   UNL A   1      43.480  33.792  31.070  1.00  0.00     0.020 A 
ATOM     90  C   UNL A   1      43.383  31.424  31.585  1.00  0.00     0.020 A 
ATOM     91  C   UNL A   1      43.112  32.746  31.927  1.00  0.00     0.054 A 
BRANCH  91  92
ATOM     92  S   UNL A   1      42.193  33.027  33.473  1.00  0.00     0.124 S 
ATOM     93  O   UNL A   1      42.181  31.714  34.114  1.00  0.00    -0.237 OA
ATOM     94  O   UNL A   1      43.010  34.041  34.136  1.00  0.00    -0.237 OA
ATOM     95  O   UNL A   1      40.896  33.493  32.997  1.00  0.00    -0.744 OA
ENDBRANCH  91  92
ENDBRANCH  63  86
BRANCH  75  96
ATOM     96  C   UNL A   1      49.291  28.022  27.372  1.00  0.00    -0.014 A 
ATOM     97  C   UNL A   1      50.206  27.569  26.409  1.00  0.00     0.010 A 
ATOM     98  C   UNL A   1      49.753  28.104  28.707  1.00  0.00     0.010 A 
ATOM     99  C   UNL A   1      51.477  27.108  26.773  1.00  0.00     0.020 A 
ATOM    100  C   UNL A   1      51.037  27.699  29.073  1.00  0.00     0.020 A 
ATOM    101  C   UNL A   1      51.876  27.156  28.109  1.00  0.00     0.054 A 
BRANCH 101 102
ATOM    102  S   UNL A   1      53.503  26.520  28.573  1.00  0.00     0.124 S 
ATOM    103  O   UNL A   1      54.344  27.703  28.401  1.00  0.00    -0.237 OA
ATOM    104  O   UNL A   1      53.305  26.089  29.956  1.00  0.00    -0.237 OA
ATOM    105  O   UNL A   1      53.736  25.440  27.618  1.00  0.00    -0.744 OA
ENDBRANCH 101 102
ENDBRANCH  75  96
ENDBRANCH  49  50
ENDBRANCH  41  44
ENDBRANCH  39  40
ENDBRANCH  38  39
ENDBRANCH  37  38
ENDBRANCH  36  37
ENDBRANCH   1  36
TORSDOF 22
ENDMDL
