MODEL 1
REMARK VINA RESULT:     -10.8      0.000      0.000
REMARK SMILES Cn1cc(/C=C/C(=O)Nc2ccc(C(=O)NCCCCCCNC(=O)c3ccc(-c4c5nc(c(-c6ccc(S(=O)(=O)[O-])cc6)c6ccc([nH]6)c(-c6ccc(S(=O)(=O)[O-])cc6)c6nc(c(-c7ccc(S(=O)(=O)[O-])cc7)c7ccc4[nH]7)C=C6)C=C5)cc3)c(O)c2)cn1
REMARK SMILES IDX 19 1 18 2 17 3 16 4 14 5 15 6 13 8 10 9 11 10 88 11 12 12
REMARK SMILES IDX 86 13 9 14 7 15 8 16 6 18 5 19 4 20 1 21 2 22 3 23 90 24
REMARK SMILES IDX 89 25 87 26 20 28 21 29 22 30 23 31 24 32 25 34 26 35 27 36
REMARK SMILES IDX 85 37 28 38 84 39 29 40 30 41 31 42 78 43 32 44 83 45 77 46
REMARK SMILES IDX 79 47 33 48 82 49 76 50 75 51 34 53 64 54 45 55 63 56 46 57
REMARK SMILES IDX 49 58 62 59 80 60 47 61 48 62 61 64 81 65 50 66 35 67 36 68
REMARK SMILES IDX 44 69 37 70 43 71 38 72 39 73 40 74 41 75 42 76 65 77 66 78
REMARK SMILES IDX 74 79 67 80 73 81 68 82 69 83 70 84 71 85 72 86 51 87 52 88
REMARK SMILES IDX 60 89 53 90 59 91 54 92 55 93 56 94 57 95 58 96
REMARK H PARENT 16 7 9 17 87 27 23 33 79 52 49 63
REMARK Flexibility Score: inf
ROOT
ATOM      1  C   UNL A   1      33.934  27.870  23.706  1.00  0.00     0.002 C 
ENDROOT
BRANCH   1   2
ATOM      2  C   UNL A   1      32.964  28.954  23.226  1.00  0.00     0.021 C 
BRANCH   2   3
ATOM      3  C   UNL A   1      31.852  29.357  24.194  1.00  0.00     0.116 C 
BRANCH   3   4
ATOM      4  N   UNL A   1      30.507  29.134  23.694  1.00  0.00    -0.352 N 
ATOM      5  C   UNL A   1      29.760  27.983  23.595  1.00  0.00     0.255 C 
ATOM      6  O   UNL A   1      28.631  28.067  23.112  1.00  0.00    -0.269 OA
ATOM      7  H   UNL A   1      30.052  29.945  23.371  1.00  0.00     0.163 HD
BRANCH   5   8
ATOM      8  C   UNL A   1      30.291  26.637  23.952  1.00  0.00     0.081 A 
ATOM      9  C   UNL A   1      30.781  23.994  24.791  1.00  0.00     0.045 A 
ATOM     10  C   UNL A   1      30.478  24.981  25.726  1.00  0.00     0.027 A 
ATOM     11  C   UNL A   1      31.062  24.381  23.481  1.00  0.00     0.073 A 
ATOM     12  C   UNL A   1      30.196  26.283  25.306  1.00  0.00     0.020 A 
ATOM     13  C   UNL A   1      30.854  25.705  23.078  1.00  0.00     0.130 A 
BRANCH   9  14
ATOM     14  N   UNL A   1      30.797  22.620  25.090  1.00  0.00    -0.322 N 
ATOM     15  C   UNL A   1      31.830  21.727  25.195  1.00  0.00     0.248 C 
ATOM     16  O   UNL A   1      31.595  20.523  25.289  1.00  0.00    -0.270 OA
ATOM     17  H   UNL A   1      29.907  22.230  25.254  1.00  0.00     0.170 HD
BRANCH  15  18
ATOM     18  C   UNL A   1      33.247  22.170  25.219  1.00  0.00     0.072 C 
ATOM     19  C   UNL A   1      34.291  21.332  25.101  1.00  0.00     0.017 C 
BRANCH  19  20
ATOM     20  C   UNL A   1      35.650  21.715  25.262  1.00  0.00     0.013 A 
ATOM     21  C   UNL A   1      38.328  23.977  26.070  1.00  0.00     0.173 C 
ATOM     22  N   UNL A   1      37.429  22.912  25.695  1.00  0.00    -0.275 N 
ATOM     23  C   UNL A   1      36.066  22.922  25.777  1.00  0.00     0.116 A 
ATOM     24  N   UNL A   1      37.928  21.771  25.182  1.00  0.00    -0.181 NA
ATOM     25  C   UNL A   1      36.837  21.043  24.919  1.00  0.00     0.143 A 
ENDBRANCH  19  20
ENDBRANCH  15  18
ENDBRANCH   9  14
BRANCH  13  26
ATOM     26  O   UNL A   1      31.263  26.001  21.809  1.00  0.00    -0.507 OA
ATOM     27  H   UNL A   1      31.980  26.587  21.672  1.00  0.00     0.293 HD
ENDBRANCH  13  26
ENDBRANCH   5   8
ENDBRANCH   3   4
ENDBRANCH   2   3
ENDBRANCH   1   2
BRANCH   1  28
ATOM     28  C   UNL A   1      33.721  27.320  25.119  1.00  0.00     0.002 C 
BRANCH  28  29
ATOM     29  C   UNL A   1      34.385  28.087  26.264  1.00  0.00     0.021 C 
BRANCH  29  30
ATOM     30  C   UNL A   1      33.471  28.502  27.411  1.00  0.00     0.116 C 
BRANCH  30  31
ATOM     31  N   UNL A   1      33.438  29.939  27.622  1.00  0.00    -0.352 N 
ATOM     32  C   UNL A   1      34.410  30.773  28.116  1.00  0.00     0.251 C 
ATOM     33  H   UNL A   1      32.593  30.380  27.374  1.00  0.00     0.163 HD
ATOM     34  O   UNL A   1      34.143  31.953  28.345  1.00  0.00    -0.269 OA
BRANCH  32  35
ATOM     35  C   UNL A   1      35.767  30.255  28.401  1.00  0.00     0.039 A 
ATOM     36  C   UNL A   1      36.748  30.352  27.409  1.00  0.00     0.014 A 
ATOM     37  C   UNL A   1      36.078  29.672  29.633  1.00  0.00     0.014 A 
ATOM     38  C   UNL A   1      38.052  29.925  27.676  1.00  0.00     0.010 A 
ATOM     39  C   UNL A   1      37.394  29.319  29.923  1.00  0.00     0.010 A 
ATOM     40  C   UNL A   1      38.394  29.437  28.948  1.00  0.00    -0.014 A 
BRANCH  40  41
ATOM     41  C   UNL A   1      39.794  29.054  29.274  1.00  0.00     0.031 A 
ATOM     42  C   UNL A   1      40.705  30.021  29.980  1.00  0.00     0.074 A 
ATOM     43  C   UNL A   1      40.262  27.852  28.885  1.00  0.00     0.049 A 
ATOM     44  N   UNL A   1      41.958  29.871  30.326  1.00  0.00    -0.248 NA
ATOM     45  C   UNL A   1      40.141  31.337  30.321  1.00  0.00     0.031 C 
ATOM     46  C   UNL A   1      39.491  26.836  28.164  1.00  0.00     0.029 A 
ATOM     47  N   UNL A   1      41.499  27.279  29.042  1.00  0.00    -0.354 N 
ATOM     48  C   UNL A   1      42.335  31.075  30.911  1.00  0.00     0.074 A 
ATOM     49  C   UNL A   1      41.197  31.962  30.818  1.00  0.00     0.031 C 
ATOM     50  C   UNL A   1      40.259  25.750  27.981  1.00  0.00     0.029 A 
ATOM     51  C   UNL A   1      41.588  26.008  28.527  1.00  0.00     0.049 A 
ATOM     52  H   UNL A   1      42.252  27.736  29.482  1.00  0.00     0.167 HD
ATOM     53  C   UNL A   1      43.515  31.407  31.493  1.00  0.00     0.031 A 
ATOM     54  C   UNL A   1      42.621  25.143  28.496  1.00  0.00     0.031 A 
ATOM     55  C   UNL A   1      44.649  30.526  31.573  1.00  0.00     0.049 A 
ATOM     56  C   UNL A   1      43.933  25.543  29.112  1.00  0.00     0.074 A 
ATOM     57  C   UNL A   1      45.873  30.749  32.180  1.00  0.00     0.029 A 
ATOM     58  N   UNL A   1      44.706  29.255  31.017  1.00  0.00    -0.354 N 
ATOM     59  N   UNL A   1      44.251  26.662  29.720  1.00  0.00    -0.248 NA
ATOM     60  C   UNL A   1      45.021  24.560  29.048  1.00  0.00     0.031 C 
ATOM     61  C   UNL A   1      46.691  29.639  31.935  1.00  0.00     0.029 A 
ATOM     62  C   UNL A   1      45.954  28.695  31.238  1.00  0.00     0.049 A 
ATOM     63  H   UNL A   1      43.968  28.815  30.536  1.00  0.00     0.167 HD
ATOM     64  C   UNL A   1      45.568  26.506  30.135  1.00  0.00     0.074 A 
ATOM     65  C   UNL A   1      45.982  25.179  29.720  1.00  0.00     0.031 C 
ATOM     66  C   UNL A   1      46.361  27.379  30.807  1.00  0.00     0.031 A 
BRANCH  53  67
ATOM     67  C   UNL A   1      43.633  32.800  32.060  1.00  0.00    -0.014 A 
ATOM     68  C   UNL A   1      43.216  33.094  33.372  1.00  0.00     0.010 A 
ATOM     69  C   UNL A   1      44.162  33.836  31.268  1.00  0.00     0.010 A 
ATOM     70  C   UNL A   1      43.256  34.407  33.854  1.00  0.00     0.020 A 
ATOM     71  C   UNL A   1      44.238  35.144  31.758  1.00  0.00     0.020 A 
ATOM     72  C   UNL A   1      43.756  35.425  33.038  1.00  0.00     0.054 A 
BRANCH  72  73
ATOM     73  S   UNL A   1      43.768  37.122  33.676  1.00  0.00     0.124 S 
ATOM     74  O   UNL A   1      43.749  37.906  32.443  1.00  0.00    -0.237 OA
ATOM     75  O   UNL A   1      42.544  37.175  34.471  1.00  0.00    -0.237 OA
ATOM     76  O   UNL A   1      45.009  37.197  34.443  1.00  0.00    -0.744 OA
ENDBRANCH  72  73
ENDBRANCH  53  67
BRANCH  54  77
ATOM     77  C   UNL A   1      42.433  23.795  27.892  1.00  0.00    -0.014 A 
ATOM     78  C   UNL A   1      42.727  23.581  26.534  1.00  0.00     0.010 A 
ATOM     79  C   UNL A   1      42.010  22.709  28.679  1.00  0.00     0.010 A 
ATOM     80  C   UNL A   1      42.604  22.305  25.975  1.00  0.00     0.020 A 
ATOM     81  C   UNL A   1      41.912  21.427  28.131  1.00  0.00     0.020 A 
ATOM     82  C   UNL A   1      42.207  21.234  26.780  1.00  0.00     0.054 A 
BRANCH  82  83
ATOM     83  S   UNL A   1      42.143  19.574  26.051  1.00  0.00     0.124 S 
ATOM     84  O   UNL A   1      43.072  19.696  24.933  1.00  0.00    -0.237 OA
ATOM     85  O   UNL A   1      42.588  18.729  27.157  1.00  0.00    -0.237 OA
ATOM     86  O   UNL A   1      40.737  19.416  25.684  1.00  0.00    -0.744 OA
ENDBRANCH  82  83
ENDBRANCH  54  77
BRANCH  66  87
ATOM     87  C   UNL A   1      47.752  26.921  31.162  1.00  0.00    -0.014 A 
ATOM     88  C   UNL A   1      48.021  26.273  32.382  1.00  0.00     0.010 A 
ATOM     89  C   UNL A   1      48.797  27.098  30.237  1.00  0.00     0.010 A 
ATOM     90  C   UNL A   1      49.317  25.844  32.683  1.00  0.00     0.020 A 
ATOM     91  C   UNL A   1      50.087  26.641  30.521  1.00  0.00     0.020 A 
ATOM     92  C   UNL A   1      50.342  26.030  31.750  1.00  0.00     0.054 A 
BRANCH  92  93
ATOM     93  S   UNL A   1      52.006  25.426  32.148  1.00  0.00     0.124 S 
ATOM     94  O   UNL A   1      52.258  26.062  33.438  1.00  0.00    -0.237 OA
ATOM     95  O   UNL A   1      51.818  23.978  32.187  1.00  0.00    -0.237 OA
ATOM     96  O   UNL A   1      52.825  25.914  31.042  1.00  0.00    -0.744 OA
ENDBRANCH  92  93
ENDBRANCH  66  87
ENDBRANCH  40  41
ENDBRANCH  32  35
ENDBRANCH  30  31
ENDBRANCH  29  30
ENDBRANCH  28  29
ENDBRANCH   1  28
TORSDOF 20
ENDMDL
MODEL 2
REMARK VINA RESULT:     -10.6      3.040      3.857
REMARK SMILES Cn1cc(/C=C/C(=O)Nc2ccc(C(=O)NCCCCCCNC(=O)c3ccc(-c4c5nc(c(-c6ccc(S(=O)(=O)[O-])cc6)c6ccc([nH]6)c(-c6ccc(S(=O)(=O)[O-])cc6)c6nc(c(-c7ccc(S(=O)(=O)[O-])cc7)c7ccc4[nH]7)C=C6)C=C5)cc3)c(O)c2)cn1
REMARK SMILES IDX 19 1 18 2 17 3 16 4 14 5 15 6 13 8 10 9 11 10 88 11 12 12
REMARK SMILES IDX 86 13 9 14 7 15 8 16 6 18 5 19 4 20 1 21 2 22 3 23 90 24
REMARK SMILES IDX 89 25 87 26 20 28 21 29 22 30 23 31 24 32 25 34 26 35 27 36
REMARK SMILES IDX 85 37 28 38 84 39 29 40 30 41 31 42 78 43 32 44 83 45 77 46
REMARK SMILES IDX 79 47 33 48 82 49 76 50 75 51 34 53 64 54 45 55 63 56 46 57
REMARK SMILES IDX 49 58 62 59 80 60 47 61 48 62 61 64 81 65 50 66 35 67 36 68
REMARK SMILES IDX 44 69 37 70 43 71 38 72 39 73 40 74 41 75 42 76 65 77 66 78
REMARK SMILES IDX 74 79 67 80 73 81 68 82 69 83 70 84 71 85 72 86 51 87 52 88
REMARK SMILES IDX 60 89 53 90 59 91 54 92 55 93 56 94 57 95 58 96
REMARK H PARENT 16 7 9 17 87 27 23 33 79 52 49 63
REMARK Flexibility Score: inf
ROOT
ATOM      1  C   UNL A   1      33.951  30.749  27.622  1.00  0.00     0.002 C 
ENDROOT
BRANCH   1   2
ATOM      2  C   UNL A   1      32.583  30.504  26.975  1.00  0.00     0.021 C 
BRANCH   2   3
ATOM      3  C   UNL A   1      32.549  29.540  25.790  1.00  0.00     0.116 C 
BRANCH   3   4
ATOM      4  N   UNL A   1      31.525  29.835  24.803  1.00  0.00    -0.352 N 
ATOM      5  C   UNL A   1      30.913  29.031  23.870  1.00  0.00     0.255 C 
ATOM      6  O   UNL A   1      30.072  29.542  23.129  1.00  0.00    -0.269 OA
ATOM      7  H   UNL A   1      31.217  30.770  24.801  1.00  0.00     0.163 HD
BRANCH   5   8
ATOM      8  C   UNL A   1      31.291  27.606  23.653  1.00  0.00     0.081 A 
ATOM      9  C   UNL A   1      31.468  24.836  23.174  1.00  0.00     0.045 A 
ATOM     10  C   UNL A   1      30.864  25.309  24.336  1.00  0.00     0.027 A 
ATOM     11  C   UNL A   1      32.179  25.736  22.379  1.00  0.00     0.073 A 
ATOM     12  C   UNL A   1      30.741  26.684  24.554  1.00  0.00     0.020 A 
ATOM     13  C   UNL A   1      32.120  27.108  22.644  1.00  0.00     0.130 A 
BRANCH   9  14
ATOM     14  N   UNL A   1      31.382  23.500  22.743  1.00  0.00    -0.322 N 
ATOM     15  C   UNL A   1      32.241  22.443  22.890  1.00  0.00     0.248 C 
ATOM     16  O   UNL A   1      32.044  21.399  22.269  1.00  0.00    -0.270 OA
ATOM     17  H   UNL A   1      30.558  23.287  22.247  1.00  0.00     0.170 HD
BRANCH  15  18
ATOM     18  C   UNL A   1      33.410  22.507  23.803  1.00  0.00     0.072 C 
ATOM     19  C   UNL A   1      34.635  22.902  23.418  1.00  0.00     0.017 C 
BRANCH  19  20
ATOM     20  C   UNL A   1      35.795  22.836  24.236  1.00  0.00     0.013 A 
ATOM     21  C   UNL A   1      38.335  24.166  26.409  1.00  0.00     0.173 C 
ATOM     22  N   UNL A   1      37.433  23.423  25.563  1.00  0.00    -0.275 N 
ATOM     23  C   UNL A   1      36.281  23.881  24.990  1.00  0.00     0.116 A 
ATOM     24  N   UNL A   1      37.717  22.144  25.249  1.00  0.00    -0.181 NA
ATOM     25  C   UNL A   1      36.714  21.790  24.438  1.00  0.00     0.143 A 
ENDBRANCH  19  20
ENDBRANCH  15  18
ENDBRANCH   9  14
BRANCH  13  26
ATOM     26  O   UNL A   1      32.936  27.888  21.876  1.00  0.00    -0.507 OA
ATOM     27  H   UNL A   1      32.887  28.821  21.936  1.00  0.00     0.293 HD
ENDBRANCH  13  26
ENDBRANCH   5   8
ENDBRANCH   3   4
ENDBRANCH   2   3
ENDBRANCH   1   2
BRANCH   1  28
ATOM     28  C   UNL A   1      34.355  32.205  27.867  1.00  0.00     0.002 C 
BRANCH  28  29
ATOM     29  C   UNL A   1      35.852  32.491  28.003  1.00  0.00     0.021 C 
BRANCH  29  30
ATOM     30  C   UNL A   1      36.385  32.610  29.426  1.00  0.00     0.116 C 
BRANCH  30  31
ATOM     31  N   UNL A   1      35.930  31.540  30.296  1.00  0.00    -0.352 N 
ATOM     32  C   UNL A   1      36.540  30.352  30.614  1.00  0.00     0.251 C 
ATOM     33  H   UNL A   1      35.054  31.689  30.722  1.00  0.00     0.163 HD
ATOM     34  O   UNL A   1      35.929  29.510  31.272  1.00  0.00    -0.269 OA
BRANCH  32  35
ATOM     35  C   UNL A   1      37.915  30.068  30.146  1.00  0.00     0.039 A 
ATOM     36  C   UNL A   1      38.966  30.124  31.067  1.00  0.00     0.014 A 
ATOM     37  C   UNL A   1      38.176  29.751  28.810  1.00  0.00     0.014 A 
ATOM     38  C   UNL A   1      40.264  29.802  30.661  1.00  0.00     0.010 A 
ATOM     39  C   UNL A   1      39.455  29.354  28.426  1.00  0.00     0.010 A 
ATOM     40  C   UNL A   1      40.514  29.379  29.345  1.00  0.00    -0.014 A 
BRANCH  40  41
ATOM     41  C   UNL A   1      41.873  28.954  28.919  1.00  0.00     0.031 A 
ATOM     42  C   UNL A   1      43.014  29.935  28.915  1.00  0.00     0.074 A 
ATOM     43  C   UNL A   1      42.070  27.694  28.482  1.00  0.00     0.049 A 
ATOM     44  N   UNL A   1      44.259  29.752  28.556  1.00  0.00    -0.248 NA
ATOM     45  C   UNL A   1      42.710  31.308  29.350  1.00  0.00     0.031 C 
ATOM     46  C   UNL A   1      41.041  26.655  28.404  1.00  0.00     0.029 A 
ATOM     47  N   UNL A   1      43.204  27.073  28.021  1.00  0.00    -0.354 N 
ATOM     48  C   UNL A   1      44.882  30.986  28.708  1.00  0.00     0.074 A 
ATOM     49  C   UNL A   1      43.863  31.921  29.133  1.00  0.00     0.031 C 
ATOM     50  C   UNL A   1      41.600  25.515  27.966  1.00  0.00     0.029 A 
ATOM     51  C   UNL A   1      43.012  25.753  27.688  1.00  0.00     0.049 A 
ATOM     52  H   UNL A   1      44.072  27.529  27.937  1.00  0.00     0.167 HD
ATOM     53  C   UNL A   1      46.187  31.309  28.530  1.00  0.00     0.031 A 
ATOM     54  C   UNL A   1      43.875  24.833  27.212  1.00  0.00     0.031 A 
ATOM     55  C   UNL A   1      47.195  30.379  28.095  1.00  0.00     0.049 A 
ATOM     56  C   UNL A   1      45.310  25.220  26.985  1.00  0.00     0.074 A 
ATOM     57  C   UNL A   1      48.552  30.594  27.928  1.00  0.00     0.029 A 
ATOM     58  N   UNL A   1      46.955  29.057  27.745  1.00  0.00    -0.354 N 
ATOM     59  N   UNL A   1      45.895  26.375  27.197  1.00  0.00    -0.248 NA
ATOM     60  C   UNL A   1      46.202  24.177  26.465  1.00  0.00     0.031 C 
ATOM     61  C   UNL A   1      49.120  29.421  27.415  1.00  0.00     0.029 A 
ATOM     62  C   UNL A   1      48.132  28.454  27.331  1.00  0.00     0.049 A 
ATOM     63  H   UNL A   1      46.077  28.612  27.785  1.00  0.00     0.167 HD
ATOM     64  C   UNL A   1      47.232  26.190  26.862  1.00  0.00     0.074 A 
ATOM     65  C   UNL A   1      47.369  24.807  26.446  1.00  0.00     0.031 C 
ATOM     66  C   UNL A   1      48.254  27.081  26.904  1.00  0.00     0.031 A 
BRANCH  53  67
ATOM     67  C   UNL A   1      46.581  32.744  28.783  1.00  0.00    -0.014 A 
ATOM     68  C   UNL A   1      46.513  33.712  27.763  1.00  0.00     0.010 A 
ATOM     69  C   UNL A   1      47.033  33.132  30.057  1.00  0.00     0.010 A 
ATOM     70  C   UNL A   1      46.960  35.017  27.990  1.00  0.00     0.020 A 
ATOM     71  C   UNL A   1      47.447  34.445  30.300  1.00  0.00     0.020 A 
ATOM     72  C   UNL A   1      47.435  35.371  29.256  1.00  0.00     0.054 A 
BRANCH  72  73
ATOM     73  S   UNL A   1      48.037  37.062  29.515  1.00  0.00     0.124 S 
ATOM     74  O   UNL A   1      48.348  37.054  30.943  1.00  0.00    -0.237 OA
ATOM     75  O   UNL A   1      49.190  37.133  28.622  1.00  0.00    -0.237 OA
ATOM     76  O   UNL A   1      46.902  37.898  29.131  1.00  0.00    -0.744 OA
ENDBRANCH  72  73
ENDBRANCH  53  67
BRANCH  54  77
ATOM     77  C   UNL A   1      43.403  23.444  26.960  1.00  0.00    -0.014 A 
ATOM     78  C   UNL A   1      43.448  22.905  25.662  1.00  0.00     0.010 A 
ATOM     79  C   UNL A   1      42.955  22.635  28.020  1.00  0.00     0.010 A 
ATOM     80  C   UNL A   1      43.057  21.583  25.429  1.00  0.00     0.020 A 
ATOM     81  C   UNL A   1      42.590  21.305  27.797  1.00  0.00     0.020 A 
ATOM     82  C   UNL A   1      42.640  20.788  26.500  1.00  0.00     0.054 A 
BRANCH  82  83
ATOM     83  S   UNL A   1      42.224  19.051  26.185  1.00  0.00     0.124 S 
ATOM     84  O   UNL A   1      42.527  18.427  27.469  1.00  0.00    -0.237 OA
ATOM     85  O   UNL A   1      40.807  19.127  25.835  1.00  0.00    -0.237 OA
ATOM     86  O   UNL A   1      43.110  18.681  25.083  1.00  0.00    -0.744 OA
ENDBRANCH  82  83
ENDBRANCH  54  77
BRANCH  66  87
ATOM     87  C   UNL A   1      49.623  26.584  26.515  1.00  0.00    -0.014 A 
ATOM     88  C   UNL A   1      50.501  26.034  27.466  1.00  0.00     0.010 A 
ATOM     89  C   UNL A   1      50.017  26.625  25.164  1.00  0.00     0.010 A 
ATOM     90  C   UNL A   1      51.760  25.566  27.079  1.00  0.00     0.020 A 
ATOM     91  C   UNL A   1      51.262  26.130  24.769  1.00  0.00     0.020 A 
ATOM     92  C   UNL A   1      52.132  25.617  25.732  1.00  0.00     0.054 A 
BRANCH  92  93
ATOM     93  S   UNL A   1      53.756  24.965  25.250  1.00  0.00     0.124 S 
ATOM     94  O   UNL A   1      53.462  23.552  25.030  1.00  0.00    -0.237 OA
ATOM     95  O   UNL A   1      54.065  25.737  24.048  1.00  0.00    -0.237 OA
ATOM     96  O   UNL A   1      54.602  25.254  26.405  1.00  0.00    -0.744 OA
ENDBRANCH  92  93
ENDBRANCH  66  87
ENDBRANCH  40  41
ENDBRANCH  32  35
ENDBRANCH  30  31
ENDBRANCH  29  30
ENDBRANCH  28  29
ENDBRANCH   1  28
TORSDOF 20
ENDMDL
MODEL 3
REMARK VINA RESULT:     -10.4      2.631      3.596
REMARK SMILES Cn1cc(/C=C/C(=O)Nc2ccc(C(=O)NCCCCCCNC(=O)c3ccc(-c4c5nc(c(-c6ccc(S(=O)(=O)[O-])cc6)c6ccc([nH]6)c(-c6ccc(S(=O)(=O)[O-])cc6)c6nc(c(-c7ccc(S(=O)(=O)[O-])cc7)c7ccc4[nH]7)C=C6)C=C5)cc3)c(O)c2)cn1
REMARK SMILES IDX 19 1 18 2 17 3 16 4 14 5 15 6 13 8 10 9 11 10 88 11 12 12
REMARK SMILES IDX 86 13 9 14 7 15 8 16 6 18 5 19 4 20 1 21 2 22 3 23 90 24
REMARK SMILES IDX 89 25 87 26 20 28 21 29 22 30 23 31 24 32 25 34 26 35 27 36
REMARK SMILES IDX 85 37 28 38 84 39 29 40 30 41 31 42 78 43 32 44 83 45 77 46
REMARK SMILES IDX 79 47 33 48 82 49 76 50 75 51 34 53 64 54 45 55 63 56 46 57
REMARK SMILES IDX 49 58 62 59 80 60 47 61 48 62 61 64 81 65 50 66 35 67 36 68
REMARK SMILES IDX 44 69 37 70 43 71 38 72 39 73 40 74 41 75 42 76 65 77 66 78
REMARK SMILES IDX 74 79 67 80 73 81 68 82 69 83 70 84 71 85 72 86 51 87 52 88
REMARK SMILES IDX 60 89 53 90 59 91 54 92 55 93 56 94 57 95 58 96
REMARK H PARENT 16 7 9 17 87 27 23 33 79 52 49 63
REMARK Flexibility Score: inf
ROOT
ATOM      1  C   UNL A   1      31.858  28.612  24.626  1.00  0.00     0.002 C 
ENDROOT
BRANCH   1   2
ATOM      2  C   UNL A   1      30.785  27.777  23.918  1.00  0.00     0.021 C 
BRANCH   2   3
ATOM      3  C   UNL A   1      30.124  26.673  24.741  1.00  0.00     0.116 C 
BRANCH   3   4
ATOM      4  N   UNL A   1      29.926  25.424  24.025  1.00  0.00    -0.352 N 
ATOM      5  C   UNL A   1      30.809  24.421  23.700  1.00  0.00     0.255 C 
ATOM      6  O   UNL A   1      30.380  23.458  23.064  1.00  0.00    -0.269 OA
ATOM      7  H   UNL A   1      29.002  25.270  23.721  1.00  0.00     0.163 HD
BRANCH   5   8
ATOM      8  C   UNL A   1      32.267  24.496  23.995  1.00  0.00     0.081 A 
ATOM      9  C   UNL A   1      34.943  24.159  24.805  1.00  0.00     0.045 A 
ATOM     10  C   UNL A   1      33.949  24.390  25.752  1.00  0.00     0.027 A 
ATOM     11  C   UNL A   1      34.631  24.327  23.456  1.00  0.00     0.073 A 
ATOM     12  C   UNL A   1      32.615  24.518  25.353  1.00  0.00     0.020 A 
ATOM     13  C   UNL A   1      33.305  24.534  23.061  1.00  0.00     0.130 A 
BRANCH   9  14
ATOM     14  N   UNL A   1      36.245  23.740  25.133  1.00  0.00    -0.322 N 
ATOM     15  C   UNL A   1      36.715  22.565  25.658  1.00  0.00     0.248 C 
ATOM     16  O   UNL A   1      37.883  22.483  26.036  1.00  0.00    -0.270 OA
ATOM     17  H   UNL A   1      36.944  24.411  24.953  1.00  0.00     0.170 HD
BRANCH  15  18
ATOM     18  C   UNL A   1      35.854  21.361  25.771  1.00  0.00     0.072 C 
ATOM     19  C   UNL A   1      35.181  20.826  24.738  1.00  0.00     0.017 C 
BRANCH  19  20
ATOM     20  C   UNL A   1      34.244  19.764  24.852  1.00  0.00     0.013 A 
ATOM     21  C   UNL A   1      33.115  16.363  24.536  1.00  0.00     0.173 C 
ATOM     22  N   UNL A   1      33.347  17.771  24.749  1.00  0.00    -0.275 N 
ATOM     23  C   UNL A   1      34.524  18.443  24.583  1.00  0.00     0.116 A 
ATOM     24  N   UNL A   1      32.326  18.563  25.130  1.00  0.00    -0.181 NA
ATOM     25  C   UNL A   1      32.879  19.780  25.191  1.00  0.00     0.143 A 
ENDBRANCH  19  20
ENDBRANCH  15  18
ENDBRANCH   9  14
BRANCH  13  26
ATOM     26  O   UNL A   1      33.125  24.795  21.733  1.00  0.00    -0.507 OA
ATOM     27  H   UNL A   1      32.389  24.435  21.279  1.00  0.00     0.293 HD
ENDBRANCH  13  26
ENDBRANCH   5   8
ENDBRANCH   3   4
ENDBRANCH   2   3
ENDBRANCH   1   2
BRANCH   1  28
ATOM     28  C   UNL A   1      33.262  28.007  24.720  1.00  0.00     0.002 C 
BRANCH  28  29
ATOM     29  C   UNL A   1      34.155  28.514  25.854  1.00  0.00     0.021 C 
BRANCH  29  30
ATOM     30  C   UNL A   1      33.436  29.002  27.106  1.00  0.00     0.116 C 
BRANCH  30  31
ATOM     31  N   UNL A   1      33.415  30.450  27.223  1.00  0.00    -0.352 N 
ATOM     32  C   UNL A   1      34.307  31.290  27.843  1.00  0.00     0.251 C 
ATOM     33  H   UNL A   1      32.649  30.896  26.794  1.00  0.00     0.163 HD
ATOM     34  O   UNL A   1      34.044  32.488  27.949  1.00  0.00    -0.269 OA
BRANCH  32  35
ATOM     35  C   UNL A   1      35.567  30.758  28.410  1.00  0.00     0.039 A 
ATOM     36  C   UNL A   1      36.784  31.253  27.931  1.00  0.00     0.014 A 
ATOM     37  C   UNL A   1      35.558  29.776  29.404  1.00  0.00     0.014 A 
ATOM     38  C   UNL A   1      37.984  30.810  28.492  1.00  0.00     0.010 A 
ATOM     39  C   UNL A   1      36.750  29.394  30.016  1.00  0.00     0.010 A 
ATOM     40  C   UNL A   1      37.976  29.903  29.564  1.00  0.00    -0.014 A 
BRANCH  40  41
ATOM     41  C   UNL A   1      39.240  29.483  30.227  1.00  0.00     0.031 A 
ATOM     42  C   UNL A   1      39.707  30.167  31.483  1.00  0.00     0.074 A 
ATOM     43  C   UNL A   1      39.996  28.519  29.666  1.00  0.00     0.049 A 
ATOM     44  N   UNL A   1      40.790  29.952  32.185  1.00  0.00    -0.248 NA
ATOM     45  C   UNL A   1      38.858  31.250  32.003  1.00  0.00     0.031 C 
ATOM     46  C   UNL A   1      39.673  27.799  28.432  1.00  0.00     0.029 A 
ATOM     47  N   UNL A   1      41.194  27.976  30.061  1.00  0.00    -0.354 N 
ATOM     48  C   UNL A   1      40.759  30.880  33.221  1.00  0.00     0.074 A 
ATOM     49  C   UNL A   1      39.582  31.697  33.018  1.00  0.00     0.031 C 
ATOM     50  C   UNL A   1      40.624  26.882  28.196  1.00  0.00     0.029 A 
ATOM     51  C   UNL A   1      41.648  26.979  29.232  1.00  0.00     0.049 A 
ATOM     52  H   UNL A   1      41.681  28.274  30.863  1.00  0.00     0.167 HD
ATOM     53  C   UNL A   1      41.619  31.027  34.259  1.00  0.00     0.031 A 
ATOM     54  C   UNL A   1      42.762  26.223  29.295  1.00  0.00     0.031 A 
ATOM     55  C   UNL A   1      42.795  30.220  34.450  1.00  0.00     0.049 A 
ATOM     56  C   UNL A   1      43.723  26.427  30.433  1.00  0.00     0.074 A 
ATOM     57  C   UNL A   1      43.706  30.259  35.492  1.00  0.00     0.029 A 
ATOM     58  N   UNL A   1      43.232  29.236  33.574  1.00  0.00    -0.354 N 
ATOM     59  N   UNL A   1      43.644  27.265  31.439  1.00  0.00    -0.248 NA
ATOM     60  C   UNL A   1      44.919  25.575  30.449  1.00  0.00     0.031 C 
ATOM     61  C   UNL A   1      44.728  29.343  35.212  1.00  0.00     0.029 A 
ATOM     62  C   UNL A   1      44.417  28.683  34.034  1.00  0.00     0.049 A 
ATOM     63  H   UNL A   1      42.769  28.970  32.748  1.00  0.00     0.167 HD
ATOM     64  C   UNL A   1      44.766  27.022  32.224  1.00  0.00     0.074 A 
ATOM     65  C   UNL A   1      45.500  25.949  31.580  1.00  0.00     0.031 C 
ATOM     66  C   UNL A   1      45.148  27.627  33.377  1.00  0.00     0.031 A 
BRANCH  53  67
ATOM     67  C   UNL A   1      41.322  32.128  35.247  1.00  0.00    -0.014 A 
ATOM     68  C   UNL A   1      40.592  31.878  36.424  1.00  0.00     0.010 A 
ATOM     69  C   UNL A   1      41.772  33.437  34.993  1.00  0.00     0.010 A 
ATOM     70  C   UNL A   1      40.254  32.924  37.288  1.00  0.00     0.020 A 
ATOM     71  C   UNL A   1      41.468  34.481  35.873  1.00  0.00     0.020 A 
ATOM     72  C   UNL A   1      40.686  34.222  36.999  1.00  0.00     0.054 A 
BRANCH  72  73
ATOM     73  S   UNL A   1      40.207  35.565  38.119  1.00  0.00     0.124 S 
ATOM     74  O   UNL A   1      41.269  35.511  39.122  1.00  0.00    -0.237 OA
ATOM     75  O   UNL A   1      40.228  36.735  37.245  1.00  0.00    -0.237 OA
ATOM     76  O   UNL A   1      38.883  35.168  38.593  1.00  0.00    -0.744 OA
ENDBRANCH  72  73
ENDBRANCH  53  67
BRANCH  54  77
ATOM     77  C   UNL A   1      42.999  25.175  28.265  1.00  0.00    -0.014 A 
ATOM     78  C   UNL A   1      43.696  25.487  27.085  1.00  0.00     0.010 A 
ATOM     79  C   UNL A   1      42.575  23.850  28.478  1.00  0.00     0.010 A 
ATOM     80  C   UNL A   1      43.968  24.495  26.138  1.00  0.00     0.020 A 
ATOM     81  C   UNL A   1      42.869  22.850  27.548  1.00  0.00     0.020 A 
ATOM     82  C   UNL A   1      43.562  23.180  26.381  1.00  0.00     0.054 A 
BRANCH  82  83
ATOM     83  S   UNL A   1      44.006  21.896  25.180  1.00  0.00     0.124 S 
ATOM     84  O   UNL A   1      43.901  22.613  23.913  1.00  0.00    -0.237 OA
ATOM     85  O   UNL A   1      45.360  21.535  25.594  1.00  0.00    -0.237 OA
ATOM     86  O   UNL A   1      43.000  20.859  25.398  1.00  0.00    -0.744 OA
ENDBRANCH  82  83
ENDBRANCH  54  77
BRANCH  66  87
ATOM     87  C   UNL A   1      46.407  27.126  34.038  1.00  0.00    -0.014 A 
ATOM     88  C   UNL A   1      47.664  27.678  33.734  1.00  0.00     0.010 A 
ATOM     89  C   UNL A   1      46.322  26.118  35.016  1.00  0.00     0.010 A 
ATOM     90  C   UNL A   1      48.816  27.207  34.371  1.00  0.00     0.020 A 
ATOM     91  C   UNL A   1      47.466  25.667  35.678  1.00  0.00     0.020 A 
ATOM     92  C   UNL A   1      48.709  26.204  35.340  1.00  0.00     0.054 A 
BRANCH  92  93
ATOM     93  S   UNL A   1      50.215  25.639  36.181  1.00  0.00     0.124 S 
ATOM     94  O   UNL A   1      49.775  25.565  37.571  1.00  0.00    -0.237 OA
ATOM     95  O   UNL A   1      50.478  24.355  35.535  1.00  0.00    -0.237 OA
ATOM     96  O   UNL A   1      51.188  26.688  35.890  1.00  0.00    -0.744 OA
ENDBRANCH  92  93
ENDBRANCH  66  87
ENDBRANCH  40  41
ENDBRANCH  32  35
ENDBRANCH  30  31
ENDBRANCH  29  30
ENDBRANCH  28  29
ENDBRANCH   1  28
TORSDOF 20
ENDMDL
