MODEL 1
REMARK VINA RESULT:     -14.4      0.000      0.000
REMARK SMILES Cc1ccccc1[C@@H]1[NH2+][C@@H](C(=O)NCCCCCCNC(=O)c2ccc(-c3c4nc(c(-c5ccc(S(=O)(=O)[O-])cc5)c5ccc([nH]5)c(-c5ccc(S(=O)(=O)[O-])cc5)c5nc(c(-c6ccc(S(=O)(=O)[O-])cc6)c6ccc3[nH]6)C=C5)C=C4)cc2)CC2=c3ccccc3=N[C@@H]21
REMARK SMILES IDX 17 1 16 2 15 3 14 4 13 5 11 6 12 7 10 9 8 10 9 11 92 12
REMARK SMILES IDX 84 15 91 16 83 17 85 18 90 19 86 20 89 21 87 22 88 23 7 24
REMARK SMILES IDX 1 25 2 26 3 27 4 28 6 29 5 30 18 31 19 32 20 33 21 34 22 36
REMARK SMILES IDX 23 37 24 38 82 39 25 40 81 41 26 42 27 43 28 44 75 45 29 46
REMARK SMILES IDX 80 47 74 48 76 49 30 50 79 51 73 52 72 53 31 55 61 56 42 57
REMARK SMILES IDX 60 58 43 59 46 60 59 61 77 62 44 63 45 64 58 66 78 67 47 68
REMARK SMILES IDX 32 69 33 70 41 71 34 72 40 73 35 74 36 75 37 76 38 77 39 78
REMARK SMILES IDX 62 79 63 80 71 81 64 82 70 83 65 84 66 85 67 86 68 87 69 88
REMARK SMILES IDX 48 89 49 90 57 91 50 92 56 93 51 94 52 95 53 96 54 97 55 98
REMARK H PARENT 13 8 9 13 9 14 20 35 76 54 46 65
REMARK Flexibility Score: inf
ROOT
ATOM      1  C   UNL A   1      36.339  21.681  25.162  1.00  0.00     0.002 C 
ENDROOT
BRANCH   1   2
ATOM      2  C   UNL A   1      35.099  21.554  24.268  1.00  0.00     0.002 C 
BRANCH   2   3
ATOM      3  C   UNL A   1      34.717  22.758  23.390  1.00  0.00     0.021 C 
BRANCH   3   4
ATOM      4  C   UNL A   1      33.237  22.949  22.982  1.00  0.00     0.116 C 
BRANCH   4   5
ATOM      5  N   UNL A   1      32.828  23.965  21.986  1.00  0.00    -0.351 N 
ATOM      6  C   UNL A   1      33.101  25.357  22.026  1.00  0.00     0.278 C 
ATOM      7  O   UNL A   1      33.329  26.000  21.006  1.00  0.00    -0.268 OA
ATOM      8  H   UNL A   1      32.310  23.640  21.214  1.00  0.00     0.163 HD
BRANCH   6   9
ATOM      9  C   UNL A   1      32.782  25.961  23.397  1.00  0.00     0.277 C 
ATOM     10  C   UNL A   1      31.272  27.882  24.061  1.00  0.00     0.243 C 
ATOM     11  N   UNL A   1      31.833  27.002  23.023  1.00  0.00    -0.327 N 
ATOM     12  C   UNL A   1      31.403  27.292  25.536  1.00  0.00     0.196 C 
ATOM     13  H   UNL A   1      32.306  27.603  22.348  1.00  0.00     0.347 HD
ATOM     14  H   UNL A   1      31.023  26.479  22.691  1.00  0.00     0.347 HD
ATOM     15  C   UNL A   1      32.692  26.434  25.675  1.00  0.00    -0.024 C 
ATOM     16  N   UNL A   1      30.316  26.344  25.908  1.00  0.00    -0.270 NA
ATOM     17  C   UNL A   1      33.690  26.481  24.508  1.00  0.00     0.109 C 
ATOM     18  C   UNL A   1      32.422  25.261  26.275  1.00  0.00     0.002 A 
ATOM     19  C   UNL A   1      30.940  25.278  26.312  1.00  0.00     0.066 A 
ATOM     20  C   UNL A   1      33.129  24.002  26.214  1.00  0.00     0.010 A 
ATOM     21  C   UNL A   1      30.285  23.984  26.631  1.00  0.00     0.028 A 
ATOM     22  C   UNL A   1      32.442  22.854  26.324  1.00  0.00     0.001 A 
ATOM     23  C   UNL A   1      31.017  22.855  26.595  1.00  0.00     0.002 A 
BRANCH  10  24
ATOM     24  C   UNL A   1      30.007  28.527  23.411  1.00  0.00     0.015 A 
ATOM     25  C   UNL A   1      28.585  26.409  23.561  1.00  0.00     0.045 C 
ATOM     26  C   UNL A   1      28.757  27.883  23.346  1.00  0.00    -0.042 A 
ATOM     27  C   UNL A   1      27.573  28.653  23.193  1.00  0.00     0.004 A 
ATOM     28  C   UNL A   1      27.595  30.044  23.105  1.00  0.00     0.000 A 
ATOM     29  C   UNL A   1      29.977  29.931  23.184  1.00  0.00     0.010 A 
ATOM     30  C   UNL A   1      28.810  30.689  23.090  1.00  0.00     0.001 A 
ENDBRANCH  10  24
ENDBRANCH   6   9
ENDBRANCH   4   5
ENDBRANCH   3   4
ENDBRANCH   2   3
ENDBRANCH   1   2
BRANCH   1  31
ATOM     31  C   UNL A   1      36.474  22.958  25.992  1.00  0.00     0.021 C 
BRANCH  31  32
ATOM     32  C   UNL A   1      37.861  23.573  26.006  1.00  0.00     0.116 C 
BRANCH  32  33
ATOM     33  N   UNL A   1      38.504  23.632  27.304  1.00  0.00    -0.352 N 
ATOM     34  C   UNL A   1      39.776  24.201  27.349  1.00  0.00     0.251 C 
ATOM     35  H   UNL A   1      38.063  23.287  28.115  1.00  0.00     0.163 HD
ATOM     36  O   UNL A   1      40.789  23.702  26.900  1.00  0.00    -0.269 OA
BRANCH  34  37
ATOM     37  C   UNL A   1      39.701  25.658  27.574  1.00  0.00     0.039 A 
ATOM     38  C   UNL A   1      40.275  26.599  26.725  1.00  0.00     0.014 A 
ATOM     39  C   UNL A   1      39.189  26.011  28.825  1.00  0.00     0.014 A 
ATOM     40  C   UNL A   1      40.428  27.908  27.188  1.00  0.00     0.010 A 
ATOM     41  C   UNL A   1      39.426  27.267  29.314  1.00  0.00     0.010 A 
ATOM     42  C   UNL A   1      40.061  28.209  28.502  1.00  0.00    -0.014 A 
BRANCH  42  43
ATOM     43  C   UNL A   1      40.278  29.480  29.169  1.00  0.00     0.031 A 
ATOM     44  C   UNL A   1      39.197  30.480  29.187  1.00  0.00     0.074 A 
ATOM     45  C   UNL A   1      41.370  29.627  29.947  1.00  0.00     0.049 A 
ATOM     46  N   UNL A   1      39.362  31.716  29.509  1.00  0.00    -0.248 NA
ATOM     47  C   UNL A   1      37.826  30.168  28.796  1.00  0.00     0.031 C 
ATOM     48  C   UNL A   1      41.600  30.611  30.998  1.00  0.00     0.029 A 
ATOM     49  N   UNL A   1      42.596  29.001  29.795  1.00  0.00    -0.354 N 
ATOM     50  C   UNL A   1      38.115  32.269  29.675  1.00  0.00     0.074 A 
ATOM     51  C   UNL A   1      37.198  31.303  29.119  1.00  0.00     0.031 C 
ATOM     52  C   UNL A   1      42.921  30.686  31.236  1.00  0.00     0.029 A 
ATOM     53  C   UNL A   1      43.595  29.887  30.223  1.00  0.00     0.049 A 
ATOM     54  H   UNL A   1      42.741  28.092  29.447  1.00  0.00     0.167 HD
ATOM     55  C   UNL A   1      37.998  33.425  30.388  1.00  0.00     0.031 A 
ATOM     56  C   UNL A   1      44.476  30.388  29.299  1.00  0.00     0.031 A 
ATOM     57  C   UNL A   1      39.311  33.951  30.773  1.00  0.00     0.049 A 
ATOM     58  C   UNL A   1      44.306  31.876  29.025  1.00  0.00     0.074 A 
ATOM     59  C   UNL A   1      40.035  33.991  31.954  1.00  0.00     0.029 A 
ATOM     60  N   UNL A   1      40.208  34.273  29.769  1.00  0.00    -0.354 N 
ATOM     61  N   UNL A   1      43.402  32.638  29.580  1.00  0.00    -0.248 NA
ATOM     62  C   UNL A   1      45.106  32.610  28.042  1.00  0.00     0.031 C 
ATOM     63  C   UNL A   1      41.386  34.324  31.634  1.00  0.00     0.029 A 
ATOM     64  C   UNL A   1      41.472  34.514  30.268  1.00  0.00     0.049 A 
ATOM     65  H   UNL A   1      39.973  34.324  28.813  1.00  0.00     0.167 HD
ATOM     66  C   UNL A   1      43.433  33.887  29.018  1.00  0.00     0.074 A 
ATOM     67  C   UNL A   1      44.532  33.827  28.070  1.00  0.00     0.031 C 
ATOM     68  C   UNL A   1      42.530  34.862  29.332  1.00  0.00     0.031 A 
BRANCH  55  69
ATOM     69  C   UNL A   1      36.695  33.968  30.931  1.00  0.00    -0.014 A 
ATOM     70  C   UNL A   1      35.562  34.014  30.093  1.00  0.00     0.010 A 
ATOM     71  C   UNL A   1      36.520  34.486  32.230  1.00  0.00     0.010 A 
ATOM     72  C   UNL A   1      34.361  34.621  30.491  1.00  0.00     0.020 A 
ATOM     73  C   UNL A   1      35.335  35.120  32.635  1.00  0.00     0.020 A 
ATOM     74  C   UNL A   1      34.263  35.196  31.755  1.00  0.00     0.054 A 
BRANCH  74  75
ATOM     75  S   UNL A   1      32.732  36.034  32.231  1.00  0.00     0.124 S 
ATOM     76  O   UNL A   1      31.861  34.917  32.590  1.00  0.00    -0.237 OA
ATOM     77  O   UNL A   1      33.165  36.877  33.342  1.00  0.00    -0.237 OA
ATOM     78  O   UNL A   1      32.339  36.756  31.022  1.00  0.00    -0.744 OA
ENDBRANCH  74  75
ENDBRANCH  55  69
BRANCH  56  79
ATOM     79  C   UNL A   1      44.875  29.350  28.292  1.00  0.00    -0.014 A 
ATOM     80  C   UNL A   1      45.719  28.308  28.747  1.00  0.00     0.010 A 
ATOM     81  C   UNL A   1      44.080  29.121  27.155  1.00  0.00     0.010 A 
ATOM     82  C   UNL A   1      45.595  27.015  28.229  1.00  0.00     0.020 A 
ATOM     83  C   UNL A   1      43.973  27.827  26.620  1.00  0.00     0.020 A 
ATOM     84  C   UNL A   1      44.659  26.770  27.225  1.00  0.00     0.054 A 
BRANCH  84  85
ATOM     85  S   UNL A   1      44.205  25.043  26.868  1.00  0.00     0.124 S 
ATOM     86  O   UNL A   1      45.503  24.406  26.671  1.00  0.00    -0.237 OA
ATOM     87  O   UNL A   1      43.483  24.649  28.081  1.00  0.00    -0.237 OA
ATOM     88  O   UNL A   1      43.373  25.147  25.673  1.00  0.00    -0.744 OA
ENDBRANCH  84  85
ENDBRANCH  56  79
BRANCH  68  89
ATOM     89  C   UNL A   1      42.538  36.248  28.738  1.00  0.00    -0.014 A 
ATOM     90  C   UNL A   1      41.895  36.557  27.529  1.00  0.00     0.010 A 
ATOM     91  C   UNL A   1      43.324  37.265  29.329  1.00  0.00     0.010 A 
ATOM     92  C   UNL A   1      41.980  37.844  26.975  1.00  0.00     0.020 A 
ATOM     93  C   UNL A   1      43.433  38.541  28.774  1.00  0.00     0.020 A 
ATOM     94  C   UNL A   1      42.741  38.830  27.608  1.00  0.00     0.054 A 
BRANCH  94  95
ATOM     95  S   UNL A   1      42.855  40.478  26.868  1.00  0.00     0.124 S 
ATOM     96  O   UNL A   1      43.377  41.287  27.967  1.00  0.00    -0.237 OA
ATOM     97  O   UNL A   1      43.782  40.247  25.763  1.00  0.00    -0.237 OA
ATOM     98  O   UNL A   1      41.481  40.782  26.476  1.00  0.00    -0.744 OA
ENDBRANCH  94  95
ENDBRANCH  68  89
ENDBRANCH  42  43
ENDBRANCH  34  37
ENDBRANCH  32  33
ENDBRANCH  31  32
ENDBRANCH   1  31
TORSDOF 17
ENDMDL
MODEL 2
REMARK VINA RESULT:     -14.2      4.247     10.880
REMARK SMILES Cc1ccccc1[C@@H]1[NH2+][C@@H](C(=O)NCCCCCCNC(=O)c2ccc(-c3c4nc(c(-c5ccc(S(=O)(=O)[O-])cc5)c5ccc([nH]5)c(-c5ccc(S(=O)(=O)[O-])cc5)c5nc(c(-c6ccc(S(=O)(=O)[O-])cc6)c6ccc3[nH]6)C=C5)C=C4)cc2)CC2=c3ccccc3=N[C@@H]21
REMARK SMILES IDX 17 1 16 2 15 3 14 4 13 5 11 6 12 7 10 9 8 10 9 11 92 12
REMARK SMILES IDX 84 15 91 16 83 17 85 18 90 19 86 20 89 21 87 22 88 23 7 24
REMARK SMILES IDX 1 25 2 26 3 27 4 28 6 29 5 30 18 31 19 32 20 33 21 34 22 36
REMARK SMILES IDX 23 37 24 38 82 39 25 40 81 41 26 42 27 43 28 44 75 45 29 46
REMARK SMILES IDX 80 47 74 48 76 49 30 50 79 51 73 52 72 53 31 55 61 56 42 57
REMARK SMILES IDX 60 58 43 59 46 60 59 61 77 62 44 63 45 64 58 66 78 67 47 68
REMARK SMILES IDX 32 69 33 70 41 71 34 72 40 73 35 74 36 75 37 76 38 77 39 78
REMARK SMILES IDX 62 79 63 80 71 81 64 82 70 83 65 84 66 85 67 86 68 87 69 88
REMARK SMILES IDX 48 89 49 90 57 91 50 92 56 93 51 94 52 95 53 96 54 97 55 98
REMARK H PARENT 13 8 9 13 9 14 20 35 76 54 46 65
REMARK Flexibility Score: inf
ROOT
ATOM      1  C   UNL A   1      33.483  28.497  27.101  1.00  0.00     0.002 C 
ENDROOT
BRANCH   1   2
ATOM      2  C   UNL A   1      31.969  28.729  27.025  1.00  0.00     0.002 C 
BRANCH   2   3
ATOM      3  C   UNL A   1      31.041  27.550  27.364  1.00  0.00     0.021 C 
BRANCH   3   4
ATOM      4  C   UNL A   1      30.668  26.544  26.249  1.00  0.00     0.116 C 
BRANCH   4   5
ATOM      5  N   UNL A   1      30.560  25.092  26.514  1.00  0.00    -0.351 N 
ATOM      6  C   UNL A   1      31.624  24.194  26.794  1.00  0.00     0.278 C 
ATOM      7  O   UNL A   1      31.493  23.263  27.580  1.00  0.00    -0.268 OA
ATOM      8  H   UNL A   1      29.653  24.707  26.492  1.00  0.00     0.163 HD
BRANCH   6   9
ATOM      9  C   UNL A   1      32.781  24.357  25.803  1.00  0.00     0.277 C 
ATOM     10  C   UNL A   1      34.290  22.643  24.709  1.00  0.00     0.243 C 
ATOM     11  N   UNL A   1      33.160  22.965  25.594  1.00  0.00    -0.327 N 
ATOM     12  C   UNL A   1      34.671  23.824  23.708  1.00  0.00     0.196 C 
ATOM     13  H   UNL A   1      33.383  22.580  26.513  1.00  0.00     0.347 HD
ATOM     14  H   UNL A   1      32.355  22.569  25.108  1.00  0.00     0.347 HD
ATOM     15  C   UNL A   1      34.394  25.209  24.357  1.00  0.00    -0.024 C 
ATOM     16  N   UNL A   1      33.850  23.854  22.466  1.00  0.00    -0.270 NA
ATOM     17  C   UNL A   1      34.038  25.220  25.852  1.00  0.00     0.109 C 
ATOM     18  C   UNL A   1      33.728  26.010  23.507  1.00  0.00     0.002 A 
ATOM     19  C   UNL A   1      33.386  25.068  22.414  1.00  0.00     0.066 A 
ATOM     20  C   UNL A   1      32.874  27.144  23.775  1.00  0.00     0.010 A 
ATOM     21  C   UNL A   1      32.370  25.544  21.441  1.00  0.00     0.028 A 
ATOM     22  C   UNL A   1      31.850  27.409  22.948  1.00  0.00     0.001 A 
ATOM     23  C   UNL A   1      31.640  26.634  21.741  1.00  0.00     0.002 A 
BRANCH  10  24
ATOM     24  C   UNL A   1      34.121  21.129  24.363  1.00  0.00     0.015 A 
ATOM     25  C   UNL A   1      36.489  20.482  25.074  1.00  0.00     0.045 C 
ATOM     26  C   UNL A   1      35.078  20.150  24.691  1.00  0.00    -0.042 A 
ATOM     27  C   UNL A   1      34.687  18.787  24.790  1.00  0.00     0.004 A 
ATOM     28  C   UNL A   1      33.375  18.371  24.575  1.00  0.00     0.000 A 
ATOM     29  C   UNL A   1      32.832  20.629  24.028  1.00  0.00     0.010 A 
ATOM     30  C   UNL A   1      32.440  19.300  24.181  1.00  0.00     0.001 A 
ENDBRANCH  10  24
ENDBRANCH   6   9
ENDBRANCH   4   5
ENDBRANCH   3   4
ENDBRANCH   2   3
ENDBRANCH   1   2
BRANCH   1  31
ATOM     31  C   UNL A   1      34.389  29.704  26.856  1.00  0.00     0.021 C 
BRANCH  31  32
ATOM     32  C   UNL A   1      33.956  30.983  27.548  1.00  0.00     0.116 C 
BRANCH  32  33
ATOM     33  N   UNL A   1      35.033  31.842  28.000  1.00  0.00    -0.352 N 
ATOM     34  C   UNL A   1      35.433  31.700  29.328  1.00  0.00     0.251 C 
ATOM     35  H   UNL A   1      35.460  32.494  27.399  1.00  0.00     0.163 HD
ATOM     36  O   UNL A   1      34.789  32.040  30.301  1.00  0.00    -0.269 OA
BRANCH  34  37
ATOM     37  C   UNL A   1      36.496  30.683  29.459  1.00  0.00     0.039 A 
ATOM     38  C   UNL A   1      36.566  29.773  30.509  1.00  0.00     0.014 A 
ATOM     39  C   UNL A   1      37.549  30.848  28.555  1.00  0.00     0.014 A 
ATOM     40  C   UNL A   1      37.764  29.083  30.713  1.00  0.00     0.010 A 
ATOM     41  C   UNL A   1      38.751  30.246  28.813  1.00  0.00     0.010 A 
ATOM     42  C   UNL A   1      38.863  29.378  29.901  1.00  0.00    -0.014 A 
BRANCH  42  43
ATOM     43  C   UNL A   1      40.204  28.849  30.070  1.00  0.00     0.031 A 
ATOM     44  C   UNL A   1      40.553  27.559  29.452  1.00  0.00     0.074 A 
ATOM     45  C   UNL A   1      41.157  29.648  30.591  1.00  0.00     0.049 A 
ATOM     46  N   UNL A   1      41.605  26.878  29.749  1.00  0.00    -0.248 NA
ATOM     47  C   UNL A   1      39.708  26.903  28.460  1.00  0.00     0.031 C 
ATOM     48  C   UNL A   1      42.605  29.503  30.494  1.00  0.00     0.029 A 
ATOM     49  N   UNL A   1      40.980  30.681  31.497  1.00  0.00    -0.354 N 
ATOM     50  C   UNL A   1      41.741  25.894  28.799  1.00  0.00     0.074 A 
ATOM     51  C   UNL A   1      40.486  25.884  28.086  1.00  0.00     0.031 C 
ATOM     52  C   UNL A   1      43.177  30.240  31.462  1.00  0.00     0.029 A 
ATOM     53  C   UNL A   1      42.113  30.737  32.322  1.00  0.00     0.049 A 
ATOM     54  H   UNL A   1      40.196  31.272  31.552  1.00  0.00     0.167 HD
ATOM     55  C   UNL A   1      42.955  25.294  28.642  1.00  0.00     0.031 A 
ATOM     56  C   UNL A   1      41.981  30.426  33.651  1.00  0.00     0.031 A 
ATOM     57  C   UNL A   1      43.915  25.760  29.648  1.00  0.00     0.049 A 
ATOM     58  C   UNL A   1      42.662  29.126  34.053  1.00  0.00     0.074 A 
ATOM     59  C   UNL A   1      45.000  26.622  29.631  1.00  0.00     0.029 A 
ATOM     60  N   UNL A   1      43.616  25.554  30.984  1.00  0.00    -0.354 N 
ATOM     61  N   UNL A   1      43.306  28.336  33.235  1.00  0.00    -0.248 NA
ATOM     62  C   UNL A   1      42.610  28.576  35.410  1.00  0.00     0.031 C 
ATOM     63  C   UNL A   1      45.332  26.942  30.982  1.00  0.00     0.029 A 
ATOM     64  C   UNL A   1      44.469  26.253  31.814  1.00  0.00     0.049 A 
ATOM     65  H   UNL A   1      42.884  24.978  31.304  1.00  0.00     0.167 HD
ATOM     66  C   UNL A   1      43.680  27.192  33.887  1.00  0.00     0.074 A 
ATOM     67  C   UNL A   1      43.238  27.396  35.255  1.00  0.00     0.031 C 
ATOM     68  C   UNL A   1      44.280  26.142  33.252  1.00  0.00     0.031 A 
BRANCH  55  69
ATOM     69  C   UNL A   1      43.348  24.453  27.448  1.00  0.00    -0.014 A 
ATOM     70  C   UNL A   1      42.998  23.087  27.420  1.00  0.00     0.010 A 
ATOM     71  C   UNL A   1      44.091  24.920  26.346  1.00  0.00     0.010 A 
ATOM     72  C   UNL A   1      43.440  22.222  26.407  1.00  0.00     0.020 A 
ATOM     73  C   UNL A   1      44.562  24.064  25.338  1.00  0.00     0.020 A 
ATOM     74  C   UNL A   1      44.244  22.713  25.382  1.00  0.00     0.054 A 
BRANCH  74  75
ATOM     75  S   UNL A   1      44.862  21.574  24.118  1.00  0.00     0.124 S 
ATOM     76  O   UNL A   1      44.190  20.325  24.466  1.00  0.00    -0.237 OA
ATOM     77  O   UNL A   1      44.416  22.206  22.879  1.00  0.00    -0.237 OA
ATOM     78  O   UNL A   1      46.309  21.574  24.327  1.00  0.00    -0.744 OA
ENDBRANCH  74  75
ENDBRANCH  55  69
BRANCH  56  79
ATOM     79  C   UNL A   1      40.698  30.959  34.221  1.00  0.00    -0.014 A 
ATOM     80  C   UNL A   1      40.646  32.347  34.491  1.00  0.00     0.010 A 
ATOM     81  C   UNL A   1      39.490  30.269  34.016  1.00  0.00     0.010 A 
ATOM     82  C   UNL A   1      39.454  33.060  34.328  1.00  0.00     0.020 A 
ATOM     83  C   UNL A   1      38.289  30.982  33.874  1.00  0.00     0.020 A 
ATOM     84  C   UNL A   1      38.301  32.379  33.938  1.00  0.00     0.054 A 
BRANCH  84  85
ATOM     85  S   UNL A   1      36.891  33.349  33.317  1.00  0.00     0.124 S 
ATOM     86  O   UNL A   1      36.984  34.579  34.097  1.00  0.00    -0.237 OA
ATOM     87  O   UNL A   1      37.201  33.479  31.890  1.00  0.00    -0.237 OA
ATOM     88  O   UNL A   1      35.737  32.506  33.615  1.00  0.00    -0.744 OA
ENDBRANCH  84  85
ENDBRANCH  56  79
BRANCH  68  89
ATOM     89  C   UNL A   1      44.710  24.870  33.938  1.00  0.00    -0.014 A 
ATOM     90  C   UNL A   1      46.057  24.508  34.089  1.00  0.00     0.010 A 
ATOM     91  C   UNL A   1      43.739  23.922  34.340  1.00  0.00     0.010 A 
ATOM     92  C   UNL A   1      46.415  23.285  34.676  1.00  0.00     0.020 A 
ATOM     93  C   UNL A   1      44.084  22.693  34.905  1.00  0.00     0.020 A 
ATOM     94  C   UNL A   1      45.425  22.390  35.090  1.00  0.00     0.054 A 
BRANCH  94  95
ATOM     95  S   UNL A   1      45.905  20.808  35.826  1.00  0.00     0.124 S 
ATOM     96  O   UNL A   1      45.634  21.020  37.246  1.00  0.00    -0.237 OA
ATOM     97  O   UNL A   1      45.008  19.876  35.148  1.00  0.00    -0.237 OA
ATOM     98  O   UNL A   1      47.319  20.675  35.480  1.00  0.00    -0.744 OA
ENDBRANCH  94  95
ENDBRANCH  68  89
ENDBRANCH  42  43
ENDBRANCH  34  37
ENDBRANCH  32  33
ENDBRANCH  31  32
ENDBRANCH   1  31
TORSDOF 17
ENDMDL
MODEL 3
REMARK VINA RESULT:     -14.2      1.307      2.530
REMARK SMILES Cc1ccccc1[C@@H]1[NH2+][C@@H](C(=O)NCCCCCCNC(=O)c2ccc(-c3c4nc(c(-c5ccc(S(=O)(=O)[O-])cc5)c5ccc([nH]5)c(-c5ccc(S(=O)(=O)[O-])cc5)c5nc(c(-c6ccc(S(=O)(=O)[O-])cc6)c6ccc3[nH]6)C=C5)C=C4)cc2)CC2=c3ccccc3=N[C@@H]21
REMARK SMILES IDX 17 1 16 2 15 3 14 4 13 5 11 6 12 7 10 9 8 10 9 11 92 12
REMARK SMILES IDX 84 15 91 16 83 17 85 18 90 19 86 20 89 21 87 22 88 23 7 24
REMARK SMILES IDX 1 25 2 26 3 27 4 28 6 29 5 30 18 31 19 32 20 33 21 34 22 36
REMARK SMILES IDX 23 37 24 38 82 39 25 40 81 41 26 42 27 43 28 44 75 45 29 46
REMARK SMILES IDX 80 47 74 48 76 49 30 50 79 51 73 52 72 53 31 55 61 56 42 57
REMARK SMILES IDX 60 58 43 59 46 60 59 61 77 62 44 63 45 64 58 66 78 67 47 68
REMARK SMILES IDX 32 69 33 70 41 71 34 72 40 73 35 74 36 75 37 76 38 77 39 78
REMARK SMILES IDX 62 79 63 80 71 81 64 82 70 83 65 84 66 85 67 86 68 87 69 88
REMARK SMILES IDX 48 89 49 90 57 91 50 92 56 93 51 94 52 95 53 96 54 97 55 98
REMARK H PARENT 13 8 9 13 9 14 20 35 76 54 46 65
REMARK Flexibility Score: inf
ROOT
ATOM      1  C   UNL A   1      35.623  21.894  26.139  1.00  0.00     0.002 C 
ENDROOT
BRANCH   1   2
ATOM      2  C   UNL A   1      34.478  21.513  27.086  1.00  0.00     0.002 C 
BRANCH   2   3
ATOM      3  C   UNL A   1      33.561  22.638  27.597  1.00  0.00     0.021 C 
BRANCH   3   4
ATOM      4  C   UNL A   1      32.448  23.178  26.669  1.00  0.00     0.116 C 
BRANCH   4   5
ATOM      5  N   UNL A   1      31.419  24.126  27.155  1.00  0.00    -0.351 N 
ATOM      6  C   UNL A   1      30.353  24.686  26.403  1.00  0.00     0.278 C 
ATOM      7  O   UNL A   1      29.253  24.899  26.903  1.00  0.00    -0.268 OA
ATOM      8  H   UNL A   1      31.482  24.398  28.099  1.00  0.00     0.163 HD
BRANCH   6   9
ATOM      9  C   UNL A   1      30.834  25.240  25.058  1.00  0.00     0.277 C 
ATOM     10  C   UNL A   1      31.734  27.519  24.421  1.00  0.00     0.243 C 
ATOM     11  N   UNL A   1      31.226  26.589  25.443  1.00  0.00    -0.327 N 
ATOM     12  C   UNL A   1      32.242  26.792  23.096  1.00  0.00     0.196 C 
ATOM     13  H   UNL A   1      30.404  27.027  25.860  1.00  0.00     0.347 HD
ATOM     14  H   UNL A   1      32.031  26.440  26.051  1.00  0.00     0.347 HD
ATOM     15  C   UNL A   1      31.416  25.505  22.820  1.00  0.00    -0.024 C 
ATOM     16  N   UNL A   1      33.642  26.292  23.179  1.00  0.00    -0.270 NA
ATOM     17  C   UNL A   1      30.167  25.280  23.686  1.00  0.00     0.109 C 
ATOM     18  C   UNL A   1      32.225  24.471  22.534  1.00  0.00     0.002 A 
ATOM     19  C   UNL A   1      33.558  25.038  22.846  1.00  0.00     0.066 A 
ATOM     20  C   UNL A   1      31.996  23.049  22.662  1.00  0.00     0.010 A 
ATOM     21  C   UNL A   1      34.672  24.061  22.942  1.00  0.00     0.028 A 
ATOM     22  C   UNL A   1      33.030  22.237  22.937  1.00  0.00     0.001 A 
ATOM     23  C   UNL A   1      34.385  22.748  23.017  1.00  0.00     0.002 A 
BRANCH  10  24
ATOM     24  C   UNL A   1      32.463  28.647  25.219  1.00  0.00     0.015 A 
ATOM     25  C   UNL A   1      30.716  30.438  24.703  1.00  0.00     0.045 C 
ATOM     26  C   UNL A   1      31.896  29.912  25.463  1.00  0.00    -0.042 A 
ATOM     27  C   UNL A   1      32.364  30.697  26.551  1.00  0.00     0.004 A 
ATOM     28  C   UNL A   1      33.375  30.260  27.404  1.00  0.00     0.000 A 
ATOM     29  C   UNL A   1      33.576  28.313  26.040  1.00  0.00     0.010 A 
ATOM     30  C   UNL A   1      33.994  29.060  27.140  1.00  0.00     0.001 A 
ENDBRANCH  10  24
ENDBRANCH   6   9
ENDBRANCH   4   5
ENDBRANCH   3   4
ENDBRANCH   2   3
ENDBRANCH   1   2
BRANCH   1  31
ATOM     31  C   UNL A   1      36.185  23.311  26.258  1.00  0.00     0.021 C 
BRANCH  31  32
ATOM     32  C   UNL A   1      37.685  23.426  26.062  1.00  0.00     0.116 C 
BRANCH  32  33
ATOM     33  N   UNL A   1      38.470  23.499  27.278  1.00  0.00    -0.352 N 
ATOM     34  C   UNL A   1      39.721  24.105  27.183  1.00  0.00     0.251 C 
ATOM     35  H   UNL A   1      38.135  23.136  28.131  1.00  0.00     0.163 HD
ATOM     36  O   UNL A   1      40.691  23.641  26.617  1.00  0.00    -0.269 OA
BRANCH  34  37
ATOM     37  C   UNL A   1      39.629  25.559  27.427  1.00  0.00     0.039 A 
ATOM     38  C   UNL A   1      40.202  26.518  26.597  1.00  0.00     0.014 A 
ATOM     39  C   UNL A   1      39.101  25.889  28.679  1.00  0.00     0.014 A 
ATOM     40  C   UNL A   1      40.336  27.821  27.080  1.00  0.00     0.010 A 
ATOM     41  C   UNL A   1      39.321  27.140  29.188  1.00  0.00     0.010 A 
ATOM     42  C   UNL A   1      39.954  28.100  28.395  1.00  0.00    -0.014 A 
BRANCH  42  43
ATOM     43  C   UNL A   1      40.151  29.364  29.082  1.00  0.00     0.031 A 
ATOM     44  C   UNL A   1      39.076  30.369  29.067  1.00  0.00     0.074 A 
ATOM     45  C   UNL A   1      41.213  29.498  29.903  1.00  0.00     0.049 A 
ATOM     46  N   UNL A   1      39.234  31.601  29.407  1.00  0.00    -0.248 NA
ATOM     47  C   UNL A   1      37.719  30.069  28.620  1.00  0.00     0.031 C 
ATOM     48  C   UNL A   1      41.407  30.471  30.971  1.00  0.00     0.029 A 
ATOM     49  N   UNL A   1      42.441  28.866  29.792  1.00  0.00    -0.354 N 
ATOM     50  C   UNL A   1      37.985  32.160  29.529  1.00  0.00     0.074 A 
ATOM     51  C   UNL A   1      37.085  31.203  28.930  1.00  0.00     0.031 C 
ATOM     52  C   UNL A   1      42.718  30.536  31.260  1.00  0.00     0.029 A 
ATOM     53  C   UNL A   1      43.427  29.743  30.267  1.00  0.00     0.049 A 
ATOM     54  H   UNL A   1      42.594  27.960  29.442  1.00  0.00     0.167 HD
ATOM     55  C   UNL A   1      37.845  33.309  30.248  1.00  0.00     0.031 A 
ATOM     56  C   UNL A   1      44.345  30.248  29.383  1.00  0.00     0.031 A 
ATOM     57  C   UNL A   1      39.145  33.825  30.689  1.00  0.00     0.049 A 
ATOM     58  C   UNL A   1      44.194  31.739  29.116  1.00  0.00     0.074 A 
ATOM     59  C   UNL A   1      39.823  33.850  31.897  1.00  0.00     0.029 A 
ATOM     60  N   UNL A   1      40.083  34.151  29.723  1.00  0.00    -0.354 N 
ATOM     61  N   UNL A   1      43.273  32.501  29.643  1.00  0.00    -0.248 NA
ATOM     62  C   UNL A   1      45.035  32.478  28.172  1.00  0.00     0.031 C 
ATOM     63  C   UNL A   1      41.187  34.179  31.634  1.00  0.00     0.029 A 
ATOM     64  C   UNL A   1      41.327  34.380  30.273  1.00  0.00     0.049 A 
ATOM     65  H   UNL A   1      39.885  34.213  28.760  1.00  0.00     0.167 HD
ATOM     66  C   UNL A   1      43.332  33.754  29.094  1.00  0.00     0.074 A 
ATOM     67  C   UNL A   1      44.467  33.697  28.190  1.00  0.00     0.031 C 
ATOM     68  C   UNL A   1      42.422  34.732  29.383  1.00  0.00     0.031 A 
BRANCH  55  69
ATOM     69  C   UNL A   1      36.525  33.855  30.746  1.00  0.00    -0.014 A 
ATOM     70  C   UNL A   1      35.534  34.223  29.813  1.00  0.00     0.010 A 
ATOM     71  C   UNL A   1      36.205  34.072  32.101  1.00  0.00     0.010 A 
ATOM     72  C   UNL A   1      34.341  34.853  30.199  1.00  0.00     0.020 A 
ATOM     73  C   UNL A   1      35.028  34.723  32.502  1.00  0.00     0.020 A 
ATOM     74  C   UNL A   1      34.106  35.124  31.544  1.00  0.00     0.054 A 
BRANCH  74  75
ATOM     75  S   UNL A   1      32.594  35.995  32.022  1.00  0.00     0.124 S 
ATOM     76  O   UNL A   1      31.787  34.927  32.606  1.00  0.00    -0.237 OA
ATOM     77  O   UNL A   1      33.090  36.996  32.963  1.00  0.00    -0.237 OA
ATOM     78  O   UNL A   1      32.087  36.530  30.760  1.00  0.00    -0.744 OA
ENDBRANCH  74  75
ENDBRANCH  55  69
BRANCH  56  79
ATOM     79  C   UNL A   1      44.779  29.216  28.382  1.00  0.00    -0.014 A 
ATOM     80  C   UNL A   1      45.766  28.293  28.802  1.00  0.00     0.010 A 
ATOM     81  C   UNL A   1      43.927  28.854  27.323  1.00  0.00     0.010 A 
ATOM     82  C   UNL A   1      45.748  26.973  28.340  1.00  0.00     0.020 A 
ATOM     83  C   UNL A   1      43.924  27.534  26.844  1.00  0.00     0.020 A 
ATOM     84  C   UNL A   1      44.769  26.585  27.425  1.00  0.00     0.054 A 
BRANCH  84  85
ATOM     85  S   UNL A   1      44.484  24.805  27.166  1.00  0.00     0.124 S 
ATOM     86  O   UNL A   1      43.327  24.541  28.016  1.00  0.00    -0.237 OA
ATOM     87  O   UNL A   1      44.240  24.731  25.723  1.00  0.00    -0.237 OA
ATOM     88  O   UNL A   1      45.734  24.190  27.604  1.00  0.00    -0.744 OA
ENDBRANCH  84  85
ENDBRANCH  56  79
BRANCH  68  89
ATOM     89  C   UNL A   1      42.461  36.123  28.802  1.00  0.00    -0.014 A 
ATOM     90  C   UNL A   1      41.907  36.437  27.551  1.00  0.00     0.010 A 
ATOM     91  C   UNL A   1      43.189  37.142  29.459  1.00  0.00     0.010 A 
ATOM     92  C   UNL A   1      42.020  37.729  27.016  1.00  0.00     0.020 A 
ATOM     93  C   UNL A   1      43.327  38.425  28.925  1.00  0.00     0.020 A 
ATOM     94  C   UNL A   1      42.720  38.717  27.712  1.00  0.00     0.054 A 
BRANCH  94  95
ATOM     95  S   UNL A   1      42.873  40.372  26.997  1.00  0.00     0.124 S 
ATOM     96  O   UNL A   1      41.498  40.682  26.610  1.00  0.00    -0.237 OA
ATOM     97  O   UNL A   1      43.397  41.140  28.123  1.00  0.00    -0.237 OA
ATOM     98  O   UNL A   1      43.801  40.189  25.883  1.00  0.00    -0.744 OA
ENDBRANCH  94  95
ENDBRANCH  68  89
ENDBRANCH  42  43
ENDBRANCH  34  37
ENDBRANCH  32  33
ENDBRANCH  31  32
ENDBRANCH   1  31
TORSDOF 17
ENDMDL
