MODEL 1
REMARK VINA RESULT:      -9.2      0.000      0.000
REMARK SMILES CC(C)OCCS(=O)(=O)N[C@@H]1COC[C@@H]1C(=O)NCCCCCCNC(=O)c1ccc(-c2c3nc(c(-c4ccc(S(=O)(=O)[O-])cc4)c4ccc([nH]4)c(-c4ccc(S(=O)(=O)[O-])cc4)c4nc(c(-c5ccc(S(=O)(=O)[O-])cc5)c5ccc2[nH]5)C=C4)C=C3)cc1
REMARK SMILES IDX 20 1 19 2 18 3 16 4 17 5 15 7 11 8 12 9 13 10 14 11 10 12
REMARK SMILES IDX 7 14 8 15 9 16 6 17 5 18 4 19 2 20 1 21 3 22 21 23 22 24
REMARK SMILES IDX 23 25 24 26 25 27 26 28 27 30 28 31 29 32 87 33 30 34 86 35
REMARK SMILES IDX 31 36 32 37 33 38 80 39 34 40 85 41 79 42 81 43 35 44 84 45
REMARK SMILES IDX 78 46 77 47 36 49 66 50 47 51 65 52 48 53 51 54 64 55 82 56
REMARK SMILES IDX 49 57 50 58 63 60 83 61 52 62 37 63 38 64 46 65 39 66 45 67
REMARK SMILES IDX 40 68 41 69 42 70 43 71 44 72 67 73 68 74 76 75 69 76 75 77
REMARK SMILES IDX 70 78 71 79 72 80 73 81 74 82 53 83 54 84 62 85 55 86 61 87
REMARK SMILES IDX 56 88 57 89 58 90 59 91 60 92
REMARK H PARENT 18 6 10 13 25 29 81 48 51 59
REMARK Flexibility Score: inf
ROOT
ATOM      1  C   UNL A   1      37.186  23.184  25.092  1.00  0.00     0.021 C 
ENDROOT
BRANCH   1   2
ATOM      2  C   UNL A   1      35.872  23.958  24.936  1.00  0.00     0.116 C 
BRANCH   2   3
ATOM      3  N   UNL A   1      35.215  23.782  23.646  1.00  0.00    -0.356 N 
ATOM      4  C   UNL A   1      34.076  23.175  23.226  1.00  0.00     0.227 C 
ATOM      5  O   UNL A   1      33.730  23.447  22.065  1.00  0.00    -0.275 OA
ATOM      6  H   UNL A   1      35.714  24.199  22.907  1.00  0.00     0.163 HD
BRANCH   4   7
ATOM      7  C   UNL A   1      33.179  22.222  24.013  1.00  0.00     0.124 C 
ATOM      8  C   UNL A   1      32.338  22.778  25.180  1.00  0.00     0.110 C 
ATOM      9  C   UNL A   1      33.178  22.261  26.349  1.00  0.00     0.181 C 
ATOM     10  O   UNL A   1      33.741  20.996  25.971  1.00  0.00    -0.379 OA
ATOM     11  C   UNL A   1      33.901  20.999  24.552  1.00  0.00     0.175 C 
BRANCH   8  12
ATOM     12  N   UNL A   1      32.089  24.276  25.065  1.00  0.00    -0.209 NA
ATOM     13  H   UNL A   1      32.999  24.715  25.208  1.00  0.00     0.141 HD
BRANCH  12  14
ATOM     14  S   UNL A   1      30.995  25.163  26.039  1.00  0.00     0.214 S 
ATOM     15  O   UNL A   1      31.722  26.139  26.805  1.00  0.00    -0.212 OA
ATOM     16  O   UNL A   1      30.277  24.095  26.723  1.00  0.00    -0.212 OA
BRANCH  14  17
ATOM     17  C   UNL A   1      29.732  25.974  24.960  1.00  0.00     0.182 C 
BRANCH  17  18
ATOM     18  C   UNL A   1      30.055  26.980  23.838  1.00  0.00     0.178 C 
BRANCH  18  19
ATOM     19  O   UNL A   1      29.566  28.326  23.855  1.00  0.00    -0.378 OA
BRANCH  19  20
ATOM     20  C   UNL A   1      29.093  28.827  22.615  1.00  0.00     0.112 C 
ATOM     21  C   UNL A   1      27.682  29.361  22.879  1.00  0.00     0.038 C 
ATOM     22  C   UNL A   1      30.325  29.545  22.037  1.00  0.00     0.038 C 
ENDBRANCH  19  20
ENDBRANCH  18  19
ENDBRANCH  17  18
ENDBRANCH  14  17
ENDBRANCH  12  14
ENDBRANCH   8  12
ENDBRANCH   4   7
ENDBRANCH   2   3
ENDBRANCH   1   2
BRANCH   1  23
ATOM     23  C   UNL A   1      38.195  23.669  26.147  1.00  0.00     0.002 C 
BRANCH  23  24
ATOM     24  C   UNL A   1      39.303  22.708  26.593  1.00  0.00     0.002 C 
BRANCH  24  25
ATOM     25  C   UNL A   1      39.436  21.390  25.827  1.00  0.00     0.021 C 
BRANCH  25  26
ATOM     26  C   UNL A   1      40.232  20.281  26.512  1.00  0.00     0.116 C 
BRANCH  26  27
ATOM     27  N   UNL A   1      41.504  19.994  25.869  1.00  0.00    -0.352 N 
ATOM     28  C   UNL A   1      42.673  20.720  25.863  1.00  0.00     0.251 C 
ATOM     29  H   UNL A   1      41.534  19.151  25.361  1.00  0.00     0.163 HD
ATOM     30  O   UNL A   1      43.613  20.354  25.162  1.00  0.00    -0.269 OA
BRANCH  28  31
ATOM     31  C   UNL A   1      42.793  21.959  26.668  1.00  0.00     0.039 A 
ATOM     32  C   UNL A   1      43.123  23.154  26.020  1.00  0.00     0.014 A 
ATOM     33  C   UNL A   1      42.587  21.952  28.049  1.00  0.00     0.014 A 
ATOM     34  C   UNL A   1      43.162  24.351  26.743  1.00  0.00     0.010 A 
ATOM     35  C   UNL A   1      42.558  23.154  28.755  1.00  0.00     0.010 A 
ATOM     36  C   UNL A   1      42.834  24.368  28.109  1.00  0.00    -0.014 A 
BRANCH  36  37
ATOM     37  C   UNL A   1      42.740  25.647  28.864  1.00  0.00     0.031 A 
ATOM     38  C   UNL A   1      43.848  26.075  29.788  1.00  0.00     0.074 A 
ATOM     39  C   UNL A   1      41.619  26.392  28.770  1.00  0.00     0.049 A 
ATOM     40  N   UNL A   1      43.909  27.121  30.573  1.00  0.00    -0.248 NA
ATOM     41  C   UNL A   1      45.033  25.205  29.854  1.00  0.00     0.031 C 
ATOM     42  C   UNL A   1      40.458  26.072  27.936  1.00  0.00     0.029 A 
ATOM     43  N   UNL A   1      41.268  27.569  29.386  1.00  0.00    -0.354 N 
ATOM     44  C   UNL A   1      45.129  27.031  31.232  1.00  0.00     0.074 A 
ATOM     45  C   UNL A   1      45.756  25.802  30.793  1.00  0.00     0.031 C 
ATOM     46  C   UNL A   1      39.537  27.039  28.072  1.00  0.00     0.029 A 
ATOM     47  C   UNL A   1      40.018  28.023  29.037  1.00  0.00     0.049 A 
ATOM     48  H   UNL A   1      41.857  28.042  30.017  1.00  0.00     0.167 HD
ATOM     49  C   UNL A   1      45.687  27.898  32.111  1.00  0.00     0.031 A 
ATOM     50  C   UNL A   1      39.325  29.103  29.454  1.00  0.00     0.031 A 
ATOM     51  C   UNL A   1      45.062  29.120  32.548  1.00  0.00     0.049 A 
ATOM     52  C   UNL A   1      39.950  30.032  30.458  1.00  0.00     0.074 A 
ATOM     53  C   UNL A   1      45.568  30.088  33.399  1.00  0.00     0.029 A 
ATOM     54  N   UNL A   1      43.793  29.539  32.177  1.00  0.00    -0.354 N 
ATOM     55  N   UNL A   1      41.133  29.960  31.021  1.00  0.00    -0.248 NA
ATOM     56  C   UNL A   1      39.150  31.191  30.879  1.00  0.00     0.031 C 
ATOM     57  C   UNL A   1      44.581  31.061  33.590  1.00  0.00     0.029 A 
ATOM     58  C   UNL A   1      43.487  30.736  32.805  1.00  0.00     0.049 A 
ATOM     59  H   UNL A   1      43.197  29.058  31.558  1.00  0.00     0.167 HD
ATOM     60  C   UNL A   1      41.228  31.080  31.842  1.00  0.00     0.074 A 
ATOM     61  C   UNL A   1      39.993  31.819  31.688  1.00  0.00     0.031 C 
ATOM     62  C   UNL A   1      42.250  31.461  32.648  1.00  0.00     0.031 A 
BRANCH  49  63
ATOM     63  C   UNL A   1      47.044  27.552  32.670  1.00  0.00    -0.014 A 
ATOM     64  C   UNL A   1      47.174  26.779  33.838  1.00  0.00     0.010 A 
ATOM     65  C   UNL A   1      48.206  27.963  31.991  1.00  0.00     0.010 A 
ATOM     66  C   UNL A   1      48.439  26.460  34.340  1.00  0.00     0.020 A 
ATOM     67  C   UNL A   1      49.474  27.621  32.473  1.00  0.00     0.020 A 
ATOM     68  C   UNL A   1      49.581  26.885  33.655  1.00  0.00     0.054 A 
BRANCH  68  69
ATOM     69  S   UNL A   1      51.208  26.437  34.320  1.00  0.00     0.124 S 
ATOM     70  O   UNL A   1      51.205  27.120  35.610  1.00  0.00    -0.237 OA
ATOM     71  O   UNL A   1      51.138  24.979  34.381  1.00  0.00    -0.237 OA
ATOM     72  O   UNL A   1      52.146  26.973  33.334  1.00  0.00    -0.744 OA
ENDBRANCH  68  69
ENDBRANCH  49  63
BRANCH  50  73
ATOM     73  C   UNL A   1      37.960  29.364  28.918  1.00  0.00    -0.014 A 
ATOM     74  C   UNL A   1      37.777  29.707  27.566  1.00  0.00     0.010 A 
ATOM     75  C   UNL A   1      36.834  29.263  29.755  1.00  0.00     0.010 A 
ATOM     76  C   UNL A   1      36.496  29.961  27.066  1.00  0.00     0.020 A 
ATOM     77  C   UNL A   1      35.548  29.485  29.251  1.00  0.00     0.020 A 
ATOM     78  C   UNL A   1      35.389  29.844  27.912  1.00  0.00     0.054 A 
BRANCH  78  79
ATOM     79  S   UNL A   1      33.732  30.128  27.227  1.00  0.00     0.124 S 
ATOM     80  O   UNL A   1      33.461  31.499  27.646  1.00  0.00    -0.237 OA
ATOM     81  O   UNL A   1      33.947  29.932  25.795  1.00  0.00    -0.237 OA
ATOM     82  O   UNL A   1      32.916  29.102  27.873  1.00  0.00    -0.744 OA
ENDBRANCH  78  79
ENDBRANCH  50  73
BRANCH  62  83
ATOM     83  C   UNL A   1      42.092  32.750  33.411  1.00  0.00    -0.014 A 
ATOM     84  C   UNL A   1      42.346  33.993  32.806  1.00  0.00     0.010 A 
ATOM     85  C   UNL A   1      41.622  32.717  34.738  1.00  0.00     0.010 A 
ATOM     86  C   UNL A   1      42.159  35.179  33.521  1.00  0.00     0.020 A 
ATOM     87  C   UNL A   1      41.405  33.902  35.446  1.00  0.00     0.020 A 
ATOM     88  C   UNL A   1      41.686  35.126  34.837  1.00  0.00     0.054 A 
BRANCH  88  89
ATOM     89  S   UNL A   1      41.402  36.681  35.725  1.00  0.00     0.124 S 
ATOM     90  O   UNL A   1      42.066  37.652  34.859  1.00  0.00    -0.237 OA
ATOM     91  O   UNL A   1      39.944  36.766  35.762  1.00  0.00    -0.237 OA
ATOM     92  O   UNL A   1      42.041  36.464  37.021  1.00  0.00    -0.744 OA
ENDBRANCH  88  89
ENDBRANCH  62  83
ENDBRANCH  36  37
ENDBRANCH  28  31
ENDBRANCH  26  27
ENDBRANCH  25  26
ENDBRANCH  24  25
ENDBRANCH  23  24
ENDBRANCH   1  23
TORSDOF 22
ENDMDL
MODEL 2
REMARK VINA RESULT:      -8.9      4.675      6.119
REMARK SMILES CC(C)OCCS(=O)(=O)N[C@@H]1COC[C@@H]1C(=O)NCCCCCCNC(=O)c1ccc(-c2c3nc(c(-c4ccc(S(=O)(=O)[O-])cc4)c4ccc([nH]4)c(-c4ccc(S(=O)(=O)[O-])cc4)c4nc(c(-c5ccc(S(=O)(=O)[O-])cc5)c5ccc2[nH]5)C=C4)C=C3)cc1
REMARK SMILES IDX 20 1 19 2 18 3 16 4 17 5 15 7 11 8 12 9 13 10 14 11 10 12
REMARK SMILES IDX 7 14 8 15 9 16 6 17 5 18 4 19 2 20 1 21 3 22 21 23 22 24
REMARK SMILES IDX 23 25 24 26 25 27 26 28 27 30 28 31 29 32 87 33 30 34 86 35
REMARK SMILES IDX 31 36 32 37 33 38 80 39 34 40 85 41 79 42 81 43 35 44 84 45
REMARK SMILES IDX 78 46 77 47 36 49 66 50 47 51 65 52 48 53 51 54 64 55 82 56
REMARK SMILES IDX 49 57 50 58 63 60 83 61 52 62 37 63 38 64 46 65 39 66 45 67
REMARK SMILES IDX 40 68 41 69 42 70 43 71 44 72 67 73 68 74 76 75 69 76 75 77
REMARK SMILES IDX 70 78 71 79 72 80 73 81 74 82 53 83 54 84 62 85 55 86 61 87
REMARK SMILES IDX 56 88 57 89 58 90 59 91 60 92
REMARK H PARENT 18 6 10 13 25 29 81 48 51 59
REMARK Flexibility Score: inf
ROOT
ATOM      1  C   UNL A   1      39.652  23.858  27.431  1.00  0.00     0.021 C 
ENDROOT
BRANCH   1   2
ATOM      2  C   UNL A   1      38.401  24.307  26.667  1.00  0.00     0.116 C 
BRANCH   2   3
ATOM      3  N   UNL A   1      37.287  23.368  26.723  1.00  0.00    -0.356 N 
ATOM      4  C   UNL A   1      36.211  23.110  25.936  1.00  0.00     0.227 C 
ATOM      5  O   UNL A   1      35.606  22.059  26.199  1.00  0.00    -0.275 OA
ATOM      6  H   UNL A   1      37.322  22.786  27.516  1.00  0.00     0.163 HD
BRANCH   4   7
ATOM      7  C   UNL A   1      35.679  23.947  24.775  1.00  0.00     0.124 C 
ATOM      8  C   UNL A   1      34.155  24.067  24.576  1.00  0.00     0.110 C 
ATOM      9  C   UNL A   1      33.990  23.111  23.395  1.00  0.00     0.181 C 
ATOM     10  O   UNL A   1      35.166  23.204  22.576  1.00  0.00    -0.379 OA
ATOM     11  C   UNL A   1      36.257  23.565  23.424  1.00  0.00     0.175 C 
BRANCH   8  12
ATOM     12  N   UNL A   1      33.371  23.792  25.854  1.00  0.00    -0.209 NA
ATOM     13  H   UNL A   1      33.939  23.132  26.385  1.00  0.00     0.141 HD
BRANCH  12  14
ATOM     14  S   UNL A   1      31.776  23.170  25.907  1.00  0.00     0.214 S 
ATOM     15  O   UNL A   1      30.910  24.014  25.128  1.00  0.00    -0.212 OA
ATOM     16  O   UNL A   1      31.558  23.037  27.341  1.00  0.00    -0.212 OA
BRANCH  14  17
ATOM     17  C   UNL A   1      31.771  21.439  25.259  1.00  0.00     0.182 C 
BRANCH  17  18
ATOM     18  C   UNL A   1      32.885  20.404  25.516  1.00  0.00     0.178 C 
BRANCH  18  19
ATOM     19  O   UNL A   1      33.509  19.675  24.454  1.00  0.00    -0.378 OA
BRANCH  19  20
ATOM     20  C   UNL A   1      33.135  18.312  24.336  1.00  0.00     0.112 C 
ATOM     21  C   UNL A   1      32.636  17.885  25.720  1.00  0.00     0.038 C 
ATOM     22  C   UNL A   1      32.421  18.263  22.975  1.00  0.00     0.038 C 
ENDBRANCH  19  20
ENDBRANCH  18  19
ENDBRANCH  17  18
ENDBRANCH  14  17
ENDBRANCH  12  14
ENDBRANCH   8  12
ENDBRANCH   4   7
ENDBRANCH   2   3
ENDBRANCH   1   2
BRANCH   1  23
ATOM     23  C   UNL A   1      40.348  22.559  26.989  1.00  0.00     0.002 C 
BRANCH  23  24
ATOM     24  C   UNL A   1      41.482  22.007  27.859  1.00  0.00     0.002 C 
BRANCH  24  25
ATOM     25  C   UNL A   1      42.145  20.706  27.402  1.00  0.00     0.021 C 
BRANCH  25  26
ATOM     26  C   UNL A   1      41.823  20.237  25.984  1.00  0.00     0.116 C 
BRANCH  26  27
ATOM     27  N   UNL A   1      42.910  19.508  25.351  1.00  0.00    -0.352 N 
ATOM     28  C   UNL A   1      44.148  19.949  24.942  1.00  0.00     0.251 C 
ATOM     29  H   UNL A   1      42.733  18.552  25.191  1.00  0.00     0.163 HD
ATOM     30  O   UNL A   1      44.890  19.190  24.323  1.00  0.00    -0.269 OA
BRANCH  28  31
ATOM     31  C   UNL A   1      44.578  21.341  25.212  1.00  0.00     0.039 A 
ATOM     32  C   UNL A   1      44.185  22.351  24.327  1.00  0.00     0.014 A 
ATOM     33  C   UNL A   1      45.363  21.658  26.322  1.00  0.00     0.014 A 
ATOM     34  C   UNL A   1      44.507  23.684  24.603  1.00  0.00     0.010 A 
ATOM     35  C   UNL A   1      45.625  22.991  26.633  1.00  0.00     0.010 A 
ATOM     36  C   UNL A   1      45.191  24.020  25.784  1.00  0.00    -0.014 A 
BRANCH  36  37
ATOM     37  C   UNL A   1      45.426  25.441  26.162  1.00  0.00     0.031 A 
ATOM     38  C   UNL A   1      46.805  26.038  26.077  1.00  0.00     0.074 A 
ATOM     39  C   UNL A   1      44.405  26.176  26.648  1.00  0.00     0.049 A 
ATOM     40  N   UNL A   1      47.208  27.233  26.424  1.00  0.00    -0.248 NA
ATOM     41  C   UNL A   1      47.874  25.173  25.553  1.00  0.00     0.031 C 
ATOM     42  C   UNL A   1      43.027  25.706  26.813  1.00  0.00     0.029 A 
ATOM     43  N   UNL A   1      44.367  27.472  27.103  1.00  0.00    -0.354 N 
ATOM     44  C   UNL A   1      48.574  27.263  26.172  1.00  0.00     0.074 A 
ATOM     45  C   UNL A   1      48.941  25.948  25.689  1.00  0.00     0.031 C 
ATOM     46  C   UNL A   1      42.276  26.704  27.305  1.00  0.00     0.029 A 
ATOM     47  C   UNL A   1      43.124  27.869  27.536  1.00  0.00     0.049 A 
ATOM     48  H   UNL A   1      45.156  28.060  27.115  1.00  0.00     0.167 HD
ATOM     49  C   UNL A   1      49.443  28.293  26.314  1.00  0.00     0.031 A 
ATOM     50  C   UNL A   1      42.710  29.034  28.074  1.00  0.00     0.031 A 
ATOM     51  C   UNL A   1      49.077  29.599  26.797  1.00  0.00     0.049 A 
ATOM     52  C   UNL A   1      43.701  30.151  28.255  1.00  0.00     0.074 A 
ATOM     53  C   UNL A   1      49.876  30.722  26.929  1.00  0.00     0.029 A 
ATOM     54  N   UNL A   1      47.809  29.958  27.232  1.00  0.00    -0.354 N 
ATOM     55  N   UNL A   1      44.977  30.177  27.950  1.00  0.00    -0.248 NA
ATOM     56  C   UNL A   1      43.196  31.398  28.848  1.00  0.00     0.031 C 
ATOM     57  C   UNL A   1      49.107  31.741  27.502  1.00  0.00     0.029 A 
ATOM     58  C   UNL A   1      47.812  31.275  27.663  1.00  0.00     0.049 A 
ATOM     59  H   UNL A   1      47.024  29.364  27.235  1.00  0.00     0.167 HD
ATOM     60  C   UNL A   1      45.419  31.452  28.289  1.00  0.00     0.074 A 
ATOM     61  C   UNL A   1      44.273  32.171  28.805  1.00  0.00     0.031 C 
ATOM     62  C   UNL A   1      46.665  31.979  28.180  1.00  0.00     0.031 A 
BRANCH  49  63
ATOM     63  C   UNL A   1      50.886  28.046  25.950  1.00  0.00    -0.014 A 
ATOM     64  C   UNL A   1      51.821  27.639  26.919  1.00  0.00     0.010 A 
ATOM     65  C   UNL A   1      51.302  28.174  24.612  1.00  0.00     0.010 A 
ATOM     66  C   UNL A   1      53.153  27.407  26.565  1.00  0.00     0.020 A 
ATOM     67  C   UNL A   1      52.626  27.914  24.248  1.00  0.00     0.020 A 
ATOM     68  C   UNL A   1      53.547  27.548  25.231  1.00  0.00     0.054 A 
BRANCH  68  69
ATOM     69  S   UNL A   1      55.279  27.219  24.799  1.00  0.00     0.124 S 
ATOM     70  O   UNL A   1      55.147  26.577  23.495  1.00  0.00    -0.237 OA
ATOM     71  O   UNL A   1      55.863  28.558  24.784  1.00  0.00    -0.237 OA
ATOM     72  O   UNL A   1      55.747  26.350  25.877  1.00  0.00    -0.744 OA
ENDBRANCH  68  69
ENDBRANCH  49  63
BRANCH  50  73
ATOM     73  C   UNL A   1      41.286  29.204  28.476  1.00  0.00    -0.014 A 
ATOM     74  C   UNL A   1      40.289  29.415  27.507  1.00  0.00     0.010 A 
ATOM     75  C   UNL A   1      40.917  29.148  29.833  1.00  0.00     0.010 A 
ATOM     76  C   UNL A   1      38.954  29.582  27.886  1.00  0.00     0.020 A 
ATOM     77  C   UNL A   1      39.578  29.284  30.215  1.00  0.00     0.020 A 
ATOM     78  C   UNL A   1      38.607  29.512  29.238  1.00  0.00     0.054 A 
BRANCH  78  79
ATOM     79  S   UNL A   1      36.860  29.681  29.702  1.00  0.00     0.124 S 
ATOM     80  O   UNL A   1      36.777  28.835  30.889  1.00  0.00    -0.237 OA
ATOM     81  O   UNL A   1      36.736  31.117  29.938  1.00  0.00    -0.237 OA
ATOM     82  O   UNL A   1      36.146  29.185  28.528  1.00  0.00    -0.744 OA
ENDBRANCH  78  79
ENDBRANCH  50  73
BRANCH  62  83
ATOM     83  C   UNL A   1      46.853  33.413  28.601  1.00  0.00    -0.014 A 
ATOM     84  C   UNL A   1      47.238  33.746  29.911  1.00  0.00     0.010 A 
ATOM     85  C   UNL A   1      46.700  34.440  27.650  1.00  0.00     0.010 A 
ATOM     86  C   UNL A   1      47.440  35.081  30.272  1.00  0.00     0.020 A 
ATOM     87  C   UNL A   1      46.931  35.774  27.999  1.00  0.00     0.020 A 
ATOM     88  C   UNL A   1      47.288  36.087  29.311  1.00  0.00     0.054 A 
BRANCH  88  89
ATOM     89  S   UNL A   1      47.609  37.806  29.792  1.00  0.00     0.124 S 
ATOM     90  O   UNL A   1      46.429  38.492  29.272  1.00  0.00    -0.237 OA
ATOM     91  O   UNL A   1      47.696  37.719  31.248  1.00  0.00    -0.237 OA
ATOM     92  O   UNL A   1      48.864  38.128  29.116  1.00  0.00    -0.744 OA
ENDBRANCH  88  89
ENDBRANCH  62  83
ENDBRANCH  36  37
ENDBRANCH  28  31
ENDBRANCH  26  27
ENDBRANCH  25  26
ENDBRANCH  24  25
ENDBRANCH  23  24
ENDBRANCH   1  23
TORSDOF 22
ENDMDL
MODEL 3
REMARK VINA RESULT:      -8.6      3.667      9.278
REMARK SMILES CC(C)OCCS(=O)(=O)N[C@@H]1COC[C@@H]1C(=O)NCCCCCCNC(=O)c1ccc(-c2c3nc(c(-c4ccc(S(=O)(=O)[O-])cc4)c4ccc([nH]4)c(-c4ccc(S(=O)(=O)[O-])cc4)c4nc(c(-c5ccc(S(=O)(=O)[O-])cc5)c5ccc2[nH]5)C=C4)C=C3)cc1
REMARK SMILES IDX 20 1 19 2 18 3 16 4 17 5 15 7 11 8 12 9 13 10 14 11 10 12
REMARK SMILES IDX 7 14 8 15 9 16 6 17 5 18 4 19 2 20 1 21 3 22 21 23 22 24
REMARK SMILES IDX 23 25 24 26 25 27 26 28 27 30 28 31 29 32 87 33 30 34 86 35
REMARK SMILES IDX 31 36 32 37 33 38 80 39 34 40 85 41 79 42 81 43 35 44 84 45
REMARK SMILES IDX 78 46 77 47 36 49 66 50 47 51 65 52 48 53 51 54 64 55 82 56
REMARK SMILES IDX 49 57 50 58 63 60 83 61 52 62 37 63 38 64 46 65 39 66 45 67
REMARK SMILES IDX 40 68 41 69 42 70 43 71 44 72 67 73 68 74 76 75 69 76 75 77
REMARK SMILES IDX 70 78 71 79 72 80 73 81 74 82 53 83 54 84 62 85 55 86 61 87
REMARK SMILES IDX 56 88 57 89 58 90 59 91 60 92
REMARK H PARENT 18 6 10 13 25 29 81 48 51 59
REMARK Flexibility Score: inf
ROOT
ATOM      1  C   UNL A   1      32.321  28.210  27.410  1.00  0.00     0.021 C 
ENDROOT
BRANCH   1   2
ATOM      2  C   UNL A   1      33.236  27.623  26.329  1.00  0.00     0.116 C 
BRANCH   2   3
ATOM      3  N   UNL A   1      33.310  26.167  26.322  1.00  0.00    -0.356 N 
ATOM      4  C   UNL A   1      33.618  25.227  25.392  1.00  0.00     0.227 C 
ATOM      5  O   UNL A   1      33.801  24.084  25.838  1.00  0.00    -0.275 OA
ATOM      6  H   UNL A   1      33.084  25.772  27.196  1.00  0.00     0.163 HD
BRANCH   4   7
ATOM      7  C   UNL A   1      33.774  25.419  23.886  1.00  0.00     0.124 C 
ATOM      8  C   UNL A   1      32.519  25.689  23.031  1.00  0.00     0.110 C 
ATOM      9  C   UNL A   1      32.354  24.307  22.401  1.00  0.00     0.181 C 
ATOM     10  O   UNL A   1      33.661  23.749  22.198  1.00  0.00    -0.379 OA
ATOM     11  C   UNL A   1      34.526  24.294  23.195  1.00  0.00     0.175 C 
BRANCH   8  12
ATOM     12  N   UNL A   1      31.366  26.264  23.845  1.00  0.00    -0.209 NA
ATOM     13  H   UNL A   1      30.826  25.457  24.160  1.00  0.00     0.141 HD
BRANCH  12  14
ATOM     14  S   UNL A   1      30.213  27.382  23.251  1.00  0.00     0.214 S 
ATOM     15  O   UNL A   1      28.889  26.884  23.510  1.00  0.00    -0.212 OA
ATOM     16  O   UNL A   1      30.661  27.567  21.877  1.00  0.00    -0.212 OA
BRANCH  14  17
ATOM     17  C   UNL A   1      30.474  29.022  24.064  1.00  0.00     0.182 C 
BRANCH  17  18
ATOM     18  C   UNL A   1      29.798  30.335  23.624  1.00  0.00     0.178 C 
BRANCH  18  19
ATOM     19  O   UNL A   1      29.409  30.577  22.267  1.00  0.00    -0.378 OA
BRANCH  19  20
ATOM     20  C   UNL A   1      28.417  31.573  22.077  1.00  0.00     0.112 C 
ATOM     21  C   UNL A   1      27.920  31.413  20.637  1.00  0.00     0.038 C 
ATOM     22  C   UNL A   1      27.630  31.538  23.399  1.00  0.00     0.038 C 
ENDBRANCH  19  20
ENDBRANCH  18  19
ENDBRANCH  17  18
ENDBRANCH  14  17
ENDBRANCH  12  14
ENDBRANCH   8  12
ENDBRANCH   4   7
ENDBRANCH   2   3
ENDBRANCH   1   2
BRANCH   1  23
ATOM     23  C   UNL A   1      31.736  29.614  27.184  1.00  0.00     0.002 C 
BRANCH  23  24
ATOM     24  C   UNL A   1      32.674  30.724  26.696  1.00  0.00     0.002 C 
BRANCH  24  25
ATOM     25  C   UNL A   1      33.511  31.449  27.752  1.00  0.00     0.021 C 
BRANCH  25  26
ATOM     26  C   UNL A   1      33.874  32.903  27.455  1.00  0.00     0.116 C 
BRANCH  26  27
ATOM     27  N   UNL A   1      33.331  33.847  28.419  1.00  0.00    -0.352 N 
ATOM     28  C   UNL A   1      33.768  34.164  29.685  1.00  0.00     0.251 C 
ATOM     29  H   UNL A   1      32.529  34.334  28.120  1.00  0.00     0.163 HD
ATOM     30  O   UNL A   1      33.100  34.918  30.388  1.00  0.00    -0.269 OA
BRANCH  28  31
ATOM     31  C   UNL A   1      35.019  33.575  30.219  1.00  0.00     0.039 A 
ATOM     32  C   UNL A   1      36.235  34.203  29.931  1.00  0.00     0.014 A 
ATOM     33  C   UNL A   1      35.003  32.415  30.995  1.00  0.00     0.014 A 
ATOM     34  C   UNL A   1      37.421  33.716  30.491  1.00  0.00     0.010 A 
ATOM     35  C   UNL A   1      36.175  31.971  31.608  1.00  0.00     0.010 A 
ATOM     36  C   UNL A   1      37.394  32.622  31.372  1.00  0.00    -0.014 A 
BRANCH  36  37
ATOM     37  C   UNL A   1      38.624  32.172  32.081  1.00  0.00     0.031 A 
ATOM     38  C   UNL A   1      39.591  31.231  31.416  1.00  0.00     0.074 A 
ATOM     39  C   UNL A   1      38.833  32.559  33.356  1.00  0.00     0.049 A 
ATOM     40  N   UNL A   1      40.676  30.684  31.903  1.00  0.00    -0.248 NA
ATOM     41  C   UNL A   1      39.290  30.836  30.030  1.00  0.00     0.031 C 
ATOM     42  C   UNL A   1      37.955  33.443  34.128  1.00  0.00     0.029 A 
ATOM     43  N   UNL A   1      39.846  32.255  34.233  1.00  0.00    -0.354 N 
ATOM     44  C   UNL A   1      41.181  29.875  30.892  1.00  0.00     0.074 A 
ATOM     45  C   UNL A   1      40.257  29.964  29.781  1.00  0.00     0.031 C 
ATOM     46  C   UNL A   1      38.479  33.629  35.349  1.00  0.00     0.029 A 
ATOM     47  C   UNL A   1      39.703  32.843  35.468  1.00  0.00     0.049 A 
ATOM     48  H   UNL A   1      40.603  31.670  33.998  1.00  0.00     0.167 HD
ATOM     49  C   UNL A   1      42.318  29.138  30.881  1.00  0.00     0.031 A 
ATOM     50  C   UNL A   1      40.462  32.753  36.579  1.00  0.00     0.031 A 
ATOM     51  C   UNL A   1      43.235  29.050  31.987  1.00  0.00     0.049 A 
ATOM     52  C   UNL A   1      41.701  31.899  36.554  1.00  0.00     0.074 A 
ATOM     53  C   UNL A   1      44.439  28.369  32.055  1.00  0.00     0.029 A 
ATOM     54  N   UNL A   1      43.050  29.655  33.222  1.00  0.00    -0.354 N 
ATOM     55  N   UNL A   1      42.193  31.193  35.564  1.00  0.00    -0.248 NA
ATOM     56  C   UNL A   1      42.488  31.836  37.793  1.00  0.00     0.031 C 
ATOM     57  C   UNL A   1      44.950  28.511  33.349  1.00  0.00     0.029 A 
ATOM     58  C   UNL A   1      44.101  29.338  34.067  1.00  0.00     0.049 A 
ATOM     59  H   UNL A   1      42.285  30.227  33.462  1.00  0.00     0.167 HD
ATOM     60  C   UNL A   1      43.364  30.623  36.055  1.00  0.00     0.074 A 
ATOM     61  C   UNL A   1      43.513  31.080  37.421  1.00  0.00     0.031 C 
ATOM     62  C   UNL A   1      44.237  29.796  35.428  1.00  0.00     0.031 A 
BRANCH  49  63
ATOM     63  C   UNL A   1      42.632  28.356  29.630  1.00  0.00    -0.014 A 
ATOM     64  C   UNL A   1      42.176  27.035  29.465  1.00  0.00     0.010 A 
ATOM     65  C   UNL A   1      43.351  28.966  28.585  1.00  0.00     0.010 A 
ATOM     66  C   UNL A   1      42.469  26.326  28.297  1.00  0.00     0.020 A 
ATOM     67  C   UNL A   1      43.620  28.269  27.403  1.00  0.00     0.020 A 
ATOM     68  C   UNL A   1      43.191  26.947  27.274  1.00  0.00     0.054 A 
BRANCH  68  69
ATOM     69  S   UNL A   1      43.538  26.007  25.762  1.00  0.00     0.124 S 
ATOM     70  O   UNL A   1      42.399  26.360  24.919  1.00  0.00    -0.237 OA
ATOM     71  O   UNL A   1      44.826  26.550  25.337  1.00  0.00    -0.237 OA
ATOM     72  O   UNL A   1      43.569  24.618  26.215  1.00  0.00    -0.744 OA
ENDBRANCH  68  69
ENDBRANCH  49  63
BRANCH  50  73
ATOM     73  C   UNL A   1      40.072  33.497  37.810  1.00  0.00    -0.014 A 
ATOM     74  C   UNL A   1      40.523  34.811  38.024  1.00  0.00     0.010 A 
ATOM     75  C   UNL A   1      39.238  32.896  38.771  1.00  0.00     0.010 A 
ATOM     76  C   UNL A   1      40.163  35.505  39.183  1.00  0.00     0.020 A 
ATOM     77  C   UNL A   1      38.849  33.598  39.917  1.00  0.00     0.020 A 
ATOM     78  C   UNL A   1      39.324  34.894  40.120  1.00  0.00     0.054 A 
BRANCH  78  79
ATOM     79  S   UNL A   1      38.829  35.834  41.592  1.00  0.00     0.124 S 
ATOM     80  O   UNL A   1      39.869  35.469  42.550  1.00  0.00    -0.237 OA
ATOM     81  O   UNL A   1      38.865  37.213  41.112  1.00  0.00    -0.237 OA
ATOM     82  O   UNL A   1      37.494  35.320  41.891  1.00  0.00    -0.744 OA
ENDBRANCH  78  79
ENDBRANCH  50  73
BRANCH  62  83
ATOM     83  C   UNL A   1      45.450  29.349  36.201  1.00  0.00    -0.014 A 
ATOM     84  C   UNL A   1      46.635  30.106  36.203  1.00  0.00     0.010 A 
ATOM     85  C   UNL A   1      45.381  28.182  36.985  1.00  0.00     0.010 A 
ATOM     86  C   UNL A   1      47.738  29.691  36.955  1.00  0.00     0.020 A 
ATOM     87  C   UNL A   1      46.471  27.780  37.761  1.00  0.00     0.020 A 
ATOM     88  C   UNL A   1      47.647  28.531  37.732  1.00  0.00     0.054 A 
BRANCH  88  89
ATOM     89  S   UNL A   1      49.075  28.044  38.739  1.00  0.00     0.124 S 
ATOM     90  O   UNL A   1      49.623  29.338  39.138  1.00  0.00    -0.237 OA
ATOM     91  O   UNL A   1      48.458  27.265  39.811  1.00  0.00    -0.237 OA
ATOM     92  O   UNL A   1      49.905  27.274  37.816  1.00  0.00    -0.744 OA
ENDBRANCH  88  89
ENDBRANCH  62  83
ENDBRANCH  36  37
ENDBRANCH  28  31
ENDBRANCH  26  27
ENDBRANCH  25  26
ENDBRANCH  24  25
ENDBRANCH  23  24
ENDBRANCH   1  23
TORSDOF 22
ENDMDL
