MODEL 1
REMARK VINA RESULT:     -11.0      0.000      0.000
REMARK SMILES C[C@@H](C(=O)NCCCCCCNC(=O)c1ccc(-c2c3nc(c(-c4ccc(S(=O)(=O)[O-])cc4)c4ccc([nH]4)c(-c4ccc(S(=O)(=O)[O-])cc4)c4nc(c(-c5ccc(S(=O)(=O)[O-])cc5)c5ccc2[nH]5)C=C4)C=C3)cc1)N1C(=O)/C(=C/c2ccc(F)cc2)SC1=S
REMARK SMILES IDX 9 1 8 2 7 3 6 4 5 5 3 6 4 7 2 9 1 10 75 11 76 12 88 13 77 14
REMARK SMILES IDX 78 15 87 16 89 17 79 18 80 19 81 20 86 21 82 22 85 23 83 24
REMARK SMILES IDX 84 25 10 26 11 27 12 28 13 29 14 31 15 32 16 33 74 34 17 35
REMARK SMILES IDX 73 36 18 37 19 38 20 39 67 40 21 41 72 42 66 43 68 44 22 45
REMARK SMILES IDX 71 46 65 47 64 48 23 50 53 51 34 52 52 53 35 54 38 55 51 56
REMARK SMILES IDX 69 57 36 58 37 59 50 61 70 62 39 63 24 64 25 65 33 66 26 67
REMARK SMILES IDX 32 68 27 69 28 70 29 71 30 72 31 73 54 74 55 75 63 76 56 77
REMARK SMILES IDX 62 78 57 79 58 80 59 81 60 82 61 83 40 84 41 85 49 86 42 87
REMARK SMILES IDX 48 88 43 89 44 90 45 91 46 92 47 93
REMARK H PARENT 5 8 12 30 68 49 38 60
REMARK Flexibility Score: inf
ROOT
ATOM      1  C   UNL A   1      33.236  29.196  24.418  1.00  0.00     0.002 C 
ENDROOT
BRANCH   1   2
ATOM      2  C   UNL A   1      32.930  28.731  22.990  1.00  0.00     0.002 C 
BRANCH   2   3
ATOM      3  C   UNL A   1      31.534  28.121  22.796  1.00  0.00     0.021 C 
BRANCH   3   4
ATOM      4  C   UNL A   1      31.556  26.774  22.073  1.00  0.00     0.116 C 
BRANCH   4   5
ATOM      5  N   UNL A   1      32.818  26.103  22.305  1.00  0.00    -0.354 N 
ATOM      6  C   UNL A   1      33.151  25.160  23.230  1.00  0.00     0.242 C 
ATOM      7  O   UNL A   1      34.334  24.810  23.274  1.00  0.00    -0.273 OA
ATOM      8  H   UNL A   1      33.548  26.369  21.701  1.00  0.00     0.163 HD
BRANCH   6   9
ATOM      9  C   UNL A   1      32.069  24.523  24.129  1.00  0.00     0.178 C 
ATOM     10  C   UNL A   1      31.624  25.353  25.333  1.00  0.00     0.042 C 
BRANCH   9  11
ATOM     11  N   UNL A   1      32.538  23.163  24.476  1.00  0.00    -0.281 N 
ATOM     12  C   UNL A   1      32.142  22.130  23.637  1.00  0.00     0.266 C 
ATOM     13  C   UNL A   1      33.466  22.831  25.445  1.00  0.00     0.149 C 
ATOM     14  O   UNL A   1      31.429  22.232  22.649  1.00  0.00    -0.268 OA
ATOM     15  C   UNL A   1      32.695  20.835  24.108  1.00  0.00     0.081 C 
ATOM     16  S   UNL A   1      33.711  21.088  25.466  1.00  0.00    -0.054 SA
ATOM     17  S   UNL A   1      34.298  23.801  26.521  1.00  0.00    -0.052 S 
ATOM     18  C   UNL A   1      32.380  19.667  23.530  1.00  0.00     0.029 C 
BRANCH  18  19
ATOM     19  C   UNL A   1      32.801  18.357  24.034  1.00  0.00    -0.024 A 
ATOM     20  C   UNL A   1      32.358  17.897  25.279  1.00  0.00     0.011 A 
ATOM     21  C   UNL A   1      33.649  17.551  23.258  1.00  0.00     0.011 A 
ATOM     22  C   UNL A   1      32.741  16.632  25.730  1.00  0.00     0.040 A 
ATOM     23  C   UNL A   1      34.025  16.286  23.708  1.00  0.00     0.040 A 
ATOM     24  C   UNL A   1      33.565  15.837  24.938  1.00  0.00     0.123 A 
ATOM     25  F   UNL A   1      33.919  14.620  25.369  1.00  0.00    -0.207 F 
ENDBRANCH  18  19
ENDBRANCH   9  11
ENDBRANCH   6   9
ENDBRANCH   4   5
ENDBRANCH   3   4
ENDBRANCH   2   3
ENDBRANCH   1   2
BRANCH   1  26
ATOM     26  C   UNL A   1      33.897  28.141  25.308  1.00  0.00     0.021 C 
BRANCH  26  27
ATOM     27  C   UNL A   1      33.650  28.338  26.800  1.00  0.00     0.116 C 
BRANCH  27  28
ATOM     28  N   UNL A   1      33.519  29.746  27.144  1.00  0.00    -0.352 N 
ATOM     29  C   UNL A   1      34.372  30.546  27.862  1.00  0.00     0.251 C 
ATOM     30  H   UNL A   1      32.704  30.187  26.814  1.00  0.00     0.163 HD
ATOM     31  O   UNL A   1      34.000  31.649  28.249  1.00  0.00    -0.269 OA
BRANCH  29  32
ATOM     32  C   UNL A   1      35.732  30.064  28.183  1.00  0.00     0.039 A 
ATOM     33  C   UNL A   1      36.717  30.099  27.193  1.00  0.00     0.014 A 
ATOM     34  C   UNL A   1      36.035  29.578  29.458  1.00  0.00     0.014 A 
ATOM     35  C   UNL A   1      38.020  29.702  27.500  1.00  0.00     0.010 A 
ATOM     36  C   UNL A   1      37.349  29.256  29.783  1.00  0.00     0.010 A 
ATOM     37  C   UNL A   1      38.355  29.310  28.807  1.00  0.00    -0.014 A 
BRANCH  37  38
ATOM     38  C   UNL A   1      39.751  28.957  29.172  1.00  0.00     0.031 A 
ATOM     39  C   UNL A   1      40.631  29.963  29.866  1.00  0.00     0.074 A 
ATOM     40  C   UNL A   1      40.245  27.751  28.829  1.00  0.00     0.049 A 
ATOM     41  N   UNL A   1      41.887  29.856  30.217  1.00  0.00    -0.248 NA
ATOM     42  C   UNL A   1      40.028  31.267  30.186  1.00  0.00     0.031 C 
ATOM     43  C   UNL A   1      39.505  26.700  28.124  1.00  0.00     0.029 A 
ATOM     44  N   UNL A   1      41.489  27.204  29.022  1.00  0.00    -0.354 N 
ATOM     45  C   UNL A   1      42.226  31.077  30.787  1.00  0.00     0.074 A 
ATOM     46  C   UNL A   1      41.063  31.928  30.685  1.00  0.00     0.031 C 
ATOM     47  C   UNL A   1      40.297  25.626  27.976  1.00  0.00     0.029 A 
ATOM     48  C   UNL A   1      41.614  25.925  28.530  1.00  0.00     0.049 A 
ATOM     49  H   UNL A   1      42.223  27.681  29.471  1.00  0.00     0.167 HD
ATOM     50  C   UNL A   1      43.394  31.449  31.363  1.00  0.00     0.031 A 
ATOM     51  C   UNL A   1      42.670  25.089  28.517  1.00  0.00     0.031 A 
ATOM     52  C   UNL A   1      44.550  30.597  31.465  1.00  0.00     0.049 A 
ATOM     53  C   UNL A   1      43.967  25.537  29.134  1.00  0.00     0.074 A 
ATOM     54  C   UNL A   1      45.765  30.866  32.071  1.00  0.00     0.029 A 
ATOM     55  N   UNL A   1      44.637  29.313  30.948  1.00  0.00    -0.354 N 
ATOM     56  N   UNL A   1      44.249  26.676  29.723  1.00  0.00    -0.248 NA
ATOM     57  C   UNL A   1      45.084  24.583  29.097  1.00  0.00     0.031 C 
ATOM     58  C   UNL A   1      46.607  29.768  31.867  1.00  0.00     0.029 A 
ATOM     59  C   UNL A   1      45.894  28.787  31.195  1.00  0.00     0.049 A 
ATOM     60  H   UNL A   1      43.912  28.845  30.474  1.00  0.00     0.167 HD
ATOM     61  C   UNL A   1      45.567  26.562  30.153  1.00  0.00     0.074 A 
ATOM     62  C   UNL A   1      46.018  25.239  29.771  1.00  0.00     0.031 C 
ATOM     63  C   UNL A   1      46.332  27.470  30.809  1.00  0.00     0.031 A 
BRANCH  50  64
ATOM     64  C   UNL A   1      43.483  32.846  31.924  1.00  0.00    -0.014 A 
ATOM     65  C   UNL A   1      43.899  33.926  31.124  1.00  0.00     0.010 A 
ATOM     66  C   UNL A   1      43.099  33.091  33.255  1.00  0.00     0.010 A 
ATOM     67  C   UNL A   1      43.970  35.217  31.655  1.00  0.00     0.020 A 
ATOM     68  C   UNL A   1      43.138  34.386  33.782  1.00  0.00     0.020 A 
ATOM     69  C   UNL A   1      43.589  35.438  32.982  1.00  0.00     0.054 A 
BRANCH  69  70
ATOM     70  S   UNL A   1      43.665  37.128  33.635  1.00  0.00     0.124 S 
ATOM     71  O   UNL A   1      43.741  37.920  32.411  1.00  0.00    -0.237 OA
ATOM     72  O   UNL A   1      42.413  37.240  34.379  1.00  0.00    -0.237 OA
ATOM     73  O   UNL A   1      44.875  37.131  34.454  1.00  0.00    -0.744 OA
ENDBRANCH  69  70
ENDBRANCH  50  64
BRANCH  51  74
ATOM     74  C   UNL A   1      42.542  23.735  27.909  1.00  0.00    -0.014 A 
ATOM     75  C   UNL A   1      42.905  23.516  26.568  1.00  0.00     0.010 A 
ATOM     76  C   UNL A   1      42.063  22.653  28.670  1.00  0.00     0.010 A 
ATOM     77  C   UNL A   1      42.771  22.248  25.994  1.00  0.00     0.020 A 
ATOM     78  C   UNL A   1      41.958  21.377  28.111  1.00  0.00     0.020 A 
ATOM     79  C   UNL A   1      42.301  21.186  26.771  1.00  0.00     0.054 A 
BRANCH  79  80
ATOM     80  S   UNL A   1      42.182  19.539  26.018  1.00  0.00     0.124 S 
ATOM     81  O   UNL A   1      40.757  19.446  25.717  1.00  0.00    -0.237 OA
ATOM     82  O   UNL A   1      43.069  19.656  24.864  1.00  0.00    -0.237 OA
ATOM     83  O   UNL A   1      42.659  18.646  27.073  1.00  0.00    -0.744 OA
ENDBRANCH  79  80
ENDBRANCH  51  74
BRANCH  63  84
ATOM     84  C   UNL A   1      47.728  27.054  31.194  1.00  0.00    -0.014 A 
ATOM     85  C   UNL A   1      48.824  27.290  30.344  1.00  0.00     0.010 A 
ATOM     86  C   UNL A   1      47.952  26.468  32.454  1.00  0.00     0.010 A 
ATOM     87  C   UNL A   1      50.113  26.916  30.735  1.00  0.00     0.020 A 
ATOM     88  C   UNL A   1      49.243  26.123  32.861  1.00  0.00     0.020 A 
ATOM     89  C   UNL A   1      50.315  26.338  31.992  1.00  0.00     0.054 A 
BRANCH  89  90
ATOM     90  S   UNL A   1      52.003  25.905  32.491  1.00  0.00     0.124 S 
ATOM     91  O   UNL A   1      51.915  25.965  33.947  1.00  0.00    -0.237 OA
ATOM     92  O   UNL A   1      52.171  24.569  31.925  1.00  0.00    -0.237 OA
ATOM     93  O   UNL A   1      52.825  26.944  31.874  1.00  0.00    -0.744 OA
ENDBRANCH  89  90
ENDBRANCH  63  84
ENDBRANCH  37  38
ENDBRANCH  29  32
ENDBRANCH  27  28
ENDBRANCH  26  27
ENDBRANCH   1  26
TORSDOF 18
ENDMDL
MODEL 2
REMARK VINA RESULT:     -10.8      3.957      5.742
REMARK SMILES C[C@@H](C(=O)NCCCCCCNC(=O)c1ccc(-c2c3nc(c(-c4ccc(S(=O)(=O)[O-])cc4)c4ccc([nH]4)c(-c4ccc(S(=O)(=O)[O-])cc4)c4nc(c(-c5ccc(S(=O)(=O)[O-])cc5)c5ccc2[nH]5)C=C4)C=C3)cc1)N1C(=O)/C(=C/c2ccc(F)cc2)SC1=S
REMARK SMILES IDX 9 1 8 2 7 3 6 4 5 5 3 6 4 7 2 9 1 10 75 11 76 12 88 13 77 14
REMARK SMILES IDX 78 15 87 16 89 17 79 18 80 19 81 20 86 21 82 22 85 23 83 24
REMARK SMILES IDX 84 25 10 26 11 27 12 28 13 29 14 31 15 32 16 33 74 34 17 35
REMARK SMILES IDX 73 36 18 37 19 38 20 39 67 40 21 41 72 42 66 43 68 44 22 45
REMARK SMILES IDX 71 46 65 47 64 48 23 50 53 51 34 52 52 53 35 54 38 55 51 56
REMARK SMILES IDX 69 57 36 58 37 59 50 61 70 62 39 63 24 64 25 65 33 66 26 67
REMARK SMILES IDX 32 68 27 69 28 70 29 71 30 72 31 73 54 74 55 75 63 76 56 77
REMARK SMILES IDX 62 78 57 79 58 80 59 81 60 82 61 83 40 84 41 85 49 86 42 87
REMARK SMILES IDX 48 88 43 89 44 90 45 91 46 92 47 93
REMARK H PARENT 5 8 12 30 68 49 38 60
REMARK Flexibility Score: inf
ROOT
ATOM      1  C   UNL A   1      34.890  28.893  26.852  1.00  0.00     0.002 C 
ENDROOT
BRANCH   1   2
ATOM      2  C   UNL A   1      33.730  27.896  26.764  1.00  0.00     0.002 C 
BRANCH   2   3
ATOM      3  C   UNL A   1      33.673  27.086  25.459  1.00  0.00     0.021 C 
BRANCH   3   4
ATOM      4  C   UNL A   1      34.020  25.609  25.648  1.00  0.00     0.116 C 
BRANCH   4   5
ATOM      5  N   UNL A   1      34.555  25.061  24.419  1.00  0.00    -0.354 N 
ATOM      6  C   UNL A   1      34.087  24.052  23.633  1.00  0.00     0.242 C 
ATOM      7  O   UNL A   1      34.787  23.716  22.674  1.00  0.00    -0.273 OA
ATOM      8  H   UNL A   1      35.386  25.483  24.103  1.00  0.00     0.163 HD
BRANCH   6   9
ATOM      9  C   UNL A   1      32.708  23.414  23.911  1.00  0.00     0.178 C 
ATOM     10  C   UNL A   1      32.247  22.354  22.912  1.00  0.00     0.042 C 
BRANCH   9  11
ATOM     11  N   UNL A   1      31.746  24.524  24.097  1.00  0.00    -0.281 N 
ATOM     12  C   UNL A   1      31.610  25.420  23.046  1.00  0.00     0.266 C 
ATOM     13  C   UNL A   1      30.842  24.668  25.134  1.00  0.00     0.149 C 
ATOM     14  O   UNL A   1      32.222  25.393  21.987  1.00  0.00    -0.268 OA
ATOM     15  C   UNL A   1      30.610  26.465  23.379  1.00  0.00     0.081 C 
ATOM     16  S   UNL A   1      29.900  26.136  24.904  1.00  0.00    -0.054 SA
ATOM     17  S   UNL A   1      30.575  23.709  26.475  1.00  0.00    -0.052 S 
ATOM     18  C   UNL A   1      30.365  27.507  22.571  1.00  0.00     0.029 C 
BRANCH  18  19
ATOM     19  C   UNL A   1      29.480  28.625  22.912  1.00  0.00    -0.024 A 
ATOM     20  C   UNL A   1      30.008  29.840  23.361  1.00  0.00     0.011 A 
ATOM     21  C   UNL A   1      28.091  28.479  22.779  1.00  0.00     0.011 A 
ATOM     22  C   UNL A   1      29.154  30.907  23.650  1.00  0.00     0.040 A 
ATOM     23  C   UNL A   1      27.240  29.547  23.062  1.00  0.00     0.040 A 
ATOM     24  C   UNL A   1      27.780  30.752  23.491  1.00  0.00     0.123 A 
ATOM     25  F   UNL A   1      26.964  31.780  23.757  1.00  0.00    -0.207 F 
ENDBRANCH  18  19
ENDBRANCH   9  11
ENDBRANCH   6   9
ENDBRANCH   4   5
ENDBRANCH   3   4
ENDBRANCH   2   3
ENDBRANCH   1   2
BRANCH   1  26
ATOM     26  C   UNL A   1      34.493  30.300  27.304  1.00  0.00     0.021 C 
BRANCH  26  27
ATOM     27  C   UNL A   1      35.589  31.048  28.056  1.00  0.00     0.116 C 
BRANCH  27  28
ATOM     28  N   UNL A   1      35.463  30.886  29.496  1.00  0.00    -0.352 N 
ATOM     29  C   UNL A   1      36.357  30.352  30.390  1.00  0.00     0.251 C 
ATOM     30  H   UNL A   1      34.617  31.206  29.885  1.00  0.00     0.163 HD
ATOM     31  O   UNL A   1      35.998  30.088  31.534  1.00  0.00    -0.269 OA
BRANCH  29  32
ATOM     32  C   UNL A   1      37.745  30.079  29.964  1.00  0.00     0.039 A 
ATOM     33  C   UNL A   1      38.735  29.913  30.936  1.00  0.00     0.014 A 
ATOM     34  C   UNL A   1      38.069  29.986  28.607  1.00  0.00     0.014 A 
ATOM     35  C   UNL A   1      40.038  29.597  30.547  1.00  0.00     0.010 A 
ATOM     36  C   UNL A   1      39.349  29.595  28.226  1.00  0.00     0.010 A 
ATOM     37  C   UNL A   1      40.349  29.401  29.190  1.00  0.00    -0.014 A 
BRANCH  37  38
ATOM     38  C   UNL A   1      41.711  28.989  28.764  1.00  0.00     0.031 A 
ATOM     39  C   UNL A   1      42.821  30.003  28.691  1.00  0.00     0.074 A 
ATOM     40  C   UNL A   1      41.935  27.714  28.389  1.00  0.00     0.049 A 
ATOM     41  N   UNL A   1      44.059  29.844  28.295  1.00  0.00    -0.248 NA
ATOM     42  C   UNL A   1      42.494  31.381  29.094  1.00  0.00     0.031 C 
ATOM     43  C   UNL A   1      40.934  26.643  28.382  1.00  0.00     0.029 A 
ATOM     44  N   UNL A   1      43.077  27.100  27.937  1.00  0.00    -0.354 N 
ATOM     45  C   UNL A   1      44.651  31.098  28.391  1.00  0.00     0.074 A 
ATOM     46  C   UNL A   1      43.625  32.017  28.827  1.00  0.00     0.031 C 
ATOM     47  C   UNL A   1      41.514  25.500  27.981  1.00  0.00     0.029 A 
ATOM     48  C   UNL A   1      42.912  25.764  27.656  1.00  0.00     0.049 A 
ATOM     49  H   UNL A   1      43.933  27.572  27.824  1.00  0.00     0.167 HD
ATOM     50  C   UNL A   1      45.939  31.447  28.156  1.00  0.00     0.031 A 
ATOM     51  C   UNL A   1      43.785  24.852  27.183  1.00  0.00     0.031 A 
ATOM     52  C   UNL A   1      46.958  30.527  27.724  1.00  0.00     0.049 A 
ATOM     53  C   UNL A   1      45.201  25.272  26.900  1.00  0.00     0.074 A 
ATOM     54  C   UNL A   1      48.301  30.775  27.503  1.00  0.00     0.029 A 
ATOM     55  N   UNL A   1      46.748  29.185  27.444  1.00  0.00    -0.354 N 
ATOM     56  N   UNL A   1      45.757  26.451  27.053  1.00  0.00    -0.248 NA
ATOM     57  C   UNL A   1      46.111  24.237  26.391  1.00  0.00     0.031 C 
ATOM     58  C   UNL A   1      48.891  29.597  27.031  1.00  0.00     0.029 A 
ATOM     59  C   UNL A   1      47.930  28.598  27.026  1.00  0.00     0.049 A 
ATOM     60  H   UNL A   1      45.886  28.718  27.530  1.00  0.00     0.167 HD
ATOM     61  C   UNL A   1      47.090  26.290  26.689  1.00  0.00     0.074 A 
ATOM     62  C   UNL A   1      47.258  24.899  26.323  1.00  0.00     0.031 C 
ATOM     63  C   UNL A   1      48.085  27.212  26.664  1.00  0.00     0.031 A 
BRANCH  50  64
ATOM     64  C   UNL A   1      46.317  32.893  28.356  1.00  0.00    -0.014 A 
ATOM     65  C   UNL A   1      46.654  33.388  29.628  1.00  0.00     0.010 A 
ATOM     66  C   UNL A   1      46.384  33.758  27.247  1.00  0.00     0.010 A 
ATOM     67  C   UNL A   1      47.010  34.729  29.797  1.00  0.00     0.020 A 
ATOM     68  C   UNL A   1      46.770  35.092  27.407  1.00  0.00     0.020 A 
ATOM     69  C   UNL A   1      47.064  35.573  28.684  1.00  0.00     0.054 A 
BRANCH  69  70
ATOM     70  S   UNL A   1      47.556  37.301  28.929  1.00  0.00     0.124 S 
ATOM     71  O   UNL A   1      46.623  38.006  28.054  1.00  0.00    -0.237 OA
ATOM     72  O   UNL A   1      47.341  37.494  30.361  1.00  0.00    -0.237 OA
ATOM     73  O   UNL A   1      48.952  37.330  28.502  1.00  0.00    -0.744 OA
ENDBRANCH  69  70
ENDBRANCH  50  64
BRANCH  51  74
ATOM     74  C   UNL A   1      43.346  23.446  26.960  1.00  0.00    -0.014 A 
ATOM     75  C   UNL A   1      43.019  22.996  25.669  1.00  0.00     0.010 A 
ATOM     76  C   UNL A   1      43.262  22.545  28.038  1.00  0.00     0.010 A 
ATOM     77  C   UNL A   1      42.594  21.679  25.463  1.00  0.00     0.020 A 
ATOM     78  C   UNL A   1      42.869  21.220  27.832  1.00  0.00     0.020 A 
ATOM     79  C   UNL A   1      42.525  20.799  26.546  1.00  0.00     0.054 A 
BRANCH  79  80
ATOM     80  S   UNL A   1      42.018  19.083  26.246  1.00  0.00     0.124 S 
ATOM     81  O   UNL A   1      40.646  19.250  25.778  1.00  0.00    -0.237 OA
ATOM     82  O   UNL A   1      42.983  18.641  25.241  1.00  0.00    -0.237 OA
ATOM     83  O   UNL A   1      42.161  18.451  27.556  1.00  0.00    -0.744 OA
ENDBRANCH  79  80
ENDBRANCH  51  74
BRANCH  63  84
ATOM     84  C   UNL A   1      49.459  26.740  26.263  1.00  0.00    -0.014 A 
ATOM     85  C   UNL A   1      49.906  26.830  24.933  1.00  0.00     0.010 A 
ATOM     86  C   UNL A   1      50.337  26.252  27.250  1.00  0.00     0.010 A 
ATOM     87  C   UNL A   1      51.194  26.407  24.592  1.00  0.00     0.020 A 
ATOM     88  C   UNL A   1      51.636  25.861  26.918  1.00  0.00     0.020 A 
ATOM     89  C   UNL A   1      52.052  25.928  25.588  1.00  0.00     0.054 A 
BRANCH  89  90
ATOM     90  S   UNL A   1      53.733  25.431  25.124  1.00  0.00     0.124 S 
ATOM     91  O   UNL A   1      53.641  23.975  25.161  1.00  0.00    -0.237 OA
ATOM     92  O   UNL A   1      53.885  26.019  23.795  1.00  0.00    -0.237 OA
ATOM     93  O   UNL A   1      54.571  26.029  26.162  1.00  0.00    -0.744 OA
ENDBRANCH  89  90
ENDBRANCH  63  84
ENDBRANCH  37  38
ENDBRANCH  29  32
ENDBRANCH  27  28
ENDBRANCH  26  27
ENDBRANCH   1  26
TORSDOF 18
ENDMDL
MODEL 3
REMARK VINA RESULT:     -10.7      2.222      2.848
REMARK SMILES C[C@@H](C(=O)NCCCCCCNC(=O)c1ccc(-c2c3nc(c(-c4ccc(S(=O)(=O)[O-])cc4)c4ccc([nH]4)c(-c4ccc(S(=O)(=O)[O-])cc4)c4nc(c(-c5ccc(S(=O)(=O)[O-])cc5)c5ccc2[nH]5)C=C4)C=C3)cc1)N1C(=O)/C(=C/c2ccc(F)cc2)SC1=S
REMARK SMILES IDX 9 1 8 2 7 3 6 4 5 5 3 6 4 7 2 9 1 10 75 11 76 12 88 13 77 14
REMARK SMILES IDX 78 15 87 16 89 17 79 18 80 19 81 20 86 21 82 22 85 23 83 24
REMARK SMILES IDX 84 25 10 26 11 27 12 28 13 29 14 31 15 32 16 33 74 34 17 35
REMARK SMILES IDX 73 36 18 37 19 38 20 39 67 40 21 41 72 42 66 43 68 44 22 45
REMARK SMILES IDX 71 46 65 47 64 48 23 50 53 51 34 52 52 53 35 54 38 55 51 56
REMARK SMILES IDX 69 57 36 58 37 59 50 61 70 62 39 63 24 64 25 65 33 66 26 67
REMARK SMILES IDX 32 68 27 69 28 70 29 71 30 72 31 73 54 74 55 75 63 76 56 77
REMARK SMILES IDX 62 78 57 79 58 80 59 81 60 82 61 83 40 84 41 85 49 86 42 87
REMARK SMILES IDX 48 88 43 89 44 90 45 91 46 92 47 93
REMARK H PARENT 5 8 12 30 68 49 38 60
REMARK Flexibility Score: inf
ROOT
ATOM      1  C   UNL A   1      31.819  29.387  25.242  1.00  0.00     0.002 C 
ENDROOT
BRANCH   1   2
ATOM      2  C   UNL A   1      32.439  28.792  23.972  1.00  0.00     0.002 C 
BRANCH   2   3
ATOM      3  C   UNL A   1      31.425  28.232  22.963  1.00  0.00     0.021 C 
BRANCH   3   4
ATOM      4  C   UNL A   1      31.247  26.716  23.061  1.00  0.00     0.116 C 
BRANCH   4   5
ATOM      5  N   UNL A   1      32.374  26.040  22.451  1.00  0.00    -0.354 N 
ATOM      6  C   UNL A   1      33.348  25.276  23.018  1.00  0.00     0.242 C 
ATOM      7  O   UNL A   1      34.255  24.883  22.278  1.00  0.00    -0.273 OA
ATOM      8  H   UNL A   1      32.445  26.149  21.476  1.00  0.00     0.163 HD
BRANCH   6   9
ATOM      9  C   UNL A   1      33.269  24.878  24.508  1.00  0.00     0.178 C 
ATOM     10  C   UNL A   1      34.048  25.761  25.481  1.00  0.00     0.042 C 
BRANCH   9  11
ATOM     11  N   UNL A   1      33.613  23.441  24.592  1.00  0.00    -0.281 N 
ATOM     12  C   UNL A   1      32.614  22.536  24.262  1.00  0.00     0.266 C 
ATOM     13  C   UNL A   1      34.870  22.903  24.799  1.00  0.00     0.149 C 
ATOM     14  O   UNL A   1      31.471  22.809  23.925  1.00  0.00    -0.268 OA
ATOM     15  C   UNL A   1      33.111  21.142  24.386  1.00  0.00     0.081 C 
ATOM     16  S   UNL A   1      34.775  21.146  24.796  1.00  0.00    -0.054 SA
ATOM     17  S   UNL A   1      36.339  23.657  25.049  1.00  0.00    -0.052 S 
ATOM     18  C   UNL A   1      32.313  20.078  24.218  1.00  0.00     0.029 C 
BRANCH  18  19
ATOM     19  C   UNL A   1      32.727  18.691  24.452  1.00  0.00    -0.024 A 
ATOM     20  C   UNL A   1      32.599  18.113  25.719  1.00  0.00     0.011 A 
ATOM     21  C   UNL A   1      33.250  17.933  23.393  1.00  0.00     0.011 A 
ATOM     22  C   UNL A   1      32.967  16.781  25.918  1.00  0.00     0.040 A 
ATOM     23  C   UNL A   1      33.611  16.601  23.592  1.00  0.00     0.040 A 
ATOM     24  C   UNL A   1      33.462  16.036  24.851  1.00  0.00     0.123 A 
ATOM     25  F   UNL A   1      33.802  14.755  25.042  1.00  0.00    -0.207 F 
ENDBRANCH  18  19
ENDBRANCH   9  11
ENDBRANCH   6   9
ENDBRANCH   4   5
ENDBRANCH   3   4
ENDBRANCH   2   3
ENDBRANCH   1   2
BRANCH   1  26
ATOM     26  C   UNL A   1      32.255  28.711  26.544  1.00  0.00     0.021 C 
BRANCH  26  27
ATOM     27  C   UNL A   1      33.541  29.274  27.142  1.00  0.00     0.116 C 
BRANCH  27  28
ATOM     28  N   UNL A   1      33.473  30.719  27.302  1.00  0.00    -0.352 N 
ATOM     29  C   UNL A   1      34.294  31.549  28.023  1.00  0.00     0.251 C 
ATOM     30  H   UNL A   1      32.735  31.163  26.827  1.00  0.00     0.163 HD
ATOM     31  O   UNL A   1      33.962  32.712  28.231  1.00  0.00    -0.269 OA
BRANCH  29  32
ATOM     32  C   UNL A   1      35.570  31.032  28.561  1.00  0.00     0.039 A 
ATOM     33  C   UNL A   1      36.763  31.672  28.215  1.00  0.00     0.014 A 
ATOM     34  C   UNL A   1      35.589  29.918  29.405  1.00  0.00     0.014 A 
ATOM     35  C   UNL A   1      37.968  31.228  28.763  1.00  0.00     0.010 A 
ATOM     36  C   UNL A   1      36.780  29.528  30.010  1.00  0.00     0.010 A 
ATOM     37  C   UNL A   1      37.983  30.175  29.693  1.00  0.00    -0.014 A 
BRANCH  37  38
ATOM     38  C   UNL A   1      39.245  29.740  30.344  1.00  0.00     0.031 A 
ATOM     39  C   UNL A   1      39.756  30.461  31.563  1.00  0.00     0.074 A 
ATOM     40  C   UNL A   1      39.960  28.732  29.807  1.00  0.00     0.049 A 
ATOM     41  N   UNL A   1      40.859  30.259  32.238  1.00  0.00    -0.248 NA
ATOM     42  C   UNL A   1      38.933  31.567  32.079  1.00  0.00     0.031 C 
ATOM     43  C   UNL A   1      39.589  27.974  28.608  1.00  0.00     0.029 A 
ATOM     44  N   UNL A   1      41.150  28.170  30.196  1.00  0.00    -0.354 N 
ATOM     45  C   UNL A   1      40.867  31.216  33.246  1.00  0.00     0.074 A 
ATOM     46  C   UNL A   1      39.689  32.033  33.061  1.00  0.00     0.031 C 
ATOM     47  C   UNL A   1      40.514  27.028  28.380  1.00  0.00     0.029 A 
ATOM     48  C   UNL A   1      41.567  27.140  29.385  1.00  0.00     0.049 A 
ATOM     49  H   UNL A   1      41.659  28.476  30.981  1.00  0.00     0.167 HD
ATOM     50  C   UNL A   1      41.763  31.386  34.247  1.00  0.00     0.031 A 
ATOM     51  C   UNL A   1      42.675  26.374  29.438  1.00  0.00     0.031 A 
ATOM     52  C   UNL A   1      42.934  30.568  34.429  1.00  0.00     0.049 A 
ATOM     53  C   UNL A   1      43.671  26.603  30.541  1.00  0.00     0.074 A 
ATOM     54  C   UNL A   1      43.878  30.632  35.439  1.00  0.00     0.029 A 
ATOM     55  N   UNL A   1      43.322  29.541  33.582  1.00  0.00    -0.354 N 
ATOM     56  N   UNL A   1      43.630  27.476  31.520  1.00  0.00    -0.248 NA
ATOM     57  C   UNL A   1      44.858  25.737  30.554  1.00  0.00     0.031 C 
ATOM     58  C   UNL A   1      44.870  29.683  35.169  1.00  0.00     0.029 A 
ATOM     59  C   UNL A   1      44.507  28.981  34.030  1.00  0.00     0.049 A 
ATOM     60  H   UNL A   1      42.829  29.252  32.781  1.00  0.00     0.167 HD
ATOM     61  C   UNL A   1      44.770  27.242  32.283  1.00  0.00     0.074 A 
ATOM     62  C   UNL A   1      45.469  26.137  31.660  1.00  0.00     0.031 C 
ATOM     63  C   UNL A   1      45.195  27.882  33.401  1.00  0.00     0.031 A 
BRANCH  50  64
ATOM     64  C   UNL A   1      41.516  32.508  35.223  1.00  0.00    -0.014 A 
ATOM     65  C   UNL A   1      42.078  33.782  35.026  1.00  0.00     0.010 A 
ATOM     66  C   UNL A   1      40.669  32.300  36.328  1.00  0.00     0.010 A 
ATOM     67  C   UNL A   1      41.834  34.814  35.936  1.00  0.00     0.020 A 
ATOM     68  C   UNL A   1      40.396  33.339  37.224  1.00  0.00     0.020 A 
ATOM     69  C   UNL A   1      40.994  34.585  37.030  1.00  0.00     0.054 A 
BRANCH  69  70
ATOM     70  S   UNL A   1      40.673  35.952  38.178  1.00  0.00     0.124 S 
ATOM     71  O   UNL A   1      41.996  36.559  38.299  1.00  0.00    -0.237 OA
ATOM     72  O   UNL A   1      39.681  36.747  37.459  1.00  0.00    -0.237 OA
ATOM     73  O   UNL A   1      40.182  35.287  39.382  1.00  0.00    -0.744 OA
ENDBRANCH  69  70
ENDBRANCH  50  64
BRANCH  51  74
ATOM     74  C   UNL A   1      42.894  25.308  28.421  1.00  0.00    -0.014 A 
ATOM     75  C   UNL A   1      42.388  24.012  28.623  1.00  0.00     0.010 A 
ATOM     76  C   UNL A   1      43.603  25.586  27.237  1.00  0.00     0.010 A 
ATOM     77  C   UNL A   1      42.606  23.009  27.673  1.00  0.00     0.020 A 
ATOM     78  C   UNL A   1      43.795  24.595  26.270  1.00  0.00     0.020 A 
ATOM     79  C   UNL A   1      43.305  23.309  26.502  1.00  0.00     0.054 A 
BRANCH  79  80
ATOM     80  S   UNL A   1      43.534  22.003  25.262  1.00  0.00     0.124 S 
ATOM     81  O   UNL A   1      44.871  21.513  25.581  1.00  0.00    -0.237 OA
ATOM     82  O   UNL A   1      42.434  21.089  25.562  1.00  0.00    -0.237 OA
ATOM     83  O   UNL A   1      43.414  22.715  23.991  1.00  0.00    -0.744 OA
ENDBRANCH  79  80
ENDBRANCH  51  74
BRANCH  63  84
ATOM     84  C   UNL A   1      46.459  27.381  34.050  1.00  0.00    -0.014 A 
ATOM     85  C   UNL A   1      46.427  26.397  35.055  1.00  0.00     0.010 A 
ATOM     86  C   UNL A   1      47.704  27.864  33.605  1.00  0.00     0.010 A 
ATOM     87  C   UNL A   1      47.615  25.932  35.625  1.00  0.00     0.020 A 
ATOM     88  C   UNL A   1      48.894  27.377  34.149  1.00  0.00     0.020 A 
ATOM     89  C   UNL A   1      48.842  26.423  35.167  1.00  0.00     0.054 A 
BRANCH  89  90
ATOM     90  S   UNL A   1      50.369  25.768  35.892  1.00  0.00     0.124 S 
ATOM     91  O   UNL A   1      50.563  24.537  35.133  1.00  0.00    -0.237 OA
ATOM     92  O   UNL A   1      51.333  26.833  35.623  1.00  0.00    -0.237 OA
ATOM     93  O   UNL A   1      50.032  25.584  37.302  1.00  0.00    -0.744 OA
ENDBRANCH  89  90
ENDBRANCH  63  84
ENDBRANCH  37  38
ENDBRANCH  29  32
ENDBRANCH  27  28
ENDBRANCH  26  27
ENDBRANCH   1  26
TORSDOF 18
ENDMDL
