MODEL 1
REMARK VINA RESULT:     -11.8      0.000      0.000
REMARK SMILES CCn1nc(C)c(NS(=O)(=O)c2cc(C(=O)NCCCCCCNC(=O)c3ccc(-c4c5nc(c(-c6ccc(S(=O)(=O)[O-])cc6)c6ccc([nH]6)c(-c6ccc(S(=O)(=O)[O-])cc6)c6nc(c(-c7ccc(S(=O)(=O)[O-])cc7)c7ccc4[nH]7)C=C6)C=C5)cc3)cc(F)c2C)c1C
REMARK SMILES IDX 20 1 19 2 18 3 17 4 15 5 16 6 14 8 12 9 13 10 90 11 88 12
REMARK SMILES IDX 91 13 87 14 89 15 9 16 10 17 11 18 8 19 7 21 3 22 4 23 92 24
REMARK SMILES IDX 5 25 93 26 6 27 2 28 1 29 21 30 22 31 23 32 24 33 25 34
REMARK SMILES IDX 26 36 27 37 28 38 86 39 29 40 85 41 30 42 31 43 32 44 79 45
REMARK SMILES IDX 33 46 84 47 78 48 80 49 34 50 83 51 77 52 76 53 35 55 65 56
REMARK SMILES IDX 46 57 64 58 47 59 50 60 63 61 81 62 48 63 49 64 62 66 82 67
REMARK SMILES IDX 51 68 36 69 37 70 45 71 38 72 44 73 39 74 40 75 41 76 42 77
REMARK SMILES IDX 43 78 66 79 67 80 75 81 68 82 74 83 69 84 70 85 71 86 72 87
REMARK SMILES IDX 73 88 52 89 53 90 61 91 54 92 60 93 55 94 56 95 57 96 58 97
REMARK SMILES IDX 59 98
REMARK H PARENT 17 7 8 20 24 35 80 54 50 65
REMARK Flexibility Score: inf
ROOT
ATOM      1  C   UNL A   1      39.328  22.954  26.428  1.00  0.00     0.002 C 
ENDROOT
BRANCH   1   2
ATOM      2  C   UNL A   1      38.329  24.119  26.494  1.00  0.00     0.021 C 
BRANCH   2   3
ATOM      3  C   UNL A   1      36.957  23.773  25.910  1.00  0.00     0.116 C 
BRANCH   3   4
ATOM      4  N   UNL A   1      36.843  22.347  25.654  1.00  0.00    -0.352 N 
ATOM      5  C   UNL A   1      35.842  21.524  25.201  1.00  0.00     0.251 C 
ATOM      6  O   UNL A   1      36.124  20.329  25.091  1.00  0.00    -0.269 OA
ATOM      7  H   UNL A   1      37.675  21.858  25.849  1.00  0.00     0.163 HD
BRANCH   5   8
ATOM      8  C   UNL A   1      34.481  21.978  24.782  1.00  0.00     0.044 A 
ATOM      9  C   UNL A   1      32.210  22.782  25.225  1.00  0.00     0.094 A 
ATOM     10  C   UNL A   1      33.402  22.152  25.637  1.00  0.00     0.036 A 
ATOM     11  C   UNL A   1      31.975  23.014  23.870  1.00  0.00     0.005 A 
ATOM     12  C   UNL A   1      33.046  22.776  22.996  1.00  0.00     0.128 A 
ATOM     13  C   UNL A   1      30.678  23.462  23.273  1.00  0.00     0.049 C 
ATOM     14  C   UNL A   1      34.286  22.307  23.439  1.00  0.00     0.053 A 
ATOM     15  F   UNL A   1      32.906  23.057  21.692  1.00  0.00    -0.207 F 
BRANCH   9  16
ATOM     16  S   UNL A   1      31.234  23.371  26.594  1.00  0.00     0.262 S 
ATOM     17  O   UNL A   1      31.969  23.050  27.800  1.00  0.00    -0.201 OA
ATOM     18  O   UNL A   1      29.895  22.855  26.392  1.00  0.00    -0.201 OA
BRANCH  16  19
ATOM     19  N   UNL A   1      31.086  25.028  26.568  1.00  0.00    -0.276 N 
ATOM     20  H   UNL A   1      30.748  25.417  27.406  1.00  0.00     0.180 HD
BRANCH  19  21
ATOM     21  C   UNL A   1      31.353  25.964  25.570  1.00  0.00     0.093 A 
ATOM     22  N   UNL A   1      32.503  27.502  24.518  1.00  0.00    -0.268 N 
ATOM     23  N   UNL A   1      31.266  27.625  24.009  1.00  0.00    -0.176 NA
ATOM     24  C   UNL A   1      32.641  26.409  25.329  1.00  0.00     0.060 A 
ATOM     25  C   UNL A   1      30.552  26.672  24.631  1.00  0.00     0.084 A 
ATOM     26  C   UNL A   1      33.939  25.904  25.848  1.00  0.00     0.069 C 
ATOM     27  C   UNL A   1      29.119  26.539  24.271  1.00  0.00     0.071 C 
BRANCH  22  28
ATOM     28  C   UNL A   1      33.482  28.545  24.273  1.00  0.00     0.141 C 
ATOM     29  C   UNL A   1      33.943  28.591  22.831  1.00  0.00     0.029 C 
ENDBRANCH  22  28
ENDBRANCH  19  21
ENDBRANCH  16  19
ENDBRANCH   9  16
ENDBRANCH   5   8
ENDBRANCH   3   4
ENDBRANCH   2   3
ENDBRANCH   1   2
BRANCH   1  30
ATOM     30  C   UNL A   1      40.163  22.717  27.702  1.00  0.00     0.002 C 
BRANCH  30  31
ATOM     31  C   UNL A   1      41.154  21.542  27.664  1.00  0.00     0.021 C 
BRANCH  31  32
ATOM     32  C   UNL A   1      42.604  21.977  27.774  1.00  0.00     0.116 C 
BRANCH  32  33
ATOM     33  N   UNL A   1      43.233  22.172  26.457  1.00  0.00    -0.352 N 
ATOM     34  C   UNL A   1      43.172  23.273  25.616  1.00  0.00     0.251 C 
ATOM     35  H   UNL A   1      43.772  21.418  26.128  1.00  0.00     0.163 HD
ATOM     36  O   UNL A   1      43.426  23.170  24.421  1.00  0.00    -0.269 OA
BRANCH  34  37
ATOM     37  C   UNL A   1      42.813  24.575  26.201  1.00  0.00     0.039 A 
ATOM     38  C   UNL A   1      41.773  25.386  25.736  1.00  0.00     0.014 A 
ATOM     39  C   UNL A   1      43.558  24.954  27.305  1.00  0.00     0.014 A 
ATOM     40  C   UNL A   1      41.495  26.563  26.431  1.00  0.00     0.010 A 
ATOM     41  C   UNL A   1      43.055  25.880  28.158  1.00  0.00     0.010 A 
ATOM     42  C   UNL A   1      42.161  26.796  27.642  1.00  0.00    -0.014 A 
BRANCH  42  43
ATOM     43  C   UNL A   1      41.996  27.986  28.453  1.00  0.00     0.031 A 
ATOM     44  C   UNL A   1      43.020  29.028  28.223  1.00  0.00     0.074 A 
ATOM     45  C   UNL A   1      40.830  28.236  29.092  1.00  0.00     0.049 A 
ATOM     46  N   UNL A   1      43.968  29.381  29.022  1.00  0.00    -0.248 NA
ATOM     47  C   UNL A   1      43.111  29.631  26.884  1.00  0.00     0.031 C 
ATOM     48  C   UNL A   1      39.574  27.463  29.070  1.00  0.00     0.029 A 
ATOM     49  N   UNL A   1      40.469  29.339  29.789  1.00  0.00    -0.354 N 
ATOM     50  C   UNL A   1      44.635  30.418  28.382  1.00  0.00     0.074 A 
ATOM     51  C   UNL A   1      44.217  30.368  27.003  1.00  0.00     0.031 C 
ATOM     52  C   UNL A   1      38.554  28.242  29.493  1.00  0.00     0.029 A 
ATOM     53  C   UNL A   1      39.100  29.497  29.975  1.00  0.00     0.049 A 
ATOM     54  H   UNL A   1      41.127  29.982  30.138  1.00  0.00     0.167 HD
ATOM     55  C   UNL A   1      45.272  31.395  29.086  1.00  0.00     0.031 A 
ATOM     56  C   UNL A   1      38.472  30.610  30.436  1.00  0.00     0.031 A 
ATOM     57  C   UNL A   1      45.337  31.071  30.490  1.00  0.00     0.049 A 
ATOM     58  C   UNL A   1      39.510  31.416  31.138  1.00  0.00     0.074 A 
ATOM     59  C   UNL A   1      45.884  30.034  31.219  1.00  0.00     0.029 A 
ATOM     60  N   UNL A   1      44.388  31.649  31.305  1.00  0.00    -0.354 N 
ATOM     61  N   UNL A   1      40.133  30.999  32.208  1.00  0.00    -0.248 NA
ATOM     62  C   UNL A   1      40.219  32.426  30.365  1.00  0.00     0.031 C 
ATOM     63  C   UNL A   1      44.903  29.731  32.209  1.00  0.00     0.029 A 
ATOM     64  C   UNL A   1      43.860  30.653  32.090  1.00  0.00     0.049 A 
ATOM     65  H   UNL A   1      44.136  32.600  31.323  1.00  0.00     0.167 HD
ATOM     66  C   UNL A   1      41.463  31.351  32.013  1.00  0.00     0.074 A 
ATOM     67  C   UNL A   1      41.440  32.302  30.899  1.00  0.00     0.031 C 
ATOM     68  C   UNL A   1      42.486  30.624  32.559  1.00  0.00     0.031 A 
BRANCH  55  69
ATOM     69  C   UNL A   1      45.477  32.804  28.593  1.00  0.00    -0.014 A 
ATOM     70  C   UNL A   1      46.789  33.317  28.557  1.00  0.00     0.010 A 
ATOM     71  C   UNL A   1      44.425  33.726  28.414  1.00  0.00     0.010 A 
ATOM     72  C   UNL A   1      47.031  34.690  28.431  1.00  0.00     0.020 A 
ATOM     73  C   UNL A   1      44.656  35.092  28.243  1.00  0.00     0.020 A 
ATOM     74  C   UNL A   1      45.959  35.570  28.292  1.00  0.00     0.054 A 
BRANCH  74  75
ATOM     75  S   UNL A   1      46.274  37.350  28.254  1.00  0.00     0.124 S 
ATOM     76  O   UNL A   1      45.518  37.764  27.076  1.00  0.00    -0.237 OA
ATOM     77  O   UNL A   1      45.736  37.786  29.540  1.00  0.00    -0.237 OA
ATOM     78  O   UNL A   1      47.727  37.438  28.130  1.00  0.00    -0.744 OA
ENDBRANCH  74  75
ENDBRANCH  55  69
BRANCH  56  79
ATOM     79  C   UNL A   1      37.172  31.167  29.966  1.00  0.00    -0.014 A 
ATOM     80  C   UNL A   1      36.214  31.681  30.861  1.00  0.00     0.010 A 
ATOM     81  C   UNL A   1      36.984  31.437  28.593  1.00  0.00     0.010 A 
ATOM     82  C   UNL A   1      35.142  32.476  30.403  1.00  0.00     0.020 A 
ATOM     83  C   UNL A   1      35.920  32.222  28.130  1.00  0.00     0.020 A 
ATOM     84  C   UNL A   1      35.013  32.758  29.039  1.00  0.00     0.054 A 
BRANCH  84  85
ATOM     85  S   UNL A   1      33.734  33.920  28.468  1.00  0.00     0.124 S 
ATOM     86  O   UNL A   1      33.181  34.418  29.724  1.00  0.00    -0.237 OA
ATOM     87  O   UNL A   1      34.506  34.887  27.690  1.00  0.00    -0.237 OA
ATOM     88  O   UNL A   1      32.830  33.082  27.683  1.00  0.00    -0.744 OA
ENDBRANCH  84  85
ENDBRANCH  56  79
BRANCH  68  89
ATOM     89  C   UNL A   1      42.157  29.543  33.570  1.00  0.00    -0.014 A 
ATOM     90  C   UNL A   1      41.925  28.193  33.234  1.00  0.00     0.010 A 
ATOM     91  C   UNL A   1      42.267  29.878  34.931  1.00  0.00     0.010 A 
ATOM     92  C   UNL A   1      41.784  27.215  34.233  1.00  0.00     0.020 A 
ATOM     93  C   UNL A   1      42.146  28.908  35.929  1.00  0.00     0.020 A 
ATOM     94  C   UNL A   1      41.895  27.582  35.577  1.00  0.00     0.054 A 
BRANCH  94  95
ATOM     95  S   UNL A   1      41.747  26.314  36.869  1.00  0.00     0.124 S 
ATOM     96  O   UNL A   1      42.887  26.606  37.733  1.00  0.00    -0.237 OA
ATOM     97  O   UNL A   1      40.433  26.589  37.447  1.00  0.00    -0.237 OA
ATOM     98  O   UNL A   1      41.837  25.053  36.132  1.00  0.00    -0.744 OA
ENDBRANCH  94  95
ENDBRANCH  68  89
ENDBRANCH  42  43
ENDBRANCH  34  37
ENDBRANCH  32  33
ENDBRANCH  31  32
ENDBRANCH  30  31
ENDBRANCH   1  30
TORSDOF 20
ENDMDL
MODEL 2
REMARK VINA RESULT:     -11.3      1.380      1.795
REMARK SMILES CCn1nc(C)c(NS(=O)(=O)c2cc(C(=O)NCCCCCCNC(=O)c3ccc(-c4c5nc(c(-c6ccc(S(=O)(=O)[O-])cc6)c6ccc([nH]6)c(-c6ccc(S(=O)(=O)[O-])cc6)c6nc(c(-c7ccc(S(=O)(=O)[O-])cc7)c7ccc4[nH]7)C=C6)C=C5)cc3)cc(F)c2C)c1C
REMARK SMILES IDX 20 1 19 2 18 3 17 4 15 5 16 6 14 8 12 9 13 10 90 11 88 12
REMARK SMILES IDX 91 13 87 14 89 15 9 16 10 17 11 18 8 19 7 21 3 22 4 23 92 24
REMARK SMILES IDX 5 25 93 26 6 27 2 28 1 29 21 30 22 31 23 32 24 33 25 34
REMARK SMILES IDX 26 36 27 37 28 38 86 39 29 40 85 41 30 42 31 43 32 44 79 45
REMARK SMILES IDX 33 46 84 47 78 48 80 49 34 50 83 51 77 52 76 53 35 55 65 56
REMARK SMILES IDX 46 57 64 58 47 59 50 60 63 61 81 62 48 63 49 64 62 66 82 67
REMARK SMILES IDX 51 68 36 69 37 70 45 71 38 72 44 73 39 74 40 75 41 76 42 77
REMARK SMILES IDX 43 78 66 79 67 80 75 81 68 82 74 83 69 84 70 85 71 86 72 87
REMARK SMILES IDX 73 88 52 89 53 90 61 91 54 92 60 93 55 94 56 95 57 96 58 97
REMARK SMILES IDX 59 98
REMARK H PARENT 17 7 8 20 24 35 80 54 50 65
REMARK Flexibility Score: inf
ROOT
ATOM      1  C   UNL A   1      39.532  24.738  26.832  1.00  0.00     0.002 C 
ENDROOT
BRANCH   1   2
ATOM      2  C   UNL A   1      38.050  24.377  26.648  1.00  0.00     0.021 C 
BRANCH   2   3
ATOM      3  C   UNL A   1      37.838  23.009  25.994  1.00  0.00     0.116 C 
BRANCH   3   4
ATOM      4  N   UNL A   1      37.578  23.144  24.571  1.00  0.00    -0.352 N 
ATOM      5  C   UNL A   1      36.456  23.075  23.784  1.00  0.00     0.251 C 
ATOM      6  O   UNL A   1      36.622  23.263  22.576  1.00  0.00    -0.269 OA
ATOM      7  H   UNL A   1      38.394  23.327  24.052  1.00  0.00     0.163 HD
BRANCH   5   8
ATOM      8  C   UNL A   1      35.066  22.853  24.287  1.00  0.00     0.044 A 
ATOM      9  C   UNL A   1      32.729  23.509  24.623  1.00  0.00     0.094 A 
ATOM     10  C   UNL A   1      34.075  23.823  24.342  1.00  0.00     0.036 A 
ATOM     11  C   UNL A   1      32.396  22.248  25.116  1.00  0.00     0.005 A 
ATOM     12  C   UNL A   1      33.415  21.284  25.120  1.00  0.00     0.128 A 
ATOM     13  C   UNL A   1      31.061  21.850  25.664  1.00  0.00     0.049 C 
ATOM     14  C   UNL A   1      34.712  21.560  24.680  1.00  0.00     0.053 A 
ATOM     15  F   UNL A   1      33.133  20.030  25.508  1.00  0.00    -0.207 F 
BRANCH   9  16
ATOM     16  S   UNL A   1      31.602  24.784  24.101  1.00  0.00     0.262 S 
ATOM     17  O   UNL A   1      30.747  25.077  25.233  1.00  0.00    -0.201 OA
ATOM     18  O   UNL A   1      31.029  24.334  22.848  1.00  0.00    -0.201 OA
BRANCH  16  19
ATOM     19  N   UNL A   1      32.403  26.198  23.746  1.00  0.00    -0.276 N 
ATOM     20  H   UNL A   1      33.133  26.095  23.092  1.00  0.00     0.180 HD
BRANCH  19  21
ATOM     21  C   UNL A   1      32.229  27.501  24.209  1.00  0.00     0.093 A 
ATOM     22  N   UNL A   1      32.263  29.133  25.668  1.00  0.00    -0.268 N 
ATOM     23  N   UNL A   1      31.480  29.603  24.684  1.00  0.00    -0.176 NA
ATOM     24  C   UNL A   1      32.871  27.950  25.349  1.00  0.00     0.060 A 
ATOM     25  C   UNL A   1      31.466  28.618  23.769  1.00  0.00     0.084 A 
ATOM     26  C   UNL A   1      33.952  27.316  26.149  1.00  0.00     0.069 C 
ATOM     27  C   UNL A   1      30.682  28.840  22.529  1.00  0.00     0.071 C 
BRANCH  22  28
ATOM     28  C   UNL A   1      32.291  29.820  26.946  1.00  0.00     0.141 C 
ATOM     29  C   UNL A   1      33.680  30.285  27.332  1.00  0.00     0.029 C 
ENDBRANCH  22  28
ENDBRANCH  19  21
ENDBRANCH  16  19
ENDBRANCH   9  16
ENDBRANCH   5   8
ENDBRANCH   3   4
ENDBRANCH   2   3
ENDBRANCH   1   2
BRANCH   1  30
ATOM     30  C   UNL A   1      40.292  23.919  27.893  1.00  0.00     0.002 C 
BRANCH  30  31
ATOM     31  C   UNL A   1      41.354  22.936  27.370  1.00  0.00     0.021 C 
BRANCH  31  32
ATOM     32  C   UNL A   1      41.403  22.858  25.855  1.00  0.00     0.116 C 
BRANCH  32  33
ATOM     33  N   UNL A   1      42.776  22.949  25.332  1.00  0.00    -0.352 N 
ATOM     34  C   UNL A   1      43.541  24.079  25.085  1.00  0.00     0.251 C 
ATOM     35  H   UNL A   1      43.212  22.091  25.130  1.00  0.00     0.163 HD
ATOM     36  O   UNL A   1      44.502  24.037  24.323  1.00  0.00    -0.269 OA
BRANCH  34  37
ATOM     37  C   UNL A   1      43.181  25.327  25.777  1.00  0.00     0.039 A 
ATOM     38  C   UNL A   1      42.289  26.277  25.271  1.00  0.00     0.014 A 
ATOM     39  C   UNL A   1      43.760  25.501  27.022  1.00  0.00     0.014 A 
ATOM     40  C   UNL A   1      41.983  27.382  26.067  1.00  0.00     0.010 A 
ATOM     41  C   UNL A   1      43.189  26.357  27.905  1.00  0.00     0.010 A 
ATOM     42  C   UNL A   1      42.456  27.406  27.385  1.00  0.00    -0.014 A 
BRANCH  42  43
ATOM     43  C   UNL A   1      42.242  28.498  28.314  1.00  0.00     0.031 A 
ATOM     44  C   UNL A   1      43.262  29.566  28.244  1.00  0.00     0.074 A 
ATOM     45  C   UNL A   1      41.047  28.667  28.925  1.00  0.00     0.049 A 
ATOM     46  N   UNL A   1      44.171  29.838  29.116  1.00  0.00    -0.248 NA
ATOM     47  C   UNL A   1      43.401  30.314  26.983  1.00  0.00     0.031 C 
ATOM     48  C   UNL A   1      39.804  27.891  28.766  1.00  0.00     0.029 A 
ATOM     49  N   UNL A   1      40.644  29.684  29.723  1.00  0.00    -0.354 N 
ATOM     50  C   UNL A   1      44.851  30.943  28.622  1.00  0.00     0.074 A 
ATOM     51  C   UNL A   1      44.492  31.042  27.229  1.00  0.00     0.031 C 
ATOM     52  C   UNL A   1      38.756  28.611  29.227  1.00  0.00     0.029 A 
ATOM     53  C   UNL A   1      39.267  29.810  29.866  1.00  0.00     0.049 A 
ATOM     54  H   UNL A   1      41.279  30.290  30.168  1.00  0.00     0.167 HD
ATOM     55  C   UNL A   1      45.446  31.843  29.456  1.00  0.00     0.031 A 
ATOM     56  C   UNL A   1      38.606  30.861  30.419  1.00  0.00     0.031 A 
ATOM     57  C   UNL A   1      45.456  31.367  30.817  1.00  0.00     0.049 A 
ATOM     58  C   UNL A   1      39.603  31.593  31.248  1.00  0.00     0.074 A 
ATOM     59  C   UNL A   1      45.985  30.260  31.452  1.00  0.00     0.029 A 
ATOM     60  N   UNL A   1      44.466  31.844  31.649  1.00  0.00    -0.354 N 
ATOM     61  N   UNL A   1      40.187  31.066  32.292  1.00  0.00    -0.248 NA
ATOM     62  C   UNL A   1      40.332  32.687  30.622  1.00  0.00     0.031 C 
ATOM     63  C   UNL A   1      44.967  29.842  32.359  1.00  0.00     0.029 A 
ATOM     64  C   UNL A   1      43.919  30.765  32.297  1.00  0.00     0.049 A 
ATOM     65  H   UNL A   1      44.202  32.786  31.760  1.00  0.00     0.167 HD
ATOM     66  C   UNL A   1      41.519  31.447  32.194  1.00  0.00     0.074 A 
ATOM     67  C   UNL A   1      41.530  32.515  31.191  1.00  0.00     0.031 C 
ATOM     68  C   UNL A   1      42.527  30.673  32.701  1.00  0.00     0.031 A 
BRANCH  55  69
ATOM     69  C   UNL A   1      45.653  33.299  29.129  1.00  0.00    -0.014 A 
ATOM     70  C   UNL A   1      44.528  34.077  28.790  1.00  0.00     0.010 A 
ATOM     71  C   UNL A   1      46.921  33.868  28.888  1.00  0.00     0.010 A 
ATOM     72  C   UNL A   1      44.666  35.322  28.166  1.00  0.00     0.020 A 
ATOM     73  C   UNL A   1      47.070  35.129  28.307  1.00  0.00     0.020 A 
ATOM     74  C   UNL A   1      45.939  35.831  27.914  1.00  0.00     0.054 A 
BRANCH  74  75
ATOM     75  S   UNL A   1      46.106  37.382  26.999  1.00  0.00     0.124 S 
ATOM     76  O   UNL A   1      46.966  38.161  27.883  1.00  0.00    -0.237 OA
ATOM     77  O   UNL A   1      46.716  36.938  25.748  1.00  0.00    -0.237 OA
ATOM     78  O   UNL A   1      44.730  37.860  26.880  1.00  0.00    -0.744 OA
ENDBRANCH  74  75
ENDBRANCH  55  69
BRANCH  56  79
ATOM     79  C   UNL A   1      37.320  31.456  29.957  1.00  0.00    -0.014 A 
ATOM     80  C   UNL A   1      36.230  31.643  30.829  1.00  0.00     0.010 A 
ATOM     81  C   UNL A   1      37.257  32.091  28.697  1.00  0.00     0.010 A 
ATOM     82  C   UNL A   1      35.147  32.475  30.472  1.00  0.00     0.020 A 
ATOM     83  C   UNL A   1      36.184  32.916  28.335  1.00  0.00     0.020 A 
ATOM     84  C   UNL A   1      35.141  33.122  29.233  1.00  0.00     0.054 A 
BRANCH  84  85
ATOM     85  S   UNL A   1      33.833  34.327  28.843  1.00  0.00     0.124 S 
ATOM     86  O   UNL A   1      33.008  33.594  27.887  1.00  0.00    -0.237 OA
ATOM     87  O   UNL A   1      33.224  34.571  30.148  1.00  0.00    -0.237 OA
ATOM     88  O   UNL A   1      34.565  35.464  28.286  1.00  0.00    -0.744 OA
ENDBRANCH  84  85
ENDBRANCH  56  79
BRANCH  68  89
ATOM     89  C   UNL A   1      42.169  29.485  33.572  1.00  0.00    -0.014 A 
ATOM     90  C   UNL A   1      41.695  28.255  33.073  1.00  0.00     0.010 A 
ATOM     91  C   UNL A   1      42.502  29.563  34.936  1.00  0.00     0.010 A 
ATOM     92  C   UNL A   1      41.535  27.145  33.920  1.00  0.00     0.020 A 
ATOM     93  C   UNL A   1      42.364  28.458  35.781  1.00  0.00     0.020 A 
ATOM     94  C   UNL A   1      41.872  27.256  35.272  1.00  0.00     0.054 A 
BRANCH  94  95
ATOM     95  S   UNL A   1      41.699  25.814  36.362  1.00  0.00     0.124 S 
ATOM     96  O   UNL A   1      42.855  25.941  37.243  1.00  0.00    -0.237 OA
ATOM     97  O   UNL A   1      40.400  26.036  36.993  1.00  0.00    -0.237 OA
ATOM     98  O   UNL A   1      41.744  24.676  35.443  1.00  0.00    -0.744 OA
ENDBRANCH  94  95
ENDBRANCH  68  89
ENDBRANCH  42  43
ENDBRANCH  34  37
ENDBRANCH  32  33
ENDBRANCH  31  32
ENDBRANCH  30  31
ENDBRANCH   1  30
TORSDOF 20
ENDMDL
MODEL 3
REMARK VINA RESULT:     -11.2      2.107      2.740
REMARK SMILES CCn1nc(C)c(NS(=O)(=O)c2cc(C(=O)NCCCCCCNC(=O)c3ccc(-c4c5nc(c(-c6ccc(S(=O)(=O)[O-])cc6)c6ccc([nH]6)c(-c6ccc(S(=O)(=O)[O-])cc6)c6nc(c(-c7ccc(S(=O)(=O)[O-])cc7)c7ccc4[nH]7)C=C6)C=C5)cc3)cc(F)c2C)c1C
REMARK SMILES IDX 20 1 19 2 18 3 17 4 15 5 16 6 14 8 12 9 13 10 90 11 88 12
REMARK SMILES IDX 91 13 87 14 89 15 9 16 10 17 11 18 8 19 7 21 3 22 4 23 92 24
REMARK SMILES IDX 5 25 93 26 6 27 2 28 1 29 21 30 22 31 23 32 24 33 25 34
REMARK SMILES IDX 26 36 27 37 28 38 86 39 29 40 85 41 30 42 31 43 32 44 79 45
REMARK SMILES IDX 33 46 84 47 78 48 80 49 34 50 83 51 77 52 76 53 35 55 65 56
REMARK SMILES IDX 46 57 64 58 47 59 50 60 63 61 81 62 48 63 49 64 62 66 82 67
REMARK SMILES IDX 51 68 36 69 37 70 45 71 38 72 44 73 39 74 40 75 41 76 42 77
REMARK SMILES IDX 43 78 66 79 67 80 75 81 68 82 74 83 69 84 70 85 71 86 72 87
REMARK SMILES IDX 73 88 52 89 53 90 61 91 54 92 60 93 55 94 56 95 57 96 58 97
REMARK SMILES IDX 59 98
REMARK H PARENT 17 7 8 20 24 35 80 54 50 65
REMARK Flexibility Score: inf
ROOT
ATOM      1  C   UNL A   1      39.310  22.381  26.077  1.00  0.00     0.002 C 
ENDROOT
BRANCH   1   2
ATOM      2  C   UNL A   1      38.133  21.727  25.338  1.00  0.00     0.021 C 
BRANCH   2   3
ATOM      3  C   UNL A   1      36.819  22.496  25.494  1.00  0.00     0.116 C 
BRANCH   3   4
ATOM      4  N   UNL A   1      36.026  21.960  26.588  1.00  0.00    -0.352 N 
ATOM      5  C   UNL A   1      34.685  21.904  26.872  1.00  0.00     0.251 C 
ATOM      6  O   UNL A   1      34.371  21.339  27.922  1.00  0.00    -0.269 OA
ATOM      7  H   UNL A   1      36.579  21.540  27.286  1.00  0.00     0.163 HD
BRANCH   5   8
ATOM      8  C   UNL A   1      33.598  22.418  25.985  1.00  0.00     0.044 A 
ATOM      9  C   UNL A   1      31.904  24.061  25.326  1.00  0.00     0.094 A 
ATOM     10  C   UNL A   1      32.766  23.488  26.284  1.00  0.00     0.036 A 
ATOM     11  C   UNL A   1      31.665  23.404  24.120  1.00  0.00     0.005 A 
ATOM     12  C   UNL A   1      32.462  22.283  23.846  1.00  0.00     0.128 A 
ATOM     13  C   UNL A   1      30.617  23.773  23.117  1.00  0.00     0.049 C 
ATOM     14  C   UNL A   1      33.436  21.818  24.734  1.00  0.00     0.053 A 
ATOM     15  F   UNL A   1      32.334  21.656  22.666  1.00  0.00    -0.207 F 
BRANCH   9  16
ATOM     16  S   UNL A   1      31.381  25.705  25.768  1.00  0.00     0.262 S 
ATOM     17  O   UNL A   1      31.933  25.983  27.078  1.00  0.00    -0.201 OA
ATOM     18  O   UNL A   1      29.948  25.750  25.552  1.00  0.00    -0.201 OA
BRANCH  16  19
ATOM     19  N   UNL A   1      32.025  26.845  24.741  1.00  0.00    -0.276 N 
ATOM     20  H   UNL A   1      32.998  26.965  24.830  1.00  0.00     0.180 HD
BRANCH  19  21
ATOM     21  C   UNL A   1      31.433  27.662  23.779  1.00  0.00     0.093 A 
ATOM     22  N   UNL A   1      30.251  29.346  23.029  1.00  0.00    -0.268 N 
ATOM     23  N   UNL A   1      30.341  28.523  21.971  1.00  0.00    -0.176 NA
ATOM     24  C   UNL A   1      31.033  28.952  24.080  1.00  0.00     0.060 A 
ATOM     25  C   UNL A   1      31.082  27.492  22.411  1.00  0.00     0.084 A 
ATOM     26  C   UNL A   1      31.300  29.779  25.286  1.00  0.00     0.069 C 
ATOM     27  C   UNL A   1      31.378  26.398  21.454  1.00  0.00     0.071 C 
BRANCH  22  28
ATOM     28  C   UNL A   1      29.296  30.438  23.003  1.00  0.00     0.141 C 
ATOM     29  C   UNL A   1      28.986  30.913  21.598  1.00  0.00     0.029 C 
ENDBRANCH  22  28
ENDBRANCH  19  21
ENDBRANCH  16  19
ENDBRANCH   9  16
ENDBRANCH   5   8
ENDBRANCH   3   4
ENDBRANCH   2   3
ENDBRANCH   1   2
BRANCH   1  30
ATOM     30  C   UNL A   1      40.126  21.447  26.993  1.00  0.00     0.002 C 
BRANCH  30  31
ATOM     31  C   UNL A   1      40.853  20.278  26.309  1.00  0.00     0.021 C 
BRANCH  31  32
ATOM     32  C   UNL A   1      42.151  19.894  26.996  1.00  0.00     0.116 C 
BRANCH  32  33
ATOM     33  N   UNL A   1      43.287  19.841  26.062  1.00  0.00    -0.352 N 
ATOM     34  C   UNL A   1      43.867  20.869  25.335  1.00  0.00     0.251 C 
ATOM     35  H   UNL A   1      43.691  18.953  25.936  1.00  0.00     0.163 HD
ATOM     36  O   UNL A   1      44.547  20.635  24.341  1.00  0.00    -0.269 OA
BRANCH  34  37
ATOM     37  C   UNL A   1      43.661  22.250  25.800  1.00  0.00     0.039 A 
ATOM     38  C   UNL A   1      42.849  23.185  25.151  1.00  0.00     0.014 A 
ATOM     39  C   UNL A   1      44.304  22.579  26.981  1.00  0.00     0.014 A 
ATOM     40  C   UNL A   1      42.687  24.439  25.742  1.00  0.00     0.010 A 
ATOM     41  C   UNL A   1      43.858  23.633  27.707  1.00  0.00     0.010 A 
ATOM     42  C   UNL A   1      43.213  24.644  27.024  1.00  0.00    -0.014 A 
BRANCH  42  43
ATOM     43  C   UNL A   1      43.147  25.900  27.746  1.00  0.00     0.031 A 
ATOM     44  C   UNL A   1      44.132  26.910  27.304  1.00  0.00     0.074 A 
ATOM     45  C   UNL A   1      42.068  26.211  28.501  1.00  0.00     0.049 A 
ATOM     46  N   UNL A   1      45.171  27.322  27.946  1.00  0.00    -0.248 NA
ATOM     47  C   UNL A   1      44.054  27.398  25.917  1.00  0.00     0.031 C 
ATOM     48  C   UNL A   1      40.822  25.450  28.701  1.00  0.00     0.029 A 
ATOM     49  N   UNL A   1      41.794  27.373  29.142  1.00  0.00    -0.354 N 
ATOM     50  C   UNL A   1      45.751  28.295  27.143  1.00  0.00     0.074 A 
ATOM     51  C   UNL A   1      45.165  28.133  25.836  1.00  0.00     0.031 C 
ATOM     52  C   UNL A   1      39.860  26.270  29.179  1.00  0.00     0.029 A 
ATOM     53  C   UNL A   1      40.459  27.557  29.481  1.00  0.00     0.049 A 
ATOM     54  H   UNL A   1      42.489  28.037  29.350  1.00  0.00     0.167 HD
ATOM     55  C   UNL A   1      46.468  29.323  27.678  1.00  0.00     0.031 A 
ATOM     56  C   UNL A   1      39.890  28.710  29.921  1.00  0.00     0.031 A 
ATOM     57  C   UNL A   1      46.707  29.118  29.085  1.00  0.00     0.049 A 
ATOM     58  C   UNL A   1      41.005  29.563  30.418  1.00  0.00     0.074 A 
ATOM     59  C   UNL A   1      47.344  28.141  29.826  1.00  0.00     0.029 A 
ATOM     60  N   UNL A   1      45.865  29.770  29.960  1.00  0.00    -0.354 N 
ATOM     61  N   UNL A   1      41.757  29.233  31.434  1.00  0.00    -0.248 NA
ATOM     62  C   UNL A   1      41.611  30.499  29.481  1.00  0.00     0.031 C 
ATOM     63  C   UNL A   1      46.493  27.931  30.952  1.00  0.00     0.029 A 
ATOM     64  C   UNL A   1      45.441  28.849  30.885  1.00  0.00     0.049 A 
ATOM     65  H   UNL A   1      45.615  30.721  29.928  1.00  0.00     0.167 HD
ATOM     66  C   UNL A   1      43.052  29.556  31.047  1.00  0.00     0.074 A 
ATOM     67  C   UNL A   1      42.888  30.411  29.868  1.00  0.00     0.031 C 
ATOM     68  C   UNL A   1      44.137  28.870  31.522  1.00  0.00     0.031 A 
BRANCH  55  69
ATOM     69  C   UNL A   1      46.607  30.684  27.046  1.00  0.00    -0.014 A 
ATOM     70  C   UNL A   1      47.887  31.272  26.996  1.00  0.00     0.010 A 
ATOM     71  C   UNL A   1      45.509  31.514  26.739  1.00  0.00     0.010 A 
ATOM     72  C   UNL A   1      48.051  32.637  26.734  1.00  0.00     0.020 A 
ATOM     73  C   UNL A   1      45.665  32.868  26.432  1.00  0.00     0.020 A 
ATOM     74  C   UNL A   1      46.934  33.429  26.471  1.00  0.00     0.054 A 
BRANCH  74  75
ATOM     75  S   UNL A   1      47.145  35.212  26.255  1.00  0.00     0.124 S 
ATOM     76  O   UNL A   1      45.842  35.606  25.729  1.00  0.00    -0.237 OA
ATOM     77  O   UNL A   1      47.441  35.654  27.616  1.00  0.00    -0.237 OA
ATOM     78  O   UNL A   1      48.259  35.315  25.315  1.00  0.00    -0.744 OA
ENDBRANCH  74  75
ENDBRANCH  55  69
BRANCH  56  79
ATOM     79  C   UNL A   1      38.541  29.236  29.570  1.00  0.00    -0.014 A 
ATOM     80  C   UNL A   1      37.624  29.652  30.555  1.00  0.00     0.010 A 
ATOM     81  C   UNL A   1      38.251  29.580  28.231  1.00  0.00     0.010 A 
ATOM     82  C   UNL A   1      36.492  30.424  30.217  1.00  0.00     0.020 A 
ATOM     83  C   UNL A   1      37.128  30.343  27.887  1.00  0.00     0.020 A 
ATOM     84  C   UNL A   1      36.263  30.782  28.884  1.00  0.00     0.054 A 
BRANCH  84  85
ATOM     85  S   UNL A   1      34.903  31.919  28.469  1.00  0.00     0.124 S 
ATOM     86  O   UNL A   1      35.561  32.886  27.596  1.00  0.00    -0.237 OA
ATOM     87  O   UNL A   1      33.936  31.037  27.820  1.00  0.00    -0.237 OA
ATOM     88  O   UNL A   1      34.482  32.443  29.768  1.00  0.00    -0.744 OA
ENDBRANCH  84  85
ENDBRANCH  56  79
BRANCH  68  89
ATOM     89  C   UNL A   1      43.938  27.881  32.653  1.00  0.00    -0.014 A 
ATOM     90  C   UNL A   1      43.650  28.251  33.983  1.00  0.00     0.010 A 
ATOM     91  C   UNL A   1      43.859  26.519  32.313  1.00  0.00     0.010 A 
ATOM     92  C   UNL A   1      43.318  27.283  34.947  1.00  0.00     0.020 A 
ATOM     93  C   UNL A   1      43.512  25.553  33.261  1.00  0.00     0.020 A 
ATOM     94  C   UNL A   1      43.252  25.936  34.576  1.00  0.00     0.054 A 
BRANCH  94  95
ATOM     95  S   UNL A   1      42.791  24.687  35.811  1.00  0.00     0.124 S 
ATOM     96  O   UNL A   1      41.897  23.812  35.058  1.00  0.00    -0.237 OA
ATOM     97  O   UNL A   1      44.079  24.102  36.180  1.00  0.00    -0.237 OA
ATOM     98  O   UNL A   1      42.148  25.465  36.870  1.00  0.00    -0.744 OA
ENDBRANCH  94  95
ENDBRANCH  68  89
ENDBRANCH  42  43
ENDBRANCH  34  37
ENDBRANCH  32  33
ENDBRANCH  31  32
ENDBRANCH  30  31
ENDBRANCH   1  30
TORSDOF 20
ENDMDL
