MODEL 1
REMARK VINA RESULT:     -11.4      0.000      0.000
REMARK SMILES Cc1nn(C)c(=O)c(C(=O)N2CCCC[C@H]2C(=O)NCCCCCCNC(=O)c2ccc(-c3c4nc(c(-c5ccc(S(=O)(=O)[O-])cc5)c5ccc([nH]5)c(-c5ccc(S(=O)(=O)[O-])cc5)c5nc(c(-c6ccc(S(=O)(=O)[O-])cc6)c6ccc3[nH]6)C=C5)C=C4)cc2)c1C
REMARK SMILES IDX 23 1 22 2 21 3 20 4 19 5 17 6 18 7 16 9 11 10 12 11 13 12
REMARK SMILES IDX 15 13 14 14 9 15 10 16 8 17 1 18 2 19 3 20 89 21 4 22 90 23
REMARK SMILES IDX 5 24 6 25 7 26 24 27 25 28 26 29 27 30 28 32 29 33 30 34
REMARK SMILES IDX 88 35 31 36 87 37 32 38 33 39 34 40 81 41 35 42 86 43 80 44
REMARK SMILES IDX 82 45 36 46 85 47 79 48 78 49 37 51 67 52 48 53 66 54 49 55
REMARK SMILES IDX 52 56 65 57 83 58 50 59 51 60 64 62 84 63 53 64 38 65 39 66
REMARK SMILES IDX 47 67 40 68 46 69 41 70 42 71 43 72 44 73 45 74 68 75 69 76
REMARK SMILES IDX 77 77 70 78 76 79 71 80 72 81 73 82 74 83 75 84 54 85 55 86
REMARK SMILES IDX 63 87 56 88 62 89 57 90 58 91 59 92 60 93 61 94
REMARK H PARENT 19 8 26 31 82 50 52 61
REMARK Flexibility Score: inf
ROOT
ATOM      1  C   UNL A   1      34.308  31.973  28.017  1.00  0.00     0.002 C 
ENDROOT
BRANCH   1   2
ATOM      2  C   UNL A   1      33.828  30.661  27.401  1.00  0.00     0.002 C 
BRANCH   2   3
ATOM      3  C   UNL A   1      32.384  30.669  26.877  1.00  0.00     0.021 C 
BRANCH   3   4
ATOM      4  C   UNL A   1      31.869  29.327  26.351  1.00  0.00     0.116 C 
BRANCH   4   5
ATOM      5  N   UNL A   1      32.576  28.792  25.198  1.00  0.00    -0.354 N 
ATOM      6  C   UNL A   1      33.014  27.490  25.208  1.00  0.00     0.242 C 
ATOM      7  O   UNL A   1      33.905  27.152  25.985  1.00  0.00    -0.273 OA
ATOM      8  H   UNL A   1      32.740  29.361  24.412  1.00  0.00     0.163 HD
BRANCH   6   9
ATOM      9  C   UNL A   1      32.427  26.535  24.134  1.00  0.00     0.174 C 
ATOM     10  N   UNL A   1      32.966  25.169  24.319  1.00  0.00    -0.326 N 
ATOM     11  C   UNL A   1      32.552  24.513  25.579  1.00  0.00     0.120 C 
ATOM     12  C   UNL A   1      31.044  24.542  25.813  1.00  0.00     0.022 C 
ATOM     13  C   UNL A   1      30.890  26.510  24.261  1.00  0.00     0.035 C 
ATOM     14  C   UNL A   1      30.446  25.926  25.603  1.00  0.00     0.004 C 
BRANCH  10  15
ATOM     15  C   UNL A   1      33.671  24.379  23.419  1.00  0.00     0.260 C 
ATOM     16  O   UNL A   1      33.734  24.790  22.252  1.00  0.00    -0.269 OA
BRANCH  15  17
ATOM     17  C   UNL A   1      34.260  22.984  23.683  1.00  0.00     0.111 A 
ATOM     18  C   UNL A   1      37.063  20.815  25.152  1.00  0.00     0.069 C 
ATOM     19  C   UNL A   1      35.693  21.264  24.676  1.00  0.00     0.062 A 
ATOM     20  N   UNL A   1      34.759  20.389  24.820  1.00  0.00    -0.175 NA
ATOM     21  C   UNL A   1      35.493  22.654  24.140  1.00  0.00    -0.010 A 
ATOM     22  N   UNL A   1      33.522  20.709  24.373  1.00  0.00    -0.232 N 
ATOM     23  C   UNL A   1      36.654  23.562  24.328  1.00  0.00     0.047 C 
ATOM     24  C   UNL A   1      32.519  19.679  24.584  1.00  0.00     0.178 C 
ATOM     25  C   UNL A   1      33.232  21.856  23.647  1.00  0.00     0.279 A 
ATOM     26  O   UNL A   1      32.191  21.949  22.996  1.00  0.00    -0.267 OA
ENDBRANCH  15  17
ENDBRANCH  10  15
ENDBRANCH   6   9
ENDBRANCH   4   5
ENDBRANCH   3   4
ENDBRANCH   2   3
ENDBRANCH   1   2
BRANCH   1  27
ATOM     27  C   UNL A   1      35.820  32.171  27.977  1.00  0.00     0.021 C 
BRANCH  27  28
ATOM     28  C   UNL A   1      36.430  32.553  29.319  1.00  0.00     0.116 C 
BRANCH  28  29
ATOM     29  N   UNL A   1      36.084  31.609  30.367  1.00  0.00    -0.352 N 
ATOM     30  C   UNL A   1      36.748  30.464  30.744  1.00  0.00     0.251 C 
ATOM     31  H   UNL A   1      35.266  31.815  30.876  1.00  0.00     0.163 HD
ATOM     32  O   UNL A   1      36.230  29.668  31.512  1.00  0.00    -0.269 OA
BRANCH  30  33
ATOM     33  C   UNL A   1      38.087  30.199  30.173  1.00  0.00     0.039 A 
ATOM     34  C   UNL A   1      39.184  30.124  31.031  1.00  0.00     0.014 A 
ATOM     35  C   UNL A   1      38.243  29.980  28.801  1.00  0.00     0.014 A 
ATOM     36  C   UNL A   1      40.432  29.772  30.515  1.00  0.00     0.010 A 
ATOM     37  C   UNL A   1      39.465  29.538  28.307  1.00  0.00     0.010 A 
ATOM     38  C   UNL A   1      40.576  29.445  29.155  1.00  0.00    -0.014 A 
BRANCH  38  39
ATOM     39  C   UNL A   1      41.899  29.042  28.613  1.00  0.00     0.031 A 
ATOM     40  C   UNL A   1      43.023  30.041  28.555  1.00  0.00     0.074 A 
ATOM     41  C   UNL A   1      42.088  27.781  28.172  1.00  0.00     0.049 A 
ATOM     42  N   UNL A   1      44.262  29.859  28.177  1.00  0.00    -0.248 NA
ATOM     43  C   UNL A   1      42.716  31.424  28.958  1.00  0.00     0.031 C 
ATOM     44  C   UNL A   1      41.063  26.735  28.135  1.00  0.00     0.029 A 
ATOM     45  N   UNL A   1      43.212  27.159  27.690  1.00  0.00    -0.354 N 
ATOM     46  C   UNL A   1      44.878  31.099  28.302  1.00  0.00     0.074 A 
ATOM     47  C   UNL A   1      43.864  32.040  28.718  1.00  0.00     0.031 C 
ATOM     48  C   UNL A   1      41.620  25.589  27.710  1.00  0.00     0.029 A 
ATOM     49  C   UNL A   1      43.030  25.824  27.412  1.00  0.00     0.049 A 
ATOM     50  H   UNL A   1      44.069  27.625  27.554  1.00  0.00     0.167 HD
ATOM     51  C   UNL A   1      46.181  31.419  28.129  1.00  0.00     0.031 A 
ATOM     52  C   UNL A   1      43.902  24.891  26.978  1.00  0.00     0.031 A 
ATOM     53  C   UNL A   1      47.191  30.480  27.728  1.00  0.00     0.049 A 
ATOM     54  C   UNL A   1      45.337  25.280  26.747  1.00  0.00     0.074 A 
ATOM     55  C   UNL A   1      48.548  30.694  27.574  1.00  0.00     0.029 A 
ATOM     56  N   UNL A   1      46.954  29.150  27.417  1.00  0.00    -0.354 N 
ATOM     57  N   UNL A   1      45.918  26.437  26.957  1.00  0.00    -0.248 NA
ATOM     58  C   UNL A   1      46.235  24.242  26.223  1.00  0.00     0.031 C 
ATOM     59  C   UNL A   1      49.124  29.509  27.111  1.00  0.00     0.029 A 
ATOM     60  C   UNL A   1      48.136  28.541  27.032  1.00  0.00     0.049 A 
ATOM     61  H   UNL A   1      46.078  28.706  27.463  1.00  0.00     0.167 HD
ATOM     62  C   UNL A   1      47.250  26.263  26.602  1.00  0.00     0.074 A 
ATOM     63  C   UNL A   1      47.395  24.884  26.184  1.00  0.00     0.031 C 
ATOM     64  C   UNL A   1      48.260  27.167  26.615  1.00  0.00     0.031 A 
BRANCH  51  65
ATOM     65  C   UNL A   1      46.591  32.843  28.390  1.00  0.00    -0.014 A 
ATOM     66  C   UNL A   1      46.646  33.779  27.340  1.00  0.00     0.010 A 
ATOM     67  C   UNL A   1      46.874  33.267  29.701  1.00  0.00     0.010 A 
ATOM     68  C   UNL A   1      47.011  35.103  27.591  1.00  0.00     0.020 A 
ATOM     69  C   UNL A   1      47.212  34.598  29.961  1.00  0.00     0.020 A 
ATOM     70  C   UNL A   1      47.291  35.504  28.901  1.00  0.00     0.054 A 
BRANCH  70  71
ATOM     71  S   UNL A   1      47.734  37.238  29.196  1.00  0.00     0.124 S 
ATOM     72  O   UNL A   1      47.941  37.254  30.642  1.00  0.00    -0.237 OA
ATOM     73  O   UNL A   1      48.939  37.400  28.387  1.00  0.00    -0.237 OA
ATOM     74  O   UNL A   1      46.566  37.980  28.728  1.00  0.00    -0.744 OA
ENDBRANCH  70  71
ENDBRANCH  51  65
BRANCH  52  75
ATOM     75  C   UNL A   1      43.444  23.489  26.763  1.00  0.00    -0.014 A 
ATOM     76  C   UNL A   1      43.408  22.944  25.467  1.00  0.00     0.010 A 
ATOM     77  C   UNL A   1      43.065  22.685  27.854  1.00  0.00     0.010 A 
ATOM     78  C   UNL A   1      42.997  21.622  25.266  1.00  0.00     0.020 A 
ATOM     79  C   UNL A   1      42.679  21.355  27.659  1.00  0.00     0.020 A 
ATOM     80  C   UNL A   1      42.641  20.834  26.365  1.00  0.00     0.054 A 
BRANCH  80  81
ATOM     81  S   UNL A   1      42.170  19.104  26.083  1.00  0.00     0.124 S 
ATOM     82  O   UNL A   1      42.548  18.476  27.344  1.00  0.00    -0.237 OA
ATOM     83  O   UNL A   1      40.735  19.208  25.832  1.00  0.00    -0.237 OA
ATOM     84  O   UNL A   1      42.971  18.715  24.925  1.00  0.00    -0.744 OA
ENDBRANCH  80  81
ENDBRANCH  52  75
BRANCH  64  85
ATOM     85  C   UNL A   1      49.619  26.715  26.152  1.00  0.00    -0.014 A 
ATOM     86  C   UNL A   1      50.045  26.974  24.838  1.00  0.00     0.010 A 
ATOM     87  C   UNL A   1      50.524  26.157  27.074  1.00  0.00     0.010 A 
ATOM     88  C   UNL A   1      51.358  26.691  24.456  1.00  0.00     0.020 A 
ATOM     89  C   UNL A   1      51.845  25.897  26.702  1.00  0.00     0.020 A 
ATOM     90  C   UNL A   1      52.253  26.168  25.395  1.00  0.00     0.054 A 
BRANCH  90  91
ATOM     91  S   UNL A   1      53.979  25.914  24.895  1.00  0.00     0.124 S 
ATOM     92  O   UNL A   1      54.058  24.460  24.796  1.00  0.00    -0.237 OA
ATOM     93  O   UNL A   1      54.051  26.636  23.627  1.00  0.00    -0.237 OA
ATOM     94  O   UNL A   1      54.748  26.506  25.987  1.00  0.00    -0.744 OA
ENDBRANCH  90  91
ENDBRANCH  64  85
ENDBRANCH  38  39
ENDBRANCH  30  33
ENDBRANCH  28  29
ENDBRANCH  27  28
ENDBRANCH   1  27
TORSDOF 18
ENDMDL
MODEL 2
REMARK VINA RESULT:     -11.2      4.800     10.626
REMARK SMILES Cc1nn(C)c(=O)c(C(=O)N2CCCC[C@H]2C(=O)NCCCCCCNC(=O)c2ccc(-c3c4nc(c(-c5ccc(S(=O)(=O)[O-])cc5)c5ccc([nH]5)c(-c5ccc(S(=O)(=O)[O-])cc5)c5nc(c(-c6ccc(S(=O)(=O)[O-])cc6)c6ccc3[nH]6)C=C5)C=C4)cc2)c1C
REMARK SMILES IDX 23 1 22 2 21 3 20 4 19 5 17 6 18 7 16 9 11 10 12 11 13 12
REMARK SMILES IDX 15 13 14 14 9 15 10 16 8 17 1 18 2 19 3 20 89 21 4 22 90 23
REMARK SMILES IDX 5 24 6 25 7 26 24 27 25 28 26 29 27 30 28 32 29 33 30 34
REMARK SMILES IDX 88 35 31 36 87 37 32 38 33 39 34 40 81 41 35 42 86 43 80 44
REMARK SMILES IDX 82 45 36 46 85 47 79 48 78 49 37 51 67 52 48 53 66 54 49 55
REMARK SMILES IDX 52 56 65 57 83 58 50 59 51 60 64 62 84 63 53 64 38 65 39 66
REMARK SMILES IDX 47 67 40 68 46 69 41 70 42 71 43 72 44 73 45 74 68 75 69 76
REMARK SMILES IDX 77 77 70 78 76 79 71 80 72 81 73 82 74 83 75 84 54 85 55 86
REMARK SMILES IDX 63 87 56 88 62 89 57 90 58 91 59 92 60 93 61 94
REMARK H PARENT 19 8 26 31 82 50 52 61
REMARK Flexibility Score: inf
ROOT
ATOM      1  C   UNL A   1      43.577  35.984  29.633  1.00  0.00     0.002 C 
ENDROOT
BRANCH   1   2
ATOM      2  C   UNL A   1      42.931  35.898  28.253  1.00  0.00     0.002 C 
BRANCH   2   3
ATOM      3  C   UNL A   1      41.420  35.622  28.249  1.00  0.00     0.021 C 
BRANCH   3   4
ATOM      4  C   UNL A   1      40.875  34.937  29.506  1.00  0.00     0.116 C 
BRANCH   4   5
ATOM      5  N   UNL A   1      39.426  34.878  29.609  1.00  0.00    -0.354 N 
ATOM      6  C   UNL A   1      38.828  33.808  30.229  1.00  0.00     0.242 C 
ATOM      7  O   UNL A   1      38.896  32.691  29.719  1.00  0.00    -0.273 OA
ATOM      8  H   UNL A   1      38.874  35.603  29.236  1.00  0.00     0.163 HD
BRANCH   6   9
ATOM      9  C   UNL A   1      37.986  34.102  31.500  1.00  0.00     0.174 C 
ATOM     10  N   UNL A   1      37.162  32.924  31.850  1.00  0.00    -0.326 N 
ATOM     11  C   UNL A   1      37.939  31.733  32.260  1.00  0.00     0.120 C 
ATOM     12  C   UNL A   1      38.967  32.023  33.350  1.00  0.00     0.022 C 
ATOM     13  C   UNL A   1      38.933  34.440  32.670  1.00  0.00     0.035 C 
ATOM     14  C   UNL A   1      39.817  33.249  33.041  1.00  0.00     0.004 C 
BRANCH  10  15
ATOM     15  C   UNL A   1      35.782  32.832  31.986  1.00  0.00     0.260 C 
ATOM     16  O   UNL A   1      35.297  31.692  31.958  1.00  0.00    -0.269 OA
BRANCH  15  17
ATOM     17  C   UNL A   1      34.781  33.997  32.027  1.00  0.00     0.111 A 
ATOM     18  C   UNL A   1      33.534  37.213  33.707  1.00  0.00     0.069 C 
ATOM     19  C   UNL A   1      33.832  36.168  32.646  1.00  0.00     0.062 A 
ATOM     20  N   UNL A   1      33.434  36.475  31.460  1.00  0.00    -0.175 NA
ATOM     21  C   UNL A   1      34.587  34.918  33.003  1.00  0.00    -0.010 A 
ATOM     22  N   UNL A   1      33.628  35.566  30.476  1.00  0.00    -0.232 N 
ATOM     23  C   UNL A   1      35.175  34.918  34.367  1.00  0.00     0.047 C 
ATOM     24  C   UNL A   1      33.168  35.989  29.165  1.00  0.00     0.178 C 
ATOM     25  C   UNL A   1      34.097  34.277  30.692  1.00  0.00     0.279 A 
ATOM     26  O   UNL A   1      33.955  33.400  29.839  1.00  0.00    -0.267 OA
ENDBRANCH  15  17
ENDBRANCH  10  15
ENDBRANCH   6   9
ENDBRANCH   4   5
ENDBRANCH   3   4
ENDBRANCH   2   3
ENDBRANCH   1   2
BRANCH   1  27
ATOM     27  C   UNL A   1      44.178  37.346  29.964  1.00  0.00     0.021 C 
BRANCH  27  28
ATOM     28  C   UNL A   1      45.492  37.274  30.730  1.00  0.00     0.116 C 
BRANCH  28  29
ATOM     29  N   UNL A   1      46.619  37.718  29.928  1.00  0.00    -0.352 N 
ATOM     30  C   UNL A   1      47.436  36.973  29.110  1.00  0.00     0.251 C 
ATOM     31  H   UNL A   1      46.824  38.680  29.976  1.00  0.00     0.163 HD
ATOM     32  O   UNL A   1      48.463  37.451  28.654  1.00  0.00    -0.269 OA
BRANCH  30  33
ATOM     33  C   UNL A   1      47.065  35.569  28.824  1.00  0.00     0.039 A 
ATOM     34  C   UNL A   1      46.692  35.221  27.525  1.00  0.00     0.014 A 
ATOM     35  C   UNL A   1      47.132  34.599  29.827  1.00  0.00     0.014 A 
ATOM     36  C   UNL A   1      46.442  33.882  27.222  1.00  0.00     0.010 A 
ATOM     37  C   UNL A   1      46.975  33.256  29.500  1.00  0.00     0.010 A 
ATOM     38  C   UNL A   1      46.612  32.885  28.199  1.00  0.00    -0.014 A 
BRANCH  38  39
ATOM     39  C   UNL A   1      46.374  31.456  27.868  1.00  0.00     0.031 A 
ATOM     40  C   UNL A   1      44.982  30.889  27.949  1.00  0.00     0.074 A 
ATOM     41  C   UNL A   1      47.406  30.672  27.496  1.00  0.00     0.049 A 
ATOM     42  N   UNL A   1      44.568  29.689  27.638  1.00  0.00    -0.248 NA
ATOM     43  C   UNL A   1      43.922  31.776  28.458  1.00  0.00     0.031 C 
ATOM     44  C   UNL A   1      48.807  31.095  27.423  1.00  0.00     0.029 A 
ATOM     45  N   UNL A   1      47.435  29.361  27.092  1.00  0.00    -0.354 N 
ATOM     46  C   UNL A   1      43.204  29.680  27.908  1.00  0.00     0.074 A 
ATOM     47  C   UNL A   1      42.874  30.966  28.478  1.00  0.00     0.031 C 
ATOM     48  C   UNL A   1      49.547  30.081  26.946  1.00  0.00     0.029 A 
ATOM     49  C   UNL A   1      48.684  28.927  26.712  1.00  0.00     0.049 A 
ATOM     50  H   UNL A   1      46.637  28.784  27.076  1.00  0.00     0.167 HD
ATOM     51  C   UNL A   1      42.298  28.706  27.665  1.00  0.00     0.031 A 
ATOM     52  C   UNL A   1      49.088  27.738  26.218  1.00  0.00     0.031 A 
ATOM     53  C   UNL A   1      42.625  27.433  27.086  1.00  0.00     0.049 A 
ATOM     54  C   UNL A   1      48.070  26.652  26.000  1.00  0.00     0.074 A 
ATOM     55  C   UNL A   1      41.771  26.398  26.753  1.00  0.00     0.029 A 
ATOM     56  N   UNL A   1      43.907  27.021  26.756  1.00  0.00    -0.354 N 
ATOM     57  N   UNL A   1      46.771  26.696  26.179  1.00  0.00    -0.248 NA
ATOM     58  C   UNL A   1      48.567  25.358  25.512  1.00  0.00     0.031 C 
ATOM     59  C   UNL A   1      42.543  25.335  26.278  1.00  0.00     0.029 A 
ATOM     60  C   UNL A   1      43.872  25.729  26.261  1.00  0.00     0.049 A 
ATOM     61  H   UNL A   1      44.720  27.565  26.860  1.00  0.00     0.167 HD
ATOM     62  C   UNL A   1      46.295  25.441  25.815  1.00  0.00     0.074 A 
ATOM     63  C   UNL A   1      47.441  24.668  25.385  1.00  0.00     0.031 C 
ATOM     64  C   UNL A   1      45.024  24.973  25.842  1.00  0.00     0.031 A 
BRANCH  51  65
ATOM     65  C   UNL A   1      40.860  28.988  28.009  1.00  0.00    -0.014 A 
ATOM     66  C   UNL A   1      39.935  29.325  27.003  1.00  0.00     0.010 A 
ATOM     67  C   UNL A   1      40.415  28.866  29.337  1.00  0.00     0.010 A 
ATOM     68  C   UNL A   1      38.598  29.570  27.325  1.00  0.00     0.020 A 
ATOM     69  C   UNL A   1      39.072  29.082  29.659  1.00  0.00     0.020 A 
ATOM     70  C   UNL A   1      38.175  29.446  28.652  1.00  0.00     0.054 A 
BRANCH  70  71
ATOM     71  S   UNL A   1      36.427  29.742  29.031  1.00  0.00     0.124 S 
ATOM     72  O   UNL A   1      36.354  31.201  28.999  1.00  0.00    -0.237 OA
ATOM     73  O   UNL A   1      35.744  29.055  27.938  1.00  0.00    -0.237 OA
ATOM     74  O   UNL A   1      36.250  29.141  30.350  1.00  0.00    -0.744 OA
ENDBRANCH  70  71
ENDBRANCH  51  65
BRANCH  52  75
ATOM     75  C   UNL A   1      50.521  27.526  25.871  1.00  0.00    -0.014 A 
ATOM     76  C   UNL A   1      51.393  26.914  26.789  1.00  0.00     0.010 A 
ATOM     77  C   UNL A   1      51.016  27.912  24.611  1.00  0.00     0.010 A 
ATOM     78  C   UNL A   1      52.734  26.696  26.456  1.00  0.00     0.020 A 
ATOM     79  C   UNL A   1      52.350  27.673  24.266  1.00  0.00     0.020 A 
ATOM     80  C   UNL A   1      53.202  27.072  25.193  1.00  0.00     0.054 A 
BRANCH  80  81
ATOM     81  S   UNL A   1      54.931  26.724  24.764  1.00  0.00     0.124 S 
ATOM     82  O   UNL A   1      55.618  27.898  25.290  1.00  0.00    -0.237 OA
ATOM     83  O   UNL A   1      55.182  25.471  25.473  1.00  0.00    -0.237 OA
ATOM     84  O   UNL A   1      54.907  26.613  23.307  1.00  0.00    -0.744 OA
ENDBRANCH  80  81
ENDBRANCH  52  75
BRANCH  64  85
ATOM     85  C   UNL A   1      44.786  23.550  25.411  1.00  0.00    -0.014 A 
ATOM     86  C   UNL A   1      44.925  23.182  24.063  1.00  0.00     0.010 A 
ATOM     87  C   UNL A   1      44.562  22.553  26.379  1.00  0.00     0.010 A 
ATOM     88  C   UNL A   1      44.855  21.838  23.689  1.00  0.00     0.020 A 
ATOM     89  C   UNL A   1      44.516  21.206  26.012  1.00  0.00     0.020 A 
ATOM     90  C   UNL A   1      44.664  20.858  24.668  1.00  0.00     0.054 A 
BRANCH  90  91
ATOM     91  S   UNL A   1      44.686  19.116  24.162  1.00  0.00     0.124 S 
ATOM     92  O   UNL A   1      44.493  19.214  22.718  1.00  0.00    -0.237 OA
ATOM     93  O   UNL A   1      46.013  18.679  24.591  1.00  0.00    -0.237 OA
ATOM     94  O   UNL A   1      43.573  18.526  24.901  1.00  0.00    -0.744 OA
ENDBRANCH  90  91
ENDBRANCH  64  85
ENDBRANCH  38  39
ENDBRANCH  30  33
ENDBRANCH  28  29
ENDBRANCH  27  28
ENDBRANCH   1  27
TORSDOF 18
ENDMDL
MODEL 3
REMARK VINA RESULT:     -11.1      1.178      1.769
REMARK SMILES Cc1nn(C)c(=O)c(C(=O)N2CCCC[C@H]2C(=O)NCCCCCCNC(=O)c2ccc(-c3c4nc(c(-c5ccc(S(=O)(=O)[O-])cc5)c5ccc([nH]5)c(-c5ccc(S(=O)(=O)[O-])cc5)c5nc(c(-c6ccc(S(=O)(=O)[O-])cc6)c6ccc3[nH]6)C=C5)C=C4)cc2)c1C
REMARK SMILES IDX 23 1 22 2 21 3 20 4 19 5 17 6 18 7 16 9 11 10 12 11 13 12
REMARK SMILES IDX 15 13 14 14 9 15 10 16 8 17 1 18 2 19 3 20 89 21 4 22 90 23
REMARK SMILES IDX 5 24 6 25 7 26 24 27 25 28 26 29 27 30 28 32 29 33 30 34
REMARK SMILES IDX 88 35 31 36 87 37 32 38 33 39 34 40 81 41 35 42 86 43 80 44
REMARK SMILES IDX 82 45 36 46 85 47 79 48 78 49 37 51 67 52 48 53 66 54 49 55
REMARK SMILES IDX 52 56 65 57 83 58 50 59 51 60 64 62 84 63 53 64 38 65 39 66
REMARK SMILES IDX 47 67 40 68 46 69 41 70 42 71 43 72 44 73 45 74 68 75 69 76
REMARK SMILES IDX 77 77 70 78 76 79 71 80 72 81 73 82 74 83 75 84 54 85 55 86
REMARK SMILES IDX 63 87 56 88 62 89 57 90 58 91 59 92 60 93 61 94
REMARK H PARENT 19 8 26 31 82 50 52 61
REMARK Flexibility Score: inf
ROOT
ATOM      1  C   UNL A   1      35.404  32.634  27.937  1.00  0.00     0.002 C 
ENDROOT
BRANCH   1   2
ATOM      2  C   UNL A   1      35.012  31.160  28.011  1.00  0.00     0.002 C 
BRANCH   2   3
ATOM      3  C   UNL A   1      34.026  30.687  26.934  1.00  0.00     0.021 C 
BRANCH   3   4
ATOM      4  C   UNL A   1      32.794  29.940  27.455  1.00  0.00     0.116 C 
BRANCH   4   5
ATOM      5  N   UNL A   1      32.959  28.507  27.636  1.00  0.00    -0.354 N 
ATOM      6  C   UNL A   1      31.965  27.648  27.234  1.00  0.00     0.242 C 
ATOM      7  O   UNL A   1      30.880  27.656  27.814  1.00  0.00    -0.273 OA
ATOM      8  H   UNL A   1      33.781  28.152  28.045  1.00  0.00     0.163 HD
BRANCH   6   9
ATOM      9  C   UNL A   1      32.319  26.618  26.128  1.00  0.00     0.174 C 
ATOM     10  N   UNL A   1      31.319  25.528  26.106  1.00  0.00    -0.326 N 
ATOM     11  C   UNL A   1      29.958  25.954  25.711  1.00  0.00     0.120 C 
ATOM     12  C   UNL A   1      29.924  26.752  24.410  1.00  0.00     0.022 C 
ATOM     13  C   UNL A   1      32.343  27.330  24.759  1.00  0.00     0.035 C 
ATOM     14  C   UNL A   1      30.961  27.867  24.380  1.00  0.00     0.004 C 
BRANCH  10  15
ATOM     15  C   UNL A   1      31.513  24.161  26.259  1.00  0.00     0.260 C 
ATOM     16  O   UNL A   1      30.905  23.616  27.192  1.00  0.00    -0.269 OA
BRANCH  15  17
ATOM     17  C   UNL A   1      32.506  23.279  25.487  1.00  0.00     0.111 A 
ATOM     18  C   UNL A   1      35.557  20.953  25.511  1.00  0.00     0.069 C 
ATOM     19  C   UNL A   1      34.241  21.593  25.106  1.00  0.00     0.062 A 
ATOM     20  N   UNL A   1      33.683  21.069  24.070  1.00  0.00    -0.175 NA
ATOM     21  C   UNL A   1      33.658  22.711  25.923  1.00  0.00    -0.010 A 
ATOM     22  N   UNL A   1      32.530  21.624  23.628  1.00  0.00    -0.232 N 
ATOM     23  C   UNL A   1      34.344  22.954  27.218  1.00  0.00     0.047 C 
ATOM     24  C   UNL A   1      31.952  20.970  22.466  1.00  0.00     0.178 C 
ATOM     25  C   UNL A   1      31.991  22.799  24.133  1.00  0.00     0.279 A 
ATOM     26  O   UNL A   1      31.139  23.428  23.504  1.00  0.00    -0.267 OA
ENDBRANCH  15  17
ENDBRANCH  10  15
ENDBRANCH   6   9
ENDBRANCH   4   5
ENDBRANCH   3   4
ENDBRANCH   2   3
ENDBRANCH   1   2
BRANCH   1  27
ATOM     27  C   UNL A   1      35.347  33.369  29.272  1.00  0.00     0.021 C 
BRANCH  27  28
ATOM     28  C   UNL A   1      36.556  33.127  30.164  1.00  0.00     0.116 C 
BRANCH  28  29
ATOM     29  N   UNL A   1      36.258  32.220  31.259  1.00  0.00    -0.352 N 
ATOM     30  C   UNL A   1      36.915  31.067  31.621  1.00  0.00     0.251 C 
ATOM     31  H   UNL A   1      35.483  32.463  31.816  1.00  0.00     0.163 HD
ATOM     32  O   UNL A   1      36.430  30.305  32.443  1.00  0.00    -0.269 OA
BRANCH  30  33
ATOM     33  C   UNL A   1      38.204  30.749  30.967  1.00  0.00     0.039 A 
ATOM     34  C   UNL A   1      39.321  30.496  31.764  1.00  0.00     0.014 A 
ATOM     35  C   UNL A   1      38.291  30.657  29.575  1.00  0.00     0.014 A 
ATOM     36  C   UNL A   1      40.514  30.094  31.162  1.00  0.00     0.010 A 
ATOM     37  C   UNL A   1      39.451  30.166  28.987  1.00  0.00     0.010 A 
ATOM     38  C   UNL A   1      40.579  29.895  29.772  1.00  0.00    -0.014 A 
BRANCH  38  39
ATOM     39  C   UNL A   1      41.841  29.439  29.134  1.00  0.00     0.031 A 
ATOM     40  C   UNL A   1      43.006  30.384  29.013  1.00  0.00     0.074 A 
ATOM     41  C   UNL A   1      41.938  28.178  28.665  1.00  0.00     0.049 A 
ATOM     42  N   UNL A   1      44.205  30.151  28.548  1.00  0.00    -0.248 NA
ATOM     43  C   UNL A   1      42.794  31.773  29.454  1.00  0.00     0.031 C 
ATOM     44  C   UNL A   1      40.864  27.182  28.684  1.00  0.00     0.029 A 
ATOM     45  N   UNL A   1      42.996  27.512  28.098  1.00  0.00    -0.354 N 
ATOM     46  C   UNL A   1      44.888  31.358  28.647  1.00  0.00     0.074 A 
ATOM     47  C   UNL A   1      43.951  32.339  29.144  1.00  0.00     0.031 C 
ATOM     48  C   UNL A   1      41.335  26.018  28.207  1.00  0.00     0.029 A 
ATOM     49  C   UNL A   1      42.731  26.192  27.815  1.00  0.00     0.049 A 
ATOM     50  H   UNL A   1      43.863  27.939  27.910  1.00  0.00     0.167 HD
ATOM     51  C   UNL A   1      46.190  31.619  28.389  1.00  0.00     0.031 A 
ATOM     52  C   UNL A   1      43.526  25.226  27.311  1.00  0.00     0.031 A 
ATOM     53  C   UNL A   1      47.124  30.640  27.908  1.00  0.00     0.049 A 
ATOM     54  C   UNL A   1      44.959  25.551  26.987  1.00  0.00     0.074 A 
ATOM     55  C   UNL A   1      48.476  30.792  27.664  1.00  0.00     0.029 A 
ATOM     56  N   UNL A   1      46.803  29.328  27.596  1.00  0.00    -0.354 N 
ATOM     57  N   UNL A   1      45.607  26.676  27.172  1.00  0.00    -0.248 NA
ATOM     58  C   UNL A   1      45.768  24.480  26.388  1.00  0.00     0.031 C 
ATOM     59  C   UNL A   1      48.961  29.589  27.146  1.00  0.00     0.029 A 
ATOM     60  C   UNL A   1      47.924  28.670  27.122  1.00  0.00     0.049 A 
ATOM     61  H   UNL A   1      45.911  28.925  27.696  1.00  0.00     0.167 HD
ATOM     62  C   UNL A   1      46.903  26.445  26.723  1.00  0.00     0.074 A 
ATOM     63  C   UNL A   1      46.953  25.067  26.278  1.00  0.00     0.031 C 
ATOM     64  C   UNL A   1      47.954  27.299  26.679  1.00  0.00     0.031 A 
BRANCH  51  65
ATOM     65  C   UNL A   1      46.685  33.017  28.640  1.00  0.00    -0.014 A 
ATOM     66  C   UNL A   1      47.236  33.371  29.886  1.00  0.00     0.010 A 
ATOM     67  C   UNL A   1      46.649  33.975  27.611  1.00  0.00     0.010 A 
ATOM     68  C   UNL A   1      47.709  34.666  30.109  1.00  0.00     0.020 A 
ATOM     69  C   UNL A   1      47.147  35.264  27.821  1.00  0.00     0.020 A 
ATOM     70  C   UNL A   1      47.662  35.604  29.074  1.00  0.00     0.054 A 
BRANCH  70  71
ATOM     71  S   UNL A   1      48.312  37.268  29.388  1.00  0.00     0.124 S 
ATOM     72  O   UNL A   1      49.668  37.167  28.854  1.00  0.00    -0.237 OA
ATOM     73  O   UNL A   1      47.397  38.115  28.625  1.00  0.00    -0.237 OA
ATOM     74  O   UNL A   1      48.224  37.408  30.839  1.00  0.00    -0.744 OA
ENDBRANCH  70  71
ENDBRANCH  51  65
BRANCH  52  75
ATOM     75  C   UNL A   1      42.987  23.851  27.108  1.00  0.00    -0.014 A 
ATOM     76  C   UNL A   1      42.972  22.929  28.170  1.00  0.00     0.010 A 
ATOM     77  C   UNL A   1      42.462  23.465  25.861  1.00  0.00     0.010 A 
ATOM     78  C   UNL A   1      42.448  21.645  27.986  1.00  0.00     0.020 A 
ATOM     79  C   UNL A   1      41.914  22.191  25.681  1.00  0.00     0.020 A 
ATOM     80  C   UNL A   1      41.917  21.287  26.744  1.00  0.00     0.054 A 
BRANCH  80  81
ATOM     81  S   UNL A   1      41.188  19.636  26.550  1.00  0.00     0.124 S 
ATOM     82  O   UNL A   1      39.929  19.936  25.877  1.00  0.00    -0.237 OA
ATOM     83  O   UNL A   1      42.191  18.945  25.742  1.00  0.00    -0.237 OA
ATOM     84  O   UNL A   1      41.064  19.152  27.923  1.00  0.00    -0.744 OA
ENDBRANCH  80  81
ENDBRANCH  52  75
BRANCH  64  85
ATOM     85  C   UNL A   1      49.254  26.792  26.118  1.00  0.00    -0.014 A 
ATOM     86  C   UNL A   1      49.563  26.975  24.759  1.00  0.00     0.010 A 
ATOM     87  C   UNL A   1      50.229  26.257  26.981  1.00  0.00     0.010 A 
ATOM     88  C   UNL A   1      50.829  26.641  24.274  1.00  0.00     0.020 A 
ATOM     89  C   UNL A   1      51.505  25.946  26.504  1.00  0.00     0.020 A 
ATOM     90  C   UNL A   1      51.796  26.142  25.152  1.00  0.00     0.054 A 
BRANCH  90  91
ATOM     91  S   UNL A   1      53.463  25.821  24.512  1.00  0.00     0.124 S 
ATOM     92  O   UNL A   1      53.508  24.362  24.494  1.00  0.00    -0.237 OA
ATOM     93  O   UNL A   1      53.427  26.465  23.200  1.00  0.00    -0.237 OA
ATOM     94  O   UNL A   1      54.340  26.460  25.489  1.00  0.00    -0.744 OA
ENDBRANCH  90  91
ENDBRANCH  64  85
ENDBRANCH  38  39
ENDBRANCH  30  33
ENDBRANCH  28  29
ENDBRANCH  27  28
ENDBRANCH   1  27
TORSDOF 18
ENDMDL
