MODEL 1
REMARK VINA RESULT:     -12.2      0.000      0.000
REMARK SMILES O=C1CCCC2=C1[C@H](c1ccc([N+](=O)[O-])cc1)CC(=O)N2c1ccccc1C(=O)NCCCCCCNC(=O)c1ccc(-c2c3nc(c(-c4ccc(S(=O)(=O)[O-])cc4)c4ccc([nH]4)c(-c4ccc(S(=O)(=O)[O-])cc4)c4nc(c(-c5ccc(S(=O)(=O)[O-])cc5)c5ccc2[nH]5)C=C4)C=C3)cc1
REMARK SMILES IDX 33 1 32 2 31 3 30 4 28 5 29 6 27 8 22 9 23 10 24 11 26 12
REMARK SMILES IDX 25 13 21 14 1 15 2 16 3 17 7 18 4 19 6 20 8 21 5 22 18 23
REMARK SMILES IDX 19 24 20 25 9 26 10 27 17 28 11 29 16 30 12 31 13 32 14 33
REMARK SMILES IDX 15 34 34 35 35 36 36 37 37 38 38 39 39 41 40 42 41 43 99 44
REMARK SMILES IDX 42 45 98 46 43 47 44 48 45 49 92 50 46 51 97 52 91 53 93 54
REMARK SMILES IDX 47 55 96 56 90 57 89 58 48 60 78 61 59 62 77 63 60 64 63 65
REMARK SMILES IDX 76 66 94 67 61 68 62 69 75 71 95 72 64 73 49 74 50 75 58 76
REMARK SMILES IDX 51 77 57 78 52 79 53 80 54 81 55 82 56 83 79 84 80 85 88 86
REMARK SMILES IDX 81 87 87 88 82 89 83 90 84 91 85 92 86 93 65 94 66 95 74 96
REMARK SMILES IDX 67 97 73 98 68 99 69 100 70 101 71 102 72 103
REMARK H PARENT 30 7 37 40 93 59 63 70
REMARK Flexibility Score: inf
ROOT
ATOM      1  C   UNL A   1      34.944  31.663  27.777  1.00  0.00     0.002 C 
ENDROOT
BRANCH   1   2
ATOM      2  C   UNL A   1      33.523  31.184  27.291  1.00  0.00     0.021 C 
BRANCH   2   3
ATOM      3  C   UNL A   1      32.863  29.820  27.556  1.00  0.00     0.116 C 
BRANCH   3   4
ATOM      4  N   UNL A   1      33.524  28.646  26.987  1.00  0.00    -0.352 N 
ATOM      5  C   UNL A   1      33.425  27.880  25.840  1.00  0.00     0.253 C 
ATOM      6  O   UNL A   1      34.405  27.123  25.721  1.00  0.00    -0.269 OA
ATOM      7  H   UNL A   1      34.232  28.311  27.582  1.00  0.00     0.163 HD
BRANCH   5   8
ATOM      8  C   UNL A   1      32.379  27.806  24.725  1.00  0.00     0.063 A 
ATOM      9  C   UNL A   1      31.932  26.765  23.884  1.00  0.00     0.061 A 
ATOM     10  C   UNL A   1      30.913  27.003  22.910  1.00  0.00     0.027 A 
ATOM     11  C   UNL A   1      30.331  28.246  22.724  1.00  0.00     0.002 A 
ATOM     12  C   UNL A   1      31.757  29.072  24.478  1.00  0.00     0.016 A 
ATOM     13  C   UNL A   1      30.764  29.292  23.509  1.00  0.00     0.001 A 
BRANCH   9  14
ATOM     14  N   UNL A   1      32.323  25.396  23.936  1.00  0.00    -0.284 N 
ATOM     15  O   UNL A   1      31.341  21.122  25.384  1.00  0.00    -0.294 OA
ATOM     16  C   UNL A   1      31.378  22.313  25.676  1.00  0.00     0.161 C 
ATOM     17  C   UNL A   1      30.619  22.878  26.865  1.00  0.00     0.081 C 
ATOM     18  C   UNL A   1      32.243  23.252  24.907  1.00  0.00     0.023 C 
ATOM     19  C   UNL A   1      29.693  23.967  26.394  1.00  0.00     0.015 C 
ATOM     20  C   UNL A   1      31.687  24.481  24.779  1.00  0.00     0.033 C 
ATOM     21  C   UNL A   1      33.457  22.771  24.073  1.00  0.00     0.064 C 
ATOM     22  C   UNL A   1      30.410  24.959  25.484  1.00  0.00     0.055 C 
ATOM     23  C   UNL A   1      33.286  23.457  22.726  1.00  0.00     0.114 C 
ATOM     24  C   UNL A   1      33.198  24.959  22.914  1.00  0.00     0.232 C 
ATOM     25  O   UNL A   1      33.819  25.712  22.161  1.00  0.00    -0.274 OA
BRANCH  21  26
ATOM     26  C   UNL A   1      34.936  22.908  24.597  1.00  0.00    -0.039 A 
ATOM     27  C   UNL A   1      36.081  22.329  24.006  1.00  0.00     0.011 A 
ATOM     28  C   UNL A   1      35.184  23.507  25.838  1.00  0.00     0.011 A 
ATOM     29  C   UNL A   1      37.379  22.449  24.567  1.00  0.00     0.086 A 
ATOM     30  C   UNL A   1      36.464  23.698  26.394  1.00  0.00     0.086 A 
ATOM     31  C   UNL A   1      37.572  23.181  25.738  1.00  0.00     0.269 A 
BRANCH  31  32
ATOM     32  N   UNL A   1      38.920  23.425  26.266  1.00  0.00     0.062 N 
ATOM     33  O   UNL A   1      39.538  22.463  26.742  1.00  0.00    -0.258 OA
ATOM     34  O   UNL A   1      39.376  24.575  26.169  1.00  0.00    -0.258 OA
ENDBRANCH  31  32
ENDBRANCH  21  26
ENDBRANCH   9  14
ENDBRANCH   5   8
ENDBRANCH   3   4
ENDBRANCH   2   3
ENDBRANCH   1   2
BRANCH   1  35
ATOM     35  C   UNL A   1      35.649  33.050  27.988  1.00  0.00     0.002 C 
BRANCH  35  36
ATOM     36  C   UNL A   1      36.854  33.381  28.888  1.00  0.00     0.021 C 
BRANCH  36  37
ATOM     37  C   UNL A   1      37.107  33.075  30.400  1.00  0.00     0.116 C 
BRANCH  37  38
ATOM     38  N   UNL A   1      36.424  31.971  31.029  1.00  0.00    -0.352 N 
ATOM     39  C   UNL A   1      36.753  30.622  30.923  1.00  0.00     0.251 C 
ATOM     40  H   UNL A   1      35.647  32.193  31.590  1.00  0.00     0.163 HD
ATOM     41  O   UNL A   1      35.932  29.772  31.227  1.00  0.00    -0.269 OA
BRANCH  39  42
ATOM     42  C   UNL A   1      38.095  30.189  30.439  1.00  0.00     0.039 A 
ATOM     43  C   UNL A   1      39.141  30.000  31.350  1.00  0.00     0.014 A 
ATOM     44  C   UNL A   1      38.357  30.092  29.069  1.00  0.00     0.014 A 
ATOM     45  C   UNL A   1      40.426  29.653  30.892  1.00  0.00     0.010 A 
ATOM     46  C   UNL A   1      39.636  29.723  28.616  1.00  0.00     0.010 A 
ATOM     47  C   UNL A   1      40.687  29.490  29.521  1.00  0.00    -0.014 A 
BRANCH  47  48
ATOM     48  C   UNL A   1      42.033  29.055  29.032  1.00  0.00     0.031 A 
ATOM     49  C   UNL A   1      43.174  30.036  28.912  1.00  0.00     0.074 A 
ATOM     50  C   UNL A   1      42.227  27.778  28.640  1.00  0.00     0.049 A 
ATOM     51  N   UNL A   1      44.390  29.843  28.461  1.00  0.00    -0.248 NA
ATOM     52  C   UNL A   1      42.904  31.415  29.340  1.00  0.00     0.031 C 
ATOM     53  C   UNL A   1      41.210  26.727  28.677  1.00  0.00     0.029 A 
ATOM     54  N   UNL A   1      43.335  27.149  28.120  1.00  0.00    -0.354 N 
ATOM     55  C   UNL A   1      45.027  31.079  28.535  1.00  0.00     0.074 A 
ATOM     56  C   UNL A   1      44.047  32.019  29.041  1.00  0.00     0.031 C 
ATOM     57  C   UNL A   1      41.738  25.587  28.205  1.00  0.00     0.029 A 
ATOM     58  C   UNL A   1      43.121  25.829  27.796  1.00  0.00     0.049 A 
ATOM     59  H   UNL A   1      44.201  27.601  27.993  1.00  0.00     0.167 HD
ATOM     60  C   UNL A   1      46.307  31.403  28.220  1.00  0.00     0.031 A 
ATOM     61  C   UNL A   1      43.928  24.914  27.219  1.00  0.00     0.031 A 
ATOM     62  C   UNL A   1      47.278  30.472  27.704  1.00  0.00     0.049 A 
ATOM     63  C   UNL A   1      45.340  25.289  26.861  1.00  0.00     0.074 A 
ATOM     64  C   UNL A   1      48.609  30.696  27.393  1.00  0.00     0.029 A 
ATOM     65  N   UNL A   1      47.020  29.140  27.411  1.00  0.00    -0.354 N 
ATOM     66  N   UNL A   1      45.939  26.448  26.999  1.00  0.00    -0.248 NA
ATOM     67  C   UNL A   1      46.190  24.239  26.283  1.00  0.00     0.031 C 
ATOM     68  C   UNL A   1      49.140  29.517  26.861  1.00  0.00     0.029 A 
ATOM     69  C   UNL A   1      48.159  28.537  26.900  1.00  0.00     0.049 A 
ATOM     70  H   UNL A   1      46.156  28.689  27.546  1.00  0.00     0.167 HD
ATOM     71  C   UNL A   1      47.243  26.259  26.551  1.00  0.00     0.074 A 
ATOM     72  C   UNL A   1      47.347  24.875  26.140  1.00  0.00     0.031 C 
ATOM     73  C   UNL A   1      48.259  27.155  26.498  1.00  0.00     0.031 A 
BRANCH  60  74
ATOM     74  C   UNL A   1      46.717  32.848  28.392  1.00  0.00    -0.014 A 
ATOM     75  C   UNL A   1      47.244  33.319  29.610  1.00  0.00     0.010 A 
ATOM     76  C   UNL A   1      46.568  33.749  27.323  1.00  0.00     0.010 A 
ATOM     77  C   UNL A   1      47.533  34.677  29.779  1.00  0.00     0.020 A 
ATOM     78  C   UNL A   1      46.886  35.102  27.476  1.00  0.00     0.020 A 
ATOM     79  C   UNL A   1      47.336  35.563  28.716  1.00  0.00     0.054 A 
BRANCH  79  80
ATOM     80  S   UNL A   1      47.668  37.328  28.978  1.00  0.00     0.124 S 
ATOM     81  O   UNL A   1      47.445  37.464  30.415  1.00  0.00    -0.237 OA
ATOM     82  O   UNL A   1      49.056  37.462  28.542  1.00  0.00    -0.237 OA
ATOM     83  O   UNL A   1      46.684  37.995  28.130  1.00  0.00    -0.744 OA
ENDBRANCH  79  80
ENDBRANCH  60  74
BRANCH  61  84
ATOM     84  C   UNL A   1      43.399  23.546  26.947  1.00  0.00    -0.014 A 
ATOM     85  C   UNL A   1      43.126  23.123  25.635  1.00  0.00     0.010 A 
ATOM     86  C   UNL A   1      43.236  22.631  28.005  1.00  0.00     0.010 A 
ATOM     87  C   UNL A   1      42.714  21.810  25.384  1.00  0.00     0.020 A 
ATOM     88  C   UNL A   1      42.848  21.312  27.756  1.00  0.00     0.020 A 
ATOM     89  C   UNL A   1      42.589  20.909  26.445  1.00  0.00     0.054 A 
BRANCH  89  90
ATOM     90  S   UNL A   1      42.160  19.181  26.084  1.00  0.00     0.124 S 
ATOM     91  O   UNL A   1      40.719  19.264  25.863  1.00  0.00    -0.237 OA
ATOM     92  O   UNL A   1      42.968  18.897  24.901  1.00  0.00    -0.237 OA
ATOM     93  O   UNL A   1      42.568  18.468  27.293  1.00  0.00    -0.744 OA
ENDBRANCH  89  90
ENDBRANCH  61  84
BRANCH  73  94
ATOM     94  C   UNL A   1      49.603  26.676  26.010  1.00  0.00    -0.014 A 
ATOM     95  C   UNL A   1      50.093  27.034  24.744  1.00  0.00     0.010 A 
ATOM     96  C   UNL A   1      50.434  25.956  26.889  1.00  0.00     0.010 A 
ATOM     97  C   UNL A   1      51.393  26.684  24.365  1.00  0.00     0.020 A 
ATOM     98  C   UNL A   1      51.741  25.624  26.523  1.00  0.00     0.020 A 
ATOM     99  C   UNL A   1      52.213  25.989  25.261  1.00  0.00     0.054 A 
BRANCH  99 100
ATOM    100  S   UNL A   1      53.929  25.638  24.785  1.00  0.00     0.124 S 
ATOM    101  O   UNL A   1      53.920  25.955  23.360  1.00  0.00    -0.237 OA
ATOM    102  O   UNL A   1      54.689  26.556  25.629  1.00  0.00    -0.237 OA
ATOM    103  O   UNL A   1      54.095  24.223  25.107  1.00  0.00    -0.744 OA
ENDBRANCH  99 100
ENDBRANCH  73  94
ENDBRANCH  47  48
ENDBRANCH  39  42
ENDBRANCH  37  38
ENDBRANCH  36  37
ENDBRANCH  35  36
ENDBRANCH   1  35
TORSDOF 19
ENDMDL
MODEL 2
REMARK VINA RESULT:     -11.4      2.293      8.911
REMARK SMILES O=C1CCCC2=C1[C@H](c1ccc([N+](=O)[O-])cc1)CC(=O)N2c1ccccc1C(=O)NCCCCCCNC(=O)c1ccc(-c2c3nc(c(-c4ccc(S(=O)(=O)[O-])cc4)c4ccc([nH]4)c(-c4ccc(S(=O)(=O)[O-])cc4)c4nc(c(-c5ccc(S(=O)(=O)[O-])cc5)c5ccc2[nH]5)C=C4)C=C3)cc1
REMARK SMILES IDX 33 1 32 2 31 3 30 4 28 5 29 6 27 8 22 9 23 10 24 11 26 12
REMARK SMILES IDX 25 13 21 14 1 15 2 16 3 17 7 18 4 19 6 20 8 21 5 22 18 23
REMARK SMILES IDX 19 24 20 25 9 26 10 27 17 28 11 29 16 30 12 31 13 32 14 33
REMARK SMILES IDX 15 34 34 35 35 36 36 37 37 38 38 39 39 41 40 42 41 43 99 44
REMARK SMILES IDX 42 45 98 46 43 47 44 48 45 49 92 50 46 51 97 52 91 53 93 54
REMARK SMILES IDX 47 55 96 56 90 57 89 58 48 60 78 61 59 62 77 63 60 64 63 65
REMARK SMILES IDX 76 66 94 67 61 68 62 69 75 71 95 72 64 73 49 74 50 75 58 76
REMARK SMILES IDX 51 77 57 78 52 79 53 80 54 81 55 82 56 83 79 84 80 85 88 86
REMARK SMILES IDX 81 87 87 88 82 89 83 90 84 91 85 92 86 93 65 94 66 95 74 96
REMARK SMILES IDX 67 97 73 98 68 99 69 100 70 101 71 102 72 103
REMARK H PARENT 30 7 37 40 93 59 63 70
REMARK Flexibility Score: inf
ROOT
ATOM      1  C   UNL A   1      39.421  21.951  26.191  1.00  0.00     0.002 C 
ENDROOT
BRANCH   1   2
ATOM      2  C   UNL A   1      38.160  21.489  25.364  1.00  0.00     0.021 C 
BRANCH   2   3
ATOM      3  C   UNL A   1      37.391  22.305  24.311  1.00  0.00     0.116 C 
BRANCH   3   4
ATOM      4  N   UNL A   1      36.613  23.444  24.798  1.00  0.00    -0.352 N 
ATOM      5  C   UNL A   1      35.336  23.672  25.276  1.00  0.00     0.253 C 
ATOM      6  O   UNL A   1      35.249  24.797  25.801  1.00  0.00    -0.269 OA
ATOM      7  H   UNL A   1      37.144  24.272  24.782  1.00  0.00     0.163 HD
BRANCH   5   8
ATOM      8  C   UNL A   1      34.062  22.824  25.290  1.00  0.00     0.063 A 
ATOM      9  C   UNL A   1      32.689  23.136  25.200  1.00  0.00     0.061 A 
ATOM     10  C   UNL A   1      31.704  22.101  25.243  1.00  0.00     0.027 A 
ATOM     11  C   UNL A   1      32.029  20.763  25.393  1.00  0.00     0.002 A 
ATOM     12  C   UNL A   1      34.340  21.430  25.463  1.00  0.00     0.016 A 
ATOM     13  C   UNL A   1      33.359  20.425  25.514  1.00  0.00     0.001 A 
BRANCH   9  14
ATOM     14  N   UNL A   1      32.117  24.420  24.967  1.00  0.00    -0.284 N 
ATOM     15  O   UNL A   1      30.659  27.527  21.878  1.00  0.00    -0.294 OA
ATOM     16  C   UNL A   1      31.538  26.727  22.181  1.00  0.00     0.161 C 
ATOM     17  C   UNL A   1      32.538  26.204  21.163  1.00  0.00     0.081 C 
ATOM     18  C   UNL A   1      31.706  26.289  23.595  1.00  0.00     0.023 C 
ATOM     19  C   UNL A   1      32.466  24.701  21.119  1.00  0.00     0.015 C 
ATOM     20  C   UNL A   1      32.091  24.994  23.694  1.00  0.00     0.033 C 
ATOM     21  C   UNL A   1      31.170  27.116  24.791  1.00  0.00     0.064 C 
ATOM     22  C   UNL A   1      32.506  24.095  22.519  1.00  0.00     0.055 C 
ATOM     23  C   UNL A   1      30.427  26.101  25.648  1.00  0.00     0.114 C 
ATOM     24  C   UNL A   1      31.353  24.962  26.027  1.00  0.00     0.232 C 
ATOM     25  O   UNL A   1      31.357  24.528  27.180  1.00  0.00    -0.274 OA
BRANCH  21  26
ATOM     26  C   UNL A   1      32.113  28.020  25.670  1.00  0.00    -0.039 A 
ATOM     27  C   UNL A   1      31.696  29.049  26.543  1.00  0.00     0.011 A 
ATOM     28  C   UNL A   1      33.501  27.957  25.494  1.00  0.00     0.011 A 
ATOM     29  C   UNL A   1      32.609  29.862  27.264  1.00  0.00     0.086 A 
ATOM     30  C   UNL A   1      34.437  28.705  26.236  1.00  0.00     0.086 A 
ATOM     31  C   UNL A   1      33.982  29.651  27.144  1.00  0.00     0.269 A 
BRANCH  31  32
ATOM     32  N   UNL A   1      34.939  30.394  27.973  1.00  0.00     0.062 N 
ATOM     33  O   UNL A   1      36.127  30.043  27.941  1.00  0.00    -0.258 OA
ATOM     34  O   UNL A   1      34.508  31.355  28.629  1.00  0.00    -0.258 OA
ENDBRANCH  31  32
ENDBRANCH  21  26
ENDBRANCH   9  14
ENDBRANCH   5   8
ENDBRANCH   3   4
ENDBRANCH   2   3
ENDBRANCH   1   2
BRANCH   1  35
ATOM     35  C   UNL A   1      40.814  21.326  26.555  1.00  0.00     0.002 C 
BRANCH  35  36
ATOM     36  C   UNL A   1      41.282  19.869  26.380  1.00  0.00     0.021 C 
BRANCH  36  37
ATOM     37  C   UNL A   1      42.709  19.241  26.487  1.00  0.00     0.116 C 
BRANCH  37  38
ATOM     38  N   UNL A   1      43.456  18.954  25.285  1.00  0.00    -0.352 N 
ATOM     39  C   UNL A   1      44.102  19.879  24.469  1.00  0.00     0.251 C 
ATOM     40  H   UNL A   1      43.514  18.010  25.016  1.00  0.00     0.163 HD
ATOM     41  O   UNL A   1      44.418  19.568  23.332  1.00  0.00    -0.269 OA
BRANCH  39  42
ATOM     42  C   UNL A   1      44.414  21.254  24.954  1.00  0.00     0.039 A 
ATOM     43  C   UNL A   1      45.273  21.434  26.045  1.00  0.00     0.014 A 
ATOM     44  C   UNL A   1      43.757  22.363  24.413  1.00  0.00     0.014 A 
ATOM     45  C   UNL A   1      45.521  22.725  26.547  1.00  0.00     0.010 A 
ATOM     46  C   UNL A   1      44.024  23.654  24.902  1.00  0.00     0.010 A 
ATOM     47  C   UNL A   1      44.917  23.856  25.970  1.00  0.00    -0.014 A 
BRANCH  47  48
ATOM     48  C   UNL A   1      45.229  25.237  26.455  1.00  0.00     0.031 A 
ATOM     49  C   UNL A   1      46.580  25.862  26.212  1.00  0.00     0.074 A 
ATOM     50  C   UNL A   1      44.311  25.923  27.168  1.00  0.00     0.049 A 
ATOM     51  N   UNL A   1      47.039  27.027  26.605  1.00  0.00    -0.248 NA
ATOM     52  C   UNL A   1      47.546  25.067  25.442  1.00  0.00     0.031 C 
ATOM     53  C   UNL A   1      42.972  25.435  27.501  1.00  0.00     0.029 A 
ATOM     54  N   UNL A   1      44.366  27.166  27.755  1.00  0.00    -0.354 N 
ATOM     55  C   UNL A   1      48.350  27.098  26.144  1.00  0.00     0.074 A 
ATOM     56  C   UNL A   1      48.622  25.841  25.475  1.00  0.00     0.031 C 
ATOM     57  C   UNL A   1      42.333  26.364  28.227  1.00  0.00     0.029 A 
ATOM     58  C   UNL A   1      43.224  27.502  28.447  1.00  0.00     0.049 A 
ATOM     59  H   UNL A   1      45.148  27.760  27.687  1.00  0.00     0.167 HD
ATOM     60  C   UNL A   1      49.245  28.113  26.259  1.00  0.00     0.031 A 
ATOM     61  C   UNL A   1      42.923  28.588  29.191  1.00  0.00     0.031 A 
ATOM     62  C   UNL A   1      48.979  29.357  26.936  1.00  0.00     0.049 A 
ATOM     63  C   UNL A   1      43.928  29.700  29.322  1.00  0.00     0.074 A 
ATOM     64  C   UNL A   1      49.807  30.460  27.070  1.00  0.00     0.029 A 
ATOM     65  N   UNL A   1      47.802  29.660  27.604  1.00  0.00    -0.354 N 
ATOM     66  N   UNL A   1      45.140  29.771  28.824  1.00  0.00    -0.248 NA
ATOM     67  C   UNL A   1      43.528  30.880  30.101  1.00  0.00     0.031 C 
ATOM     68  C   UNL A   1      49.151  31.405  27.866  1.00  0.00     0.029 A 
ATOM     69  C   UNL A   1      47.889  30.921  28.173  1.00  0.00     0.049 A 
ATOM     70  H   UNL A   1      47.019  29.067  27.665  1.00  0.00     0.167 HD
ATOM     71  C   UNL A   1      45.636  31.014  29.205  1.00  0.00     0.074 A 
ATOM     72  C   UNL A   1      44.594  31.663  29.974  1.00  0.00     0.031 C 
ATOM     73  C   UNL A   1      46.844  31.565  28.932  1.00  0.00     0.031 A 
BRANCH  60  74
ATOM     74  C   UNL A   1      50.617  27.896  25.664  1.00  0.00    -0.014 A 
ATOM     75  C   UNL A   1      50.962  28.426  24.406  1.00  0.00     0.010 A 
ATOM     76  C   UNL A   1      51.575  27.146  26.370  1.00  0.00     0.010 A 
ATOM     77  C   UNL A   1      52.204  28.140  23.832  1.00  0.00     0.020 A 
ATOM     78  C   UNL A   1      52.831  26.883  25.815  1.00  0.00     0.020 A 
ATOM     79  C   UNL A   1      53.125  27.355  24.533  1.00  0.00     0.054 A 
BRANCH  79  80
ATOM     80  S   UNL A   1      54.709  26.954  23.744  1.00  0.00     0.124 S 
ATOM     81  O   UNL A   1      54.305  26.731  22.359  1.00  0.00    -0.237 OA
ATOM     82  O   UNL A   1      55.501  28.158  23.981  1.00  0.00    -0.237 OA
ATOM     83  O   UNL A   1      55.160  25.763  24.460  1.00  0.00    -0.744 OA
ENDBRANCH  79  80
ENDBRANCH  60  74
BRANCH  61  84
ATOM     84  C   UNL A   1      41.597  28.661  29.869  1.00  0.00    -0.014 A 
ATOM     85  C   UNL A   1      41.434  28.210  31.190  1.00  0.00     0.010 A 
ATOM     86  C   UNL A   1      40.502  29.253  29.212  1.00  0.00     0.010 A 
ATOM     87  C   UNL A   1      40.208  28.362  31.845  1.00  0.00     0.020 A 
ATOM     88  C   UNL A   1      39.282  29.430  29.871  1.00  0.00     0.020 A 
ATOM     89  C   UNL A   1      39.143  28.983  31.186  1.00  0.00     0.054 A 
BRANCH  89  90
ATOM     90  S   UNL A   1      37.596  29.270  32.093  1.00  0.00     0.124 S 
ATOM     91  O   UNL A   1      37.827  30.584  32.685  1.00  0.00    -0.237 OA
ATOM     92  O   UNL A   1      36.594  29.220  31.030  1.00  0.00    -0.237 OA
ATOM     93  O   UNL A   1      37.543  28.157  33.039  1.00  0.00    -0.744 OA
ENDBRANCH  89  90
ENDBRANCH  61  84
BRANCH  73  94
ATOM     94  C   UNL A   1      47.116  32.962  29.429  1.00  0.00    -0.014 A 
ATOM     95  C   UNL A   1      47.766  33.191  30.652  1.00  0.00     0.010 A 
ATOM     96  C   UNL A   1      46.822  34.056  28.593  1.00  0.00     0.010 A 
ATOM     97  C   UNL A   1      48.120  34.490  31.032  1.00  0.00     0.020 A 
ATOM     98  C   UNL A   1      47.195  35.352  28.958  1.00  0.00     0.020 A 
ATOM     99  C   UNL A   1      47.841  35.562  30.177  1.00  0.00     0.054 A 
BRANCH  99 100
ATOM    100  S   UNL A   1      48.404  37.223  30.645  1.00  0.00     0.124 S 
ATOM    101  O   UNL A   1      49.640  36.934  31.366  1.00  0.00    -0.237 OA
ATOM    102  O   UNL A   1      48.570  37.881  29.351  1.00  0.00    -0.237 OA
ATOM    103  O   UNL A   1      47.311  37.740  31.465  1.00  0.00    -0.744 OA
ENDBRANCH  99 100
ENDBRANCH  73  94
ENDBRANCH  47  48
ENDBRANCH  39  42
ENDBRANCH  37  38
ENDBRANCH  36  37
ENDBRANCH  35  36
ENDBRANCH   1  35
TORSDOF 19
ENDMDL
MODEL 3
REMARK VINA RESULT:     -11.1      5.718     11.498
REMARK SMILES O=C1CCCC2=C1[C@H](c1ccc([N+](=O)[O-])cc1)CC(=O)N2c1ccccc1C(=O)NCCCCCCNC(=O)c1ccc(-c2c3nc(c(-c4ccc(S(=O)(=O)[O-])cc4)c4ccc([nH]4)c(-c4ccc(S(=O)(=O)[O-])cc4)c4nc(c(-c5ccc(S(=O)(=O)[O-])cc5)c5ccc2[nH]5)C=C4)C=C3)cc1
REMARK SMILES IDX 33 1 32 2 31 3 30 4 28 5 29 6 27 8 22 9 23 10 24 11 26 12
REMARK SMILES IDX 25 13 21 14 1 15 2 16 3 17 7 18 4 19 6 20 8 21 5 22 18 23
REMARK SMILES IDX 19 24 20 25 9 26 10 27 17 28 11 29 16 30 12 31 13 32 14 33
REMARK SMILES IDX 15 34 34 35 35 36 36 37 37 38 38 39 39 41 40 42 41 43 99 44
REMARK SMILES IDX 42 45 98 46 43 47 44 48 45 49 92 50 46 51 97 52 91 53 93 54
REMARK SMILES IDX 47 55 96 56 90 57 89 58 48 60 78 61 59 62 77 63 60 64 63 65
REMARK SMILES IDX 76 66 94 67 61 68 62 69 75 71 95 72 64 73 49 74 50 75 58 76
REMARK SMILES IDX 51 77 57 78 52 79 53 80 54 81 55 82 56 83 79 84 80 85 88 86
REMARK SMILES IDX 81 87 87 88 82 89 83 90 84 91 85 92 86 93 65 94 66 95 74 96
REMARK SMILES IDX 67 97 73 98 68 99 69 100 70 101 71 102 72 103
REMARK H PARENT 30 7 37 40 93 59 63 70
REMARK Flexibility Score: inf
ROOT
ATOM      1  C   UNL A   1      37.952  21.270  25.437  1.00  0.00     0.002 C 
ENDROOT
BRANCH   1   2
ATOM      2  C   UNL A   1      37.395  22.407  24.496  1.00  0.00     0.021 C 
BRANCH   2   3
ATOM      3  C   UNL A   1      36.823  23.769  24.926  1.00  0.00     0.116 C 
BRANCH   3   4
ATOM      4  N   UNL A   1      36.004  23.788  26.138  1.00  0.00    -0.352 N 
ATOM      5  C   UNL A   1      34.872  23.149  26.609  1.00  0.00     0.253 C 
ATOM      6  O   UNL A   1      34.721  23.347  27.828  1.00  0.00    -0.269 OA
ATOM      7  H   UNL A   1      36.355  24.429  26.796  1.00  0.00     0.163 HD
BRANCH   5   8
ATOM      8  C   UNL A   1      33.819  22.264  25.937  1.00  0.00     0.063 A 
ATOM      9  C   UNL A   1      32.623  22.541  25.241  1.00  0.00     0.061 A 
ATOM     10  C   UNL A   1      31.828  21.478  24.712  1.00  0.00     0.027 A 
ATOM     11  C   UNL A   1      32.164  20.143  24.865  1.00  0.00     0.002 A 
ATOM     12  C   UNL A   1      34.109  20.870  26.081  1.00  0.00     0.016 A 
ATOM     13  C   UNL A   1      33.310  19.835  25.564  1.00  0.00     0.001 A 
BRANCH   9  14
ATOM     14  N   UNL A   1      32.112  23.825  24.895  1.00  0.00    -0.284 N 
ATOM     15  O   UNL A   1      30.981  26.786  21.537  1.00  0.00    -0.294 OA
ATOM     16  C   UNL A   1      31.810  25.980  21.948  1.00  0.00     0.161 C 
ATOM     17  C   UNL A   1      32.862  25.369  21.038  1.00  0.00     0.081 C 
ATOM     18  C   UNL A   1      31.862  25.621  23.394  1.00  0.00     0.023 C 
ATOM     19  C   UNL A   1      32.743  23.868  21.074  1.00  0.00     0.015 C 
ATOM     20  C   UNL A   1      32.196  24.323  23.593  1.00  0.00     0.033 C 
ATOM     21  C   UNL A   1      31.270  26.532  24.498  1.00  0.00     0.064 C 
ATOM     22  C   UNL A   1      32.663  23.346  22.504  1.00  0.00     0.055 C 
ATOM     23  C   UNL A   1      30.434  25.592  25.355  1.00  0.00     0.114 C 
ATOM     24  C   UNL A   1      31.293  24.450  25.864  1.00  0.00     0.232 C 
ATOM     25  O   UNL A   1      31.201  24.086  27.037  1.00  0.00    -0.274 OA
BRANCH  21  26
ATOM     26  C   UNL A   1      32.178  27.459  25.391  1.00  0.00    -0.039 A 
ATOM     27  C   UNL A   1      31.867  28.774  25.802  1.00  0.00     0.011 A 
ATOM     28  C   UNL A   1      33.485  27.064  25.701  1.00  0.00     0.011 A 
ATOM     29  C   UNL A   1      32.761  29.572  26.562  1.00  0.00     0.086 A 
ATOM     30  C   UNL A   1      34.375  27.804  26.504  1.00  0.00     0.086 A 
ATOM     31  C   UNL A   1      33.998  29.061  26.955  1.00  0.00     0.269 A 
BRANCH  31  32
ATOM     32  N   UNL A   1      34.884  29.820  27.846  1.00  0.00     0.062 N 
ATOM     33  O   UNL A   1      36.053  29.428  27.970  1.00  0.00    -0.258 OA
ATOM     34  O   UNL A   1      34.421  30.832  28.392  1.00  0.00    -0.258 OA
ENDBRANCH  31  32
ENDBRANCH  21  26
ENDBRANCH   9  14
ENDBRANCH   5   8
ENDBRANCH   3   4
ENDBRANCH   2   3
ENDBRANCH   1   2
BRANCH   1  35
ATOM     35  C   UNL A   1      39.338  20.935  26.092  1.00  0.00     0.002 C 
BRANCH  35  36
ATOM     36  C   UNL A   1      40.314  21.891  26.803  1.00  0.00     0.021 C 
BRANCH  36  37
ATOM     37  C   UNL A   1      40.468  23.443  26.704  1.00  0.00     0.116 C 
BRANCH  37  38
ATOM     38  N   UNL A   1      41.430  24.009  25.790  1.00  0.00    -0.352 N 
ATOM     39  C   UNL A   1      41.892  25.323  25.780  1.00  0.00     0.251 C 
ATOM     40  H   UNL A   1      41.797  23.407  25.105  1.00  0.00     0.163 HD
ATOM     41  O   UNL A   1      42.445  25.764  24.785  1.00  0.00    -0.269 OA
BRANCH  39  42
ATOM     42  C   UNL A   1      41.720  26.212  26.964  1.00  0.00     0.039 A 
ATOM     43  C   UNL A   1      42.485  27.378  27.082  1.00  0.00     0.014 A 
ATOM     44  C   UNL A   1      40.894  25.829  28.025  1.00  0.00     0.014 A 
ATOM     45  C   UNL A   1      42.374  28.188  28.228  1.00  0.00     0.010 A 
ATOM     46  C   UNL A   1      40.768  26.652  29.158  1.00  0.00     0.010 A 
ATOM     47  C   UNL A   1      41.498  27.847  29.273  1.00  0.00    -0.014 A 
BRANCH  47  48
ATOM     48  C   UNL A   1      41.324  28.738  30.463  1.00  0.00     0.031 A 
ATOM     49  C   UNL A   1      42.168  28.559  31.701  1.00  0.00     0.074 A 
ATOM     50  C   UNL A   1      40.365  29.687  30.458  1.00  0.00     0.049 A 
ATOM     51  N   UNL A   1      42.118  29.207  32.840  1.00  0.00    -0.248 NA
ATOM     52  C   UNL A   1      43.188  27.503  31.657  1.00  0.00     0.031 C 
ATOM     53  C   UNL A   1      39.459  29.958  29.341  1.00  0.00     0.029 A 
ATOM     54  N   UNL A   1      39.979  30.588  31.424  1.00  0.00    -0.354 N 
ATOM     55  C   UNL A   1      43.087  28.628  33.654  1.00  0.00     0.074 A 
ATOM     56  C   UNL A   1      43.682  27.552  32.887  1.00  0.00     0.031 C 
ATOM     57  C   UNL A   1      38.627  30.955  29.682  1.00  0.00     0.029 A 
ATOM     58  C   UNL A   1      38.911  31.374  31.053  1.00  0.00     0.049 A 
ATOM     59  H   UNL A   1      40.424  30.664  32.299  1.00  0.00     0.167 HD
ATOM     60  C   UNL A   1      43.455  28.961  34.918  1.00  0.00     0.031 A 
ATOM     61  C   UNL A   1      38.220  32.312  31.734  1.00  0.00     0.031 A 
ATOM     62  C   UNL A   1      42.854  30.021  35.686  1.00  0.00     0.049 A 
ATOM     63  C   UNL A   1      38.628  32.662  33.139  1.00  0.00     0.074 A 
ATOM     64  C   UNL A   1      43.185  30.460  36.958  1.00  0.00     0.029 A 
ATOM     65  N   UNL A   1      41.789  30.803  35.261  1.00  0.00    -0.354 N 
ATOM     66  N   UNL A   1      39.589  32.143  33.866  1.00  0.00    -0.248 NA
ATOM     67  C   UNL A   1      37.872  33.727  33.814  1.00  0.00     0.031 C 
ATOM     68  C   UNL A   1      42.285  31.467  37.323  1.00  0.00     0.029 A 
ATOM     69  C   UNL A   1      41.435  31.703  36.253  1.00  0.00     0.049 A 
ATOM     70  H   UNL A   1      41.350  30.729  34.384  1.00  0.00     0.167 HD
ATOM     71  C   UNL A   1      39.573  32.837  35.072  1.00  0.00     0.074 A 
ATOM     72  C   UNL A   1      38.507  33.814  34.977  1.00  0.00     0.031 C 
ATOM     73  C   UNL A   1      40.376  32.679  36.151  1.00  0.00     0.031 A 
BRANCH  60  74
ATOM     74  C   UNL A   1      44.543  28.133  35.562  1.00  0.00    -0.014 A 
ATOM     75  C   UNL A   1      45.903  28.371  35.290  1.00  0.00     0.010 A 
ATOM     76  C   UNL A   1      44.200  27.096  36.450  1.00  0.00     0.010 A 
ATOM     77  C   UNL A   1      46.890  27.538  35.824  1.00  0.00     0.020 A 
ATOM     78  C   UNL A   1      45.186  26.280  37.013  1.00  0.00     0.020 A 
ATOM     79  C   UNL A   1      46.524  26.486  36.670  1.00  0.00     0.054 A 
BRANCH  79  80
ATOM     80  S   UNL A   1      47.819  25.388  37.307  1.00  0.00     0.124 S 
ATOM     81  O   UNL A   1      48.716  25.284  36.159  1.00  0.00    -0.237 OA
ATOM     82  O   UNL A   1      48.343  26.135  38.448  1.00  0.00    -0.237 OA
ATOM     83  O   UNL A   1      47.098  24.163  37.647  1.00  0.00    -0.744 OA
ENDBRANCH  79  80
ENDBRANCH  60  74
BRANCH  61  84
ATOM     84  C   UNL A   1      37.061  32.983  31.076  1.00  0.00    -0.014 A 
ATOM     85  C   UNL A   1      37.260  33.972  30.097  1.00  0.00     0.010 A 
ATOM     86  C   UNL A   1      35.747  32.579  31.379  1.00  0.00     0.010 A 
ATOM     87  C   UNL A   1      36.169  34.533  29.424  1.00  0.00     0.020 A 
ATOM     88  C   UNL A   1      34.657  33.119  30.692  1.00  0.00     0.020 A 
ATOM     89  C   UNL A   1      34.874  34.093  29.717  1.00  0.00     0.054 A 
BRANCH  89  90
ATOM     90  S   UNL A   1      33.483  34.755  28.756  1.00  0.00     0.124 S 
ATOM     91  O   UNL A   1      33.143  33.628  27.893  1.00  0.00    -0.237 OA
ATOM     92  O   UNL A   1      32.507  35.076  29.794  1.00  0.00    -0.237 OA
ATOM     93  O   UNL A   1      34.059  35.913  28.074  1.00  0.00    -0.744 OA
ENDBRANCH  89  90
ENDBRANCH  61  84
BRANCH  73  94
ATOM     94  C   UNL A   1      40.178  33.603  37.326  1.00  0.00    -0.014 A 
ATOM     95  C   UNL A   1      40.883  34.812  37.434  1.00  0.00     0.010 A 
ATOM     96  C   UNL A   1      39.177  33.306  38.270  1.00  0.00     0.010 A 
ATOM     97  C   UNL A   1      40.591  35.711  38.465  1.00  0.00     0.020 A 
ATOM     98  C   UNL A   1      38.866  34.211  39.288  1.00  0.00     0.020 A 
ATOM     99  C   UNL A   1      39.576  35.409  39.380  1.00  0.00     0.054 A 
BRANCH  99 100
ATOM    100  S   UNL A   1      39.145  36.638  40.645  1.00  0.00     0.124 S 
ATOM    101  O   UNL A   1      38.538  37.698  39.845  1.00  0.00    -0.237 OA
ATOM    102  O   UNL A   1      38.229  35.899  41.510  1.00  0.00    -0.237 OA
ATOM    103  O   UNL A   1      40.431  36.975  41.252  1.00  0.00    -0.744 OA
ENDBRANCH  99 100
ENDBRANCH  73  94
ENDBRANCH  47  48
ENDBRANCH  39  42
ENDBRANCH  37  38
ENDBRANCH  36  37
ENDBRANCH  35  36
ENDBRANCH   1  35
TORSDOF 19
ENDMDL
