MODEL 1
REMARK VINA RESULT:     -11.7      0.000      0.000
REMARK SMILES Cc1nc(-c2ccccc2)sc1C(=O)N[C@@H](CC1=c2ccccc2=NC1)C(=O)NCCCCCCNC(=O)c1ccc(-c2c3nc(c(-c4ccc(S(=O)(=O)[O-])cc4)c4ccc([nH]4)c(-c4ccc(S(=O)(=O)[O-])cc4)c4nc(c(-c5ccc(S(=O)(=O)[O-])cc5)c5ccc2[nH]5)C=C4)C=C3)cc1
REMARK SMILES IDX 32 1 31 2 30 3 29 4 27 5 28 6 16 8 15 9 13 10 14 11 12 13
REMARK SMILES IDX 1 14 2 15 3 16 4 17 11 18 5 19 6 20 10 21 7 22 9 23 8 24
REMARK SMILES IDX 17 25 18 26 19 27 26 28 20 29 24 30 25 31 21 32 23 33 22 34
REMARK SMILES IDX 33 35 34 36 35 37 36 38 37 39 38 41 39 42 40 43 98 44 41 45
REMARK SMILES IDX 97 46 42 47 43 48 44 49 91 50 45 51 96 52 90 53 92 54 46 55
REMARK SMILES IDX 95 56 89 57 88 58 47 60 77 61 58 62 76 63 59 64 62 65 75 66
REMARK SMILES IDX 93 67 60 68 61 69 74 71 94 72 63 73 48 74 49 75 57 76 50 77
REMARK SMILES IDX 56 78 51 79 52 80 53 81 54 82 55 83 78 84 79 85 87 86 80 87
REMARK SMILES IDX 86 88 81 89 82 90 83 91 84 92 85 93 64 94 65 95 73 96 66 97
REMARK SMILES IDX 72 98 67 99 68 100 69 101 70 102 71 103
REMARK H PARENT 29 7 15 12 36 40 92 59 62 70
REMARK Flexibility Score: inf
ROOT
ATOM      1  C   UNL A   1      37.381  23.362  25.216  1.00  0.00     0.002 C 
ENDROOT
BRANCH   1   2
ATOM      2  C   UNL A   1      37.145  21.878  24.934  1.00  0.00     0.021 C 
BRANCH   2   3
ATOM      3  C   UNL A   1      35.716  21.530  24.571  1.00  0.00     0.116 C 
BRANCH   3   4
ATOM      4  N   UNL A   1      35.033  20.761  25.577  1.00  0.00    -0.354 N 
ATOM      5  C   UNL A   1      33.880  21.045  26.229  1.00  0.00     0.242 C 
ATOM      6  O   UNL A   1      33.324  20.108  26.816  1.00  0.00    -0.273 OA
ATOM      7  H   UNL A   1      35.463  19.911  25.825  1.00  0.00     0.163 HD
BRANCH   5   8
ATOM      8  C   UNL A   1      33.225  22.442  26.228  1.00  0.00     0.175 C 
BRANCH   8   9
ATOM      9  N   UNL A   1      31.953  22.548  26.916  1.00  0.00    -0.339 N 
ATOM     10  C   UNL A   1      30.820  23.277  26.677  1.00  0.00     0.263 C 
ATOM     11  O   UNL A   1      29.992  23.156  27.589  1.00  0.00    -0.268 OA
ATOM     12  H   UNL A   1      31.893  21.980  27.718  1.00  0.00     0.164 HD
BRANCH  10  13
ATOM     13  C   UNL A   1      30.561  24.090  25.488  1.00  0.00     0.115 A 
ATOM     14  C   UNL A   1      30.905  22.881  23.140  1.00  0.00     0.068 C 
ATOM     15  C   UNL A   1      30.555  23.964  24.095  1.00  0.00     0.062 A 
ATOM     16  N   UNL A   1      30.119  25.084  23.412  1.00  0.00    -0.241 NA
ATOM     17  C   UNL A   1      29.893  26.087  24.215  1.00  0.00     0.124 A 
ATOM     18  S   UNL A   1      30.135  25.765  25.857  1.00  0.00    -0.108 S 
BRANCH  17  19
ATOM     19  C   UNL A   1      29.445  27.370  23.702  1.00  0.00     0.010 A 
ATOM     20  C   UNL A   1      28.064  27.587  23.576  1.00  0.00     0.011 A 
ATOM     21  C   UNL A   1      30.343  28.287  23.146  1.00  0.00     0.011 A 
ATOM     22  C   UNL A   1      27.585  28.689  22.877  1.00  0.00     0.001 A 
ATOM     23  C   UNL A   1      29.859  29.388  22.439  1.00  0.00     0.001 A 
ATOM     24  C   UNL A   1      28.483  29.582  22.297  1.00  0.00     0.000 A 
ENDBRANCH  17  19
ENDBRANCH  10  13
ENDBRANCH   8   9
BRANCH   8  25
ATOM     25  C   UNL A   1      34.160  23.655  26.479  1.00  0.00     0.068 C 
BRANCH  25  26
ATOM     26  C   UNL A   1      34.062  24.828  25.554  1.00  0.00    -0.037 C 
ATOM     27  C   UNL A   1      34.064  24.854  24.223  1.00  0.00     0.001 A 
ATOM     28  C   UNL A   1      33.865  26.212  26.103  1.00  0.00     0.174 C 
ATOM     29  C   UNL A   1      34.217  23.887  23.185  1.00  0.00     0.010 A 
ATOM     30  C   UNL A   1      33.597  26.224  23.936  1.00  0.00     0.065 A 
ATOM     31  N   UNL A   1      33.471  27.037  24.939  1.00  0.00    -0.280 NA
ATOM     32  C   UNL A   1      33.816  24.201  21.943  1.00  0.00     0.001 A 
ATOM     33  C   UNL A   1      33.184  26.499  22.542  1.00  0.00     0.028 A 
ATOM     34  C   UNL A   1      33.259  25.509  21.637  1.00  0.00     0.002 A 
ENDBRANCH  25  26
ENDBRANCH   8  25
ENDBRANCH   5   8
ENDBRANCH   3   4
ENDBRANCH   2   3
ENDBRANCH   1   2
BRANCH   1  35
ATOM     35  C   UNL A   1      38.429  23.679  26.289  1.00  0.00     0.002 C 
BRANCH  35  36
ATOM     36  C   UNL A   1      39.455  22.577  26.567  1.00  0.00     0.021 C 
BRANCH  36  37
ATOM     37  C   UNL A   1      40.741  23.046  27.232  1.00  0.00     0.116 C 
BRANCH  37  38
ATOM     38  N   UNL A   1      41.693  23.578  26.272  1.00  0.00    -0.352 N 
ATOM     39  C   UNL A   1      42.129  24.870  26.110  1.00  0.00     0.251 C 
ATOM     40  H   UNL A   1      42.080  22.919  25.651  1.00  0.00     0.163 HD
ATOM     41  O   UNL A   1      42.790  25.182  25.129  1.00  0.00    -0.269 OA
BRANCH  39  42
ATOM     42  C   UNL A   1      41.767  25.880  27.125  1.00  0.00     0.039 A 
ATOM     43  C   UNL A   1      40.783  25.569  28.064  1.00  0.00     0.014 A 
ATOM     44  C   UNL A   1      42.426  27.113  27.163  1.00  0.00     0.014 A 
ATOM     45  C   UNL A   1      40.506  26.473  29.090  1.00  0.00     0.010 A 
ATOM     46  C   UNL A   1      42.199  27.978  28.227  1.00  0.00     0.010 A 
ATOM     47  C   UNL A   1      41.241  27.664  29.203  1.00  0.00    -0.014 A 
BRANCH  47  48
ATOM     48  C   UNL A   1      41.046  28.587  30.348  1.00  0.00     0.031 A 
ATOM     49  C   UNL A   1      41.900  28.454  31.577  1.00  0.00     0.074 A 
ATOM     50  C   UNL A   1      40.050  29.494  30.306  1.00  0.00     0.049 A 
ATOM     51  N   UNL A   1      41.824  29.109  32.707  1.00  0.00    -0.248 NA
ATOM     52  C   UNL A   1      42.963  27.437  31.539  1.00  0.00     0.031 C 
ATOM     53  C   UNL A   1      39.143  29.703  29.175  1.00  0.00     0.029 A 
ATOM     54  N   UNL A   1      39.629  30.404  31.242  1.00  0.00    -0.354 N 
ATOM     55  C   UNL A   1      42.822  28.580  33.516  1.00  0.00     0.074 A 
ATOM     56  C   UNL A   1      43.451  27.513  32.769  1.00  0.00     0.031 C 
ATOM     57  C   UNL A   1      38.293  30.700  29.471  1.00  0.00     0.029 A 
ATOM     58  C   UNL A   1      38.557  31.162  30.831  1.00  0.00     0.049 A 
ATOM     59  H   UNL A   1      40.052  30.504  32.124  1.00  0.00     0.167 HD
ATOM     60  C   UNL A   1      43.194  28.962  34.762  1.00  0.00     0.031 A 
ATOM     61  C   UNL A   1      37.857  32.113  31.479  1.00  0.00     0.031 A 
ATOM     62  C   UNL A   1      42.555  30.017  35.503  1.00  0.00     0.049 A 
ATOM     63  C   UNL A   1      38.241  32.470  32.888  1.00  0.00     0.074 A 
ATOM     64  C   UNL A   1      42.877  30.506  36.756  1.00  0.00     0.029 A 
ATOM     65  N   UNL A   1      41.454  30.739  35.064  1.00  0.00    -0.354 N 
ATOM     66  N   UNL A   1      39.227  32.002  33.617  1.00  0.00    -0.248 NA
ATOM     67  C   UNL A   1      37.418  33.481  33.565  1.00  0.00     0.031 C 
ATOM     68  C   UNL A   1      41.932  31.476  37.103  1.00  0.00     0.029 A 
ATOM     69  C   UNL A   1      41.060  31.641  36.037  1.00  0.00     0.049 A 
ATOM     70  H   UNL A   1      41.018  30.626  34.188  1.00  0.00     0.167 HD
ATOM     71  C   UNL A   1      39.156  32.677  34.829  1.00  0.00     0.074 A 
ATOM     72  C   UNL A   1      38.041  33.598  34.731  1.00  0.00     0.031 C 
ATOM     73  C   UNL A   1      39.943  32.547  35.925  1.00  0.00     0.031 A 
BRANCH  60  74
ATOM     74  C   UNL A   1      44.335  28.215  35.402  1.00  0.00    -0.014 A 
ATOM     75  C   UNL A   1      45.667  28.638  35.237  1.00  0.00     0.010 A 
ATOM     76  C   UNL A   1      44.075  27.081  36.194  1.00  0.00     0.010 A 
ATOM     77  C   UNL A   1      46.719  27.910  35.799  1.00  0.00     0.020 A 
ATOM     78  C   UNL A   1      45.122  26.369  36.787  1.00  0.00     0.020 A 
ATOM     79  C   UNL A   1      46.439  26.776  36.565  1.00  0.00     0.054 A 
BRANCH  79  80
ATOM     80  S   UNL A   1      47.825  25.846  37.277  1.00  0.00     0.124 S 
ATOM     81  O   UNL A   1      48.526  25.390  36.079  1.00  0.00    -0.237 OA
ATOM     82  O   UNL A   1      48.520  26.862  38.062  1.00  0.00    -0.237 OA
ATOM     83  O   UNL A   1      47.175  24.795  38.056  1.00  0.00    -0.744 OA
ENDBRANCH  79  80
ENDBRANCH  60  74
BRANCH  61  84
ATOM     84  C   UNL A   1      36.728  32.799  30.794  1.00  0.00    -0.014 A 
ATOM     85  C   UNL A   1      35.407  32.358  30.988  1.00  0.00     0.010 A 
ATOM     86  C   UNL A   1      36.960  33.913  29.964  1.00  0.00     0.010 A 
ATOM     87  C   UNL A   1      34.342  33.008  30.360  1.00  0.00     0.020 A 
ATOM     88  C   UNL A   1      35.895  34.584  29.358  1.00  0.00     0.020 A 
ATOM     89  C   UNL A   1      34.592  34.122  29.553  1.00  0.00     0.054 A 
BRANCH  89  90
ATOM     90  S   UNL A   1      33.185  34.985  28.799  1.00  0.00     0.124 S 
ATOM     91  O   UNL A   1      32.413  35.389  29.971  1.00  0.00    -0.237 OA
ATOM     92  O   UNL A   1      33.837  36.066  28.066  1.00  0.00    -0.237 OA
ATOM     93  O   UNL A   1      32.563  33.960  27.964  1.00  0.00    -0.744 OA
ENDBRANCH  89  90
ENDBRANCH  61  84
BRANCH  73  94
ATOM     94  C   UNL A   1      39.641  33.427  37.110  1.00  0.00    -0.014 A 
ATOM     95  C   UNL A   1      38.840  32.967  38.169  1.00  0.00     0.010 A 
ATOM     96  C   UNL A   1      40.236  34.699  37.203  1.00  0.00     0.010 A 
ATOM     97  C   UNL A   1      38.632  33.767  39.296  1.00  0.00     0.020 A 
ATOM     98  C   UNL A   1      40.054  35.489  38.340  1.00  0.00     0.020 A 
ATOM     99  C   UNL A   1      39.248  35.020  39.378  1.00  0.00     0.054 A 
BRANCH  99 100
ATOM    100  S   UNL A   1      39.026  36.000  40.887  1.00  0.00     0.124 S 
ATOM    101  O   UNL A   1      38.962  37.361  40.362  1.00  0.00    -0.237 OA
ATOM    102  O   UNL A   1      37.773  35.476  41.426  1.00  0.00    -0.237 OA
ATOM    103  O   UNL A   1      40.215  35.693  41.679  1.00  0.00    -0.744 OA
ENDBRANCH  99 100
ENDBRANCH  73  94
ENDBRANCH  47  48
ENDBRANCH  39  42
ENDBRANCH  37  38
ENDBRANCH  36  37
ENDBRANCH  35  36
ENDBRANCH   1  35
TORSDOF 21
ENDMDL
MODEL 2
REMARK VINA RESULT:     -11.5      5.802      7.978
REMARK SMILES Cc1nc(-c2ccccc2)sc1C(=O)N[C@@H](CC1=c2ccccc2=NC1)C(=O)NCCCCCCNC(=O)c1ccc(-c2c3nc(c(-c4ccc(S(=O)(=O)[O-])cc4)c4ccc([nH]4)c(-c4ccc(S(=O)(=O)[O-])cc4)c4nc(c(-c5ccc(S(=O)(=O)[O-])cc5)c5ccc2[nH]5)C=C4)C=C3)cc1
REMARK SMILES IDX 32 1 31 2 30 3 29 4 27 5 28 6 16 8 15 9 13 10 14 11 12 13
REMARK SMILES IDX 1 14 2 15 3 16 4 17 11 18 5 19 6 20 10 21 7 22 9 23 8 24
REMARK SMILES IDX 17 25 18 26 19 27 26 28 20 29 24 30 25 31 21 32 23 33 22 34
REMARK SMILES IDX 33 35 34 36 35 37 36 38 37 39 38 41 39 42 40 43 98 44 41 45
REMARK SMILES IDX 97 46 42 47 43 48 44 49 91 50 45 51 96 52 90 53 92 54 46 55
REMARK SMILES IDX 95 56 89 57 88 58 47 60 77 61 58 62 76 63 59 64 62 65 75 66
REMARK SMILES IDX 93 67 60 68 61 69 74 71 94 72 63 73 48 74 49 75 57 76 50 77
REMARK SMILES IDX 56 78 51 79 52 80 53 81 54 82 55 83 78 84 79 85 87 86 80 87
REMARK SMILES IDX 86 88 81 89 82 90 83 91 84 92 85 93 64 94 65 95 73 96 66 97
REMARK SMILES IDX 72 98 67 99 68 100 69 101 70 102 71 103
REMARK H PARENT 29 7 15 12 36 40 92 59 62 70
REMARK Flexibility Score: inf
ROOT
ATOM      1  C   UNL A   1      38.985  22.851  26.360  1.00  0.00     0.002 C 
ENDROOT
BRANCH   1   2
ATOM      2  C   UNL A   1      37.941  21.953  25.697  1.00  0.00     0.021 C 
BRANCH   2   3
ATOM      3  C   UNL A   1      36.516  22.456  25.818  1.00  0.00     0.116 C 
BRANCH   3   4
ATOM      4  N   UNL A   1      35.573  21.439  26.198  1.00  0.00    -0.354 N 
ATOM      5  C   UNL A   1      34.222  21.512  26.266  1.00  0.00     0.242 C 
ATOM      6  O   UNL A   1      33.605  20.441  26.313  1.00  0.00    -0.273 OA
ATOM      7  H   UNL A   1      35.963  20.569  26.442  1.00  0.00     0.163 HD
BRANCH   5   8
ATOM      8  C   UNL A   1      33.441  22.842  26.239  1.00  0.00     0.175 C 
BRANCH   8   9
ATOM      9  N   UNL A   1      32.162  22.843  26.922  1.00  0.00    -0.339 N 
ATOM     10  C   UNL A   1      30.970  23.468  26.673  1.00  0.00     0.263 C 
ATOM     11  O   UNL A   1      30.152  23.282  27.584  1.00  0.00    -0.268 OA
ATOM     12  H   UNL A   1      32.148  22.278  27.728  1.00  0.00     0.164 HD
BRANCH  10  13
ATOM     13  C   UNL A   1      30.645  24.246  25.476  1.00  0.00     0.115 A 
ATOM     14  C   UNL A   1      30.825  22.957  23.153  1.00  0.00     0.068 C 
ATOM     15  C   UNL A   1      30.549  24.076  24.092  1.00  0.00     0.062 A 
ATOM     16  N   UNL A   1      30.085  25.179  23.401  1.00  0.00    -0.241 NA
ATOM     17  C   UNL A   1      29.923  26.210  24.183  1.00  0.00     0.124 A 
ATOM     18  S   UNL A   1      30.265  25.938  25.816  1.00  0.00    -0.108 S 
BRANCH  17  19
ATOM     19  C   UNL A   1      29.458  27.483  23.658  1.00  0.00     0.010 A 
ATOM     20  C   UNL A   1      30.329  28.581  23.720  1.00  0.00     0.011 A 
ATOM     21  C   UNL A   1      28.122  27.679  23.300  1.00  0.00     0.011 A 
ATOM     22  C   UNL A   1      29.864  29.865  23.457  1.00  0.00     0.001 A 
ATOM     23  C   UNL A   1      27.656  28.970  23.043  1.00  0.00     0.001 A 
ATOM     24  C   UNL A   1      28.524  30.060  23.131  1.00  0.00     0.000 A 
ENDBRANCH  17  19
ENDBRANCH  10  13
ENDBRANCH   8   9
BRANCH   8  25
ATOM     25  C   UNL A   1      34.258  24.141  26.470  1.00  0.00     0.068 C 
BRANCH  25  26
ATOM     26  C   UNL A   1      34.140  25.242  25.463  1.00  0.00    -0.037 C 
ATOM     27  C   UNL A   1      34.062  25.165  24.135  1.00  0.00     0.001 A 
ATOM     28  C   UNL A   1      34.016  26.670  25.910  1.00  0.00     0.174 C 
ATOM     29  C   UNL A   1      34.125  24.116  23.170  1.00  0.00     0.010 A 
ATOM     30  C   UNL A   1      33.620  26.524  23.768  1.00  0.00     0.065 A 
ATOM     31  N   UNL A   1      33.578  27.416  24.710  1.00  0.00    -0.280 NA
ATOM     32  C   UNL A   1      33.659  24.347  21.932  1.00  0.00     0.001 A 
ATOM     33  C   UNL A   1      33.133  26.704  22.383  1.00  0.00     0.028 A 
ATOM     34  C   UNL A   1      33.124  25.645  21.556  1.00  0.00     0.002 A 
ENDBRANCH  25  26
ENDBRANCH   8  25
ENDBRANCH   5   8
ENDBRANCH   3   4
ENDBRANCH   2   3
ENDBRANCH   1   2
BRANCH   1  35
ATOM     35  C   UNL A   1      40.331  22.188  26.675  1.00  0.00     0.002 C 
BRANCH  35  36
ATOM     36  C   UNL A   1      40.387  20.669  26.491  1.00  0.00     0.021 C 
BRANCH  36  37
ATOM     37  C   UNL A   1      41.637  19.997  27.041  1.00  0.00     0.116 C 
BRANCH  37  38
ATOM     38  N   UNL A   1      42.411  19.343  26.000  1.00  0.00    -0.352 N 
ATOM     39  C   UNL A   1      43.383  19.869  25.183  1.00  0.00     0.251 C 
ATOM     40  H   UNL A   1      42.211  18.389  25.860  1.00  0.00     0.163 HD
ATOM     41  O   UNL A   1      43.802  19.230  24.229  1.00  0.00    -0.269 OA
BRANCH  39  42
ATOM     42  C   UNL A   1      43.895  21.226  25.463  1.00  0.00     0.039 A 
ATOM     43  C   UNL A   1      43.412  22.297  24.710  1.00  0.00     0.014 A 
ATOM     44  C   UNL A   1      44.821  21.435  26.489  1.00  0.00     0.014 A 
ATOM     45  C   UNL A   1      43.809  23.595  25.034  1.00  0.00     0.010 A 
ATOM     46  C   UNL A   1      45.158  22.733  26.854  1.00  0.00     0.010 A 
ATOM     47  C   UNL A   1      44.651  23.825  26.134  1.00  0.00    -0.014 A 
BRANCH  47  48
ATOM     48  C   UNL A   1      44.995  25.201  26.568  1.00  0.00     0.031 A 
ATOM     49  C   UNL A   1      46.350  25.772  26.261  1.00  0.00     0.074 A 
ATOM     50  C   UNL A   1      44.111  25.905  27.304  1.00  0.00     0.049 A 
ATOM     51  N   UNL A   1      46.863  26.918  26.628  1.00  0.00    -0.248 NA
ATOM     52  C   UNL A   1      47.254  24.936  25.454  1.00  0.00     0.031 C 
ATOM     53  C   UNL A   1      42.772  25.448  27.683  1.00  0.00     0.029 A 
ATOM     54  N   UNL A   1      44.209  27.149  27.871  1.00  0.00    -0.354 N 
ATOM     55  C   UNL A   1      48.150  26.939  26.104  1.00  0.00     0.074 A 
ATOM     56  C   UNL A   1      48.359  25.668  25.444  1.00  0.00     0.031 C 
ATOM     57  C   UNL A   1      42.163  26.411  28.392  1.00  0.00     0.029 A 
ATOM     58  C   UNL A   1      43.085  27.529  28.566  1.00  0.00     0.049 A 
ATOM     59  H   UNL A   1      45.009  27.717  27.789  1.00  0.00     0.167 HD
ATOM     60  C   UNL A   1      49.068  27.934  26.153  1.00  0.00     0.031 A 
ATOM     61  C   UNL A   1      42.829  28.646  29.275  1.00  0.00     0.031 A 
ATOM     62  C   UNL A   1      48.858  29.190  26.823  1.00  0.00     0.049 A 
ATOM     63  C   UNL A   1      43.891  29.705  29.377  1.00  0.00     0.074 A 
ATOM     64  C   UNL A   1      49.709  30.277  26.900  1.00  0.00     0.029 A 
ATOM     65  N   UNL A   1      47.718  29.522  27.541  1.00  0.00    -0.354 N 
ATOM     66  N   UNL A   1      45.081  29.735  28.824  1.00  0.00    -0.248 NA
ATOM     67  C   UNL A   1      43.578  30.882  30.199  1.00  0.00     0.031 C 
ATOM     68  C   UNL A   1      49.113  31.241  27.720  1.00  0.00     0.029 A 
ATOM     69  C   UNL A   1      47.860  30.782  28.098  1.00  0.00     0.049 A 
ATOM     70  H   UNL A   1      46.925  28.947  27.639  1.00  0.00     0.167 HD
ATOM     71  C   UNL A   1      45.650  30.942  29.214  1.00  0.00     0.074 A 
ATOM     72  C   UNL A   1      44.667  31.622  30.035  1.00  0.00     0.031 C 
ATOM     73  C   UNL A   1      46.874  31.442  28.919  1.00  0.00     0.031 A 
BRANCH  60  74
ATOM     74  C   UNL A   1      50.392  27.687  25.475  1.00  0.00    -0.014 A 
ATOM     75  C   UNL A   1      51.500  27.205  26.196  1.00  0.00     0.010 A 
ATOM     76  C   UNL A   1      50.530  27.926  24.096  1.00  0.00     0.010 A 
ATOM     77  C   UNL A   1      52.734  27.023  25.566  1.00  0.00     0.020 A 
ATOM     78  C   UNL A   1      51.753  27.713  23.453  1.00  0.00     0.020 A 
ATOM     79  C   UNL A   1      52.854  27.285  24.198  1.00  0.00     0.054 A 
BRANCH  79  80
ATOM     80  S   UNL A   1      54.469  27.047  23.407  1.00  0.00     0.124 S 
ATOM     81  O   UNL A   1      55.060  28.378  23.528  1.00  0.00    -0.237 OA
ATOM     82  O   UNL A   1      55.080  26.012  24.236  1.00  0.00    -0.237 OA
ATOM     83  O   UNL A   1      54.132  26.637  22.047  1.00  0.00    -0.744 OA
ENDBRANCH  79  80
ENDBRANCH  60  74
BRANCH  61  84
ATOM     84  C   UNL A   1      41.507  28.817  29.937  1.00  0.00    -0.014 A 
ATOM     85  C   UNL A   1      41.273  28.267  31.209  1.00  0.00     0.010 A 
ATOM     86  C   UNL A   1      40.481  29.553  29.313  1.00  0.00     0.010 A 
ATOM     87  C   UNL A   1      40.039  28.439  31.841  1.00  0.00     0.020 A 
ATOM     88  C   UNL A   1      39.256  29.753  29.954  1.00  0.00     0.020 A 
ATOM     89  C   UNL A   1      39.039  29.187  31.212  1.00  0.00     0.054 A 
BRANCH  89  90
ATOM     90  S   UNL A   1      37.468  29.446  32.081  1.00  0.00     0.124 S 
ATOM     91  O   UNL A   1      36.498  29.322  30.997  1.00  0.00    -0.237 OA
ATOM     92  O   UNL A   1      37.468  28.361  33.058  1.00  0.00    -0.237 OA
ATOM     93  O   UNL A   1      37.606  30.786  32.646  1.00  0.00    -0.744 OA
ENDBRANCH  89  90
ENDBRANCH  61  84
BRANCH  73  94
ATOM     94  C   UNL A   1      47.226  32.798  29.473  1.00  0.00    -0.014 A 
ATOM     95  C   UNL A   1      47.923  32.925  30.687  1.00  0.00     0.010 A 
ATOM     96  C   UNL A   1      46.932  33.954  28.726  1.00  0.00     0.010 A 
ATOM     97  C   UNL A   1      48.309  34.186  31.150  1.00  0.00     0.020 A 
ATOM     98  C   UNL A   1      47.343  35.213  29.171  1.00  0.00     0.020 A 
ATOM     99  C   UNL A   1      48.024  35.321  30.384  1.00  0.00     0.054 A 
BRANCH  99 100
ATOM    100  S   UNL A   1      48.611  36.934  30.969  1.00  0.00     0.124 S 
ATOM    101  O   UNL A   1      47.621  37.845  30.402  1.00  0.00    -0.237 OA
ATOM    102  O   UNL A   1      48.565  36.782  32.422  1.00  0.00    -0.237 OA
ATOM    103  O   UNL A   1      49.954  37.042  30.403  1.00  0.00    -0.744 OA
ENDBRANCH  99 100
ENDBRANCH  73  94
ENDBRANCH  47  48
ENDBRANCH  39  42
ENDBRANCH  37  38
ENDBRANCH  36  37
ENDBRANCH  35  36
ENDBRANCH   1  35
TORSDOF 21
ENDMDL
MODEL 3
REMARK VINA RESULT:     -11.2      5.463     13.369
REMARK SMILES Cc1nc(-c2ccccc2)sc1C(=O)N[C@@H](CC1=c2ccccc2=NC1)C(=O)NCCCCCCNC(=O)c1ccc(-c2c3nc(c(-c4ccc(S(=O)(=O)[O-])cc4)c4ccc([nH]4)c(-c4ccc(S(=O)(=O)[O-])cc4)c4nc(c(-c5ccc(S(=O)(=O)[O-])cc5)c5ccc2[nH]5)C=C4)C=C3)cc1
REMARK SMILES IDX 32 1 31 2 30 3 29 4 27 5 28 6 16 8 15 9 13 10 14 11 12 13
REMARK SMILES IDX 1 14 2 15 3 16 4 17 11 18 5 19 6 20 10 21 7 22 9 23 8 24
REMARK SMILES IDX 17 25 18 26 19 27 26 28 20 29 24 30 25 31 21 32 23 33 22 34
REMARK SMILES IDX 33 35 34 36 35 37 36 38 37 39 38 41 39 42 40 43 98 44 41 45
REMARK SMILES IDX 97 46 42 47 43 48 44 49 91 50 45 51 96 52 90 53 92 54 46 55
REMARK SMILES IDX 95 56 89 57 88 58 47 60 77 61 58 62 76 63 59 64 62 65 75 66
REMARK SMILES IDX 93 67 60 68 61 69 74 71 94 72 63 73 48 74 49 75 57 76 50 77
REMARK SMILES IDX 56 78 51 79 52 80 53 81 54 82 55 83 78 84 79 85 87 86 80 87
REMARK SMILES IDX 86 88 81 89 82 90 83 91 84 92 85 93 64 94 65 95 73 96 66 97
REMARK SMILES IDX 72 98 67 99 68 100 69 101 70 102 71 103
REMARK H PARENT 29 7 15 12 36 40 92 59 62 70
REMARK Flexibility Score: inf
ROOT
ATOM      1  C   UNL A   1      34.618  34.565  30.375  1.00  0.00     0.002 C 
ENDROOT
BRANCH   1   2
ATOM      2  C   UNL A   1      34.059  34.732  31.789  1.00  0.00     0.021 C 
BRANCH   2   3
ATOM      3  C   UNL A   1      34.025  33.454  32.602  1.00  0.00     0.116 C 
BRANCH   3   4
ATOM      4  N   UNL A   1      34.253  33.656  34.008  1.00  0.00    -0.354 N 
ATOM      5  C   UNL A   1      35.428  33.738  34.677  1.00  0.00     0.242 C 
ATOM      6  O   UNL A   1      35.391  34.220  35.816  1.00  0.00    -0.273 OA
ATOM      7  H   UNL A   1      33.443  33.748  34.560  1.00  0.00     0.163 HD
BRANCH   5   8
ATOM      8  C   UNL A   1      36.781  33.309  34.073  1.00  0.00     0.175 C 
BRANCH   8   9
ATOM      9  N   UNL A   1      36.882  31.922  33.661  1.00  0.00    -0.339 N 
ATOM     10  C   UNL A   1      37.885  30.994  33.742  1.00  0.00     0.263 C 
ATOM     11  O   UNL A   1      37.590  29.944  33.157  1.00  0.00    -0.268 OA
ATOM     12  H   UNL A   1      36.063  31.579  33.237  1.00  0.00     0.164 HD
BRANCH  10  13
ATOM     13  C   UNL A   1      39.155  31.167  34.448  1.00  0.00     0.115 A 
ATOM     14  C   UNL A   1      39.000  32.117  36.930  1.00  0.00     0.068 C 
ATOM     15  C   UNL A   1      39.629  31.574  35.699  1.00  0.00     0.062 A 
ATOM     16  N   UNL A   1      40.994  31.447  35.873  1.00  0.00    -0.241 NA
ATOM     17  C   UNL A   1      41.591  31.062  34.779  1.00  0.00     0.124 A 
ATOM     18  S   UNL A   1      40.569  30.772  33.464  1.00  0.00    -0.108 S 
BRANCH  17  19
ATOM     19  C   UNL A   1      43.032  30.884  34.735  1.00  0.00     0.010 A 
ATOM     20  C   UNL A   1      43.571  30.103  33.701  1.00  0.00     0.011 A 
ATOM     21  C   UNL A   1      43.849  31.286  35.796  1.00  0.00     0.011 A 
ATOM     22  C   UNL A   1      44.902  29.702  33.741  1.00  0.00     0.001 A 
ATOM     23  C   UNL A   1      45.183  30.877  35.837  1.00  0.00     0.001 A 
ATOM     24  C   UNL A   1      45.704  30.079  34.816  1.00  0.00     0.000 A 
ENDBRANCH  17  19
ENDBRANCH  10  13
ENDBRANCH   8   9
BRANCH   8  25
ATOM     25  C   UNL A   1      37.450  34.294  33.077  1.00  0.00     0.068 C 
BRANCH  25  26
ATOM     26  C   UNL A   1      38.914  34.566  33.226  1.00  0.00    -0.037 C 
ATOM     27  C   UNL A   1      39.588  35.001  34.290  1.00  0.00     0.001 A 
ATOM     28  C   UNL A   1      39.857  34.280  32.093  1.00  0.00     0.174 C 
ATOM     29  C   UNL A   1      39.244  35.429  35.607  1.00  0.00     0.010 A 
ATOM     30  C   UNL A   1      40.986  34.730  33.908  1.00  0.00     0.065 A 
ATOM     31  N   UNL A   1      41.209  34.331  32.693  1.00  0.00    -0.280 NA
ATOM     32  C   UNL A   1      40.205  35.470  36.544  1.00  0.00     0.001 A 
ATOM     33  C   UNL A   1      41.989  34.807  34.991  1.00  0.00     0.028 A 
ATOM     34  C   UNL A   1      41.580  35.117  36.233  1.00  0.00     0.002 A 
ENDBRANCH  25  26
ENDBRANCH   8  25
ENDBRANCH   5   8
ENDBRANCH   3   4
ENDBRANCH   2   3
ENDBRANCH   1   2
BRANCH   1  35
ATOM     35  C   UNL A   1      33.589  34.624  29.240  1.00  0.00     0.002 C 
BRANCH  35  36
ATOM     36  C   UNL A   1      33.676  33.502  28.202  1.00  0.00     0.021 C 
BRANCH  36  37
ATOM     37  C   UNL A   1      34.591  32.345  28.576  1.00  0.00     0.116 C 
BRANCH  37  38
ATOM     38  N   UNL A   1      34.001  31.055  28.259  1.00  0.00    -0.352 N 
ATOM     39  C   UNL A   1      34.623  29.853  28.024  1.00  0.00     0.251 C 
ATOM     40  H   UNL A   1      33.019  31.041  28.205  1.00  0.00     0.163 HD
ATOM     41  O   UNL A   1      33.990  28.905  27.582  1.00  0.00    -0.269 OA
BRANCH  39  42
ATOM     42  C   UNL A   1      36.071  29.733  28.291  1.00  0.00     0.039 A 
ATOM     43  C   UNL A   1      36.491  29.323  29.557  1.00  0.00     0.014 A 
ATOM     44  C   UNL A   1      37.001  29.992  27.280  1.00  0.00     0.014 A 
ATOM     45  C   UNL A   1      37.849  29.106  29.791  1.00  0.00     0.010 A 
ATOM     46  C   UNL A   1      38.344  29.705  27.495  1.00  0.00     0.010 A 
ATOM     47  C   UNL A   1      38.780  29.254  28.750  1.00  0.00    -0.014 A 
BRANCH  47  48
ATOM     48  C   UNL A   1      40.212  28.919  28.940  1.00  0.00     0.031 A 
ATOM     49  C   UNL A   1      41.174  29.966  29.424  1.00  0.00     0.074 A 
ATOM     50  C   UNL A   1      40.655  27.690  28.606  1.00  0.00     0.049 A 
ATOM     51  N   UNL A   1      42.472  29.888  29.572  1.00  0.00    -0.248 NA
ATOM     52  C   UNL A   1      40.606  31.281  29.765  1.00  0.00     0.031 C 
ATOM     53  C   UNL A   1      39.820  26.596  28.106  1.00  0.00     0.029 A 
ATOM     54  N   UNL A   1      41.919  27.159  28.628  1.00  0.00    -0.354 N 
ATOM     55  C   UNL A   1      42.876  31.141  30.015  1.00  0.00     0.074 A 
ATOM     56  C   UNL A   1      41.696  31.976  30.057  1.00  0.00     0.031 C 
ATOM     57  C   UNL A   1      40.589  25.515  27.900  1.00  0.00     0.029 A 
ATOM     58  C   UNL A   1      41.976  25.854  28.197  1.00  0.00     0.049 A 
ATOM     59  H   UNL A   1      42.711  27.664  28.923  1.00  0.00     0.167 HD
ATOM     60  C   UNL A   1      44.116  31.553  30.373  1.00  0.00     0.031 A 
ATOM     61  C   UNL A   1      43.030  25.027  28.046  1.00  0.00     0.031 A 
ATOM     62  C   UNL A   1      45.288  30.719  30.316  1.00  0.00     0.049 A 
ATOM     63  C   UNL A   1      44.406  25.529  28.379  1.00  0.00     0.074 A 
ATOM     64  C   UNL A   1      46.583  31.027  30.690  1.00  0.00     0.029 A 
ATOM     65  N   UNL A   1      45.308  29.414  29.845  1.00  0.00    -0.354 N 
ATOM     66  N   UNL A   1      44.764  26.698  28.856  1.00  0.00    -0.248 NA
ATOM     67  C   UNL A   1      45.524  24.603  28.154  1.00  0.00     0.031 C 
ATOM     68  C   UNL A   1      47.399  29.934  30.383  1.00  0.00     0.029 A 
ATOM     69  C   UNL A   1      46.600  28.918  29.881  1.00  0.00     0.049 A 
ATOM     70  H   UNL A   1      44.520  28.914  29.531  1.00  0.00     0.167 HD
ATOM     71  C   UNL A   1      46.144  26.640  29.007  1.00  0.00     0.074 A 
ATOM     72  C   UNL A   1      46.556  25.315  28.588  1.00  0.00     0.031 C 
ATOM     73  C   UNL A   1      46.994  27.597  29.453  1.00  0.00     0.031 A 
BRANCH  60  74
ATOM     74  C   UNL A   1      44.264  32.979  30.839  1.00  0.00    -0.014 A 
ATOM     75  C   UNL A   1      44.551  33.279  32.183  1.00  0.00     0.010 A 
ATOM     76  C   UNL A   1      44.128  34.035  29.920  1.00  0.00     0.010 A 
ATOM     77  C   UNL A   1      44.640  34.606  32.611  1.00  0.00     0.020 A 
ATOM     78  C   UNL A   1      44.251  35.364  30.336  1.00  0.00     0.020 A 
ATOM     79  C   UNL A   1      44.483  35.641  31.685  1.00  0.00     0.054 A 
BRANCH  79  80
ATOM     80  S   UNL A   1      44.597  37.354  32.270  1.00  0.00     0.124 S 
ATOM     81  O   UNL A   1      44.210  38.104  31.077  1.00  0.00    -0.237 OA
ATOM     82  O   UNL A   1      43.635  37.381  33.367  1.00  0.00    -0.237 OA
ATOM     83  O   UNL A   1      45.996  37.494  32.665  1.00  0.00    -0.744 OA
ENDBRANCH  79  80
ENDBRANCH  60  74
BRANCH  61  84
ATOM     84  C   UNL A   1      42.816  23.636  27.562  1.00  0.00    -0.014 A 
ATOM     85  C   UNL A   1      42.907  23.340  26.190  1.00  0.00     0.010 A 
ATOM     86  C   UNL A   1      42.546  22.593  28.468  1.00  0.00     0.010 A 
ATOM     87  C   UNL A   1      42.723  22.032  25.732  1.00  0.00     0.020 A 
ATOM     88  C   UNL A   1      42.391  21.279  28.018  1.00  0.00     0.020 A 
ATOM     89  C   UNL A   1      42.472  21.008  26.651  1.00  0.00     0.054 A 
BRANCH  89  90
ATOM     90  S   UNL A   1      42.298  19.310  26.035  1.00  0.00     0.124 S 
ATOM     91  O   UNL A   1      42.744  18.524  27.183  1.00  0.00    -0.237 OA
ATOM     92  O   UNL A   1      40.872  19.232  25.730  1.00  0.00    -0.237 OA
ATOM     93  O   UNL A   1      43.182  19.275  24.873  1.00  0.00    -0.744 OA
ENDBRANCH  89  90
ENDBRANCH  61  84
BRANCH  73  94
ATOM     94  C   UNL A   1      48.458  27.251  29.527  1.00  0.00    -0.014 A 
ATOM     95  C   UNL A   1      49.334  27.579  28.478  1.00  0.00     0.010 A 
ATOM     96  C   UNL A   1      48.978  26.667  30.698  1.00  0.00     0.010 A 
ATOM     97  C   UNL A   1      50.703  27.320  28.594  1.00  0.00     0.020 A 
ATOM     98  C   UNL A   1      50.349  26.433  30.829  1.00  0.00     0.020 A 
ATOM     99  C   UNL A   1      51.202  26.757  29.773  1.00  0.00     0.054 A 
BRANCH  99 100
ATOM    100  S   UNL A   1      52.992  26.508  29.926  1.00  0.00     0.124 S 
ATOM    101  O   UNL A   1      53.460  27.851  30.260  1.00  0.00    -0.237 OA
ATOM    102  O   UNL A   1      53.086  25.525  31.003  1.00  0.00    -0.237 OA
ATOM    103  O   UNL A   1      53.390  26.020  28.608  1.00  0.00    -0.744 OA
ENDBRANCH  99 100
ENDBRANCH  73  94
ENDBRANCH  47  48
ENDBRANCH  39  42
ENDBRANCH  37  38
ENDBRANCH  36  37
ENDBRANCH  35  36
ENDBRANCH   1  35
TORSDOF 21
ENDMDL
