MODEL 1
REMARK VINA RESULT:     -12.1      0.000      0.000
REMARK SMILES O=C(NCCCCCCNC(=O)[C@H]1CC2(CCN(S(=O)(=O)N3CCOCC3)CC2)C[NH2+]1)c1ccc(-c2c3nc(c(-c4ccc(S(=O)(=O)[O-])cc4)c4ccc([nH]4)c(-c4ccc(S(=O)(=O)[O-])cc4)c4nc(c(-c5ccc(S(=O)(=O)[O-])cc5)c5ccc2[nH]5)C=C4)C=C3)cc1
REMARK SMILES IDX 6 1 5 2 4 3 3 4 1 5 2 6 32 8 33 9 91 10 34 11 90 12 35 13
REMARK SMILES IDX 36 14 37 15 84 16 38 17 89 18 83 19 85 20 39 21 88 22 82 23
REMARK SMILES IDX 81 24 40 26 70 27 51 28 69 29 52 30 55 31 68 32 86 33 53 34
REMARK SMILES IDX 54 35 67 37 87 38 56 39 41 40 42 41 50 42 43 43 49 44 44 45
REMARK SMILES IDX 45 46 46 47 47 48 48 49 71 50 72 51 80 52 73 53 79 54 74 55
REMARK SMILES IDX 75 56 76 57 77 58 78 59 57 60 58 61 66 62 59 63 65 64 60 65
REMARK SMILES IDX 61 66 62 67 63 68 64 69 7 70 8 71 9 72 10 73 11 74 12 76
REMARK SMILES IDX 13 77 14 78 31 79 15 80 30 81 16 84 29 85 17 86 28 87 18 88
REMARK SMILES IDX 19 89 20 90 21 91 22 92 23 93 27 94 24 95 26 96 25 97
REMARK H PARENT 3 7 85 25 55 36 10 75 31 82 31 83
REMARK Flexibility Score: inf
ROOT
ATOM      1  C   UNL A   1      33.580  29.361  26.169  1.00  0.00     0.002 C 
ENDROOT
BRANCH   1   2
ATOM      2  C   UNL A   1      34.647  28.916  27.172  1.00  0.00     0.021 C 
BRANCH   2   3
ATOM      3  C   UNL A   1      35.524  30.050  27.688  1.00  0.00     0.116 C 
BRANCH   3   4
ATOM      4  N   UNL A   1      35.361  30.243  29.119  1.00  0.00    -0.352 N 
ATOM      5  O   UNL A   1      35.854  29.959  31.299  1.00  0.00    -0.269 OA
ATOM      6  C   UNL A   1      36.239  29.957  30.133  1.00  0.00     0.251 C 
ATOM      7  H   UNL A   1      34.501  30.633  29.399  1.00  0.00     0.163 HD
BRANCH   6   8
ATOM      8  C   UNL A   1      37.642  29.634  29.808  1.00  0.00     0.039 A 
ATOM      9  C   UNL A   1      38.120  29.779  28.501  1.00  0.00     0.014 A 
ATOM     10  C   UNL A   1      38.488  29.189  30.826  1.00  0.00     0.014 A 
ATOM     11  C   UNL A   1      39.411  29.366  28.188  1.00  0.00     0.010 A 
ATOM     12  C   UNL A   1      39.806  28.850  30.523  1.00  0.00     0.010 A 
ATOM     13  C   UNL A   1      40.272  28.913  29.198  1.00  0.00    -0.014 A 
BRANCH  13  14
ATOM     14  C   UNL A   1      41.675  28.554  28.881  1.00  0.00     0.031 A 
ATOM     15  C   UNL A   1      42.757  29.594  28.909  1.00  0.00     0.074 A 
ATOM     16  C   UNL A   1      41.961  27.286  28.528  1.00  0.00     0.049 A 
ATOM     17  N   UNL A   1      44.016  29.482  28.572  1.00  0.00    -0.248 NA
ATOM     18  C   UNL A   1      42.374  30.938  29.365  1.00  0.00     0.031 C 
ATOM     19  C   UNL A   1      40.993  26.186  28.473  1.00  0.00     0.029 A 
ATOM     20  N   UNL A   1      43.141  26.709  28.134  1.00  0.00    -0.354 N 
ATOM     21  C   UNL A   1      44.571  30.743  28.747  1.00  0.00     0.074 A 
ATOM     22  C   UNL A   1      43.504  31.612  29.197  1.00  0.00     0.031 C 
ATOM     23  C   UNL A   1      41.621  25.069  28.083  1.00  0.00     0.029 A 
ATOM     24  C   UNL A   1      43.015  25.385  27.790  1.00  0.00     0.049 A 
ATOM     25  H   UNL A   1      43.996  27.197  28.102  1.00  0.00     0.167 HD
ATOM     26  C   UNL A   1      45.852  31.140  28.547  1.00  0.00     0.031 A 
ATOM     27  C   UNL A   1      43.905  24.527  27.260  1.00  0.00     0.031 A 
ATOM     28  C   UNL A   1      46.898  30.269  28.077  1.00  0.00     0.049 A 
ATOM     29  C   UNL A   1      45.305  24.999  26.991  1.00  0.00     0.074 A 
ATOM     30  C   UNL A   1      48.234  30.564  27.867  1.00  0.00     0.029 A 
ATOM     31  N   UNL A   1      46.725  28.936  27.728  1.00  0.00    -0.354 N 
ATOM     32  N   UNL A   1      45.821  26.188  27.191  1.00  0.00    -0.248 NA
ATOM     33  C   UNL A   1      46.243  24.017  26.434  1.00  0.00     0.031 C 
ATOM     34  C   UNL A   1      48.851  29.432  27.326  1.00  0.00     0.029 A 
ATOM     35  C   UNL A   1      47.922  28.404  27.277  1.00  0.00     0.049 A 
ATOM     36  H   UNL A   1      45.876  28.442  27.791  1.00  0.00     0.167 HD
ATOM     37  C   UNL A   1      47.156  26.088  26.817  1.00  0.00     0.074 A 
ATOM     38  C   UNL A   1      47.365  24.722  26.380  1.00  0.00     0.031 C 
ATOM     39  C   UNL A   1      48.120  27.041  26.847  1.00  0.00     0.031 A 
BRANCH  26  40
ATOM     40  C   UNL A   1      46.175  32.594  28.787  1.00  0.00    -0.014 A 
ATOM     41  C   UNL A   1      46.051  33.555  27.767  1.00  0.00     0.010 A 
ATOM     42  C   UNL A   1      46.602  33.008  30.064  1.00  0.00     0.010 A 
ATOM     43  C   UNL A   1      46.412  34.885  27.999  1.00  0.00     0.020 A 
ATOM     44  C   UNL A   1      46.930  34.345  30.309  1.00  0.00     0.020 A 
ATOM     45  C   UNL A   1      46.859  35.269  29.266  1.00  0.00     0.054 A 
BRANCH  45  46
ATOM     46  S   UNL A   1      47.346  36.996  29.530  1.00  0.00     0.124 S 
ATOM     47  O   UNL A   1      48.313  37.201  28.453  1.00  0.00    -0.237 OA
ATOM     48  O   UNL A   1      46.083  37.712  29.382  1.00  0.00    -0.237 OA
ATOM     49  O   UNL A   1      47.908  36.998  30.878  1.00  0.00    -0.744 OA
ENDBRANCH  45  46
ENDBRANCH  26  40
BRANCH  27  50
ATOM     50  C   UNL A   1      43.474  23.138  26.944  1.00  0.00    -0.014 A 
ATOM     51  C   UNL A   1      43.707  22.588  25.673  1.00  0.00     0.010 A 
ATOM     52  C   UNL A   1      42.894  22.333  27.944  1.00  0.00     0.010 A 
ATOM     53  C   UNL A   1      43.371  21.258  25.407  1.00  0.00     0.020 A 
ATOM     54  C   UNL A   1      42.586  20.994  27.692  1.00  0.00     0.020 A 
ATOM     55  C   UNL A   1      42.824  20.466  26.422  1.00  0.00     0.054 A 
BRANCH  55  56
ATOM     56  S   UNL A   1      42.483  18.718  26.077  1.00  0.00     0.124 S 
ATOM     57  O   UNL A   1      41.077  18.754  25.685  1.00  0.00    -0.237 OA
ATOM     58  O   UNL A   1      43.432  18.421  25.006  1.00  0.00    -0.237 OA
ATOM     59  O   UNL A   1      42.762  18.056  27.348  1.00  0.00    -0.744 OA
ENDBRANCH  55  56
ENDBRANCH  27  50
BRANCH  39  60
ATOM     60  C   UNL A   1      49.518  26.637  26.455  1.00  0.00    -0.014 A 
ATOM     61  C   UNL A   1      50.353  25.920  27.329  1.00  0.00     0.010 A 
ATOM     62  C   UNL A   1      49.962  26.905  25.147  1.00  0.00     0.010 A 
ATOM     63  C   UNL A   1      51.614  25.488  26.903  1.00  0.00     0.020 A 
ATOM     64  C   UNL A   1      51.207  26.448  24.708  1.00  0.00     0.020 A 
ATOM     65  C   UNL A   1      52.028  25.747  25.593  1.00  0.00     0.054 A 
BRANCH  65  66
ATOM     66  S   UNL A   1      53.631  25.103  25.040  1.00  0.00     0.124 S 
ATOM     67  O   UNL A   1      53.462  23.664  25.227  1.00  0.00    -0.237 OA
ATOM     68  O   UNL A   1      53.695  25.554  23.653  1.00  0.00    -0.237 OA
ATOM     69  O   UNL A   1      54.590  25.739  25.942  1.00  0.00    -0.744 OA
ENDBRANCH  65  66
ENDBRANCH  39  60
ENDBRANCH  13  14
ENDBRANCH   6   8
ENDBRANCH   3   4
ENDBRANCH   2   3
ENDBRANCH   1   2
BRANCH   1  70
ATOM     70  C   UNL A   1      32.623  30.437  26.692  1.00  0.00     0.002 C 
BRANCH  70  71
ATOM     71  C   UNL A   1      31.423  30.710  25.782  1.00  0.00     0.021 C 
BRANCH  71  72
ATOM     72  C   UNL A   1      31.129  29.562  24.826  1.00  0.00     0.116 C 
BRANCH  72  73
ATOM     73  N   UNL A   1      30.491  30.057  23.620  1.00  0.00    -0.351 N 
ATOM     74  C   UNL A   1      30.208  29.361  22.474  1.00  0.00     0.278 C 
ATOM     75  H   UNL A   1      30.230  31.007  23.626  1.00  0.00     0.163 HD
ATOM     76  O   UNL A   1      29.899  29.986  21.462  1.00  0.00    -0.268 OA
BRANCH  74  77
ATOM     77  C   UNL A   1      30.284  27.836  22.564  1.00  0.00     0.273 C 
ATOM     78  C   UNL A   1      31.658  27.409  23.052  1.00  0.00     0.088 C 
ATOM     79  N   UNL A   1      29.426  27.272  23.617  1.00  0.00    -0.336 N 
ATOM     80  C   UNL A   1      31.437  26.005  23.643  1.00  0.00     0.028 C 
ATOM     81  C   UNL A   1      29.905  25.905  23.794  1.00  0.00     0.268 C 
ATOM     82  H   UNL A   1      28.448  27.276  23.326  1.00  0.00     0.346 HD
ATOM     83  H   UNL A   1      29.471  27.812  24.483  1.00  0.00     0.346 HD
ATOM     84  C   UNL A   1      32.142  25.949  25.009  1.00  0.00     0.030 C 
ATOM     85  C   UNL A   1      31.954  24.911  22.667  1.00  0.00     0.030 C 
ATOM     86  C   UNL A   1      33.637  25.824  24.803  1.00  0.00     0.104 C 
ATOM     87  C   UNL A   1      33.475  24.701  22.684  1.00  0.00     0.104 C 
ATOM     88  N   UNL A   1      33.977  24.584  24.083  1.00  0.00    -0.189 NA
BRANCH  88  89
ATOM     89  S   UNL A   1      33.714  23.060  24.781  1.00  0.00     0.282 S 
ATOM     90  O   UNL A   1      32.650  23.166  25.755  1.00  0.00    -0.195 OA
ATOM     91  O   UNL A   1      33.605  22.121  23.690  1.00  0.00    -0.195 OA
BRANCH  89  92
ATOM     92  N   UNL A   1      35.122  22.740  25.589  1.00  0.00    -0.184 NA
ATOM     93  C   UNL A   1      35.455  21.381  26.033  1.00  0.00     0.132 C 
ATOM     94  C   UNL A   1      36.263  23.670  25.641  1.00  0.00     0.132 C 
ATOM     95  C   UNL A   1      36.607  20.858  25.182  1.00  0.00     0.177 C 
ATOM     96  C   UNL A   1      37.516  23.080  24.980  1.00  0.00     0.177 C 
ATOM     97  O   UNL A   1      37.765  21.703  25.302  1.00  0.00    -0.379 OA
ENDBRANCH  89  92
ENDBRANCH  88  89
ENDBRANCH  74  77
ENDBRANCH  72  73
ENDBRANCH  71  72
ENDBRANCH  70  71
ENDBRANCH   1  70
TORSDOF 18
ENDMDL
MODEL 2
REMARK VINA RESULT:     -12.0      6.597      8.581
REMARK SMILES O=C(NCCCCCCNC(=O)[C@H]1CC2(CCN(S(=O)(=O)N3CCOCC3)CC2)C[NH2+]1)c1ccc(-c2c3nc(c(-c4ccc(S(=O)(=O)[O-])cc4)c4ccc([nH]4)c(-c4ccc(S(=O)(=O)[O-])cc4)c4nc(c(-c5ccc(S(=O)(=O)[O-])cc5)c5ccc2[nH]5)C=C4)C=C3)cc1
REMARK SMILES IDX 6 1 5 2 4 3 3 4 1 5 2 6 32 8 33 9 91 10 34 11 90 12 35 13
REMARK SMILES IDX 36 14 37 15 84 16 38 17 89 18 83 19 85 20 39 21 88 22 82 23
REMARK SMILES IDX 81 24 40 26 70 27 51 28 69 29 52 30 55 31 68 32 86 33 53 34
REMARK SMILES IDX 54 35 67 37 87 38 56 39 41 40 42 41 50 42 43 43 49 44 44 45
REMARK SMILES IDX 45 46 46 47 47 48 48 49 71 50 72 51 80 52 73 53 79 54 74 55
REMARK SMILES IDX 75 56 76 57 77 58 78 59 57 60 58 61 66 62 59 63 65 64 60 65
REMARK SMILES IDX 61 66 62 67 63 68 64 69 7 70 8 71 9 72 10 73 11 74 12 76
REMARK SMILES IDX 13 77 14 78 31 79 15 80 30 81 16 84 29 85 17 86 28 87 18 88
REMARK SMILES IDX 19 89 20 90 21 91 22 92 23 93 27 94 24 95 26 96 25 97
REMARK H PARENT 3 7 85 25 55 36 10 75 31 82 31 83
REMARK Flexibility Score: inf
ROOT
ATOM      1  C   UNL A   1      35.448  34.458  28.713  1.00  0.00     0.002 C 
ENDROOT
BRANCH   1   2
ATOM      2  C   UNL A   1      34.168  35.295  28.729  1.00  0.00     0.021 C 
BRANCH   2   3
ATOM      3  C   UNL A   1      33.039  34.685  29.550  1.00  0.00     0.116 C 
BRANCH   3   4
ATOM      4  N   UNL A   1      32.615  35.574  30.619  1.00  0.00    -0.352 N 
ATOM      5  O   UNL A   1      32.383  36.254  32.754  1.00  0.00    -0.269 OA
ATOM      6  C   UNL A   1      33.012  35.595  31.932  1.00  0.00     0.251 C 
ATOM      7  H   UNL A   1      31.952  36.256  30.365  1.00  0.00     0.163 HD
BRANCH   6   8
ATOM      8  C   UNL A   1      34.190  34.808  32.346  1.00  0.00     0.039 A 
ATOM      9  C   UNL A   1      34.039  33.508  32.839  1.00  0.00     0.014 A 
ATOM     10  C   UNL A   1      35.459  35.378  32.233  1.00  0.00     0.014 A 
ATOM     11  C   UNL A   1      35.144  32.821  33.329  1.00  0.00     0.010 A 
ATOM     12  C   UNL A   1      36.576  34.656  32.652  1.00  0.00     0.010 A 
ATOM     13  C   UNL A   1      36.426  33.382  33.225  1.00  0.00    -0.014 A 
BRANCH  13  14
ATOM     14  C   UNL A   1      37.616  32.615  33.667  1.00  0.00     0.031 A 
ATOM     15  C   UNL A   1      38.319  32.963  34.948  1.00  0.00     0.074 A 
ATOM     16  C   UNL A   1      38.083  31.625  32.884  1.00  0.00     0.049 A 
ATOM     17  N   UNL A   1      39.423  32.465  35.442  1.00  0.00    -0.248 NA
ATOM     18  C   UNL A   1      37.710  34.015  35.775  1.00  0.00     0.031 C 
ATOM     19  C   UNL A   1      37.478  31.191  31.621  1.00  0.00     0.029 A 
ATOM     20  N   UNL A   1      39.180  30.813  33.022  1.00  0.00    -0.354 N 
ATOM     21  C   UNL A   1      39.658  33.158  36.623  1.00  0.00     0.074 A 
ATOM     22  C   UNL A   1      38.593  34.130  36.757  1.00  0.00     0.031 C 
ATOM     23  C   UNL A   1      38.203  30.187  31.110  1.00  0.00     0.029 A 
ATOM     24  C   UNL A   1      39.361  29.954  31.966  1.00  0.00     0.049 A 
ATOM     25  H   UNL A   1      39.779  30.844  33.804  1.00  0.00     0.167 HD
ATOM     26  C   UNL A   1      40.670  33.000  37.511  1.00  0.00     0.031 A 
ATOM     27  C   UNL A   1      40.364  29.100  31.691  1.00  0.00     0.031 A 
ATOM     28  C   UNL A   1      41.735  32.044  37.351  1.00  0.00     0.049 A 
ATOM     29  C   UNL A   1      41.507  28.979  32.656  1.00  0.00     0.074 A 
ATOM     30  C   UNL A   1      42.793  31.784  38.206  1.00  0.00     0.029 A 
ATOM     31  N   UNL A   1      41.888  31.199  36.260  1.00  0.00    -0.354 N 
ATOM     32  N   UNL A   1      41.698  29.621  33.785  1.00  0.00    -0.248 NA
ATOM     33  C   UNL A   1      42.564  28.017  32.320  1.00  0.00     0.031 C 
ATOM     34  C   UNL A   1      43.622  30.836  37.598  1.00  0.00     0.029 A 
ATOM     35  C   UNL A   1      43.038  30.440  36.404  1.00  0.00     0.049 A 
ATOM     36  H   UNL A   1      41.270  31.148  35.495  1.00  0.00     0.167 HD
ATOM     37  C   UNL A   1      42.880  29.115  34.311  1.00  0.00     0.074 A 
ATOM     38  C   UNL A   1      43.358  28.114  33.378  1.00  0.00     0.031 C 
ATOM     39  C   UNL A   1      43.503  29.443  35.471  1.00  0.00     0.031 A 
BRANCH  26  40
ATOM     40  C   UNL A   1      40.698  33.921  38.706  1.00  0.00    -0.014 A 
ATOM     41  C   UNL A   1      41.359  35.162  38.665  1.00  0.00     0.010 A 
ATOM     42  C   UNL A   1      40.038  33.540  39.890  1.00  0.00     0.010 A 
ATOM     43  C   UNL A   1      41.419  35.971  39.803  1.00  0.00     0.020 A 
ATOM     44  C   UNL A   1      40.066  34.363  41.020  1.00  0.00     0.020 A 
ATOM     45  C   UNL A   1      40.780  35.561  40.976  1.00  0.00     0.054 A 
BRANCH  45  46
ATOM     46  S   UNL A   1      40.899  36.618  42.446  1.00  0.00     0.124 S 
ATOM     47  O   UNL A   1      39.562  37.206  42.499  1.00  0.00    -0.237 OA
ATOM     48  O   UNL A   1      41.203  35.660  43.505  1.00  0.00    -0.237 OA
ATOM     49  O   UNL A   1      41.976  37.548  42.120  1.00  0.00    -0.744 OA
ENDBRANCH  45  46
ENDBRANCH  26  40
BRANCH  27  50
ATOM     50  C   UNL A   1      40.318  28.310  30.430  1.00  0.00    -0.014 A 
ATOM     51  C   UNL A   1      41.225  28.569  29.389  1.00  0.00     0.010 A 
ATOM     52  C   UNL A   1      39.412  27.239  30.300  1.00  0.00     0.010 A 
ATOM     53  C   UNL A   1      41.228  27.772  28.241  1.00  0.00     0.020 A 
ATOM     54  C   UNL A   1      39.433  26.421  29.167  1.00  0.00     0.020 A 
ATOM     55  C   UNL A   1      40.340  26.696  28.143  1.00  0.00     0.054 A 
BRANCH  55  56
ATOM     56  S   UNL A   1      40.428  25.623  26.683  1.00  0.00     0.124 S 
ATOM     57  O   UNL A   1      39.053  25.147  26.571  1.00  0.00    -0.237 OA
ATOM     58  O   UNL A   1      40.865  26.549  25.641  1.00  0.00    -0.237 OA
ATOM     59  O   UNL A   1      41.413  24.612  27.059  1.00  0.00    -0.744 OA
ENDBRANCH  55  56
ENDBRANCH  27  50
BRANCH  39  60
ATOM     60  C   UNL A   1      44.745  28.675  35.842  1.00  0.00    -0.014 A 
ATOM     61  C   UNL A   1      46.015  29.055  35.376  1.00  0.00     0.010 A 
ATOM     62  C   UNL A   1      44.639  27.606  36.751  1.00  0.00     0.010 A 
ATOM     63  C   UNL A   1      47.157  28.370  35.806  1.00  0.00     0.020 A 
ATOM     64  C   UNL A   1      45.778  26.940  37.207  1.00  0.00     0.020 A 
ATOM     65  C   UNL A   1      47.031  27.324  36.726  1.00  0.00     0.054 A 
BRANCH  65  66
ATOM     66  S   UNL A   1      48.534  26.509  37.332  1.00  0.00     0.124 S 
ATOM     67  O   UNL A   1      48.720  27.143  38.635  1.00  0.00    -0.237 OA
ATOM     68  O   UNL A   1      48.142  25.103  37.367  1.00  0.00    -0.237 OA
ATOM     69  O   UNL A   1      49.541  26.846  36.327  1.00  0.00    -0.744 OA
ENDBRANCH  65  66
ENDBRANCH  39  60
ENDBRANCH  13  14
ENDBRANCH   6   8
ENDBRANCH   3   4
ENDBRANCH   2   3
ENDBRANCH   1   2
BRANCH   1  70
ATOM     70  C   UNL A   1      35.281  33.028  29.239  1.00  0.00     0.002 C 
BRANCH  70  71
ATOM     71  C   UNL A   1      35.934  31.954  28.366  1.00  0.00     0.021 C 
BRANCH  71  72
ATOM     72  C   UNL A   1      35.085  30.699  28.232  1.00  0.00     0.116 C 
BRANCH  72  73
ATOM     73  N   UNL A   1      33.697  31.048  27.991  1.00  0.00    -0.351 N 
ATOM     74  C   UNL A   1      32.914  30.686  26.925  1.00  0.00     0.278 C 
ATOM     75  H   UNL A   1      33.266  31.610  28.675  1.00  0.00     0.163 HD
ATOM     76  O   UNL A   1      31.846  31.271  26.749  1.00  0.00    -0.268 OA
BRANCH  74  77
ATOM     77  C   UNL A   1      33.438  29.551  26.045  1.00  0.00     0.273 C 
ATOM     78  C   UNL A   1      32.712  28.258  26.374  1.00  0.00     0.088 C 
ATOM     79  N   UNL A   1      33.093  29.711  24.624  1.00  0.00    -0.336 N 
ATOM     80  C   UNL A   1      32.873  27.395  25.110  1.00  0.00     0.028 C 
ATOM     81  C   UNL A   1      33.335  28.398  24.034  1.00  0.00     0.268 C 
ATOM     82  H   UNL A   1      33.685  30.417  24.187  1.00  0.00     0.346 HD
ATOM     83  H   UNL A   1      32.129  30.021  24.492  1.00  0.00     0.346 HD
ATOM     84  C   UNL A   1      31.498  26.795  24.767  1.00  0.00     0.030 C 
ATOM     85  C   UNL A   1      33.956  26.300  25.326  1.00  0.00     0.030 C 
ATOM     86  C   UNL A   1      31.187  25.660  25.721  1.00  0.00     0.104 C 
ATOM     87  C   UNL A   1      33.484  25.077  26.126  1.00  0.00     0.104 C 
ATOM     88  N   UNL A   1      32.179  24.577  25.606  1.00  0.00    -0.189 NA
BRANCH  88  89
ATOM     89  S   UNL A   1      32.314  23.653  24.188  1.00  0.00     0.282 S 
ATOM     90  O   UNL A   1      30.992  23.246  23.765  1.00  0.00    -0.195 OA
ATOM     91  O   UNL A   1      33.163  24.399  23.291  1.00  0.00    -0.195 OA
BRANCH  89  92
ATOM     92  N   UNL A   1      33.141  22.302  24.667  1.00  0.00    -0.184 NA
ATOM     93  C   UNL A   1      34.466  21.986  24.120  1.00  0.00     0.132 C 
ATOM     94  C   UNL A   1      32.796  21.515  25.863  1.00  0.00     0.132 C 
ATOM     95  C   UNL A   1      35.508  22.195  25.213  1.00  0.00     0.177 C 
ATOM     96  C   UNL A   1      33.926  21.525  26.902  1.00  0.00     0.177 C 
ATOM     97  O   UNL A   1      35.241  21.356  26.351  1.00  0.00    -0.379 OA
ENDBRANCH  89  92
ENDBRANCH  88  89
ENDBRANCH  74  77
ENDBRANCH  72  73
ENDBRANCH  71  72
ENDBRANCH  70  71
ENDBRANCH   1  70
TORSDOF 18
ENDMDL
MODEL 3
REMARK VINA RESULT:     -11.7      1.028      8.058
REMARK SMILES O=C(NCCCCCCNC(=O)[C@H]1CC2(CCN(S(=O)(=O)N3CCOCC3)CC2)C[NH2+]1)c1ccc(-c2c3nc(c(-c4ccc(S(=O)(=O)[O-])cc4)c4ccc([nH]4)c(-c4ccc(S(=O)(=O)[O-])cc4)c4nc(c(-c5ccc(S(=O)(=O)[O-])cc5)c5ccc2[nH]5)C=C4)C=C3)cc1
REMARK SMILES IDX 6 1 5 2 4 3 3 4 1 5 2 6 32 8 33 9 91 10 34 11 90 12 35 13
REMARK SMILES IDX 36 14 37 15 84 16 38 17 89 18 83 19 85 20 39 21 88 22 82 23
REMARK SMILES IDX 81 24 40 26 70 27 51 28 69 29 52 30 55 31 68 32 86 33 53 34
REMARK SMILES IDX 54 35 67 37 87 38 56 39 41 40 42 41 50 42 43 43 49 44 44 45
REMARK SMILES IDX 45 46 46 47 47 48 48 49 71 50 72 51 80 52 73 53 79 54 74 55
REMARK SMILES IDX 75 56 76 57 77 58 78 59 57 60 58 61 66 62 59 63 65 64 60 65
REMARK SMILES IDX 61 66 62 67 63 68 64 69 7 70 8 71 9 72 10 73 11 74 12 76
REMARK SMILES IDX 13 77 14 78 31 79 15 80 30 81 16 84 29 85 17 86 28 87 18 88
REMARK SMILES IDX 19 89 20 90 21 91 22 92 23 93 27 94 24 95 26 96 25 97
REMARK H PARENT 3 7 85 25 55 36 10 75 31 82 31 83
REMARK Flexibility Score: inf
ROOT
ATOM      1  C   UNL A   1      34.925  29.511  27.889  1.00  0.00     0.002 C 
ENDROOT
BRANCH   1   2
ATOM      2  C   UNL A   1      34.742  31.012  28.118  1.00  0.00     0.021 C 
BRANCH   2   3
ATOM      3  C   UNL A   1      35.861  31.656  28.928  1.00  0.00     0.116 C 
BRANCH   3   4
ATOM      4  N   UNL A   1      35.817  31.244  30.321  1.00  0.00    -0.352 N 
ATOM      5  O   UNL A   1      36.398  30.018  32.120  1.00  0.00    -0.269 OA
ATOM      6  C   UNL A   1      36.705  30.466  31.019  1.00  0.00     0.251 C 
ATOM      7  H   UNL A   1      35.043  31.569  30.835  1.00  0.00     0.163 HD
BRANCH   6   8
ATOM      8  C   UNL A   1      38.023  30.161  30.428  1.00  0.00     0.039 A 
ATOM      9  C   UNL A   1      38.213  30.225  29.043  1.00  0.00     0.014 A 
ATOM     10  C   UNL A   1      39.080  29.814  31.271  1.00  0.00     0.014 A 
ATOM     11  C   UNL A   1      39.426  29.829  28.492  1.00  0.00     0.010 A 
ATOM     12  C   UNL A   1      40.320  29.492  30.720  1.00  0.00     0.010 A 
ATOM     13  C   UNL A   1      40.497  29.474  29.326  1.00  0.00    -0.014 A 
BRANCH  13  14
ATOM     14  C   UNL A   1      41.818  29.133  28.744  1.00  0.00     0.031 A 
ATOM     15  C   UNL A   1      42.113  27.738  28.276  1.00  0.00     0.074 A 
ATOM     16  C   UNL A   1      42.767  30.087  28.677  1.00  0.00     0.049 A 
ATOM     17  N   UNL A   1      43.237  27.239  27.829  1.00  0.00    -0.248 NA
ATOM     18  C   UNL A   1      41.005  26.772  28.327  1.00  0.00     0.031 C 
ATOM     19  C   UNL A   1      42.593  31.482  29.092  1.00  0.00     0.029 A 
ATOM     20  N   UNL A   1      44.068  30.028  28.248  1.00  0.00    -0.354 N 
ATOM     21  C   UNL A   1      42.983  25.899  27.571  1.00  0.00     0.074 A 
ATOM     22  C   UNL A   1      41.602  25.655  27.936  1.00  0.00     0.031 C 
ATOM     23  C   UNL A   1      43.738  32.146  28.886  1.00  0.00     0.029 A 
ATOM     24  C   UNL A   1      44.746  31.214  28.394  1.00  0.00     0.049 A 
ATOM     25  H   UNL A   1      44.476  29.215  27.871  1.00  0.00     0.167 HD
ATOM     26  C   UNL A   1      43.824  24.956  27.078  1.00  0.00     0.031 A 
ATOM     27  C   UNL A   1      46.043  31.515  28.195  1.00  0.00     0.031 A 
ATOM     28  C   UNL A   1      45.201  25.208  26.742  1.00  0.00     0.049 A 
ATOM     29  C   UNL A   1      46.974  30.445  27.704  1.00  0.00     0.074 A 
ATOM     30  C   UNL A   1      46.131  24.331  26.211  1.00  0.00     0.029 A 
ATOM     31  N   UNL A   1      45.853  26.421  26.917  1.00  0.00    -0.354 N 
ATOM     32  N   UNL A   1      46.710  29.187  27.436  1.00  0.00    -0.248 NA
ATOM     33  C   UNL A   1      48.372  30.831  27.482  1.00  0.00     0.031 C 
ATOM     34  C   UNL A   1      47.361  24.993  26.132  1.00  0.00     0.029 A 
ATOM     35  C   UNL A   1      47.179  26.308  26.533  1.00  0.00     0.049 A 
ATOM     36  H   UNL A   1      45.435  27.242  27.265  1.00  0.00     0.167 HD
ATOM     37  C   UNL A   1      47.903  28.641  26.979  1.00  0.00     0.074 A 
ATOM     38  C   UNL A   1      48.887  29.704  27.007  1.00  0.00     0.031 C 
ATOM     39  C   UNL A   1      48.151  27.374  26.561  1.00  0.00     0.031 A 
BRANCH  26  40
ATOM     40  C   UNL A   1      43.287  23.555  26.926  1.00  0.00    -0.014 A 
ATOM     41  C   UNL A   1      43.323  22.632  27.988  1.00  0.00     0.010 A 
ATOM     42  C   UNL A   1      42.724  23.157  25.699  1.00  0.00     0.010 A 
ATOM     43  C   UNL A   1      42.872  21.322  27.804  1.00  0.00     0.020 A 
ATOM     44  C   UNL A   1      42.240  21.857  25.522  1.00  0.00     0.020 A 
ATOM     45  C   UNL A   1      42.342  20.941  26.569  1.00  0.00     0.054 A 
BRANCH  45  46
ATOM     46  S   UNL A   1      41.790  19.227  26.351  1.00  0.00     0.124 S 
ATOM     47  O   UNL A   1      42.842  18.680  25.496  1.00  0.00    -0.237 OA
ATOM     48  O   UNL A   1      41.770  18.720  27.720  1.00  0.00    -0.237 OA
ATOM     49  O   UNL A   1      40.481  19.360  25.718  1.00  0.00    -0.744 OA
ENDBRANCH  45  46
ENDBRANCH  26  40
BRANCH  27  50
ATOM     50  C   UNL A   1      46.519  32.896  28.479  1.00  0.00    -0.014 A 
ATOM     51  C   UNL A   1      46.984  33.243  29.758  1.00  0.00     0.010 A 
ATOM     52  C   UNL A   1      46.578  33.850  27.445  1.00  0.00     0.010 A 
ATOM     53  C   UNL A   1      47.503  34.519  29.997  1.00  0.00     0.020 A 
ATOM     54  C   UNL A   1      47.125  35.115  27.672  1.00  0.00     0.020 A 
ATOM     55  C   UNL A   1      47.581  35.442  28.950  1.00  0.00     0.054 A 
BRANCH  55  56
ATOM     56  S   UNL A   1      48.343  37.057  29.266  1.00  0.00     0.124 S 
ATOM     57  O   UNL A   1      47.728  37.442  30.533  1.00  0.00    -0.237 OA
ATOM     58  O   UNL A   1      49.765  36.725  29.328  1.00  0.00    -0.237 OA
ATOM     59  O   UNL A   1      47.948  37.857  28.110  1.00  0.00    -0.744 OA
ENDBRANCH  55  56
ENDBRANCH  27  50
BRANCH  39  60
ATOM     60  C   UNL A   1      49.530  27.067  26.037  1.00  0.00    -0.014 A 
ATOM     61  C   UNL A   1      50.501  26.440  26.837  1.00  0.00     0.010 A 
ATOM     62  C   UNL A   1      49.820  27.330  24.686  1.00  0.00     0.010 A 
ATOM     63  C   UNL A   1      51.743  26.094  26.294  1.00  0.00     0.020 A 
ATOM     64  C   UNL A   1      51.047  26.958  24.132  1.00  0.00     0.020 A 
ATOM     65  C   UNL A   1      52.004  26.347  24.943  1.00  0.00     0.054 A 
BRANCH  65  66
ATOM     66  S   UNL A   1      53.589  25.810  24.244  1.00  0.00     0.124 S 
ATOM     67  O   UNL A   1      53.696  24.443  24.745  1.00  0.00    -0.237 OA
ATOM     68  O   UNL A   1      53.364  25.940  22.807  1.00  0.00    -0.237 OA
ATOM     69  O   UNL A   1      54.553  26.755  24.806  1.00  0.00    -0.744 OA
ENDBRANCH  65  66
ENDBRANCH  39  60
ENDBRANCH  13  14
ENDBRANCH   6   8
ENDBRANCH   3   4
ENDBRANCH   2   3
ENDBRANCH   1   2
BRANCH   1  70
ATOM     70  C   UNL A   1      33.802  28.847  27.085  1.00  0.00     0.002 C 
BRANCH  70  71
ATOM     71  C   UNL A   1      32.549  29.710  26.922  1.00  0.00     0.021 C 
BRANCH  71  72
ATOM     72  C   UNL A   1      32.403  30.290  25.522  1.00  0.00     0.116 C 
BRANCH  72  73
ATOM     73  N   UNL A   1      31.017  30.239  25.094  1.00  0.00    -0.351 N 
ATOM     74  C   UNL A   1      30.508  29.646  23.967  1.00  0.00     0.278 C 
ATOM     75  H   UNL A   1      30.364  30.683  25.683  1.00  0.00     0.163 HD
ATOM     76  O   UNL A   1      29.357  29.910  23.627  1.00  0.00    -0.268 OA
BRANCH  74  77
ATOM     77  C   UNL A   1      31.429  28.671  23.232  1.00  0.00     0.273 C 
ATOM     78  C   UNL A   1      31.673  27.438  24.085  1.00  0.00     0.088 C 
ATOM     79  N   UNL A   1      30.807  28.070  22.042  1.00  0.00    -0.336 N 
ATOM     80  C   UNL A   1      32.078  26.348  23.077  1.00  0.00     0.028 C 
ATOM     81  C   UNL A   1      31.662  26.933  21.713  1.00  0.00     0.268 C 
ATOM     82  H   UNL A   1      30.783  28.737  21.272  1.00  0.00     0.346 HD
ATOM     83  H   UNL A   1      29.841  27.789  22.211  1.00  0.00     0.346 HD
ATOM     84  C   UNL A   1      31.281  25.074  23.410  1.00  0.00     0.030 C 
ATOM     85  C   UNL A   1      33.614  26.108  23.116  1.00  0.00     0.030 C 
ATOM     86  C   UNL A   1      31.872  24.413  24.638  1.00  0.00     0.104 C 
ATOM     87  C   UNL A   1      34.101  25.239  24.284  1.00  0.00     0.104 C 
ATOM     88  N   UNL A   1      33.269  24.008  24.409  1.00  0.00    -0.189 NA
BRANCH  88  89
ATOM     89  S   UNL A   1      33.662  22.797  23.286  1.00  0.00     0.282 S 
ATOM     90  O   UNL A   1      32.624  21.790  23.297  1.00  0.00    -0.195 OA
ATOM     91  O   UNL A   1      34.002  23.472  22.056  1.00  0.00    -0.195 OA
BRANCH  89  92
ATOM     92  N   UNL A   1      35.044  22.120  23.893  1.00  0.00    -0.184 NA
ATOM     93  C   UNL A   1      36.369  22.647  23.544  1.00  0.00     0.132 C 
ATOM     94  C   UNL A   1      35.064  21.193  25.038  1.00  0.00     0.132 C 
ATOM     95  C   UNL A   1      36.961  23.330  24.771  1.00  0.00     0.177 C 
ATOM     96  C   UNL A   1      35.849  21.766  26.226  1.00  0.00     0.177 C 
ATOM     97  O   UNL A   1      37.081  22.409  25.870  1.00  0.00    -0.379 OA
ENDBRANCH  89  92
ENDBRANCH  88  89
ENDBRANCH  74  77
ENDBRANCH  72  73
ENDBRANCH  71  72
ENDBRANCH  70  71
ENDBRANCH   1  70
TORSDOF 18
ENDMDL
