MODEL 1
REMARK VINA RESULT:     -11.0      0.000      0.000
REMARK SMILES C[C@@H](C(=O)NCCCCCCNC(=O)c1ccc(-c2c3nc(c(-c4ccc(S(=O)(=O)[O-])cc4)c4ccc([nH]4)c(-c4ccc(S(=O)(=O)[O-])cc4)c4nc(c(-c5ccc(S(=O)(=O)[O-])cc5)c5ccc2[nH]5)C=C4)C=C3)cc1)c1ccc(C[C@@H]2CCC[C@@H]2O)cc1Br
REMARK SMILES IDX 8 1 7 2 6 3 5 4 3 5 4 6 2 8 1 9 75 10 76 11 87 12 77 13
REMARK SMILES IDX 86 14 88 15 78 16 79 17 80 18 81 19 84 20 82 21 83 22 85 23
REMARK SMILES IDX 9 25 10 26 11 27 12 28 13 29 14 31 15 32 16 33 74 34 17 35
REMARK SMILES IDX 73 36 18 37 19 38 20 39 67 40 21 41 72 42 66 43 68 44 22 45
REMARK SMILES IDX 71 46 65 47 64 48 23 50 53 51 34 52 52 53 35 54 38 55 51 56
REMARK SMILES IDX 69 57 36 58 37 59 50 61 70 62 39 63 24 64 25 65 33 66 26 67
REMARK SMILES IDX 32 68 27 69 28 70 29 71 30 72 31 73 54 74 55 75 63 76 56 77
REMARK SMILES IDX 62 78 57 79 58 80 59 81 60 82 61 83 40 84 41 85 49 86 42 87
REMARK SMILES IDX 48 88 43 89 44 90 45 91 46 92 47 93
REMARK H PARENT 5 7 85 24 12 30 68 49 38 60
REMARK Flexibility Score: inf
ROOT
ATOM      1  C   UNL A   1      32.688  28.671  26.790  1.00  0.00     0.002 C 
ENDROOT
BRANCH   1   2
ATOM      2  C   UNL A   1      31.583  28.906  25.750  1.00  0.00     0.021 C 
BRANCH   2   3
ATOM      3  C   UNL A   1      31.028  27.615  25.138  1.00  0.00     0.116 C 
BRANCH   3   4
ATOM      4  N   UNL A   1      31.835  27.230  23.998  1.00  0.00    -0.356 N 
ATOM      5  C   UNL A   1      32.970  26.470  23.959  1.00  0.00     0.227 C 
ATOM      6  O   UNL A   1      33.665  26.551  22.944  1.00  0.00    -0.274 OA
ATOM      7  H   UNL A   1      31.520  27.562  23.126  1.00  0.00     0.163 HD
BRANCH   5   8
ATOM      8  C   UNL A   1      33.310  25.543  25.145  1.00  0.00     0.106 C 
ATOM      9  C   UNL A   1      34.716  25.893  25.658  1.00  0.00     0.023 C 
BRANCH   8  10
ATOM     10  C   UNL A   1      33.138  24.066  24.761  1.00  0.00    -0.022 A 
ATOM     11  C   UNL A   1      34.119  23.402  24.001  1.00  0.00     0.006 A 
ATOM     12  C   UNL A   1      31.987  23.329  25.102  1.00  0.00     0.022 A 
ATOM     13  C   UNL A   1      33.927  22.105  23.528  1.00  0.00     0.004 A 
ATOM     14  C   UNL A   1      31.773  22.045  24.578  1.00  0.00     0.019 A 
ATOM     15  Br  UNL A   1      30.647  23.994  26.281  1.00  0.00    -0.051 Br
ATOM     16  C   UNL A   1      32.722  21.441  23.745  1.00  0.00    -0.047 A 
BRANCH  16  17
ATOM     17  C   UNL A   1      32.437  20.122  23.073  1.00  0.00     0.041 C 
BRANCH  17  18
ATOM     18  C   UNL A   1      32.456  18.850  23.957  1.00  0.00     0.022 C 
ATOM     19  C   UNL A   1      33.646  18.725  24.917  1.00  0.00     0.007 C 
ATOM     20  C   UNL A   1      32.471  17.499  23.232  1.00  0.00     0.117 C 
ATOM     21  C   UNL A   1      34.642  17.760  24.265  1.00  0.00     0.003 C 
ATOM     22  C   UNL A   1      33.947  17.170  23.043  1.00  0.00     0.032 C 
BRANCH  20  23
ATOM     23  O   UNL A   1      31.742  17.512  22.024  1.00  0.00    -0.393 OA
ATOM     24  H   UNL A   1      30.798  17.631  22.216  1.00  0.00     0.210 HD
ENDBRANCH  20  23
ENDBRANCH  17  18
ENDBRANCH  16  17
ENDBRANCH   8  10
ENDBRANCH   5   8
ENDBRANCH   3   4
ENDBRANCH   2   3
ENDBRANCH   1   2
BRANCH   1  25
ATOM     25  C   UNL A   1      33.959  29.499  26.576  1.00  0.00     0.002 C 
BRANCH  25  26
ATOM     26  C   UNL A   1      34.126  30.676  27.538  1.00  0.00     0.021 C 
BRANCH  26  27
ATOM     27  C   UNL A   1      35.518  30.798  28.148  1.00  0.00     0.116 C 
BRANCH  27  28
ATOM     28  N   UNL A   1      35.463  31.115  29.567  1.00  0.00    -0.352 N 
ATOM     29  C   UNL A   1      36.365  30.795  30.552  1.00  0.00     0.251 C 
ATOM     30  H   UNL A   1      34.675  31.626  29.861  1.00  0.00     0.163 HD
ATOM     31  O   UNL A   1      36.078  30.955  31.735  1.00  0.00    -0.269 OA
BRANCH  29  32
ATOM     32  C   UNL A   1      37.680  30.237  30.173  1.00  0.00     0.039 A 
ATOM     33  C   UNL A   1      38.130  30.380  28.858  1.00  0.00     0.014 A 
ATOM     34  C   UNL A   1      38.473  29.596  31.127  1.00  0.00     0.014 A 
ATOM     35  C   UNL A   1      39.408  29.933  28.514  1.00  0.00     0.010 A 
ATOM     36  C   UNL A   1      39.769  29.213  30.801  1.00  0.00     0.010 A 
ATOM     37  C   UNL A   1      40.248  29.375  29.491  1.00  0.00    -0.014 A 
BRANCH  37  38
ATOM     38  C   UNL A   1      41.634  28.947  29.176  1.00  0.00     0.031 A 
ATOM     39  C   UNL A   1      42.745  29.959  29.167  1.00  0.00     0.074 A 
ATOM     40  C   UNL A   1      41.874  27.678  28.794  1.00  0.00     0.049 A 
ATOM     41  N   UNL A   1      43.991  29.816  28.793  1.00  0.00    -0.248 NA
ATOM     42  C   UNL A   1      42.401  31.321  29.604  1.00  0.00     0.031 C 
ATOM     43  C   UNL A   1      40.871  26.612  28.718  1.00  0.00     0.029 A 
ATOM     44  N   UNL A   1      43.032  27.074  28.372  1.00  0.00    -0.354 N 
ATOM     45  C   UNL A   1      44.569  31.073  28.920  1.00  0.00     0.074 A 
ATOM     46  C   UNL A   1      43.527  31.974  29.363  1.00  0.00     0.031 C 
ATOM     47  C   UNL A   1      41.457  25.489  28.275  1.00  0.00     0.029 A 
ATOM     48  C   UNL A   1      42.864  25.762  27.997  1.00  0.00     0.049 A 
ATOM     49  H   UNL A   1      43.901  27.537  28.341  1.00  0.00     0.167 HD
ATOM     50  C   UNL A   1      45.853  31.442  28.697  1.00  0.00     0.031 A 
ATOM     51  C   UNL A   1      43.736  24.881  27.468  1.00  0.00     0.031 A 
ATOM     52  C   UNL A   1      46.885  30.539  28.264  1.00  0.00     0.049 A 
ATOM     53  C   UNL A   1      45.160  25.304  27.236  1.00  0.00     0.074 A 
ATOM     54  C   UNL A   1      48.231  30.797  28.079  1.00  0.00     0.029 A 
ATOM     55  N   UNL A   1      46.684  29.205  27.941  1.00  0.00    -0.354 N 
ATOM     56  N   UNL A   1      45.710  26.479  27.436  1.00  0.00    -0.248 NA
ATOM     57  C   UNL A   1      46.084  24.284  26.722  1.00  0.00     0.031 C 
ATOM     58  C   UNL A   1      48.834  29.632  27.592  1.00  0.00     0.029 A 
ATOM     59  C   UNL A   1      47.875  28.632  27.531  1.00  0.00     0.049 A 
ATOM     60  H   UNL A   1      45.820  28.734  27.995  1.00  0.00     0.167 HD
ATOM     61  C   UNL A   1      47.050  26.333  27.093  1.00  0.00     0.074 A 
ATOM     62  C   UNL A   1      47.229  24.956  26.680  1.00  0.00     0.031 C 
ATOM     63  C   UNL A   1      48.040  27.258  27.124  1.00  0.00     0.031 A 
BRANCH  50  64
ATOM     64  C   UNL A   1      46.196  32.896  28.895  1.00  0.00    -0.014 A 
ATOM     65  C   UNL A   1      45.961  33.848  27.886  1.00  0.00     0.010 A 
ATOM     66  C   UNL A   1      46.769  33.316  30.109  1.00  0.00     0.010 A 
ATOM     67  C   UNL A   1      46.356  35.177  28.060  1.00  0.00     0.020 A 
ATOM     68  C   UNL A   1      47.136  34.651  30.301  1.00  0.00     0.020 A 
ATOM     69  C   UNL A   1      46.953  35.567  29.263  1.00  0.00     0.054 A 
BRANCH  69  70
ATOM     70  S   UNL A   1      47.481  37.290  29.455  1.00  0.00     0.124 S 
ATOM     71  O   UNL A   1      46.279  37.914  30.002  1.00  0.00    -0.237 OA
ATOM     72  O   UNL A   1      48.607  37.182  30.379  1.00  0.00    -0.237 OA
ATOM     73  O   UNL A   1      47.832  37.700  28.097  1.00  0.00    -0.744 OA
ENDBRANCH  69  70
ENDBRANCH  50  64
BRANCH  51  74
ATOM     74  C   UNL A   1      43.268  23.511  27.129  1.00  0.00    -0.014 A 
ATOM     75  C   UNL A   1      43.014  23.150  25.796  1.00  0.00     0.010 A 
ATOM     76  C   UNL A   1      43.144  22.537  28.138  1.00  0.00     0.010 A 
ATOM     77  C   UNL A   1      42.649  21.837  25.476  1.00  0.00     0.020 A 
ATOM     78  C   UNL A   1      42.805  21.219  27.819  1.00  0.00     0.020 A 
ATOM     79  C   UNL A   1      42.556  20.879  26.488  1.00  0.00     0.054 A 
BRANCH  79  80
ATOM     80  S   UNL A   1      42.180  19.161  26.036  1.00  0.00     0.124 S 
ATOM     81  O   UNL A   1      40.746  19.222  25.779  1.00  0.00    -0.237 OA
ATOM     82  O   UNL A   1      43.026  18.951  24.864  1.00  0.00    -0.237 OA
ATOM     83  O   UNL A   1      42.573  18.403  27.222  1.00  0.00    -0.744 OA
ENDBRANCH  79  80
ENDBRANCH  51  74
BRANCH  63  84
ATOM     84  C   UNL A   1      49.425  26.818  26.733  1.00  0.00    -0.014 A 
ATOM     85  C   UNL A   1      50.366  26.429  27.701  1.00  0.00     0.010 A 
ATOM     86  C   UNL A   1      49.750  26.696  25.369  1.00  0.00     0.010 A 
ATOM     87  C   UNL A   1      51.612  25.929  27.311  1.00  0.00     0.020 A 
ATOM     88  C   UNL A   1      50.984  26.175  24.975  1.00  0.00     0.020 A 
ATOM     89  C   UNL A   1      51.910  25.798  25.950  1.00  0.00     0.054 A 
BRANCH  89  90
ATOM     90  S   UNL A   1      53.499  25.064  25.470  1.00  0.00     0.124 S 
ATOM     91  O   UNL A   1      53.831  25.819  24.266  1.00  0.00    -0.237 OA
ATOM     92  O   UNL A   1      54.341  25.336  26.633  1.00  0.00    -0.237 OA
ATOM     93  O   UNL A   1      53.180  23.655  25.255  1.00  0.00    -0.744 OA
ENDBRANCH  89  90
ENDBRANCH  63  84
ENDBRANCH  37  38
ENDBRANCH  29  32
ENDBRANCH  27  28
ENDBRANCH  26  27
ENDBRANCH  25  26
ENDBRANCH   1  25
TORSDOF 20
ENDMDL
MODEL 2
REMARK VINA RESULT:     -10.9      3.882      9.549
REMARK SMILES C[C@@H](C(=O)NCCCCCCNC(=O)c1ccc(-c2c3nc(c(-c4ccc(S(=O)(=O)[O-])cc4)c4ccc([nH]4)c(-c4ccc(S(=O)(=O)[O-])cc4)c4nc(c(-c5ccc(S(=O)(=O)[O-])cc5)c5ccc2[nH]5)C=C4)C=C3)cc1)c1ccc(C[C@@H]2CCC[C@@H]2O)cc1Br
REMARK SMILES IDX 8 1 7 2 6 3 5 4 3 5 4 6 2 8 1 9 75 10 76 11 87 12 77 13
REMARK SMILES IDX 86 14 88 15 78 16 79 17 80 18 81 19 84 20 82 21 83 22 85 23
REMARK SMILES IDX 9 25 10 26 11 27 12 28 13 29 14 31 15 32 16 33 74 34 17 35
REMARK SMILES IDX 73 36 18 37 19 38 20 39 67 40 21 41 72 42 66 43 68 44 22 45
REMARK SMILES IDX 71 46 65 47 64 48 23 50 53 51 34 52 52 53 35 54 38 55 51 56
REMARK SMILES IDX 69 57 36 58 37 59 50 61 70 62 39 63 24 64 25 65 33 66 26 67
REMARK SMILES IDX 32 68 27 69 28 70 29 71 30 72 31 73 54 74 55 75 63 76 56 77
REMARK SMILES IDX 62 78 57 79 58 80 59 81 60 82 61 83 40 84 41 85 49 86 42 87
REMARK SMILES IDX 48 88 43 89 44 90 45 91 46 92 47 93
REMARK H PARENT 5 7 85 24 12 30 68 49 38 60
REMARK Flexibility Score: inf
ROOT
ATOM      1  C   UNL A   1      32.963  25.112  26.335  1.00  0.00     0.002 C 
ENDROOT
BRANCH   1   2
ATOM      2  C   UNL A   1      32.419  26.487  26.744  1.00  0.00     0.021 C 
BRANCH   2   3
ATOM      3  C   UNL A   1      31.150  26.898  25.989  1.00  0.00     0.116 C 
BRANCH   3   4
ATOM      4  N   UNL A   1      31.499  27.776  24.891  1.00  0.00    -0.356 N 
ATOM      5  C   UNL A   1      31.360  27.578  23.547  1.00  0.00     0.227 C 
ATOM      6  O   UNL A   1      32.022  28.302  22.800  1.00  0.00    -0.274 OA
ATOM      7  H   UNL A   1      31.893  28.641  25.151  1.00  0.00     0.163 HD
BRANCH   5   8
ATOM      8  C   UNL A   1      30.382  26.502  23.030  1.00  0.00     0.106 C 
ATOM      9  C   UNL A   1      29.065  26.615  23.814  1.00  0.00     0.023 C 
BRANCH   8  10
ATOM     10  C   UNL A   1      31.018  25.105  23.081  1.00  0.00    -0.022 A 
ATOM     11  C   UNL A   1      30.558  24.138  23.994  1.00  0.00     0.006 A 
ATOM     12  C   UNL A   1      32.107  24.744  22.263  1.00  0.00     0.022 A 
ATOM     13  C   UNL A   1      31.203  22.912  24.151  1.00  0.00     0.004 A 
ATOM     14  C   UNL A   1      32.786  23.532  22.462  1.00  0.00     0.019 A 
ATOM     15  Br  UNL A   1      32.740  25.844  20.843  1.00  0.00    -0.051 Br
ATOM     16  C   UNL A   1      32.368  22.626  23.443  1.00  0.00    -0.047 A 
BRANCH  16  17
ATOM     17  C   UNL A   1      33.173  21.390  23.751  1.00  0.00     0.041 C 
BRANCH  17  18
ATOM     18  C   UNL A   1      32.404  20.142  24.253  1.00  0.00     0.022 C 
ATOM     19  C   UNL A   1      33.074  19.365  25.395  1.00  0.00     0.007 C 
ATOM     20  C   UNL A   1      32.117  19.041  23.227  1.00  0.00     0.117 C 
ATOM     21  C   UNL A   1      33.760  18.150  24.761  1.00  0.00     0.003 C 
ATOM     22  C   UNL A   1      33.319  18.108  23.302  1.00  0.00     0.032 C 
BRANCH  20  23
ATOM     23  O   UNL A   1      31.879  19.544  21.929  1.00  0.00    -0.393 OA
ATOM     24  H   UNL A   1      30.998  19.268  21.631  1.00  0.00     0.210 HD
ENDBRANCH  20  23
ENDBRANCH  17  18
ENDBRANCH  16  17
ENDBRANCH   8  10
ENDBRANCH   5   8
ENDBRANCH   3   4
ENDBRANCH   2   3
ENDBRANCH   1   2
BRANCH   1  25
ATOM     25  C   UNL A   1      34.273  25.149  25.542  1.00  0.00     0.002 C 
BRANCH  25  26
ATOM     26  C   UNL A   1      35.160  23.914  25.713  1.00  0.00     0.021 C 
BRANCH  26  27
ATOM     27  C   UNL A   1      36.650  24.180  25.528  1.00  0.00     0.116 C 
BRANCH  27  28
ATOM     28  N   UNL A   1      37.453  23.007  25.838  1.00  0.00    -0.352 N 
ATOM     29  C   UNL A   1      38.706  22.949  26.399  1.00  0.00     0.251 C 
ATOM     30  H   UNL A   1      37.045  22.139  25.617  1.00  0.00     0.163 HD
ATOM     31  O   UNL A   1      39.335  21.896  26.409  1.00  0.00    -0.269 OA
BRANCH  29  32
ATOM     32  C   UNL A   1      39.295  24.176  26.974  1.00  0.00     0.039 A 
ATOM     33  C   UNL A   1      40.099  24.990  26.172  1.00  0.00     0.014 A 
ATOM     34  C   UNL A   1      39.030  24.528  28.300  1.00  0.00     0.014 A 
ATOM     35  C   UNL A   1      40.587  26.194  26.683  1.00  0.00     0.010 A 
ATOM     36  C   UNL A   1      39.460  25.758  28.784  1.00  0.00     0.010 A 
ATOM     37  C   UNL A   1      40.245  26.602  27.982  1.00  0.00    -0.014 A 
BRANCH  37  38
ATOM     38  C   UNL A   1      40.693  27.904  28.536  1.00  0.00     0.031 A 
ATOM     39  C   UNL A   1      42.076  28.037  29.111  1.00  0.00     0.074 A 
ATOM     40  C   UNL A   1      39.825  28.930  28.621  1.00  0.00     0.049 A 
ATOM     41  N   UNL A   1      42.609  29.042  29.756  1.00  0.00    -0.248 NA
ATOM     42  C   UNL A   1      42.963  26.872  28.970  1.00  0.00     0.031 C 
ATOM     43  C   UNL A   1      38.441  28.911  28.141  1.00  0.00     0.029 A 
ATOM     44  N   UNL A   1      39.969  30.181  29.167  1.00  0.00    -0.354 N 
ATOM     45  C   UNL A   1      43.881  28.620  30.126  1.00  0.00     0.074 A 
ATOM     46  C   UNL A   1      44.021  27.253  29.670  1.00  0.00     0.031 C 
ATOM     47  C   UNL A   1      37.865  30.092  28.415  1.00  0.00     0.029 A 
ATOM     48  C   UNL A   1      38.822  30.937  29.124  1.00  0.00     0.049 A 
ATOM     49  H   UNL A   1      40.815  30.507  29.553  1.00  0.00     0.167 HD
ATOM     50  C   UNL A   1      44.848  29.310  30.777  1.00  0.00     0.031 A 
ATOM     51  C   UNL A   1      38.558  32.163  29.620  1.00  0.00     0.031 A 
ATOM     52  C   UNL A   1      44.704  30.671  31.219  1.00  0.00     0.049 A 
ATOM     53  C   UNL A   1      39.645  32.919  30.330  1.00  0.00     0.074 A 
ATOM     54  C   UNL A   1      45.647  31.482  31.822  1.00  0.00     0.029 A 
ATOM     55  N   UNL A   1      43.540  31.418  31.113  1.00  0.00    -0.354 N 
ATOM     56  N   UNL A   1      40.870  32.533  30.603  1.00  0.00    -0.248 NA
ATOM     57  C   UNL A   1      39.324  34.278  30.789  1.00  0.00     0.031 C 
ATOM     58  C   UNL A   1      45.037  32.703  32.131  1.00  0.00     0.029 A 
ATOM     59  C   UNL A   1      43.731  32.672  31.665  1.00  0.00     0.049 A 
ATOM     60  H   UNL A   1      42.700  31.101  30.706  1.00  0.00     0.167 HD
ATOM     61  C   UNL A   1      41.472  33.610  31.244  1.00  0.00     0.074 A 
ATOM     62  C   UNL A   1      40.480  34.664  31.313  1.00  0.00     0.031 C 
ATOM     63  C   UNL A   1      42.735  33.714  31.726  1.00  0.00     0.031 A 
BRANCH  50  64
ATOM     64  C   UNL A   1      46.135  28.584  31.067  1.00  0.00    -0.014 A 
ATOM     65  C   UNL A   1      46.359  27.956  32.307  1.00  0.00     0.010 A 
ATOM     66  C   UNL A   1      47.141  28.531  30.086  1.00  0.00     0.010 A 
ATOM     67  C   UNL A   1      47.588  27.354  32.585  1.00  0.00     0.020 A 
ATOM     68  C   UNL A   1      48.361  27.901  30.347  1.00  0.00     0.020 A 
ATOM     69  C   UNL A   1      48.587  27.341  31.607  1.00  0.00     0.054 A 
BRANCH  69  70
ATOM     70  S   UNL A   1      50.183  26.577  32.000  1.00  0.00     0.124 S 
ATOM     71  O   UNL A   1      50.692  26.246  30.671  1.00  0.00    -0.237 OA
ATOM     72  O   UNL A   1      50.892  27.650  32.693  1.00  0.00    -0.237 OA
ATOM     73  O   UNL A   1      49.824  25.432  32.833  1.00  0.00    -0.744 OA
ENDBRANCH  69  70
ENDBRANCH  50  64
BRANCH  51  74
ATOM     74  C   UNL A   1      37.197  32.738  29.447  1.00  0.00    -0.014 A 
ATOM     75  C   UNL A   1      36.308  32.813  30.532  1.00  0.00     0.010 A 
ATOM     76  C   UNL A   1      36.811  33.280  28.206  1.00  0.00     0.010 A 
ATOM     77  C   UNL A   1      35.059  33.425  30.381  1.00  0.00     0.020 A 
ATOM     78  C   UNL A   1      35.575  33.914  28.059  1.00  0.00     0.020 A 
ATOM     79  C   UNL A   1      34.705  33.980  29.149  1.00  0.00     0.054 A 
BRANCH  79  80
ATOM     80  S   UNL A   1      33.122  34.858  29.006  1.00  0.00     0.124 S 
ATOM     81  O   UNL A   1      32.415  34.051  28.018  1.00  0.00    -0.237 OA
ATOM     82  O   UNL A   1      32.601  34.792  30.370  1.00  0.00    -0.237 OA
ATOM     83  O   UNL A   1      33.512  36.195  28.561  1.00  0.00    -0.744 OA
ENDBRANCH  79  80
ENDBRANCH  51  74
BRANCH  63  84
ATOM     84  C   UNL A   1      43.144  35.022  32.348  1.00  0.00    -0.014 A 
ATOM     85  C   UNL A   1      43.765  36.027  31.587  1.00  0.00     0.010 A 
ATOM     86  C   UNL A   1      42.808  35.283  33.688  1.00  0.00     0.010 A 
ATOM     87  C   UNL A   1      44.046  37.271  32.159  1.00  0.00     0.020 A 
ATOM     88  C   UNL A   1      43.065  36.533  34.257  1.00  0.00     0.020 A 
ATOM     89  C   UNL A   1      43.688  37.519  33.488  1.00  0.00     0.054 A 
BRANCH  89  90
ATOM     90  S   UNL A   1      43.984  39.169  34.181  1.00  0.00     0.124 S 
ATOM     91  O   UNL A   1      44.053  38.891  35.612  1.00  0.00    -0.237 OA
ATOM     92  O   UNL A   1      45.246  39.557  33.555  1.00  0.00    -0.237 OA
ATOM     93  O   UNL A   1      42.820  39.940  33.750  1.00  0.00    -0.744 OA
ENDBRANCH  89  90
ENDBRANCH  63  84
ENDBRANCH  37  38
ENDBRANCH  29  32
ENDBRANCH  27  28
ENDBRANCH  26  27
ENDBRANCH  25  26
ENDBRANCH   1  25
TORSDOF 20
ENDMDL
MODEL 3
REMARK VINA RESULT:     -10.7      5.802      7.758
REMARK SMILES C[C@@H](C(=O)NCCCCCCNC(=O)c1ccc(-c2c3nc(c(-c4ccc(S(=O)(=O)[O-])cc4)c4ccc([nH]4)c(-c4ccc(S(=O)(=O)[O-])cc4)c4nc(c(-c5ccc(S(=O)(=O)[O-])cc5)c5ccc2[nH]5)C=C4)C=C3)cc1)c1ccc(C[C@@H]2CCC[C@@H]2O)cc1Br
REMARK SMILES IDX 8 1 7 2 6 3 5 4 3 5 4 6 2 8 1 9 75 10 76 11 87 12 77 13
REMARK SMILES IDX 86 14 88 15 78 16 79 17 80 18 81 19 84 20 82 21 83 22 85 23
REMARK SMILES IDX 9 25 10 26 11 27 12 28 13 29 14 31 15 32 16 33 74 34 17 35
REMARK SMILES IDX 73 36 18 37 19 38 20 39 67 40 21 41 72 42 66 43 68 44 22 45
REMARK SMILES IDX 71 46 65 47 64 48 23 50 53 51 34 52 52 53 35 54 38 55 51 56
REMARK SMILES IDX 69 57 36 58 37 59 50 61 70 62 39 63 24 64 25 65 33 66 26 67
REMARK SMILES IDX 32 68 27 69 28 70 29 71 30 72 31 73 54 74 55 75 63 76 56 77
REMARK SMILES IDX 62 78 57 79 58 80 59 81 60 82 61 83 40 84 41 85 49 86 42 87
REMARK SMILES IDX 48 88 43 89 44 90 45 91 46 92 47 93
REMARK H PARENT 5 7 85 24 12 30 68 49 38 60
REMARK Flexibility Score: inf
ROOT
ATOM      1  C   UNL A   1      33.361  28.805  27.155  1.00  0.00     0.002 C 
ENDROOT
BRANCH   1   2
ATOM      2  C   UNL A   1      33.257  27.518  26.324  1.00  0.00     0.021 C 
BRANCH   2   3
ATOM      3  C   UNL A   1      32.463  27.686  25.023  1.00  0.00     0.116 C 
BRANCH   3   4
ATOM      4  N   UNL A   1      31.466  26.640  24.922  1.00  0.00    -0.356 N 
ATOM      5  C   UNL A   1      31.428  25.559  24.088  1.00  0.00     0.227 C 
ATOM      6  O   UNL A   1      30.339  24.998  23.945  1.00  0.00    -0.274 OA
ATOM      7  H   UNL A   1      30.706  26.720  25.544  1.00  0.00     0.163 HD
BRANCH   5   8
ATOM      8  C   UNL A   1      32.723  25.078  23.400  1.00  0.00     0.106 C 
ATOM      9  C   UNL A   1      32.795  25.697  21.995  1.00  0.00     0.023 C 
BRANCH   8  10
ATOM     10  C   UNL A   1      32.820  23.545  23.411  1.00  0.00    -0.022 A 
ATOM     11  C   UNL A   1      32.257  22.782  22.371  1.00  0.00     0.006 A 
ATOM     12  C   UNL A   1      33.424  22.837  24.468  1.00  0.00     0.022 A 
ATOM     13  C   UNL A   1      32.216  21.390  22.423  1.00  0.00     0.004 A 
ATOM     14  C   UNL A   1      33.331  21.439  24.544  1.00  0.00     0.019 A 
ATOM     15  Br  UNL A   1      34.401  23.695  25.860  1.00  0.00    -0.051 Br
ATOM     16  C   UNL A   1      32.682  20.707  23.544  1.00  0.00    -0.047 A 
BRANCH  16  17
ATOM     17  C   UNL A   1      32.462  19.222  23.687  1.00  0.00     0.041 C 
BRANCH  17  18
ATOM     18  C   UNL A   1      33.614  18.383  24.294  1.00  0.00     0.022 C 
ATOM     19  C   UNL A   1      34.082  17.190  23.449  1.00  0.00     0.007 C 
ATOM     20  C   UNL A   1      33.363  17.742  25.663  1.00  0.00     0.117 C 
ATOM     21  C   UNL A   1      33.434  15.939  24.052  1.00  0.00     0.003 C 
ATOM     22  C   UNL A   1      32.770  16.373  25.354  1.00  0.00     0.032 C 
BRANCH  20  23
ATOM     23  O   UNL A   1      32.545  18.530  26.501  1.00  0.00    -0.393 OA
ATOM     24  H   UNL A   1      31.894  17.963  26.944  1.00  0.00     0.210 HD
ENDBRANCH  20  23
ENDBRANCH  17  18
ENDBRANCH  16  17
ENDBRANCH   8  10
ENDBRANCH   5   8
ENDBRANCH   3   4
ENDBRANCH   2   3
ENDBRANCH   1   2
BRANCH   1  25
ATOM     25  C   UNL A   1      32.064  29.614  27.253  1.00  0.00     0.002 C 
BRANCH  25  26
ATOM     26  C   UNL A   1      32.186  31.075  26.818  1.00  0.00     0.021 C 
BRANCH  26  27
ATOM     27  C   UNL A   1      33.400  31.801  27.389  1.00  0.00     0.116 C 
BRANCH  27  28
ATOM     28  N   UNL A   1      33.128  33.211  27.624  1.00  0.00    -0.352 N 
ATOM     29  C   UNL A   1      33.609  34.022  28.623  1.00  0.00     0.251 C 
ATOM     30  H   UNL A   1      32.518  33.641  26.983  1.00  0.00     0.163 HD
ATOM     31  O   UNL A   1      33.126  35.136  28.807  1.00  0.00    -0.269 OA
BRANCH  29  32
ATOM     32  C   UNL A   1      34.701  33.530  29.487  1.00  0.00     0.039 A 
ATOM     33  C   UNL A   1      34.398  32.696  30.565  1.00  0.00     0.014 A 
ATOM     34  C   UNL A   1      36.026  33.879  29.212  1.00  0.00     0.014 A 
ATOM     35  C   UNL A   1      35.434  32.158  31.333  1.00  0.00     0.010 A 
ATOM     36  C   UNL A   1      37.057  33.290  29.934  1.00  0.00     0.010 A 
ATOM     37  C   UNL A   1      36.772  32.426  31.003  1.00  0.00    -0.014 A 
BRANCH  37  38
ATOM     38  C   UNL A   1      37.899  31.821  31.757  1.00  0.00     0.031 A 
ATOM     39  C   UNL A   1      38.313  32.404  33.078  1.00  0.00     0.074 A 
ATOM     40  C   UNL A   1      38.615  30.823  31.204  1.00  0.00     0.049 A 
ATOM     41  N   UNL A   1      39.346  32.108  33.825  1.00  0.00    -0.248 NA
ATOM     42  C   UNL A   1      37.473  33.487  33.614  1.00  0.00     0.031 C 
ATOM     43  C   UNL A   1      38.341  30.201  29.906  1.00  0.00     0.029 A 
ATOM     44  N   UNL A   1      39.737  30.172  31.653  1.00  0.00    -0.354 N 
ATOM     45  C   UNL A   1      39.298  32.987  34.900  1.00  0.00     0.074 A 
ATOM     46  C   UNL A   1      38.159  33.854  34.686  1.00  0.00     0.031 C 
ATOM     47  C   UNL A   1      39.269  29.263  29.664  1.00  0.00     0.029 A 
ATOM     48  C   UNL A   1      40.227  29.242  30.768  1.00  0.00     0.049 A 
ATOM     49  H   UNL A   1      40.152  30.355  32.528  1.00  0.00     0.167 HD
ATOM     50  C   UNL A   1      40.121  33.059  35.974  1.00  0.00     0.031 A 
ATOM     51  C   UNL A   1      41.333  28.474  30.821  1.00  0.00     0.031 A 
ATOM     52  C   UNL A   1      41.245  32.188  36.184  1.00  0.00     0.049 A 
ATOM     53  C   UNL A   1      42.230  28.560  32.024  1.00  0.00     0.074 A 
ATOM     54  C   UNL A   1      42.097  32.132  37.272  1.00  0.00     0.029 A 
ATOM     55  N   UNL A   1      41.679  31.226  35.284  1.00  0.00    -0.354 N 
ATOM     56  N   UNL A   1      42.126  29.344  33.072  1.00  0.00    -0.248 NA
ATOM     57  C   UNL A   1      43.384  27.651  32.063  1.00  0.00     0.031 C 
ATOM     58  C   UNL A   1      43.079  31.172  37.006  1.00  0.00     0.029 A 
ATOM     59  C   UNL A   1      42.803  30.589  35.779  1.00  0.00     0.049 A 
ATOM     60  H   UNL A   1      41.250  31.026  34.420  1.00  0.00     0.167 HD
ATOM     61  C   UNL A   1      43.187  29.007  33.905  1.00  0.00     0.074 A 
ATOM     62  C   UNL A   1      43.917  27.945  33.243  1.00  0.00     0.031 C 
ATOM     63  C   UNL A   1      43.520  29.530  35.110  1.00  0.00     0.031 A 
BRANCH  50  64
ATOM     64  C   UNL A   1      39.840  34.140  36.985  1.00  0.00    -0.014 A 
ATOM     65  C   UNL A   1      40.350  35.442  36.828  1.00  0.00     0.010 A 
ATOM     66  C   UNL A   1      39.055  33.848  38.115  1.00  0.00     0.010 A 
ATOM     67  C   UNL A   1      40.143  36.409  37.814  1.00  0.00     0.020 A 
ATOM     68  C   UNL A   1      38.817  34.822  39.089  1.00  0.00     0.020 A 
ATOM     69  C   UNL A   1      39.387  36.088  38.946  1.00  0.00     0.054 A 
BRANCH  69  70
ATOM     70  S   UNL A   1      39.154  37.352  40.224  1.00  0.00     0.124 S 
ATOM     71  O   UNL A   1      40.521  37.821  40.435  1.00  0.00    -0.237 OA
ATOM     72  O   UNL A   1      38.257  38.305  39.577  1.00  0.00    -0.237 OA
ATOM     73  O   UNL A   1      38.570  36.612  41.341  1.00  0.00    -0.744 OA
ENDBRANCH  69  70
ENDBRANCH  50  64
BRANCH  51  74
ATOM     74  C   UNL A   1      41.637  27.558  29.690  1.00  0.00    -0.014 A 
ATOM     75  C   UNL A   1      42.912  27.548  29.099  1.00  0.00     0.010 A 
ATOM     76  C   UNL A   1      40.668  26.639  29.245  1.00  0.00     0.010 A 
ATOM     77  C   UNL A   1      43.214  26.631  28.087  1.00  0.00     0.020 A 
ATOM     78  C   UNL A   1      40.975  25.705  28.253  1.00  0.00     0.020 A 
ATOM     79  C   UNL A   1      42.247  25.709  27.677  1.00  0.00     0.054 A 
BRANCH  79  80
ATOM     80  S   UNL A   1      42.696  24.463  26.435  1.00  0.00     0.124 S 
ATOM     81  O   UNL A   1      44.135  24.339  26.635  1.00  0.00    -0.237 OA
ATOM     82  O   UNL A   1      41.896  23.310  26.841  1.00  0.00    -0.237 OA
ATOM     83  O   UNL A   1      42.289  25.079  25.173  1.00  0.00    -0.744 OA
ENDBRANCH  79  80
ENDBRANCH  51  74
BRANCH  63  84
ATOM     84  C   UNL A   1      44.711  28.948  35.823  1.00  0.00    -0.014 A 
ATOM     85  C   UNL A   1      45.991  29.511  35.682  1.00  0.00     0.010 A 
ATOM     86  C   UNL A   1      44.522  27.886  36.726  1.00  0.00     0.010 A 
ATOM     87  C   UNL A   1      47.063  29.017  36.431  1.00  0.00     0.020 A 
ATOM     88  C   UNL A   1      45.585  27.406  37.494  1.00  0.00     0.020 A 
ATOM     89  C   UNL A   1      46.852  27.973  37.338  1.00  0.00     0.054 A 
BRANCH  89  90
ATOM     90  S   UNL A   1      48.241  27.409  38.361  1.00  0.00     0.124 S 
ATOM     91  O   UNL A   1      48.863  26.406  37.503  1.00  0.00    -0.237 OA
ATOM     92  O   UNL A   1      49.012  28.635  38.556  1.00  0.00    -0.237 OA
ATOM     93  O   UNL A   1      47.596  26.888  39.564  1.00  0.00    -0.744 OA
ENDBRANCH  89  90
ENDBRANCH  63  84
ENDBRANCH  37  38
ENDBRANCH  29  32
ENDBRANCH  27  28
ENDBRANCH  26  27
ENDBRANCH  25  26
ENDBRANCH   1  25
TORSDOF 20
ENDMDL
