MODEL 1
REMARK VINA RESULT:     -11.3      0.000      0.000
REMARK SMILES COc1cc(C)cc2c1O[C@H](C(F)(F)F)C(C(=O)NCCCCCCNC(=O)c1ccc(-c3c4nc(c(-c5ccc(S(=O)(=O)[O-])cc5)c5ccc([nH]5)c(-c5ccc(S(=O)(=O)[O-])cc5)c5nc(c(-c6ccc(S(=O)(=O)[O-])cc6)c6ccc3[nH]6)C=C5)C=C4)cc1)=C2
REMARK SMILES IDX 23 1 22 2 21 3 20 4 19 5 17 6 18 7 16 9 3 10 4 11 9 12 5 13
REMARK SMILES IDX 8 14 10 15 6 16 7 17 89 18 11 19 2 20 1 21 12 22 13 23 14 24
REMARK SMILES IDX 15 25 24 26 25 27 26 28 27 29 28 31 29 32 30 33 88 34 31 35
REMARK SMILES IDX 87 36 32 37 33 38 34 39 81 40 35 41 86 42 80 43 82 44 36 45
REMARK SMILES IDX 85 46 79 47 78 48 37 50 67 51 48 52 66 53 49 54 52 55 65 56
REMARK SMILES IDX 83 57 50 58 51 59 64 61 84 62 53 63 38 64 39 65 47 66 40 67
REMARK SMILES IDX 46 68 41 69 42 70 43 71 44 72 45 73 68 74 69 75 77 76 70 77
REMARK SMILES IDX 76 78 71 79 72 80 73 81 74 82 75 83 54 84 55 85 63 86 56 87
REMARK SMILES IDX 62 88 57 89 58 90 59 91 60 92 61 93
REMARK H PARENT 19 8 26 30 82 49 52 60
REMARK Flexibility Score: inf
ROOT
ATOM      1  C   UNL A   1      32.728  29.107  24.686  1.00  0.00     0.002 C 
ENDROOT
BRANCH   1   2
ATOM      2  C   UNL A   1      32.430  28.482  23.316  1.00  0.00     0.002 C 
BRANCH   2   3
ATOM      3  C   UNL A   1      33.523  27.573  22.744  1.00  0.00     0.021 C 
BRANCH   3   4
ATOM      4  C   UNL A   1      32.999  26.362  21.976  1.00  0.00     0.116 C 
BRANCH   4   5
ATOM      5  N   UNL A   1      31.764  25.851  22.543  1.00  0.00    -0.352 N 
ATOM      6  C   UNL A   1      31.379  24.783  23.280  1.00  0.00     0.251 C 
ATOM      7  O   UNL A   1      30.176  24.757  23.570  1.00  0.00    -0.270 OA
ATOM      8  H   UNL A   1      31.002  26.439  22.335  1.00  0.00     0.163 HD
BRANCH   6   9
ATOM      9  C   UNL A   1      32.271  23.678  23.748  1.00  0.00     0.067 C 
ATOM     10  C   UNL A   1      34.686  20.427  24.875  1.00  0.00     0.161 A 
ATOM     11  C   UNL A   1      34.291  19.124  24.565  1.00  0.00     0.054 A 
ATOM     12  C   UNL A   1      33.907  21.512  24.463  1.00  0.00     0.169 A 
ATOM     13  C   UNL A   1      33.134  18.903  23.808  1.00  0.00    -0.047 A 
ATOM     14  C   UNL A   1      32.748  21.306  23.716  1.00  0.00     0.021 A 
ATOM     15  O   UNL A   1      34.363  22.761  24.766  1.00  0.00    -0.471 OA
ATOM     16  C   UNL A   1      32.691  17.509  23.473  1.00  0.00     0.044 C 
ATOM     17  C   UNL A   1      32.366  20.000  23.388  1.00  0.00     0.015 A 
ATOM     18  C   UNL A   1      31.966  22.454  23.274  1.00  0.00     0.025 C 
ATOM     19  C   UNL A   1      33.406  23.849  24.720  1.00  0.00     0.314 C 
BRANCH  10  20
ATOM     20  O   UNL A   1      35.776  20.680  25.667  1.00  0.00    -0.493 OA
ATOM     21  C   UNL A   1      37.011  20.466  24.993  1.00  0.00     0.278 C 
ENDBRANCH  10  20
BRANCH  19  22
ATOM     22  C   UNL A   1      32.933  24.159  26.151  1.00  0.00     0.429 C 
ATOM     23  F   UNL A   1      31.875  23.382  26.485  1.00  0.00    -0.167 F 
ATOM     24  F   UNL A   1      33.892  23.913  27.075  1.00  0.00    -0.167 F 
ATOM     25  F   UNL A   1      32.562  25.450  26.305  1.00  0.00    -0.167 F 
ENDBRANCH  19  22
ENDBRANCH   6   9
ENDBRANCH   4   5
ENDBRANCH   3   4
ENDBRANCH   2   3
ENDBRANCH   1   2
BRANCH   1  26
ATOM     26  C   UNL A   1      33.644  28.296  25.606  1.00  0.00     0.021 C 
BRANCH  26  27
ATOM     27  C   UNL A   1      33.416  28.505  27.097  1.00  0.00     0.116 C 
BRANCH  27  28
ATOM     28  N   UNL A   1      33.328  29.910  27.463  1.00  0.00    -0.352 N 
ATOM     29  C   UNL A   1      34.269  30.704  28.075  1.00  0.00     0.251 C 
ATOM     30  H   UNL A   1      32.479  30.354  27.240  1.00  0.00     0.163 HD
ATOM     31  O   UNL A   1      33.976  31.840  28.438  1.00  0.00    -0.269 OA
BRANCH  29  32
ATOM     32  C   UNL A   1      35.627  30.168  28.328  1.00  0.00     0.039 A 
ATOM     33  C   UNL A   1      35.967  29.662  29.583  1.00  0.00     0.014 A 
ATOM     34  C   UNL A   1      36.576  30.196  27.302  1.00  0.00     0.014 A 
ATOM     35  C   UNL A   1      37.292  29.336  29.857  1.00  0.00     0.010 A 
ATOM     36  C   UNL A   1      37.891  29.789  27.557  1.00  0.00     0.010 A 
ATOM     37  C   UNL A   1      38.271  29.398  28.850  1.00  0.00    -0.014 A 
BRANCH  37  38
ATOM     38  C   UNL A   1      39.674  29.037  29.188  1.00  0.00     0.031 A 
ATOM     39  C   UNL A   1      40.244  27.695  28.806  1.00  0.00     0.074 A 
ATOM     40  C   UNL A   1      40.466  29.969  29.756  1.00  0.00     0.049 A 
ATOM     41  N   UNL A   1      41.475  27.265  28.928  1.00  0.00    -0.248 NA
ATOM     42  C   UNL A   1      39.326  26.710  28.210  1.00  0.00     0.031 C 
ATOM     43  C   UNL A   1      40.029  31.310  30.157  1.00  0.00     0.029 A 
ATOM     44  N   UNL A   1      41.808  29.959  30.044  1.00  0.00    -0.354 N 
ATOM     45  C   UNL A   1      41.480  25.968  28.430  1.00  0.00     0.074 A 
ATOM     46  C   UNL A   1      40.122  25.663  28.033  1.00  0.00     0.031 C 
ATOM     47  C   UNL A   1      41.096  32.019  30.553  1.00  0.00     0.029 A 
ATOM     48  C   UNL A   1      42.282  31.170  30.497  1.00  0.00     0.049 A 
ATOM     49  H   UNL A   1      42.377  29.164  29.937  1.00  0.00     0.167 HD
ATOM     50  C   UNL A   1      42.524  25.116  28.298  1.00  0.00     0.031 A 
ATOM     51  C   UNL A   1      43.528  31.561  30.827  1.00  0.00     0.031 A 
ATOM     52  C   UNL A   1      43.877  25.428  28.677  1.00  0.00     0.049 A 
ATOM     53  C   UNL A   1      44.657  30.578  30.711  1.00  0.00     0.074 A 
ATOM     54  C   UNL A   1      45.002  24.627  28.569  1.00  0.00     0.029 A 
ATOM     55  N   UNL A   1      44.296  26.630  29.224  1.00  0.00    -0.354 N 
ATOM     56  N   UNL A   1      44.636  29.354  30.241  1.00  0.00    -0.248 NA
ATOM     57  C   UNL A   1      45.977  31.024  31.179  1.00  0.00     0.031 C 
ATOM     58  C   UNL A   1      46.090  25.324  29.101  1.00  0.00     0.029 A 
ATOM     59  C   UNL A   1      45.656  26.584  29.482  1.00  0.00     0.049 A 
ATOM     60  H   UNL A   1      43.713  27.404  29.403  1.00  0.00     0.167 HD
ATOM     61  C   UNL A   1      45.938  28.883  30.359  1.00  0.00     0.074 A 
ATOM     62  C   UNL A   1      46.728  29.964  30.909  1.00  0.00     0.031 C 
ATOM     63  C   UNL A   1      46.429  27.659  30.048  1.00  0.00     0.031 A 
BRANCH  50  64
ATOM     64  C   UNL A   1      42.274  23.755  27.702  1.00  0.00    -0.014 A 
ATOM     65  C   UNL A   1      41.973  22.668  28.545  1.00  0.00     0.010 A 
ATOM     66  C   UNL A   1      42.496  23.519  26.334  1.00  0.00     0.010 A 
ATOM     67  C   UNL A   1      41.942  21.366  28.040  1.00  0.00     0.020 A 
ATOM     68  C   UNL A   1      42.443  22.220  25.820  1.00  0.00     0.020 A 
ATOM     69  C   UNL A   1      42.194  21.149  26.682  1.00  0.00     0.054 A 
BRANCH  69  70
ATOM     70  S   UNL A   1      42.213  19.445  26.056  1.00  0.00     0.124 S 
ATOM     71  O   UNL A   1      43.163  19.534  24.951  1.00  0.00    -0.237 OA
ATOM     72  O   UNL A   1      42.666  18.683  27.218  1.00  0.00    -0.237 OA
ATOM     73  O   UNL A   1      40.823  19.207  25.671  1.00  0.00    -0.744 OA
ENDBRANCH  69  70
ENDBRANCH  50  64
BRANCH  51  74
ATOM     74  C   UNL A   1      43.767  32.959  31.280  1.00  0.00    -0.014 A 
ATOM     75  C   UNL A   1      43.674  33.293  32.643  1.00  0.00     0.010 A 
ATOM     76  C   UNL A   1      44.043  33.972  30.345  1.00  0.00     0.010 A 
ATOM     77  C   UNL A   1      43.808  34.619  33.061  1.00  0.00     0.020 A 
ATOM     78  C   UNL A   1      44.210  35.297  30.763  1.00  0.00     0.020 A 
ATOM     79  C   UNL A   1      44.064  35.615  32.116  1.00  0.00     0.054 A 
BRANCH  79  80
ATOM     80  S   UNL A   1      44.224  37.333  32.675  1.00  0.00     0.124 S 
ATOM     81  O   UNL A   1      44.077  38.068  31.421  1.00  0.00    -0.237 OA
ATOM     82  O   UNL A   1      43.117  37.470  33.618  1.00  0.00    -0.237 OA
ATOM     83  O   UNL A   1      45.556  37.373  33.273  1.00  0.00    -0.744 OA
ENDBRANCH  79  80
ENDBRANCH  51  74
BRANCH  63  84
ATOM     84  C   UNL A   1      47.888  27.403  30.314  1.00  0.00    -0.014 A 
ATOM     85  C   UNL A   1      48.850  27.735  29.343  1.00  0.00     0.010 A 
ATOM     86  C   UNL A   1      48.297  26.752  31.491  1.00  0.00     0.010 A 
ATOM     87  C   UNL A   1      50.194  27.405  29.535  1.00  0.00     0.020 A 
ATOM     88  C   UNL A   1      49.644  26.445  31.699  1.00  0.00     0.020 A 
ATOM     89  C   UNL A   1      50.581  26.756  30.711  1.00  0.00     0.054 A 
BRANCH  89  90
ATOM     90  S   UNL A   1      52.330  26.341  30.952  1.00  0.00     0.124 S 
ATOM     91  O   UNL A   1      52.819  27.493  31.704  1.00  0.00    -0.237 OA
ATOM     92  O   UNL A   1      52.267  25.085  31.696  1.00  0.00    -0.237 OA
ATOM     93  O   UNL A   1      52.843  26.221  29.589  1.00  0.00    -0.744 OA
ENDBRANCH  89  90
ENDBRANCH  63  84
ENDBRANCH  37  38
ENDBRANCH  29  32
ENDBRANCH  27  28
ENDBRANCH  26  27
ENDBRANCH   1  26
TORSDOF 18
ENDMDL
MODEL 2
REMARK VINA RESULT:     -11.0      1.557      2.108
REMARK SMILES COc1cc(C)cc2c1O[C@H](C(F)(F)F)C(C(=O)NCCCCCCNC(=O)c1ccc(-c3c4nc(c(-c5ccc(S(=O)(=O)[O-])cc5)c5ccc([nH]5)c(-c5ccc(S(=O)(=O)[O-])cc5)c5nc(c(-c6ccc(S(=O)(=O)[O-])cc6)c6ccc3[nH]6)C=C5)C=C4)cc1)=C2
REMARK SMILES IDX 23 1 22 2 21 3 20 4 19 5 17 6 18 7 16 9 3 10 4 11 9 12 5 13
REMARK SMILES IDX 8 14 10 15 6 16 7 17 89 18 11 19 2 20 1 21 12 22 13 23 14 24
REMARK SMILES IDX 15 25 24 26 25 27 26 28 27 29 28 31 29 32 30 33 88 34 31 35
REMARK SMILES IDX 87 36 32 37 33 38 34 39 81 40 35 41 86 42 80 43 82 44 36 45
REMARK SMILES IDX 85 46 79 47 78 48 37 50 67 51 48 52 66 53 49 54 52 55 65 56
REMARK SMILES IDX 83 57 50 58 51 59 64 61 84 62 53 63 38 64 39 65 47 66 40 67
REMARK SMILES IDX 46 68 41 69 42 70 43 71 44 72 45 73 68 74 69 75 77 76 70 77
REMARK SMILES IDX 76 78 71 79 72 80 73 81 74 82 75 83 54 84 55 85 63 86 56 87
REMARK SMILES IDX 62 88 57 89 58 90 59 91 60 92 61 93
REMARK H PARENT 19 8 26 30 82 49 52 60
REMARK Flexibility Score: inf
ROOT
ATOM      1  C   UNL A   1      32.036  27.615  26.469  1.00  0.00     0.002 C 
ENDROOT
BRANCH   1   2
ATOM      2  C   UNL A   1      31.031  27.596  25.310  1.00  0.00     0.002 C 
BRANCH   2   3
ATOM      3  C   UNL A   1      31.602  27.915  23.924  1.00  0.00     0.021 C 
BRANCH   3   4
ATOM      4  C   UNL A   1      30.859  27.253  22.767  1.00  0.00     0.116 C 
BRANCH   4   5
ATOM      5  N   UNL A   1      31.769  26.686  21.788  1.00  0.00    -0.352 N 
ATOM      6  C   UNL A   1      32.673  25.680  21.742  1.00  0.00     0.251 C 
ATOM      7  O   UNL A   1      33.230  25.530  20.647  1.00  0.00    -0.270 OA
ATOM      8  H   UNL A   1      31.714  27.161  20.927  1.00  0.00     0.163 HD
BRANCH   6   9
ATOM      9  C   UNL A   1      33.029  24.774  22.876  1.00  0.00     0.067 C 
ATOM     10  C   UNL A   1      34.278  22.253  26.001  1.00  0.00     0.161 A 
ATOM     11  C   UNL A   1      35.485  21.560  25.898  1.00  0.00     0.054 A 
ATOM     12  C   UNL A   1      33.881  23.125  24.983  1.00  0.00     0.169 A 
ATOM     13  C   UNL A   1      36.321  21.765  24.792  1.00  0.00    -0.047 A 
ATOM     14  C   UNL A   1      34.699  23.333  23.873  1.00  0.00     0.021 A 
ATOM     15  O   UNL A   1      32.708  23.800  25.157  1.00  0.00    -0.471 OA
ATOM     16  C   UNL A   1      37.618  21.023  24.662  1.00  0.00     0.044 C 
ATOM     17  C   UNL A   1      35.920  22.654  23.782  1.00  0.00     0.015 A 
ATOM     18  C   UNL A   1      34.278  24.269  22.837  1.00  0.00     0.025 C 
ATOM     19  C   UNL A   1      32.088  24.373  23.979  1.00  0.00     0.314 C 
BRANCH  10  20
ATOM     20  O   UNL A   1      33.405  22.031  27.035  1.00  0.00    -0.493 OA
ATOM     21  C   UNL A   1      33.869  22.558  28.273  1.00  0.00     0.278 C 
ENDBRANCH  10  20
BRANCH  19  22
ATOM     22  C   UNL A   1      30.963  23.438  23.502  1.00  0.00     0.429 C 
ATOM     23  F   UNL A   1      30.411  22.780  24.549  1.00  0.00    -0.167 F 
ATOM     24  F   UNL A   1      29.954  24.113  22.901  1.00  0.00    -0.167 F 
ATOM     25  F   UNL A   1      31.399  22.514  22.616  1.00  0.00    -0.167 F 
ENDBRANCH  19  22
ENDBRANCH   6   9
ENDBRANCH   4   5
ENDBRANCH   3   4
ENDBRANCH   2   3
ENDBRANCH   1   2
BRANCH   1  26
ATOM     26  C   UNL A   1      33.466  27.193  26.121  1.00  0.00     0.021 C 
BRANCH  26  27
ATOM     27  C   UNL A   1      34.464  28.336  25.982  1.00  0.00     0.116 C 
BRANCH  27  28
ATOM     28  N   UNL A   1      33.951  29.597  26.492  1.00  0.00    -0.352 N 
ATOM     29  C   UNL A   1      34.494  30.430  27.443  1.00  0.00     0.251 C 
ATOM     30  H   UNL A   1      33.099  29.898  26.102  1.00  0.00     0.163 HD
ATOM     31  O   UNL A   1      33.854  31.392  27.857  1.00  0.00    -0.269 OA
BRANCH  29  32
ATOM     32  C   UNL A   1      35.838  30.137  27.991  1.00  0.00     0.039 A 
ATOM     33  C   UNL A   1      36.979  30.333  27.211  1.00  0.00     0.014 A 
ATOM     34  C   UNL A   1      35.954  29.638  29.292  1.00  0.00     0.014 A 
ATOM     35  C   UNL A   1      38.212  29.881  27.672  1.00  0.00     0.010 A 
ATOM     36  C   UNL A   1      37.209  29.261  29.784  1.00  0.00     0.010 A 
ATOM     37  C   UNL A   1      38.343  29.337  28.961  1.00  0.00    -0.014 A 
BRANCH  37  38
ATOM     38  C   UNL A   1      39.682  28.869  29.412  1.00  0.00     0.031 A 
ATOM     39  C   UNL A   1      40.215  27.523  28.993  1.00  0.00     0.074 A 
ATOM     40  C   UNL A   1      40.460  29.712  30.121  1.00  0.00     0.049 A 
ATOM     41  N   UNL A   1      41.401  27.011  29.207  1.00  0.00    -0.248 NA
ATOM     42  C   UNL A   1      39.312  26.637  28.239  1.00  0.00     0.031 C 
ATOM     43  C   UNL A   1      40.057  31.048  30.571  1.00  0.00     0.029 A 
ATOM     44  N   UNL A   1      41.762  29.601  30.541  1.00  0.00    -0.354 N 
ATOM     45  C   UNL A   1      41.388  25.752  28.620  1.00  0.00     0.074 A 
ATOM     46  C   UNL A   1      40.064  25.557  28.069  1.00  0.00     0.031 C 
ATOM     47  C   UNL A   1      41.114  31.662  31.121  1.00  0.00     0.029 A 
ATOM     48  C   UNL A   1      42.251  30.748  31.124  1.00  0.00     0.049 A 
ATOM     49  H   UNL A   1      42.296  28.781  30.434  1.00  0.00     0.167 HD
ATOM     50  C   UNL A   1      42.392  24.848  28.533  1.00  0.00     0.031 A 
ATOM     51  C   UNL A   1      43.476  31.040  31.603  1.00  0.00     0.031 A 
ATOM     52  C   UNL A   1      43.713  25.051  29.066  1.00  0.00     0.049 A 
ATOM     53  C   UNL A   1      44.556  30.000  31.531  1.00  0.00     0.074 A 
ATOM     54  C   UNL A   1      44.799  24.192  29.014  1.00  0.00     0.029 A 
ATOM     55  N   UNL A   1      44.138  26.187  29.737  1.00  0.00    -0.354 N 
ATOM     56  N   UNL A   1      44.517  28.812  30.975  1.00  0.00    -0.248 NA
ATOM     57  C   UNL A   1      45.842  30.332  32.159  1.00  0.00     0.031 C 
ATOM     58  C   UNL A   1      45.861  24.785  29.700  1.00  0.00     0.029 A 
ATOM     59  C   UNL A   1      45.459  26.041  30.125  1.00  0.00     0.049 A 
ATOM     60  H   UNL A   1      43.582  26.982  29.911  1.00  0.00     0.167 HD
ATOM     61  C   UNL A   1      45.772  28.256  31.188  1.00  0.00     0.074 A 
ATOM     62  C   UNL A   1      46.559  29.248  31.891  1.00  0.00     0.031 C 
ATOM     63  C   UNL A   1      46.227  27.027  30.841  1.00  0.00     0.031 A 
BRANCH  50  64
ATOM     64  C   UNL A   1      42.132  23.546  27.819  1.00  0.00    -0.014 A 
ATOM     65  C   UNL A   1      41.558  22.469  28.520  1.00  0.00     0.010 A 
ATOM     66  C   UNL A   1      42.602  23.340  26.510  1.00  0.00     0.010 A 
ATOM     67  C   UNL A   1      41.499  21.198  27.941  1.00  0.00     0.020 A 
ATOM     68  C   UNL A   1      42.524  22.075  25.920  1.00  0.00     0.020 A 
ATOM     69  C   UNL A   1      41.998  21.006  26.650  1.00  0.00     0.054 A 
BRANCH  69  70
ATOM     70  S   UNL A   1      41.972  19.336  25.940  1.00  0.00     0.124 S 
ATOM     71  O   UNL A   1      40.555  19.150  25.643  1.00  0.00    -0.237 OA
ATOM     72  O   UNL A   1      42.848  19.468  24.778  1.00  0.00    -0.237 OA
ATOM     73  O   UNL A   1      42.501  18.499  27.015  1.00  0.00    -0.744 OA
ENDBRANCH  69  70
ENDBRANCH  50  64
BRANCH  51  74
ATOM     74  C   UNL A   1      43.741  32.388  32.177  1.00  0.00    -0.014 A 
ATOM     75  C   UNL A   1      43.602  32.616  33.557  1.00  0.00     0.010 A 
ATOM     76  C   UNL A   1      44.090  33.461  31.338  1.00  0.00     0.010 A 
ATOM     77  C   UNL A   1      43.762  33.899  34.086  1.00  0.00     0.020 A 
ATOM     78  C   UNL A   1      44.283  34.741  31.868  1.00  0.00     0.020 A 
ATOM     79  C   UNL A   1      44.091  34.957  33.235  1.00  0.00     0.054 A 
BRANCH  79  80
ATOM     80  S   UNL A   1      44.284  36.618  33.937  1.00  0.00     0.124 S 
ATOM     81  O   UNL A   1      45.726  36.823  33.822  1.00  0.00    -0.237 OA
ATOM     82  O   UNL A   1      43.459  37.440  33.054  1.00  0.00    -0.237 OA
ATOM     83  O   UNL A   1      43.778  36.472  35.299  1.00  0.00    -0.744 OA
ENDBRANCH  79  80
ENDBRANCH  51  74
BRANCH  63  84
ATOM     84  C   UNL A   1      47.634  26.665  31.233  1.00  0.00    -0.014 A 
ATOM     85  C   UNL A   1      48.676  26.774  30.294  1.00  0.00     0.010 A 
ATOM     86  C   UNL A   1      47.908  26.133  32.505  1.00  0.00     0.010 A 
ATOM     87  C   UNL A   1      49.965  26.342  30.614  1.00  0.00     0.020 A 
ATOM     88  C   UNL A   1      49.202  25.725  32.838  1.00  0.00     0.020 A 
ATOM     89  C   UNL A   1      50.218  25.814  31.883  1.00  0.00     0.054 A 
BRANCH  89  90
ATOM     90  S   UNL A   1      51.898  25.263  32.289  1.00  0.00     0.124 S 
ATOM     91  O   UNL A   1      52.101  25.844  33.613  1.00  0.00    -0.237 OA
ATOM     92  O   UNL A   1      51.781  23.807  32.251  1.00  0.00    -0.237 OA
ATOM     93  O   UNL A   1      52.713  25.841  31.222  1.00  0.00    -0.744 OA
ENDBRANCH  89  90
ENDBRANCH  63  84
ENDBRANCH  37  38
ENDBRANCH  29  32
ENDBRANCH  27  28
ENDBRANCH  26  27
ENDBRANCH   1  26
TORSDOF 18
ENDMDL
MODEL 3
REMARK VINA RESULT:     -10.7      3.170      4.515
REMARK SMILES COc1cc(C)cc2c1O[C@H](C(F)(F)F)C(C(=O)NCCCCCCNC(=O)c1ccc(-c3c4nc(c(-c5ccc(S(=O)(=O)[O-])cc5)c5ccc([nH]5)c(-c5ccc(S(=O)(=O)[O-])cc5)c5nc(c(-c6ccc(S(=O)(=O)[O-])cc6)c6ccc3[nH]6)C=C5)C=C4)cc1)=C2
REMARK SMILES IDX 23 1 22 2 21 3 20 4 19 5 17 6 18 7 16 9 3 10 4 11 9 12 5 13
REMARK SMILES IDX 8 14 10 15 6 16 7 17 89 18 11 19 2 20 1 21 12 22 13 23 14 24
REMARK SMILES IDX 15 25 24 26 25 27 26 28 27 29 28 31 29 32 30 33 88 34 31 35
REMARK SMILES IDX 87 36 32 37 33 38 34 39 81 40 35 41 86 42 80 43 82 44 36 45
REMARK SMILES IDX 85 46 79 47 78 48 37 50 67 51 48 52 66 53 49 54 52 55 65 56
REMARK SMILES IDX 83 57 50 58 51 59 64 61 84 62 53 63 38 64 39 65 47 66 40 67
REMARK SMILES IDX 46 68 41 69 42 70 43 71 44 72 45 73 68 74 69 75 77 76 70 77
REMARK SMILES IDX 76 78 71 79 72 80 73 81 74 82 75 83 54 84 55 85 63 86 56 87
REMARK SMILES IDX 62 88 57 89 58 90 59 91 60 92 61 93
REMARK H PARENT 19 8 26 30 82 49 52 60
REMARK Flexibility Score: inf
ROOT
ATOM      1  C   UNL A   1      35.374  32.224  27.999  1.00  0.00     0.002 C 
ENDROOT
BRANCH   1   2
ATOM      2  C   UNL A   1      33.851  32.417  28.011  1.00  0.00     0.002 C 
BRANCH   2   3
ATOM      3  C   UNL A   1      33.038  31.365  27.250  1.00  0.00     0.021 C 
BRANCH   3   4
ATOM      4  C   UNL A   1      33.796  30.075  26.953  1.00  0.00     0.116 C 
BRANCH   4   5
ATOM      5  N   UNL A   1      33.723  29.710  25.549  1.00  0.00    -0.352 N 
ATOM      6  C   UNL A   1      33.325  28.640  24.822  1.00  0.00     0.251 C 
ATOM      7  O   UNL A   1      33.420  28.778  23.596  1.00  0.00    -0.270 OA
ATOM      8  H   UNL A   1      34.050  30.437  24.970  1.00  0.00     0.163 HD
BRANCH   6   9
ATOM      9  C   UNL A   1      32.801  27.354  25.378  1.00  0.00     0.067 C 
ATOM     10  C   UNL A   1      31.568  23.672  26.989  1.00  0.00     0.161 A 
ATOM     11  C   UNL A   1      32.442  22.584  26.991  1.00  0.00     0.054 A 
ATOM     12  C   UNL A   1      31.990  24.909  26.494  1.00  0.00     0.169 A 
ATOM     13  C   UNL A   1      33.757  22.739  26.533  1.00  0.00    -0.047 A 
ATOM     14  C   UNL A   1      33.293  25.076  26.027  1.00  0.00     0.021 A 
ATOM     15  O   UNL A   1      31.101  25.943  26.550  1.00  0.00    -0.471 OA
ATOM     16  C   UNL A   1      34.707  21.577  26.522  1.00  0.00     0.044 C 
ATOM     17  C   UNL A   1      34.175  23.989  26.050  1.00  0.00     0.015 A 
ATOM     18  C   UNL A   1      33.719  26.382  25.540  1.00  0.00     0.025 C 
ATOM     19  C   UNL A   1      31.355  27.087  25.697  1.00  0.00     0.314 C 
BRANCH  10  20
ATOM     20  O   UNL A   1      30.257  23.544  27.369  1.00  0.00    -0.493 OA
ATOM     21  C   UNL A   1      29.649  22.358  26.869  1.00  0.00     0.278 C 
ENDBRANCH  10  20
BRANCH  19  22
ATOM     22  C   UNL A   1      30.471  26.980  24.442  1.00  0.00     0.429 C 
ATOM     23  F   UNL A   1      29.395  26.193  24.680  1.00  0.00    -0.167 F 
ATOM     24  F   UNL A   1      29.983  28.183  24.053  1.00  0.00    -0.167 F 
ATOM     25  F   UNL A   1      31.134  26.465  23.383  1.00  0.00    -0.167 F 
ENDBRANCH  19  22
ENDBRANCH   6   9
ENDBRANCH   4   5
ENDBRANCH   3   4
ENDBRANCH   2   3
ENDBRANCH   1   2
BRANCH   1  26
ATOM     26  C   UNL A   1      36.198  33.371  28.590  1.00  0.00     0.021 C 
BRANCH  26  27
ATOM     27  C   UNL A   1      36.704  33.144  30.009  1.00  0.00     0.116 C 
BRANCH  27  28
ATOM     28  N   UNL A   1      36.130  31.960  30.629  1.00  0.00    -0.352 N 
ATOM     29  C   UNL A   1      36.674  30.705  30.764  1.00  0.00     0.251 C 
ATOM     30  H   UNL A   1      35.227  32.074  31.005  1.00  0.00     0.163 HD
ATOM     31  O   UNL A   1      35.991  29.779  31.194  1.00  0.00    -0.269 OA
BRANCH  29  32
ATOM     32  C   UNL A   1      38.077  30.467  30.353  1.00  0.00     0.039 A 
ATOM     33  C   UNL A   1      38.401  30.285  29.008  1.00  0.00     0.014 A 
ATOM     34  C   UNL A   1      39.076  30.402  31.330  1.00  0.00     0.014 A 
ATOM     35  C   UNL A   1      39.686  29.880  28.659  1.00  0.00     0.010 A 
ATOM     36  C   UNL A   1      40.387  30.076  30.966  1.00  0.00     0.010 A 
ATOM     37  C   UNL A   1      40.694  29.768  29.632  1.00  0.00    -0.014 A 
BRANCH  37  38
ATOM     38  C   UNL A   1      42.054  29.335  29.212  1.00  0.00     0.031 A 
ATOM     39  C   UNL A   1      42.307  27.928  28.733  1.00  0.00     0.074 A 
ATOM     40  C   UNL A   1      43.043  30.250  29.168  1.00  0.00     0.049 A 
ATOM     41  N   UNL A   1      43.405  27.422  28.229  1.00  0.00    -0.248 NA
ATOM     42  C   UNL A   1      41.196  26.967  28.824  1.00  0.00     0.031 C 
ATOM     43  C   UNL A   1      42.913  31.648  29.593  1.00  0.00     0.029 A 
ATOM     44  N   UNL A   1      44.331  30.167  28.700  1.00  0.00    -0.354 N 
ATOM     45  C   UNL A   1      43.119  26.091  27.948  1.00  0.00     0.074 A 
ATOM     46  C   UNL A   1      41.755  25.854  28.367  1.00  0.00     0.031 C 
ATOM     47  C   UNL A   1      44.038  32.307  29.283  1.00  0.00     0.029 A 
ATOM     48  C   UNL A   1      44.995  31.372  28.700  1.00  0.00     0.049 A 
ATOM     49  H   UNL A   1      44.741  29.326  28.394  1.00  0.00     0.167 HD
ATOM     50  C   UNL A   1      43.916  25.157  27.375  1.00  0.00     0.031 A 
ATOM     51  C   UNL A   1      46.231  31.698  28.273  1.00  0.00     0.031 A 
ATOM     52  C   UNL A   1      45.267  25.401  26.943  1.00  0.00     0.049 A 
ATOM     53  C   UNL A   1      47.106  30.630  27.683  1.00  0.00     0.074 A 
ATOM     54  C   UNL A   1      46.146  24.514  26.342  1.00  0.00     0.029 A 
ATOM     55  N   UNL A   1      45.935  26.610  27.050  1.00  0.00    -0.354 N 
ATOM     56  N   UNL A   1      46.814  29.375  27.432  1.00  0.00    -0.248 NA
ATOM     57  C   UNL A   1      48.478  31.015  27.329  1.00  0.00     0.031 C 
ATOM     58  C   UNL A   1      47.361  25.171  26.137  1.00  0.00     0.029 A 
ATOM     59  C   UNL A   1      47.221  26.486  26.551  1.00  0.00     0.049 A 
ATOM     60  H   UNL A   1      45.552  27.436  27.426  1.00  0.00     0.167 HD
ATOM     61  C   UNL A   1      47.969  28.823  26.891  1.00  0.00     0.074 A 
ATOM     62  C   UNL A   1      48.950  29.885  26.818  1.00  0.00     0.031 C 
ATOM     63  C   UNL A   1      48.196  27.545  26.501  1.00  0.00     0.031 A 
BRANCH  50  64
ATOM     64  C   UNL A   1      43.362  23.774  27.154  1.00  0.00    -0.014 A 
ATOM     65  C   UNL A   1      42.875  23.412  25.884  1.00  0.00     0.010 A 
ATOM     66  C   UNL A   1      43.176  22.895  28.235  1.00  0.00     0.010 A 
ATOM     67  C   UNL A   1      42.173  22.217  25.708  1.00  0.00     0.020 A 
ATOM     68  C   UNL A   1      42.493  21.687  28.058  1.00  0.00     0.020 A 
ATOM     69  C   UNL A   1      41.972  21.369  26.802  1.00  0.00     0.054 A 
BRANCH  69  70
ATOM     70  S   UNL A   1      41.002  19.853  26.568  1.00  0.00     0.124 S 
ATOM     71  O   UNL A   1      41.850  19.082  25.664  1.00  0.00    -0.237 OA
ATOM     72  O   UNL A   1      40.892  19.331  27.928  1.00  0.00    -0.237 OA
ATOM     73  O   UNL A   1      39.748  20.334  25.992  1.00  0.00    -0.744 OA
ENDBRANCH  69  70
ENDBRANCH  50  64
BRANCH  51  74
ATOM     74  C   UNL A   1      46.699  33.107  28.377  1.00  0.00    -0.014 A 
ATOM     75  C   UNL A   1      46.511  34.003  27.309  1.00  0.00     0.010 A 
ATOM     76  C   UNL A   1      47.377  33.549  29.527  1.00  0.00     0.010 A 
ATOM     77  C   UNL A   1      47.029  35.298  27.367  1.00  0.00     0.020 A 
ATOM     78  C   UNL A   1      47.869  34.856  29.602  1.00  0.00     0.020 A 
ATOM     79  C   UNL A   1      47.715  35.714  28.511  1.00  0.00     0.054 A 
BRANCH  79  80
ATOM     80  S   UNL A   1      48.390  37.396  28.564  1.00  0.00     0.124 S 
ATOM     81  O   UNL A   1      49.617  37.199  29.331  1.00  0.00    -0.237 OA
ATOM     82  O   UNL A   1      48.575  37.715  27.151  1.00  0.00    -0.237 OA
ATOM     83  O   UNL A   1      47.345  38.160  29.240  1.00  0.00    -0.744 OA
ENDBRANCH  79  80
ENDBRANCH  51  74
BRANCH  63  84
ATOM     84  C   UNL A   1      49.566  27.206  25.979  1.00  0.00    -0.014 A 
ATOM     85  C   UNL A   1      49.817  27.224  24.595  1.00  0.00     0.010 A 
ATOM     86  C   UNL A   1      50.582  26.784  26.855  1.00  0.00     0.010 A 
ATOM     87  C   UNL A   1      51.053  26.810  24.094  1.00  0.00     0.020 A 
ATOM     88  C   UNL A   1      51.828  26.395  26.359  1.00  0.00     0.020 A 
ATOM     89  C   UNL A   1      52.049  26.392  24.980  1.00  0.00     0.054 A 
BRANCH  89  90
ATOM     90  S   UNL A   1      53.652  25.864  24.316  1.00  0.00     0.124 S 
ATOM     91  O   UNL A   1      53.695  24.455  24.699  1.00  0.00    -0.237 OA
ATOM     92  O   UNL A   1      53.514  26.124  22.885  1.00  0.00    -0.237 OA
ATOM     93  O   UNL A   1      54.608  26.728  25.006  1.00  0.00    -0.744 OA
ENDBRANCH  89  90
ENDBRANCH  63  84
ENDBRANCH  37  38
ENDBRANCH  29  32
ENDBRANCH  27  28
ENDBRANCH  26  27
ENDBRANCH   1  26
TORSDOF 18
ENDMDL
