MODEL 1
REMARK VINA RESULT:     -10.6      0.000      0.000
REMARK SMILES CN(C)C(=O)c1cccc(NCc2cc(C(=O)NCCCCCCNC(=O)c3ccc(-c4c5nc(c(-c6ccc(S(=O)(=O)[O-])cc6)c6ccc([nH]6)c(-c6ccc(S(=O)(=O)[O-])cc6)c6nc(c(-c7ccc(S(=O)(=O)[O-])cc7)c7ccc4[nH]7)C=C6)C=C5)cc3)cs2)c1
REMARK SMILES IDX 21 1 20 2 19 3 18 4 16 5 17 6 15 8 13 9 14 10 89 11 88 12
REMARK SMILES IDX 12 13 11 14 10 16 6 17 7 18 90 19 8 20 9 21 4 22 1 23 2 24
REMARK SMILES IDX 3 25 5 26 22 27 23 28 24 29 25 30 26 31 27 33 28 34 29 35
REMARK SMILES IDX 87 36 30 37 86 38 31 39 32 40 33 41 80 42 34 43 85 44 79 45
REMARK SMILES IDX 81 46 35 47 84 48 78 49 77 50 36 52 66 53 47 54 65 55 48 56
REMARK SMILES IDX 51 57 64 58 82 59 49 60 50 61 63 63 83 64 52 65 37 66 38 67
REMARK SMILES IDX 46 68 39 69 45 70 40 71 41 72 42 73 43 74 44 75 67 76 68 77
REMARK SMILES IDX 76 78 69 79 75 80 70 81 71 82 72 83 73 84 74 85 53 86 54 87
REMARK SMILES IDX 62 88 55 89 61 90 56 91 57 92 58 93 59 94 60 95
REMARK H PARENT 18 7 11 15 25 32 81 51 51 62
REMARK Flexibility Score: inf
ROOT
ATOM      1  C   UNL A   1      39.773  22.302  26.544  1.00  0.00     0.002 C 
ENDROOT
BRANCH   1   2
ATOM      2  C   UNL A   1      38.843  23.520  26.470  1.00  0.00     0.021 C 
BRANCH   2   3
ATOM      3  C   UNL A   1      37.477  23.187  25.869  1.00  0.00     0.116 C 
BRANCH   3   4
ATOM      4  N   UNL A   1      37.367  21.760  25.642  1.00  0.00    -0.352 N 
ATOM      5  C   UNL A   1      36.369  20.990  25.103  1.00  0.00     0.252 C 
ATOM      6  O   UNL A   1      36.583  19.782  25.006  1.00  0.00    -0.269 OA
ATOM      7  H   UNL A   1      38.158  21.248  25.928  1.00  0.00     0.163 HD
BRANCH   5   8
ATOM      8  C   UNL A   1      35.134  21.590  24.595  1.00  0.00     0.050 A 
ATOM      9  C   UNL A   1      33.637  22.852  23.288  1.00  0.00     0.024 A 
ATOM     10  C   UNL A   1      34.932  22.737  23.757  1.00  0.00     0.031 A 
ATOM     11  S   UNL A   1      32.593  21.777  24.107  1.00  0.00    -0.146 S 
ATOM     12  C   UNL A   1      33.901  21.061  24.943  1.00  0.00     0.079 A 
BRANCH   9  13
ATOM     13  C   UNL A   1      33.121  23.779  22.220  1.00  0.00     0.159 C 
BRANCH  13  14
ATOM     14  N   UNL A   1      33.552  25.160  22.411  1.00  0.00    -0.380 N 
ATOM     15  H   UNL A   1      34.308  25.460  21.855  1.00  0.00     0.160 HD
BRANCH  14  16
ATOM     16  C   UNL A   1      33.025  26.093  23.280  1.00  0.00     0.035 A 
ATOM     17  C   UNL A   1      31.280  27.751  23.739  1.00  0.00     0.042 A 
ATOM     18  C   UNL A   1      31.905  28.097  24.937  1.00  0.00     0.014 A 
ATOM     19  C   UNL A   1      31.848  26.771  22.912  1.00  0.00     0.039 A 
ATOM     20  C   UNL A   1      33.063  27.432  25.325  1.00  0.00     0.003 A 
ATOM     21  C   UNL A   1      33.605  26.432  24.508  1.00  0.00     0.026 A 
BRANCH  17  22
ATOM     22  C   UNL A   1      30.089  28.536  23.333  1.00  0.00     0.253 C 
ATOM     23  C   UNL A   1      27.714  28.782  22.891  1.00  0.00     0.146 C 
ATOM     24  N   UNL A   1      28.825  27.950  23.333  1.00  0.00    -0.345 N 
ATOM     25  C   UNL A   1      28.508  26.640  23.876  1.00  0.00     0.146 C 
ATOM     26  O   UNL A   1      30.280  29.713  23.031  1.00  0.00    -0.269 OA
ENDBRANCH  17  22
ENDBRANCH  14  16
ENDBRANCH  13  14
ENDBRANCH   9  13
ENDBRANCH   5   8
ENDBRANCH   3   4
ENDBRANCH   2   3
ENDBRANCH   1   2
BRANCH   1  27
ATOM     27  C   UNL A   1      40.578  22.192  27.846  1.00  0.00     0.002 C 
BRANCH  27  28
ATOM     28  C   UNL A   1      42.079  21.958  27.654  1.00  0.00     0.021 C 
BRANCH  28  29
ATOM     29  C   UNL A   1      42.916  23.234  27.677  1.00  0.00     0.116 C 
BRANCH  29  30
ATOM     30  N   UNL A   1      42.814  23.957  26.420  1.00  0.00    -0.352 N 
ATOM     31  C   UNL A   1      42.282  25.195  26.166  1.00  0.00     0.251 C 
ATOM     32  H   UNL A   1      43.182  23.490  25.636  1.00  0.00     0.163 HD
ATOM     33  O   UNL A   1      42.047  25.530  25.010  1.00  0.00    -0.269 OA
BRANCH  31  34
ATOM     34  C   UNL A   1      41.986  26.117  27.283  1.00  0.00     0.039 A 
ATOM     35  C   UNL A   1      40.900  25.842  28.115  1.00  0.00     0.014 A 
ATOM     36  C   UNL A   1      42.756  27.266  27.491  1.00  0.00     0.014 A 
ATOM     37  C   UNL A   1      40.611  26.698  29.179  1.00  0.00     0.010 A 
ATOM     38  C   UNL A   1      42.517  28.073  28.601  1.00  0.00     0.010 A 
ATOM     39  C   UNL A   1      41.433  27.806  29.448  1.00  0.00    -0.014 A 
BRANCH  39  40
ATOM     40  C   UNL A   1      41.161  28.685  30.613  1.00  0.00     0.031 A 
ATOM     41  C   UNL A   1      41.995  28.577  31.863  1.00  0.00     0.074 A 
ATOM     42  C   UNL A   1      40.141  29.563  30.554  1.00  0.00     0.049 A 
ATOM     43  N   UNL A   1      41.916  29.276  32.968  1.00  0.00    -0.248 NA
ATOM     44  C   UNL A   1      43.036  27.536  31.887  1.00  0.00     0.031 C 
ATOM     45  C   UNL A   1      39.230  29.727  29.418  1.00  0.00     0.029 A 
ATOM     46  N   UNL A   1      39.702  30.490  31.466  1.00  0.00    -0.354 N 
ATOM     47  C   UNL A   1      42.887  28.756  33.817  1.00  0.00     0.074 A 
ATOM     48  C   UNL A   1      43.502  27.645  33.123  1.00  0.00     0.031 C 
ATOM     49  C   UNL A   1      38.371  30.723  29.683  1.00  0.00     0.029 A 
ATOM     50  C   UNL A   1      38.640  31.241  31.020  1.00  0.00     0.049 A 
ATOM     51  H   UNL A   1      40.108  30.606  32.354  1.00  0.00     0.167 HD
ATOM     52  C   UNL A   1      43.251  29.179  35.052  1.00  0.00     0.031 A 
ATOM     53  C   UNL A   1      37.959  32.238  31.618  1.00  0.00     0.031 A 
ATOM     54  C   UNL A   1      42.635  30.285  35.736  1.00  0.00     0.049 A 
ATOM     55  C   UNL A   1      38.380  32.686  32.991  1.00  0.00     0.074 A 
ATOM     56  C   UNL A   1      42.964  30.826  36.968  1.00  0.00     0.029 A 
ATOM     57  N   UNL A   1      41.561  31.019  35.253  1.00  0.00    -0.354 N 
ATOM     58  N   UNL A   1      39.351  32.230  33.746  1.00  0.00    -0.248 NA
ATOM     59  C   UNL A   1      37.625  33.797  33.581  1.00  0.00     0.031 C 
ATOM     60  C   UNL A   1      42.049  31.844  37.256  1.00  0.00     0.029 A 
ATOM     61  C   UNL A   1      41.198  31.989  36.173  1.00  0.00     0.049 A 
ATOM     62  H   UNL A   1      41.122  30.872  34.384  1.00  0.00     0.167 HD
ATOM     63  C   UNL A   1      39.340  33.019  34.891  1.00  0.00     0.074 A 
ATOM     64  C   UNL A   1      38.283  33.995  34.713  1.00  0.00     0.031 C 
ATOM     65  C   UNL A   1      40.133  32.945  35.990  1.00  0.00     0.031 A 
BRANCH  52  66
ATOM     66  C   UNL A   1      44.364  28.433  35.745  1.00  0.00    -0.014 A 
ATOM     67  C   UNL A   1      45.707  28.827  35.600  1.00  0.00     0.010 A 
ATOM     68  C   UNL A   1      44.060  27.349  36.589  1.00  0.00     0.010 A 
ATOM     69  C   UNL A   1      46.727  28.126  36.249  1.00  0.00     0.020 A 
ATOM     70  C   UNL A   1      45.074  26.665  37.266  1.00  0.00     0.020 A 
ATOM     71  C   UNL A   1      46.403  27.047  37.078  1.00  0.00     0.054 A 
BRANCH  71  72
ATOM     72  S   UNL A   1      47.745  26.171  37.927  1.00  0.00     0.124 S 
ATOM     73  O   UNL A   1      48.926  26.866  37.419  1.00  0.00    -0.237 OA
ATOM     74  O   UNL A   1      47.437  26.405  39.336  1.00  0.00    -0.237 OA
ATOM     75  O   UNL A   1      47.597  24.790  37.480  1.00  0.00    -0.744 OA
ENDBRANCH  71  72
ENDBRANCH  52  66
BRANCH  53  76
ATOM     76  C   UNL A   1      36.829  32.897  30.908  1.00  0.00    -0.014 A 
ATOM     77  C   UNL A   1      37.065  33.950  30.006  1.00  0.00     0.010 A 
ATOM     78  C   UNL A   1      35.506  32.466  31.122  1.00  0.00     0.010 A 
ATOM     79  C   UNL A   1      36.000  34.574  29.350  1.00  0.00     0.020 A 
ATOM     80  C   UNL A   1      34.442  33.065  30.443  1.00  0.00     0.020 A 
ATOM     81  C   UNL A   1      34.695  34.124  29.569  1.00  0.00     0.054 A 
BRANCH  81  82
ATOM     82  S   UNL A   1      33.336  34.913  28.663  1.00  0.00     0.124 S 
ATOM     83  O   UNL A   1      32.546  35.494  29.744  1.00  0.00    -0.237 OA
ATOM     84  O   UNL A   1      34.041  35.867  27.809  1.00  0.00    -0.237 OA
ATOM     85  O   UNL A   1      32.707  33.801  27.952  1.00  0.00    -0.744 OA
ENDBRANCH  81  82
ENDBRANCH  53  76
BRANCH  65  86
ATOM     86  C   UNL A   1      39.907  33.971  37.071  1.00  0.00    -0.014 A 
ATOM     87  C   UNL A   1      39.241  33.646  38.267  1.00  0.00     0.010 A 
ATOM     88  C   UNL A   1      40.380  35.284  36.888  1.00  0.00     0.010 A 
ATOM     89  C   UNL A   1      39.001  34.628  39.232  1.00  0.00     0.020 A 
ATOM     90  C   UNL A   1      40.175  36.259  37.867  1.00  0.00     0.020 A 
ATOM     91  C   UNL A   1      39.465  35.930  39.022  1.00  0.00     0.054 A 
BRANCH  91  92
ATOM     92  S   UNL A   1      39.140  37.187  40.289  1.00  0.00     0.124 S 
ATOM     93  O   UNL A   1      38.427  38.208  39.528  1.00  0.00    -0.237 OA
ATOM     94  O   UNL A   1      38.338  36.455  41.268  1.00  0.00    -0.237 OA
ATOM     95  O   UNL A   1      40.474  37.568  40.748  1.00  0.00    -0.744 OA
ENDBRANCH  91  92
ENDBRANCH  65  86
ENDBRANCH  39  40
ENDBRANCH  31  34
ENDBRANCH  29  30
ENDBRANCH  28  29
ENDBRANCH  27  28
ENDBRANCH   1  27
TORSDOF 20
ENDMDL
MODEL 2
REMARK VINA RESULT:     -10.5      4.998      6.249
REMARK SMILES CN(C)C(=O)c1cccc(NCc2cc(C(=O)NCCCCCCNC(=O)c3ccc(-c4c5nc(c(-c6ccc(S(=O)(=O)[O-])cc6)c6ccc([nH]6)c(-c6ccc(S(=O)(=O)[O-])cc6)c6nc(c(-c7ccc(S(=O)(=O)[O-])cc7)c7ccc4[nH]7)C=C6)C=C5)cc3)cs2)c1
REMARK SMILES IDX 21 1 20 2 19 3 18 4 16 5 17 6 15 8 13 9 14 10 89 11 88 12
REMARK SMILES IDX 12 13 11 14 10 16 6 17 7 18 90 19 8 20 9 21 4 22 1 23 2 24
REMARK SMILES IDX 3 25 5 26 22 27 23 28 24 29 25 30 26 31 27 33 28 34 29 35
REMARK SMILES IDX 87 36 30 37 86 38 31 39 32 40 33 41 80 42 34 43 85 44 79 45
REMARK SMILES IDX 81 46 35 47 84 48 78 49 77 50 36 52 66 53 47 54 65 55 48 56
REMARK SMILES IDX 51 57 64 58 82 59 49 60 50 61 63 63 83 64 52 65 37 66 38 67
REMARK SMILES IDX 46 68 39 69 45 70 40 71 41 72 42 73 43 74 44 75 67 76 68 77
REMARK SMILES IDX 76 78 69 79 75 80 70 81 71 82 72 83 73 84 74 85 53 86 54 87
REMARK SMILES IDX 62 88 55 89 61 90 56 91 57 92 58 93 59 94 60 95
REMARK H PARENT 18 7 11 15 25 32 81 51 51 62
REMARK Flexibility Score: inf
ROOT
ATOM      1  C   UNL A   1      34.898  23.224  26.411  1.00  0.00     0.002 C 
ENDROOT
BRANCH   1   2
ATOM      2  C   UNL A   1      34.805  21.748  26.820  1.00  0.00     0.021 C 
BRANCH   2   3
ATOM      3  C   UNL A   1      35.084  20.793  25.658  1.00  0.00     0.116 C 
BRANCH   3   4
ATOM      4  N   UNL A   1      34.039  19.794  25.572  1.00  0.00    -0.352 N 
ATOM      5  C   UNL A   1      32.716  19.877  25.221  1.00  0.00     0.252 C 
ATOM      6  O   UNL A   1      32.073  18.828  25.208  1.00  0.00    -0.269 OA
ATOM      7  H   UNL A   1      34.334  18.886  25.811  1.00  0.00     0.163 HD
BRANCH   5   8
ATOM      8  C   UNL A   1      32.116  21.146  24.805  1.00  0.00     0.050 A 
ATOM      9  C   UNL A   1      31.193  23.310  24.878  1.00  0.00     0.024 A 
ATOM     10  C   UNL A   1      31.390  22.125  25.561  1.00  0.00     0.031 A 
ATOM     11  S   UNL A   1      31.589  23.136  23.226  1.00  0.00    -0.146 S 
ATOM     12  C   UNL A   1      32.176  21.551  23.480  1.00  0.00     0.079 A 
BRANCH   9  13
ATOM     13  C   UNL A   1      30.686  24.617  25.425  1.00  0.00     0.159 C 
BRANCH  13  14
ATOM     14  N   UNL A   1      31.713  25.374  26.133  1.00  0.00    -0.380 N 
ATOM     15  H   UNL A   1      31.834  25.157  27.086  1.00  0.00     0.160 HD
BRANCH  14  16
ATOM     16  C   UNL A   1      32.533  26.359  25.622  1.00  0.00     0.035 A 
ATOM     17  C   UNL A   1      33.865  28.373  26.038  1.00  0.00     0.042 A 
ATOM     18  C   UNL A   1      34.147  28.484  24.675  1.00  0.00     0.014 A 
ATOM     19  C   UNL A   1      33.050  27.330  26.500  1.00  0.00     0.039 A 
ATOM     20  C   UNL A   1      33.655  27.530  23.792  1.00  0.00     0.003 A 
ATOM     21  C   UNL A   1      32.868  26.473  24.268  1.00  0.00     0.026 A 
BRANCH  17  22
ATOM     22  C   UNL A   1      34.352  29.454  26.930  1.00  0.00     0.253 C 
ATOM     23  C   UNL A   1      34.123  31.601  28.041  1.00  0.00     0.146 C 
ATOM     24  N   UNL A   1      33.558  30.572  27.179  1.00  0.00    -0.345 N 
ATOM     25  C   UNL A   1      32.170  30.722  26.775  1.00  0.00     0.146 C 
ATOM     26  O   UNL A   1      35.458  29.292  27.442  1.00  0.00    -0.269 OA
ENDBRANCH  17  22
ENDBRANCH  14  16
ENDBRANCH  13  14
ENDBRANCH   9  13
ENDBRANCH   5   8
ENDBRANCH   3   4
ENDBRANCH   2   3
ENDBRANCH   1   2
BRANCH   1  27
ATOM     27  C   UNL A   1      35.159  23.458  24.918  1.00  0.00     0.002 C 
BRANCH  27  28
ATOM     28  C   UNL A   1      36.639  23.507  24.526  1.00  0.00     0.021 C 
BRANCH  28  29
ATOM     29  C   UNL A   1      37.576  23.858  25.676  1.00  0.00     0.116 C 
BRANCH  29  30
ATOM     30  N   UNL A   1      38.561  22.812  25.896  1.00  0.00    -0.352 N 
ATOM     31  C   UNL A   1      39.878  22.916  26.266  1.00  0.00     0.251 C 
ATOM     32  H   UNL A   1      38.235  21.893  25.761  1.00  0.00     0.163 HD
ATOM     33  O   UNL A   1      40.620  21.946  26.148  1.00  0.00    -0.269 OA
BRANCH  31  34
ATOM     34  C   UNL A   1      40.399  24.193  26.797  1.00  0.00     0.039 A 
ATOM     35  C   UNL A   1      40.805  24.253  28.132  1.00  0.00     0.014 A 
ATOM     36  C   UNL A   1      40.458  25.337  25.994  1.00  0.00     0.014 A 
ATOM     37  C   UNL A   1      41.306  25.447  28.648  1.00  0.00     0.010 A 
ATOM     38  C   UNL A   1      41.034  26.504  26.487  1.00  0.00     0.010 A 
ATOM     39  C   UNL A   1      41.451  26.577  27.823  1.00  0.00    -0.014 A 
BRANCH  39  40
ATOM     40  C   UNL A   1      42.038  27.833  28.355  1.00  0.00     0.031 A 
ATOM     41  C   UNL A   1      43.532  28.023  28.393  1.00  0.00     0.074 A 
ATOM     42  C   UNL A   1      41.222  28.792  28.833  1.00  0.00     0.049 A 
ATOM     43  N   UNL A   1      44.219  29.059  28.802  1.00  0.00    -0.248 NA
ATOM     44  C   UNL A   1      44.363  26.897  27.935  1.00  0.00     0.031 C 
ATOM     45  C   UNL A   1      39.760  28.706  28.897  1.00  0.00     0.029 A 
ATOM     46  N   UNL A   1      41.502  30.033  29.347  1.00  0.00    -0.354 N 
ATOM     47  C   UNL A   1      45.557  28.709  28.657  1.00  0.00     0.074 A 
ATOM     48  C   UNL A   1      45.586  27.343  28.181  1.00  0.00     0.031 C 
ATOM     49  C   UNL A   1      39.272  29.859  29.379  1.00  0.00     0.029 A 
ATOM     50  C   UNL A   1      40.382  30.750  29.697  1.00  0.00     0.049 A 
ATOM     51  H   UNL A   1      42.417  30.378  29.456  1.00  0.00     0.167 HD
ATOM     52  C   UNL A   1      46.662  29.462  28.879  1.00  0.00     0.031 A 
ATOM     53  C   UNL A   1      40.260  31.989  30.213  1.00  0.00     0.031 A 
ATOM     54  C   UNL A   1      46.626  30.821  29.354  1.00  0.00     0.049 A 
ATOM     55  C   UNL A   1      41.501  32.803  30.454  1.00  0.00     0.074 A 
ATOM     56  C   UNL A   1      47.686  31.687  29.562  1.00  0.00     0.029 A 
ATOM     57  N   UNL A   1      45.474  31.511  29.699  1.00  0.00    -0.354 N 
ATOM     58  N   UNL A   1      42.755  32.480  30.240  1.00  0.00    -0.248 NA
ATOM     59  C   UNL A   1      41.308  34.157  30.987  1.00  0.00     0.031 C 
ATOM     60  C   UNL A   1      47.178  32.878  30.093  1.00  0.00     0.029 A 
ATOM     61  C   UNL A   1      45.798  32.782  30.144  1.00  0.00     0.049 A 
ATOM     62  H   UNL A   1      44.559  31.151  29.637  1.00  0.00     0.167 HD
ATOM     63  C   UNL A   1      43.498  33.602  30.587  1.00  0.00     0.074 A 
ATOM     64  C   UNL A   1      42.550  34.618  30.998  1.00  0.00     0.031 C 
ATOM     65  C   UNL A   1      44.844  33.779  30.566  1.00  0.00     0.031 A 
BRANCH  52  66
ATOM     66  C   UNL A   1      48.005  28.826  28.618  1.00  0.00    -0.014 A 
ATOM     67  C   UNL A   1      48.612  28.899  27.351  1.00  0.00     0.010 A 
ATOM     68  C   UNL A   1      48.690  28.184  29.665  1.00  0.00     0.010 A 
ATOM     69  C   UNL A   1      49.856  28.304  27.124  1.00  0.00     0.020 A 
ATOM     70  C   UNL A   1      49.949  27.615  29.451  1.00  0.00     0.020 A 
ATOM     71  C   UNL A   1      50.517  27.665  28.177  1.00  0.00     0.054 A 
BRANCH  71  72
ATOM     72  S   UNL A   1      52.142  26.924  27.860  1.00  0.00     0.124 S 
ATOM     73  O   UNL A   1      51.776  25.630  27.287  1.00  0.00    -0.237 OA
ATOM     74  O   UNL A   1      52.749  27.873  26.930  1.00  0.00    -0.237 OA
ATOM     75  O   UNL A   1      52.762  26.866  29.180  1.00  0.00    -0.744 OA
ENDBRANCH  71  72
ENDBRANCH  52  66
BRANCH  53  76
ATOM     76  C   UNL A   1      38.909  32.542  30.508  1.00  0.00    -0.014 A 
ATOM     77  C   UNL A   1      38.193  33.247  29.525  1.00  0.00     0.010 A 
ATOM     78  C   UNL A   1      38.326  32.356  31.776  1.00  0.00     0.010 A 
ATOM     79  C   UNL A   1      36.930  33.774  29.810  1.00  0.00     0.020 A 
ATOM     80  C   UNL A   1      37.050  32.853  32.054  1.00  0.00     0.020 A 
ATOM     81  C   UNL A   1      36.364  33.570  31.072  1.00  0.00     0.054 A 
BRANCH  81  82
ATOM     82  S   UNL A   1      34.701  34.216  31.398  1.00  0.00     0.124 S 
ATOM     83  O   UNL A   1      34.965  35.245  32.398  1.00  0.00    -0.237 OA
ATOM     84  O   UNL A   1      34.290  34.701  30.082  1.00  0.00    -0.237 OA
ATOM     85  O   UNL A   1      33.967  33.046  31.878  1.00  0.00    -0.744 OA
ENDBRANCH  81  82
ENDBRANCH  53  76
BRANCH  65  86
ATOM     86  C   UNL A   1      45.365  35.135  30.969  1.00  0.00    -0.014 A 
ATOM     87  C   UNL A   1      45.711  35.424  32.302  1.00  0.00     0.010 A 
ATOM     88  C   UNL A   1      45.521  36.134  29.991  1.00  0.00     0.010 A 
ATOM     89  C   UNL A   1      46.146  36.703  32.658  1.00  0.00     0.020 A 
ATOM     90  C   UNL A   1      45.990  37.404  30.336  1.00  0.00     0.020 A 
ATOM     91  C   UNL A   1      46.276  37.687  31.672  1.00  0.00     0.054 A 
BRANCH  91  92
ATOM     92  S   UNL A   1      46.842  39.340  32.160  1.00  0.00     0.124 S 
ATOM     93  O   UNL A   1      48.278  39.134  32.319  1.00  0.00    -0.237 OA
ATOM     94  O   UNL A   1      46.446  40.164  31.020  1.00  0.00    -0.237 OA
ATOM     95  O   UNL A   1      46.109  39.606  33.396  1.00  0.00    -0.744 OA
ENDBRANCH  91  92
ENDBRANCH  65  86
ENDBRANCH  39  40
ENDBRANCH  31  34
ENDBRANCH  29  30
ENDBRANCH  28  29
ENDBRANCH  27  28
ENDBRANCH   1  27
TORSDOF 20
ENDMDL
MODEL 3
REMARK VINA RESULT:     -10.2      2.040      9.277
REMARK SMILES CN(C)C(=O)c1cccc(NCc2cc(C(=O)NCCCCCCNC(=O)c3ccc(-c4c5nc(c(-c6ccc(S(=O)(=O)[O-])cc6)c6ccc([nH]6)c(-c6ccc(S(=O)(=O)[O-])cc6)c6nc(c(-c7ccc(S(=O)(=O)[O-])cc7)c7ccc4[nH]7)C=C6)C=C5)cc3)cs2)c1
REMARK SMILES IDX 21 1 20 2 19 3 18 4 16 5 17 6 15 8 13 9 14 10 89 11 88 12
REMARK SMILES IDX 12 13 11 14 10 16 6 17 7 18 90 19 8 20 9 21 4 22 1 23 2 24
REMARK SMILES IDX 3 25 5 26 22 27 23 28 24 29 25 30 26 31 27 33 28 34 29 35
REMARK SMILES IDX 87 36 30 37 86 38 31 39 32 40 33 41 80 42 34 43 85 44 79 45
REMARK SMILES IDX 81 46 35 47 84 48 78 49 77 50 36 52 66 53 47 54 65 55 48 56
REMARK SMILES IDX 51 57 64 58 82 59 49 60 50 61 63 63 83 64 52 65 37 66 38 67
REMARK SMILES IDX 46 68 39 69 45 70 40 71 41 72 42 73 43 74 44 75 67 76 68 77
REMARK SMILES IDX 76 78 69 79 75 80 70 81 71 82 72 83 73 84 74 85 53 86 54 87
REMARK SMILES IDX 62 88 55 89 61 90 56 91 57 92 58 93 59 94 60 95
REMARK H PARENT 18 7 11 15 25 32 81 51 51 62
REMARK Flexibility Score: inf
ROOT
ATOM      1  C   UNL A   1      32.794  30.134  25.826  1.00  0.00     0.002 C 
ENDROOT
BRANCH   1   2
ATOM      2  C   UNL A   1      32.642  28.625  25.594  1.00  0.00     0.021 C 
BRANCH   2   3
ATOM      3  C   UNL A   1      31.182  28.188  25.471  1.00  0.00     0.116 C 
BRANCH   3   4
ATOM      4  N   UNL A   1      30.670  28.526  24.159  1.00  0.00    -0.352 N 
ATOM      5  C   UNL A   1      30.756  27.890  22.948  1.00  0.00     0.252 C 
ATOM      6  O   UNL A   1      30.177  28.414  21.997  1.00  0.00    -0.269 OA
ATOM      7  H   UNL A   1      30.165  29.371  24.133  1.00  0.00     0.163 HD
BRANCH   5   8
ATOM      8  C   UNL A   1      31.442  26.604  22.810  1.00  0.00     0.050 A 
ATOM      9  C   UNL A   1      31.889  24.293  22.864  1.00  0.00     0.024 A 
ATOM     10  C   UNL A   1      31.178  25.337  23.428  1.00  0.00     0.031 A 
ATOM     11  S   UNL A   1      33.105  24.878  21.818  1.00  0.00    -0.146 S 
ATOM     12  C   UNL A   1      32.558  26.488  21.996  1.00  0.00     0.079 A 
BRANCH   9  13
ATOM     13  C   UNL A   1      31.700  22.818  23.094  1.00  0.00     0.159 C 
BRANCH  13  14
ATOM     14  N   UNL A   1      31.463  22.488  24.495  1.00  0.00    -0.380 N 
ATOM     15  H   UNL A   1      30.556  22.177  24.721  1.00  0.00     0.160 HD
BRANCH  14  16
ATOM     16  C   UNL A   1      32.361  22.561  25.540  1.00  0.00     0.035 A 
ATOM     17  C   UNL A   1      34.700  22.647  26.265  1.00  0.00     0.042 A 
ATOM     18  C   UNL A   1      34.300  22.615  27.602  1.00  0.00     0.014 A 
ATOM     19  C   UNL A   1      33.737  22.601  25.247  1.00  0.00     0.039 A 
ATOM     20  C   UNL A   1      32.946  22.586  27.914  1.00  0.00     0.003 A 
ATOM     21  C   UNL A   1      31.990  22.574  26.890  1.00  0.00     0.026 A 
BRANCH  17  22
ATOM     22  C   UNL A   1      36.155  22.605  25.982  1.00  0.00     0.253 C 
ATOM     23  C   UNL A   1      38.181  21.476  25.262  1.00  0.00     0.146 C 
ATOM     24  N   UNL A   1      36.742  21.443  25.483  1.00  0.00    -0.345 N 
ATOM     25  C   UNL A   1      36.019  20.268  25.028  1.00  0.00     0.146 C 
ATOM     26  O   UNL A   1      36.788  23.639  26.185  1.00  0.00    -0.269 OA
ENDBRANCH  17  22
ENDBRANCH  14  16
ENDBRANCH  13  14
ENDBRANCH   9  13
ENDBRANCH   5   8
ENDBRANCH   3   4
ENDBRANCH   2   3
ENDBRANCH   1   2
BRANCH   1  27
ATOM     27  C   UNL A   1      31.734  30.747  26.751  1.00  0.00     0.002 C 
BRANCH  27  28
ATOM     28  C   UNL A   1      31.770  32.275  26.843  1.00  0.00     0.021 C 
BRANCH  28  29
ATOM     29  C   UNL A   1      33.034  32.830  27.492  1.00  0.00     0.116 C 
BRANCH  29  30
ATOM     30  N   UNL A   1      32.864  34.221  27.881  1.00  0.00    -0.352 N 
ATOM     31  C   UNL A   1      33.432  34.913  28.919  1.00  0.00     0.251 C 
ATOM     32  H   UNL A   1      32.251  34.743  27.314  1.00  0.00     0.163 HD
ATOM     33  O   UNL A   1      32.972  36.001  29.247  1.00  0.00    -0.269 OA
BRANCH  31  34
ATOM     34  C   UNL A   1      34.589  34.344  29.642  1.00  0.00     0.039 A 
ATOM     35  C   UNL A   1      34.364  33.633  30.823  1.00  0.00     0.014 A 
ATOM     36  C   UNL A   1      35.895  34.537  29.179  1.00  0.00     0.014 A 
ATOM     37  C   UNL A   1      35.443  33.083  31.514  1.00  0.00     0.010 A 
ATOM     38  C   UNL A   1      36.961  33.919  29.824  1.00  0.00     0.010 A 
ATOM     39  C   UNL A   1      36.750  33.198  31.008  1.00  0.00    -0.014 A 
BRANCH  39  40
ATOM     40  C   UNL A   1      37.893  32.564  31.712  1.00  0.00     0.031 A 
ATOM     41  C   UNL A   1      38.355  33.089  33.045  1.00  0.00     0.074 A 
ATOM     42  C   UNL A   1      38.534  31.531  31.132  1.00  0.00     0.049 A 
ATOM     43  N   UNL A   1      39.320  32.648  33.813  1.00  0.00    -0.248 NA
ATOM     44  C   UNL A   1      37.663  34.274  33.577  1.00  0.00     0.031 C 
ATOM     45  C   UNL A   1      38.212  30.964  29.819  1.00  0.00     0.029 A 
ATOM     46  N   UNL A   1      39.584  30.766  31.574  1.00  0.00    -0.354 N 
ATOM     47  C   UNL A   1      39.354  33.503  34.910  1.00  0.00     0.074 A 
ATOM     48  C   UNL A   1      38.355  34.523  34.679  1.00  0.00     0.031 C 
ATOM     49  C   UNL A   1      39.017  29.917  29.583  1.00  0.00     0.029 A 
ATOM     50  C   UNL A   1      39.938  29.762  30.703  1.00  0.00     0.049 A 
ATOM     51  H   UNL A   1      40.041  30.921  32.431  1.00  0.00     0.167 HD
ATOM     52  C   UNL A   1      40.129  33.432  36.019  1.00  0.00     0.031 A 
ATOM     53  C   UNL A   1      40.895  28.818  30.797  1.00  0.00     0.031 A 
ATOM     54  C   UNL A   1      41.123  32.414  36.242  1.00  0.00     0.049 A 
ATOM     55  C   UNL A   1      41.746  28.763  32.036  1.00  0.00     0.074 A 
ATOM     56  C   UNL A   1      41.925  32.224  37.354  1.00  0.00     0.029 A 
ATOM     57  N   UNL A   1      41.454  31.417  35.337  1.00  0.00    -0.354 N 
ATOM     58  N   UNL A   1      41.712  29.537  33.095  1.00  0.00    -0.248 NA
ATOM     59  C   UNL A   1      42.751  27.696  32.099  1.00  0.00     0.031 C 
ATOM     60  C   UNL A   1      42.784  31.151  37.094  1.00  0.00     0.029 A 
ATOM     61  C   UNL A   1      42.467  30.625  35.853  1.00  0.00     0.049 A 
ATOM     62  H   UNL A   1      41.031  31.289  34.457  1.00  0.00     0.167 HD
ATOM     63  C   UNL A   1      42.672  29.030  33.964  1.00  0.00     0.074 A 
ATOM     64  C   UNL A   1      43.249  27.870  33.314  1.00  0.00     0.031 C 
ATOM     65  C   UNL A   1      43.043  29.482  35.188  1.00  0.00     0.031 A 
BRANCH  52  66
ATOM     66  C   UNL A   1      39.939  34.495  37.072  1.00  0.00    -0.014 A 
ATOM     67  C   UNL A   1      40.649  35.709  37.020  1.00  0.00     0.010 A 
ATOM     68  C   UNL A   1      39.006  34.297  38.106  1.00  0.00     0.010 A 
ATOM     69  C   UNL A   1      40.463  36.684  38.004  1.00  0.00     0.020 A 
ATOM     70  C   UNL A   1      38.792  35.283  39.074  1.00  0.00     0.020 A 
ATOM     71  C   UNL A   1      39.535  36.464  39.026  1.00  0.00     0.054 A 
BRANCH  71  72
ATOM     72  S   UNL A   1      39.295  37.757  40.275  1.00  0.00     0.124 S 
ATOM     73  O   UNL A   1      38.058  38.387  39.821  1.00  0.00    -0.237 OA
ATOM     74  O   UNL A   1      39.191  36.989  41.513  1.00  0.00    -0.237 OA
ATOM     75  O   UNL A   1      40.494  38.582  40.155  1.00  0.00    -0.744 OA
ENDBRANCH  71  72
ENDBRANCH  52  66
BRANCH  53  76
ATOM     76  C   UNL A   1      41.078  27.832  29.696  1.00  0.00    -0.014 A 
ATOM     77  C   UNL A   1      40.108  26.843  29.452  1.00  0.00     0.010 A 
ATOM     78  C   UNL A   1      42.221  27.883  28.877  1.00  0.00     0.010 A 
ATOM     79  C   UNL A   1      40.288  25.912  28.425  1.00  0.00     0.020 A 
ATOM     80  C   UNL A   1      42.389  26.976  27.829  1.00  0.00     0.020 A 
ATOM     81  C   UNL A   1      41.426  25.987  27.616  1.00  0.00     0.054 A 
BRANCH  81  82
ATOM     82  S   UNL A   1      41.609  24.802  26.255  1.00  0.00     0.124 S 
ATOM     83  O   UNL A   1      41.253  25.612  25.096  1.00  0.00    -0.237 OA
ATOM     84  O   UNL A   1      43.017  24.423  26.357  1.00  0.00    -0.237 OA
ATOM     85  O   UNL A   1      40.662  23.741  26.595  1.00  0.00    -0.744 OA
ENDBRANCH  81  82
ENDBRANCH  53  76
BRANCH  65  86
ATOM     86  C   UNL A   1      44.102  28.696  35.919  1.00  0.00    -0.014 A 
ATOM     87  C   UNL A   1      45.469  29.002  35.786  1.00  0.00     0.010 A 
ATOM     88  C   UNL A   1      43.719  27.637  36.763  1.00  0.00     0.010 A 
ATOM     89  C   UNL A   1      46.434  28.227  36.435  1.00  0.00     0.020 A 
ATOM     90  C   UNL A   1      44.677  26.883  37.443  1.00  0.00     0.020 A 
ATOM     91  C   UNL A   1      46.031  27.167  37.255  1.00  0.00     0.054 A 
BRANCH  91  92
ATOM     92  S   UNL A   1      47.302  26.176  38.086  1.00  0.00     0.124 S 
ATOM     93  O   UNL A   1      47.106  24.863  37.480  1.00  0.00    -0.237 OA
ATOM     94  O   UNL A   1      48.537  26.863  37.716  1.00  0.00    -0.237 OA
ATOM     95  O   UNL A   1      46.944  26.270  39.500  1.00  0.00    -0.744 OA
ENDBRANCH  91  92
ENDBRANCH  65  86
ENDBRANCH  39  40
ENDBRANCH  31  34
ENDBRANCH  29  30
ENDBRANCH  28  29
ENDBRANCH  27  28
ENDBRANCH   1  27
TORSDOF 20
ENDMDL
