MODEL 1
REMARK VINA RESULT:     -10.3      0.000      0.000
REMARK SMILES CC(C)(C)OC(=O)N1CC(Cc2ccc(C(=O)NCCCCCCNC(=O)c3ccc(-c4c5nc(c(-c6ccc(S(=O)(=O)[O-])cc6)c6ccc([nH]6)c(-c6ccc(S(=O)(=O)[O-])cc6)c6nc(c(-c7ccc(S(=O)(=O)[O-])cc7)c7ccc4[nH]7)C=C6)C=C5)cc3)cc2)C1
REMARK SMILES IDX 21 1 20 2 19 3 18 4 16 5 17 6 15 8 12 9 13 10 89 11 14 12
REMARK SMILES IDX 88 13 11 14 10 15 6 16 7 17 8 18 9 19 90 20 5 21 2 22 1 23
REMARK SMILES IDX 3 24 4 25 22 26 23 27 24 28 25 29 26 30 27 32 28 33 29 34
REMARK SMILES IDX 87 35 30 36 86 37 31 38 32 39 33 40 80 41 34 42 85 43 79 44
REMARK SMILES IDX 81 45 35 46 84 47 78 48 77 49 36 51 66 52 47 53 65 54 48 55
REMARK SMILES IDX 51 56 64 57 82 58 49 59 50 60 63 62 83 63 52 64 37 65 38 66
REMARK SMILES IDX 46 67 39 68 45 69 40 70 41 71 42 72 43 73 44 74 67 75 68 76
REMARK SMILES IDX 76 77 69 78 75 79 70 80 71 81 72 82 73 83 74 84 53 85 54 86
REMARK SMILES IDX 62 87 55 88 61 89 56 90 57 91 58 92 59 93 60 94
REMARK H PARENT 18 7 25 31 81 50 51 61
REMARK Flexibility Score: inf
ROOT
ATOM      1  C   UNL A   1      46.027  22.148  24.583  1.00  0.00     0.002 C 
ENDROOT
BRANCH   1   2
ATOM      2  C   UNL A   1      45.839  20.800  25.294  1.00  0.00     0.021 C 
BRANCH   2   3
ATOM      3  C   UNL A   1      44.716  19.943  24.706  1.00  0.00     0.116 C 
BRANCH   3   4
ATOM      4  N   UNL A   1      44.314  18.911  25.648  1.00  0.00    -0.352 N 
ATOM      5  C   UNL A   1      43.173  18.752  26.391  1.00  0.00     0.251 C 
ATOM      6  O   UNL A   1      43.044  17.728  27.060  1.00  0.00    -0.269 OA
ATOM      7  H   UNL A   1      44.982  18.198  25.774  1.00  0.00     0.163 HD
BRANCH   5   8
ATOM      8  C   UNL A   1      42.069  19.744  26.372  1.00  0.00     0.039 A 
ATOM      9  C   UNL A   1      40.070  21.726  26.415  1.00  0.00    -0.048 A 
ATOM     10  C   UNL A   1      41.360  22.019  26.865  1.00  0.00     0.004 A 
ATOM     11  C   UNL A   1      39.799  20.446  25.908  1.00  0.00     0.004 A 
ATOM     12  C   UNL A   1      42.353  21.036  26.837  1.00  0.00     0.014 A 
ATOM     13  C   UNL A   1      40.798  19.468  25.867  1.00  0.00     0.014 A 
BRANCH   9  14
ATOM     14  C   UNL A   1      38.974  22.761  26.472  1.00  0.00     0.042 C 
BRANCH  14  15
ATOM     15  C   UNL A   1      37.828  22.368  25.548  1.00  0.00     0.033 C 
ATOM     16  C   UNL A   1      34.707  22.969  24.491  1.00  0.00     0.410 C 
ATOM     17  O   UNL A   1      34.552  23.632  23.475  1.00  0.00    -0.224 OA
ATOM     18  N   UNL A   1      35.900  22.893  25.139  1.00  0.00    -0.307 N 
ATOM     19  C   UNL A   1      37.146  23.566  24.862  1.00  0.00     0.128 C 
ATOM     20  C   UNL A   1      36.443  22.036  26.169  1.00  0.00     0.128 C 
BRANCH  16  21
ATOM     21  O   UNL A   1      33.741  22.258  25.123  1.00  0.00    -0.444 OA
BRANCH  21  22
ATOM     22  C   UNL A   1      32.776  22.916  25.991  1.00  0.00     0.106 C 
ATOM     23  C   UNL A   1      33.067  22.366  27.397  1.00  0.00     0.056 C 
ATOM     24  C   UNL A   1      31.363  22.504  25.569  1.00  0.00     0.056 C 
ATOM     25  C   UNL A   1      32.917  24.444  26.048  1.00  0.00     0.056 C 
ENDBRANCH  21  22
ENDBRANCH  16  21
ENDBRANCH  14  15
ENDBRANCH   9  14
ENDBRANCH   5   8
ENDBRANCH   3   4
ENDBRANCH   2   3
ENDBRANCH   1   2
BRANCH   1  26
ATOM     26  C   UNL A   1      45.017  23.236  24.968  1.00  0.00     0.002 C 
BRANCH  26  27
ATOM     27  C   UNL A   1      45.119  23.750  26.409  1.00  0.00     0.021 C 
BRANCH  27  28
ATOM     28  C   UNL A   1      44.041  24.751  26.816  1.00  0.00     0.116 C 
BRANCH  28  29
ATOM     29  N   UNL A   1      43.019  24.903  25.793  1.00  0.00    -0.352 N 
ATOM     30  C   UNL A   1      41.845  25.615  25.840  1.00  0.00     0.251 C 
ATOM     31  H   UNL A   1      43.192  24.428  24.948  1.00  0.00     0.163 HD
ATOM     32  O   UNL A   1      41.009  25.479  24.952  1.00  0.00    -0.269 OA
BRANCH  30  33
ATOM     33  C   UNL A   1      41.581  26.533  26.971  1.00  0.00     0.039 A 
ATOM     34  C   UNL A   1      40.732  26.113  27.998  1.00  0.00     0.014 A 
ATOM     35  C   UNL A   1      42.155  27.807  27.008  1.00  0.00     0.014 A 
ATOM     36  C   UNL A   1      40.504  26.950  29.095  1.00  0.00     0.010 A 
ATOM     37  C   UNL A   1      41.967  28.619  28.124  1.00  0.00     0.010 A 
ATOM     38  C   UNL A   1      41.141  28.199  29.179  1.00  0.00    -0.014 A 
BRANCH  38  39
ATOM     39  C   UNL A   1      40.964  29.076  30.363  1.00  0.00     0.031 A 
ATOM     40  C   UNL A   1      41.845  28.907  31.571  1.00  0.00     0.074 A 
ATOM     41  C   UNL A   1      39.963  29.977  30.381  1.00  0.00     0.049 A 
ATOM     42  N   UNL A   1      41.796  29.531  32.719  1.00  0.00    -0.248 NA
ATOM     43  C   UNL A   1      42.904  27.889  31.481  1.00  0.00     0.031 C 
ATOM     44  C   UNL A   1      39.020  30.219  29.286  1.00  0.00     0.029 A 
ATOM     45  N   UNL A   1      39.568  30.853  31.360  1.00  0.00    -0.354 N 
ATOM     46  C   UNL A   1      42.797  28.964  33.500  1.00  0.00     0.074 A 
ATOM     47  C   UNL A   1      43.417  27.927  32.702  1.00  0.00     0.031 C 
ATOM     48  C   UNL A   1      38.171  31.196  29.646  1.00  0.00     0.029 A 
ATOM     49  C   UNL A   1      38.486  31.625  31.006  1.00  0.00     0.049 A 
ATOM     50  H   UNL A   1      40.014  30.922  32.235  1.00  0.00     0.167 HD
ATOM     51  C   UNL A   1      43.171  29.282  34.763  1.00  0.00     0.031 A 
ATOM     52  C   UNL A   1      37.820  32.568  31.697  1.00  0.00     0.031 A 
ATOM     53  C   UNL A   1      42.570  30.327  35.547  1.00  0.00     0.049 A 
ATOM     54  C   UNL A   1      38.252  32.905  33.096  1.00  0.00     0.074 A 
ATOM     55  C   UNL A   1      42.933  30.776  36.806  1.00  0.00     0.029 A 
ATOM     56  N   UNL A   1      41.479  31.084  35.152  1.00  0.00    -0.354 N 
ATOM     57  N   UNL A   1      39.240  32.399  33.794  1.00  0.00    -0.248 NA
ATOM     58  C   UNL A   1      37.482  33.940  33.798  1.00  0.00     0.031 C 
ATOM     59  C   UNL A   1      42.035  31.780  37.187  1.00  0.00     0.029 A 
ATOM     60  C   UNL A   1      41.138  31.980  36.150  1.00  0.00     0.049 A 
ATOM     61  H   UNL A   1      41.014  30.998  34.288  1.00  0.00     0.167 HD
ATOM     62  C   UNL A   1      39.225  33.071  35.011  1.00  0.00     0.074 A 
ATOM     63  C   UNL A   1      38.132  34.022  34.951  1.00  0.00     0.031 C 
ATOM     64  C   UNL A   1      40.045  32.916  36.079  1.00  0.00     0.031 A 
BRANCH  51  65
ATOM     65  C   UNL A   1      44.279  28.469  35.376  1.00  0.00    -0.014 A 
ATOM     66  C   UNL A   1      44.006  27.285  36.084  1.00  0.00     0.010 A 
ATOM     67  C   UNL A   1      45.612  28.894  35.234  1.00  0.00     0.010 A 
ATOM     68  C   UNL A   1      45.044  26.569  36.686  1.00  0.00     0.020 A 
ATOM     69  C   UNL A   1      46.654  28.168  35.817  1.00  0.00     0.020 A 
ATOM     70  C   UNL A   1      46.360  27.022  36.559  1.00  0.00     0.054 A 
BRANCH  70  71
ATOM     71  S   UNL A   1      47.693  26.084  37.358  1.00  0.00     0.124 S 
ATOM     72  O   UNL A   1      47.204  25.982  38.731  1.00  0.00    -0.237 OA
ATOM     73  O   UNL A   1      47.707  24.833  36.604  1.00  0.00    -0.237 OA
ATOM     74  O   UNL A   1      48.868  26.931  37.176  1.00  0.00    -0.744 OA
ENDBRANCH  70  71
ENDBRANCH  51  65
BRANCH  52  75
ATOM     75  C   UNL A   1      36.686  33.286  31.058  1.00  0.00    -0.014 A 
ATOM     76  C   UNL A   1      36.908  34.081  29.920  1.00  0.00     0.010 A 
ATOM     77  C   UNL A   1      35.379  33.151  31.560  1.00  0.00     0.010 A 
ATOM     78  C   UNL A   1      35.843  34.731  29.293  1.00  0.00     0.020 A 
ATOM     79  C   UNL A   1      34.308  33.786  30.924  1.00  0.00     0.020 A 
ATOM     80  C   UNL A   1      34.548  34.578  29.797  1.00  0.00     0.054 A 
BRANCH  80  81
ATOM     81  S   UNL A   1      33.167  35.367  28.924  1.00  0.00     0.124 S 
ATOM     82  O   UNL A   1      32.584  34.242  28.199  1.00  0.00    -0.237 OA
ATOM     83  O   UNL A   1      32.361  35.900  30.020  1.00  0.00    -0.237 OA
ATOM     84  O   UNL A   1      33.822  36.377  28.097  1.00  0.00    -0.744 OA
ENDBRANCH  80  81
ENDBRANCH  52  75
BRANCH  64  85
ATOM     85  C   UNL A   1      39.807  33.809  37.264  1.00  0.00    -0.014 A 
ATOM     86  C   UNL A   1      40.510  35.016  37.414  1.00  0.00     0.010 A 
ATOM     87  C   UNL A   1      38.830  33.458  38.214  1.00  0.00     0.010 A 
ATOM     88  C   UNL A   1      40.255  35.849  38.507  1.00  0.00     0.020 A 
ATOM     89  C   UNL A   1      38.559  34.297  39.297  1.00  0.00     0.020 A 
ATOM     90  C   UNL A   1      39.282  35.483  39.442  1.00  0.00     0.054 A 
BRANCH  90  91
ATOM     91  S   UNL A   1      38.930  36.602  40.827  1.00  0.00     0.124 S 
ATOM     92  O   UNL A   1      38.339  37.750  40.145  1.00  0.00    -0.237 OA
ATOM     93  O   UNL A   1      38.012  35.820  41.652  1.00  0.00    -0.237 OA
ATOM     94  O   UNL A   1      40.243  36.837  41.422  1.00  0.00    -0.744 OA
ENDBRANCH  90  91
ENDBRANCH  64  85
ENDBRANCH  38  39
ENDBRANCH  30  33
ENDBRANCH  28  29
ENDBRANCH  27  28
ENDBRANCH  26  27
ENDBRANCH   1  26
TORSDOF 20
ENDMDL
MODEL 2
REMARK VINA RESULT:      -9.8      3.369     10.046
REMARK SMILES CC(C)(C)OC(=O)N1CC(Cc2ccc(C(=O)NCCCCCCNC(=O)c3ccc(-c4c5nc(c(-c6ccc(S(=O)(=O)[O-])cc6)c6ccc([nH]6)c(-c6ccc(S(=O)(=O)[O-])cc6)c6nc(c(-c7ccc(S(=O)(=O)[O-])cc7)c7ccc4[nH]7)C=C6)C=C5)cc3)cc2)C1
REMARK SMILES IDX 21 1 20 2 19 3 18 4 16 5 17 6 15 8 12 9 13 10 89 11 14 12
REMARK SMILES IDX 88 13 11 14 10 15 6 16 7 17 8 18 9 19 90 20 5 21 2 22 1 23
REMARK SMILES IDX 3 24 4 25 22 26 23 27 24 28 25 29 26 30 27 32 28 33 29 34
REMARK SMILES IDX 87 35 30 36 86 37 31 38 32 39 33 40 80 41 34 42 85 43 79 44
REMARK SMILES IDX 81 45 35 46 84 47 78 48 77 49 36 51 66 52 47 53 65 54 48 55
REMARK SMILES IDX 51 56 64 57 82 58 49 59 50 60 63 62 83 63 52 64 37 65 38 66
REMARK SMILES IDX 46 67 39 68 45 69 40 70 41 71 42 72 43 73 44 74 67 75 68 76
REMARK SMILES IDX 76 77 69 78 75 79 70 80 71 81 72 82 73 83 74 84 53 85 54 86
REMARK SMILES IDX 62 87 55 88 61 89 56 90 57 91 58 92 59 93 60 94
REMARK H PARENT 18 7 25 31 81 50 51 61
REMARK Flexibility Score: inf
ROOT
ATOM      1  C   UNL A   1      33.666  29.656  26.319  1.00  0.00     0.002 C 
ENDROOT
BRANCH   1   2
ATOM      2  C   UNL A   1      32.906  28.325  26.216  1.00  0.00     0.021 C 
BRANCH   2   3
ATOM      3  C   UNL A   1      31.419  28.485  25.892  1.00  0.00     0.116 C 
BRANCH   3   4
ATOM      4  N   UNL A   1      31.244  29.107  24.590  1.00  0.00    -0.352 N 
ATOM      5  C   UNL A   1      31.322  28.597  23.320  1.00  0.00     0.251 C 
ATOM      6  O   UNL A   1      31.043  29.330  22.372  1.00  0.00    -0.269 OA
ATOM      7  H   UNL A   1      31.028  30.068  24.628  1.00  0.00     0.163 HD
BRANCH   5   8
ATOM      8  C   UNL A   1      31.679  27.180  23.055  1.00  0.00     0.039 A 
ATOM      9  C   UNL A   1      32.496  24.544  22.499  1.00  0.00    -0.048 A 
ATOM     10  C   UNL A   1      33.407  25.599  22.396  1.00  0.00     0.004 A 
ATOM     11  C   UNL A   1      31.185  24.815  22.921  1.00  0.00     0.004 A 
ATOM     12  C   UNL A   1      33.002  26.906  22.678  1.00  0.00     0.014 A 
ATOM     13  C   UNL A   1      30.786  26.121  23.218  1.00  0.00     0.014 A 
BRANCH   9  14
ATOM     14  C   UNL A   1      32.903  23.131  22.163  1.00  0.00     0.042 C 
BRANCH  14  15
ATOM     15  C   UNL A   1      32.375  22.165  23.215  1.00  0.00     0.033 C 
ATOM     16  C   UNL A   1      33.001  19.590  25.265  1.00  0.00     0.410 C 
ATOM     17  O   UNL A   1      33.278  19.826  26.433  1.00  0.00    -0.224 OA
ATOM     18  N   UNL A   1      32.990  20.554  24.306  1.00  0.00    -0.307 N 
ATOM     19  C   UNL A   1      33.338  21.952  24.399  1.00  0.00     0.128 C 
ATOM     20  C   UNL A   1      32.485  20.637  22.955  1.00  0.00     0.128 C 
BRANCH  16  21
ATOM     21  O   UNL A   1      32.704  18.368  24.757  1.00  0.00    -0.444 OA
BRANCH  21  22
ATOM     22  C   UNL A   1      33.758  17.447  24.360  1.00  0.00     0.106 C 
ATOM     23  C   UNL A   1      33.590  16.229  25.283  1.00  0.00     0.056 C 
ATOM     24  C   UNL A   1      35.117  18.100  24.626  1.00  0.00     0.056 C 
ATOM     25  C   UNL A   1      33.652  16.953  22.909  1.00  0.00     0.056 C 
ENDBRANCH  21  22
ENDBRANCH  16  21
ENDBRANCH  14  15
ENDBRANCH   9  14
ENDBRANCH   5   8
ENDBRANCH   3   4
ENDBRANCH   2   3
ENDBRANCH   1   2
BRANCH   1  26
ATOM     26  C   UNL A   1      33.383  30.473  27.585  1.00  0.00     0.002 C 
BRANCH  26  27
ATOM     27  C   UNL A   1      32.587  31.766  27.371  1.00  0.00     0.021 C 
BRANCH  27  28
ATOM     28  C   UNL A   1      33.434  33.022  27.182  1.00  0.00     0.116 C 
BRANCH  28  29
ATOM     29  N   UNL A   1      32.980  34.120  28.020  1.00  0.00    -0.352 N 
ATOM     30  C   UNL A   1      33.383  34.465  29.288  1.00  0.00     0.251 C 
ATOM     31  H   UNL A   1      32.287  34.697  27.625  1.00  0.00     0.163 HD
ATOM     32  O   UNL A   1      32.758  35.311  29.921  1.00  0.00    -0.269 OA
BRANCH  30  33
ATOM     33  C   UNL A   1      34.559  33.805  29.896  1.00  0.00     0.039 A 
ATOM     34  C   UNL A   1      35.838  34.265  29.569  1.00  0.00     0.014 A 
ATOM     35  C   UNL A   1      34.403  32.726  30.771  1.00  0.00     0.014 A 
ATOM     36  C   UNL A   1      36.959  33.681  30.165  1.00  0.00     0.010 A 
ATOM     37  C   UNL A   1      35.517  32.178  31.402  1.00  0.00     0.010 A 
ATOM     38  C   UNL A   1      36.805  32.650  31.107  1.00  0.00    -0.014 A 
BRANCH  38  39
ATOM     39  C   UNL A   1      37.978  32.059  31.800  1.00  0.00     0.031 A 
ATOM     40  C   UNL A   1      38.384  32.556  33.160  1.00  0.00     0.074 A 
ATOM     41  C   UNL A   1      38.721  31.125  31.175  1.00  0.00     0.049 A 
ATOM     42  N   UNL A   1      39.415  32.210  33.888  1.00  0.00    -0.248 NA
ATOM     43  C   UNL A   1      37.534  33.591  33.769  1.00  0.00     0.031 C 
ATOM     44  C   UNL A   1      38.451  30.580  29.842  1.00  0.00     0.029 A 
ATOM     45  N   UNL A   1      39.860  30.475  31.576  1.00  0.00    -0.354 N 
ATOM     46  C   UNL A   1      39.353  33.003  35.029  1.00  0.00     0.074 A 
ATOM     47  C   UNL A   1      38.200  33.866  34.881  1.00  0.00     0.031 C 
ATOM     48  C   UNL A   1      39.384  29.660  29.547  1.00  0.00     0.029 A 
ATOM     49  C   UNL A   1      40.336  29.576  30.651  1.00  0.00     0.049 A 
ATOM     50  H   UNL A   1      40.296  30.637  32.443  1.00  0.00     0.167 HD
ATOM     51  C   UNL A   1      40.177  33.008  36.105  1.00  0.00     0.031 A 
ATOM     52  C   UNL A   1      41.419  28.777  30.683  1.00  0.00     0.031 A 
ATOM     53  C   UNL A   1      41.309  32.136  36.262  1.00  0.00     0.049 A 
ATOM     54  C   UNL A   1      42.318  28.799  31.887  1.00  0.00     0.074 A 
ATOM     55  C   UNL A   1      42.156  32.012  37.351  1.00  0.00     0.029 A 
ATOM     56  N   UNL A   1      41.757  31.242  35.304  1.00  0.00    -0.354 N 
ATOM     57  N   UNL A   1      42.208  29.512  32.982  1.00  0.00    -0.248 NA
ATOM     58  C   UNL A   1      43.485  27.906  31.860  1.00  0.00     0.031 C 
ATOM     59  C   UNL A   1      43.140  31.068  37.033  1.00  0.00     0.029 A 
ATOM     60  C   UNL A   1      42.883  30.578  35.763  1.00  0.00     0.049 A 
ATOM     61  H   UNL A   1      41.337  31.097  34.425  1.00  0.00     0.167 HD
ATOM     62  C   UNL A   1      43.280  29.138  33.785  1.00  0.00     0.074 A 
ATOM     63  C   UNL A   1      44.023  28.132  33.051  1.00  0.00     0.031 C 
ATOM     64  C   UNL A   1      43.614  29.585  35.020  1.00  0.00     0.031 A 
BRANCH  51  65
ATOM     65  C   UNL A   1      39.883  34.008  37.190  1.00  0.00    -0.014 A 
ATOM     66  C   UNL A   1      40.313  35.343  37.086  1.00  0.00     0.010 A 
ATOM     67  C   UNL A   1      39.159  33.605  38.327  1.00  0.00     0.010 A 
ATOM     68  C   UNL A   1      40.071  36.245  38.125  1.00  0.00     0.020 A 
ATOM     69  C   UNL A   1      38.897  34.511  39.359  1.00  0.00     0.020 A 
ATOM     70  C   UNL A   1      39.376  35.819  39.261  1.00  0.00     0.054 A 
BRANCH  70  71
ATOM     71  S   UNL A   1      39.082  37.004  40.605  1.00  0.00     0.124 S 
ATOM     72  O   UNL A   1      40.428  37.512  40.854  1.00  0.00    -0.237 OA
ATOM     73  O   UNL A   1      38.154  37.956  40.001  1.00  0.00    -0.237 OA
ATOM     74  O   UNL A   1      38.519  36.181  41.671  1.00  0.00    -0.744 OA
ENDBRANCH  70  71
ENDBRANCH  51  65
BRANCH  52  75
ATOM     75  C   UNL A   1      41.693  27.862  29.545  1.00  0.00    -0.014 A 
ATOM     76  C   UNL A   1      41.047  26.617  29.472  1.00  0.00     0.010 A 
ATOM     77  C   UNL A   1      42.572  28.244  28.515  1.00  0.00     0.010 A 
ATOM     78  C   UNL A   1      41.273  25.765  28.388  1.00  0.00     0.020 A 
ATOM     79  C   UNL A   1      42.786  27.403  27.419  1.00  0.00     0.020 A 
ATOM     80  C   UNL A   1      42.139  26.165  27.366  1.00  0.00     0.054 A 
BRANCH  80  81
ATOM     81  S   UNL A   1      42.361  25.080  25.928  1.00  0.00     0.124 S 
ATOM     82  O   UNL A   1      41.975  25.955  24.826  1.00  0.00    -0.237 OA
ATOM     83  O   UNL A   1      43.781  24.741  26.001  1.00  0.00    -0.237 OA
ATOM     84  O   UNL A   1      41.451  23.969  26.198  1.00  0.00    -0.744 OA
ENDBRANCH  80  81
ENDBRANCH  52  75
BRANCH  64  85
ATOM     85  C   UNL A   1      44.826  28.975  35.667  1.00  0.00    -0.014 A 
ATOM     86  C   UNL A   1      44.725  27.798  36.428  1.00  0.00     0.010 A 
ATOM     87  C   UNL A   1      46.089  29.561  35.468  1.00  0.00     0.010 A 
ATOM     88  C   UNL A   1      45.866  27.228  36.999  1.00  0.00     0.020 A 
ATOM     89  C   UNL A   1      47.234  28.983  36.021  1.00  0.00     0.020 A 
ATOM     90  C   UNL A   1      47.114  27.826  36.793  1.00  0.00     0.054 A 
BRANCH  90  91
ATOM     91  S   UNL A   1      48.590  27.042  37.500  1.00  0.00     0.124 S 
ATOM     92  O   UNL A   1      48.940  27.969  38.573  1.00  0.00    -0.237 OA
ATOM     93  O   UNL A   1      48.091  25.739  37.932  1.00  0.00    -0.237 OA
ATOM     94  O   UNL A   1      49.527  27.002  36.380  1.00  0.00    -0.744 OA
ENDBRANCH  90  91
ENDBRANCH  64  85
ENDBRANCH  38  39
ENDBRANCH  30  33
ENDBRANCH  28  29
ENDBRANCH  27  28
ENDBRANCH  26  27
ENDBRANCH   1  26
TORSDOF 20
ENDMDL
MODEL 3
REMARK VINA RESULT:      -9.7      3.477      9.664
REMARK SMILES CC(C)(C)OC(=O)N1CC(Cc2ccc(C(=O)NCCCCCCNC(=O)c3ccc(-c4c5nc(c(-c6ccc(S(=O)(=O)[O-])cc6)c6ccc([nH]6)c(-c6ccc(S(=O)(=O)[O-])cc6)c6nc(c(-c7ccc(S(=O)(=O)[O-])cc7)c7ccc4[nH]7)C=C6)C=C5)cc3)cc2)C1
REMARK SMILES IDX 21 1 20 2 19 3 18 4 16 5 17 6 15 8 12 9 13 10 89 11 14 12
REMARK SMILES IDX 88 13 11 14 10 15 6 16 7 17 8 18 9 19 90 20 5 21 2 22 1 23
REMARK SMILES IDX 3 24 4 25 22 26 23 27 24 28 25 29 26 30 27 32 28 33 29 34
REMARK SMILES IDX 87 35 30 36 86 37 31 38 32 39 33 40 80 41 34 42 85 43 79 44
REMARK SMILES IDX 81 45 35 46 84 47 78 48 77 49 36 51 66 52 47 53 65 54 48 55
REMARK SMILES IDX 51 56 64 57 82 58 49 59 50 60 63 62 83 63 52 64 37 65 38 66
REMARK SMILES IDX 46 67 39 68 45 69 40 70 41 71 42 72 43 73 44 74 67 75 68 76
REMARK SMILES IDX 76 77 69 78 75 79 70 80 71 81 72 82 73 83 74 84 53 85 54 86
REMARK SMILES IDX 62 87 55 88 61 89 56 90 57 91 58 92 59 93 60 94
REMARK H PARENT 18 7 25 31 81 50 51 61
REMARK Flexibility Score: inf
ROOT
ATOM      1  C   UNL A   1      33.649  29.639  26.355  1.00  0.00     0.002 C 
ENDROOT
BRANCH   1   2
ATOM      2  C   UNL A   1      32.880  28.314  26.258  1.00  0.00     0.021 C 
BRANCH   2   3
ATOM      3  C   UNL A   1      31.405  28.481  25.884  1.00  0.00     0.116 C 
BRANCH   3   4
ATOM      4  N   UNL A   1      31.276  29.113  24.582  1.00  0.00    -0.352 N 
ATOM      5  C   UNL A   1      31.391  28.611  23.311  1.00  0.00     0.251 C 
ATOM      6  O   UNL A   1      31.147  29.352  22.360  1.00  0.00    -0.269 OA
ATOM      7  H   UNL A   1      31.066  30.075  24.619  1.00  0.00     0.163 HD
BRANCH   5   8
ATOM      8  C   UNL A   1      31.745  27.193  23.047  1.00  0.00     0.039 A 
ATOM      9  C   UNL A   1      32.561  24.555  22.501  1.00  0.00    -0.048 A 
ATOM     10  C   UNL A   1      33.486  25.601  22.452  1.00  0.00     0.004 A 
ATOM     11  C   UNL A   1      31.234  24.835  22.865  1.00  0.00     0.004 A 
ATOM     12  C   UNL A   1      33.081  26.909  22.729  1.00  0.00     0.014 A 
ATOM     13  C   UNL A   1      30.834  26.142  23.157  1.00  0.00     0.014 A 
BRANCH   9  14
ATOM     14  C   UNL A   1      32.968  23.141  22.168  1.00  0.00     0.042 C 
BRANCH  14  15
ATOM     15  C   UNL A   1      32.405  22.172  23.200  1.00  0.00     0.033 C 
ATOM     16  C   UNL A   1      32.959  19.587  25.256  1.00  0.00     0.410 C 
ATOM     17  O   UNL A   1      33.201  19.816  26.433  1.00  0.00    -0.224 OA
ATOM     18  N   UNL A   1      32.981  20.555  24.302  1.00  0.00    -0.307 N 
ATOM     19  C   UNL A   1      33.331  21.951  24.411  1.00  0.00     0.128 C 
ATOM     20  C   UNL A   1      32.517  20.646  22.936  1.00  0.00     0.128 C 
BRANCH  16  21
ATOM     21  O   UNL A   1      32.673  18.368  24.734  1.00  0.00    -0.444 OA
BRANCH  21  22
ATOM     22  C   UNL A   1      33.734  17.480  24.284  1.00  0.00     0.106 C 
ATOM     23  C   UNL A   1      33.566  16.203  25.124  1.00  0.00     0.056 C 
ATOM     24  C   UNL A   1      35.088  18.120  24.601  1.00  0.00     0.056 C 
ATOM     25  C   UNL A   1      33.639  17.082  22.804  1.00  0.00     0.056 C 
ENDBRANCH  21  22
ENDBRANCH  16  21
ENDBRANCH  14  15
ENDBRANCH   9  14
ENDBRANCH   5   8
ENDBRANCH   3   4
ENDBRANCH   2   3
ENDBRANCH   1   2
BRANCH   1  26
ATOM     26  C   UNL A   1      33.337  30.486  27.595  1.00  0.00     0.002 C 
BRANCH  26  27
ATOM     27  C   UNL A   1      32.579  31.791  27.328  1.00  0.00     0.021 C 
BRANCH  27  28
ATOM     28  C   UNL A   1      33.461  33.019  27.115  1.00  0.00     0.116 C 
BRANCH  28  29
ATOM     29  N   UNL A   1      32.909  34.207  27.745  1.00  0.00    -0.352 N 
ATOM     30  C   UNL A   1      33.208  34.758  28.968  1.00  0.00     0.251 C 
ATOM     31  H   UNL A   1      32.224  34.684  27.223  1.00  0.00     0.163 HD
ATOM     32  O   UNL A   1      32.508  35.658  29.423  1.00  0.00    -0.269 OA
BRANCH  30  33
ATOM     33  C   UNL A   1      34.362  34.253  29.744  1.00  0.00     0.039 A 
ATOM     34  C   UNL A   1      34.125  33.523  30.912  1.00  0.00     0.014 A 
ATOM     35  C   UNL A   1      35.672  34.515  29.332  1.00  0.00     0.014 A 
ATOM     36  C   UNL A   1      35.202  33.003  31.635  1.00  0.00     0.010 A 
ATOM     37  C   UNL A   1      36.742  33.955  30.026  1.00  0.00     0.010 A 
ATOM     38  C   UNL A   1      36.518  33.193  31.183  1.00  0.00    -0.014 A 
BRANCH  38  39
ATOM     39  C   UNL A   1      37.673  32.595  31.900  1.00  0.00     0.031 A 
ATOM     40  C   UNL A   1      38.345  31.363  31.362  1.00  0.00     0.074 A 
ATOM     41  C   UNL A   1      38.071  33.120  33.076  1.00  0.00     0.049 A 
ATOM     42  N   UNL A   1      39.320  30.663  31.882  1.00  0.00    -0.248 NA
ATOM     43  C   UNL A   1      37.841  30.839  30.082  1.00  0.00     0.031 C 
ATOM     44  C   UNL A   1      37.483  34.296  33.722  1.00  0.00     0.029 A 
ATOM     45  N   UNL A   1      39.061  32.726  33.940  1.00  0.00    -0.354 N 
ATOM     46  C   UNL A   1      39.529  29.600  31.010  1.00  0.00     0.074 A 
ATOM     47  C   UNL A   1      38.560  29.734  29.943  1.00  0.00     0.031 C 
ATOM     48  C   UNL A   1      38.139  34.541  34.868  1.00  0.00     0.029 A 
ATOM     49  C   UNL A   1      39.169  33.523  35.055  1.00  0.00     0.049 A 
ATOM     50  H   UNL A   1      39.639  31.946  33.778  1.00  0.00     0.167 HD
ATOM     51  C   UNL A   1      40.447  28.607  31.087  1.00  0.00     0.031 A 
ATOM     52  C   UNL A   1      39.999  33.443  36.111  1.00  0.00     0.031 A 
ATOM     53  C   UNL A   1      41.425  28.486  32.135  1.00  0.00     0.049 A 
ATOM     54  C   UNL A   1      41.010  32.334  36.175  1.00  0.00     0.074 A 
ATOM     55  C   UNL A   1      42.448  27.560  32.256  1.00  0.00     0.029 A 
ATOM     56  N   UNL A   1      41.500  29.313  33.244  1.00  0.00    -0.354 N 
ATOM     57  N   UNL A   1      41.232  31.374  35.310  1.00  0.00    -0.248 NA
ATOM     58  C   UNL A   1      41.884  32.300  37.356  1.00  0.00     0.031 C 
ATOM     59  C   UNL A   1      43.118  27.806  33.461  1.00  0.00     0.029 A 
ATOM     60  C   UNL A   1      42.535  28.907  34.069  1.00  0.00     0.049 A 
ATOM     61  H   UNL A   1      40.906  30.078  33.420  1.00  0.00     0.167 HD
ATOM     62  C   UNL A   1      42.287  30.633  35.830  1.00  0.00     0.074 A 
ATOM     63  C   UNL A   1      42.661  31.259  37.083  1.00  0.00     0.031 C 
ATOM     64  C   UNL A   1      42.893  29.536  35.314  1.00  0.00     0.031 A 
BRANCH  51  65
ATOM     65  C   UNL A   1      40.421  27.562  30.005  1.00  0.00    -0.014 A 
ATOM     66  C   UNL A   1      39.270  26.789  29.768  1.00  0.00     0.010 A 
ATOM     67  C   UNL A   1      41.562  27.357  29.209  1.00  0.00     0.010 A 
ATOM     68  C   UNL A   1      39.280  25.791  28.790  1.00  0.00     0.020 A 
ATOM     69  C   UNL A   1      41.568  26.374  28.215  1.00  0.00     0.020 A 
ATOM     70  C   UNL A   1      40.433  25.581  28.029  1.00  0.00     0.054 A 
BRANCH  70  71
ATOM     71  S   UNL A   1      40.428  24.273  26.771  1.00  0.00     0.124 S 
ATOM     72  O   UNL A   1      40.563  23.071  27.591  1.00  0.00    -0.237 OA
ATOM     73  O   UNL A   1      39.131  24.448  26.125  1.00  0.00    -0.237 OA
ATOM     74  O   UNL A   1      41.584  24.592  25.938  1.00  0.00    -0.744 OA
ENDBRANCH  70  71
ENDBRANCH  51  65
BRANCH  52  75
ATOM     75  C   UNL A   1      39.926  34.469  37.184  1.00  0.00    -0.014 A 
ATOM     76  C   UNL A   1      40.689  35.645  37.086  1.00  0.00     0.010 A 
ATOM     77  C   UNL A   1      39.071  34.292  38.287  1.00  0.00     0.010 A 
ATOM     78  C   UNL A   1      40.601  36.629  38.074  1.00  0.00     0.020 A 
ATOM     79  C   UNL A   1      38.967  35.284  39.267  1.00  0.00     0.020 A 
ATOM     80  C   UNL A   1      39.738  36.444  39.157  1.00  0.00     0.054 A 
BRANCH  80  81
ATOM     81  S   UNL A   1      39.578  37.767  40.388  1.00  0.00     0.124 S 
ATOM     82  O   UNL A   1      39.101  37.037  41.558  1.00  0.00    -0.237 OA
ATOM     83  O   UNL A   1      40.942  38.285  40.478  1.00  0.00    -0.237 OA
ATOM     84  O   UNL A   1      38.614  38.682  39.780  1.00  0.00    -0.744 OA
ENDBRANCH  80  81
ENDBRANCH  52  75
BRANCH  64  85
ATOM     85  C   UNL A   1      44.038  28.952  36.092  1.00  0.00    -0.014 A 
ATOM     86  C   UNL A   1      45.345  29.447  35.938  1.00  0.00     0.010 A 
ATOM     87  C   UNL A   1      43.794  27.930  37.027  1.00  0.00     0.010 A 
ATOM     88  C   UNL A   1      46.393  28.913  36.691  1.00  0.00     0.020 A 
ATOM     89  C   UNL A   1      44.837  27.407  37.795  1.00  0.00     0.020 A 
ATOM     90  C   UNL A   1      46.133  27.894  37.614  1.00  0.00     0.054 A 
BRANCH  90  91
ATOM     91  S   UNL A   1      47.500  27.249  38.619  1.00  0.00     0.124 S 
ATOM     92  O   UNL A   1      46.884  26.090  39.259  1.00  0.00    -0.237 OA
ATOM     93  O   UNL A   1      48.522  26.946  37.620  1.00  0.00    -0.237 OA
ATOM     94  O   UNL A   1      47.822  28.359  39.513  1.00  0.00    -0.744 OA
ENDBRANCH  90  91
ENDBRANCH  64  85
ENDBRANCH  38  39
ENDBRANCH  30  33
ENDBRANCH  28  29
ENDBRANCH  27  28
ENDBRANCH  26  27
ENDBRANCH   1  26
TORSDOF 20
ENDMDL
