MODEL 1
REMARK VINA RESULT:      -9.9      0.000      0.000
REMARK SMILES [NH3+][C@H](CSCc1ccco1)C(=O)NCCCCCCNC(=O)c1ccc(-c2c3nc(c(-c4ccc(S(=O)(=O)[O-])cc4)c4ccc([nH]4)c(-c4ccc(S(=O)(=O)[O-])cc4)c4nc(c(-c5ccc(S(=O)(=O)[O-])cc5)c5ccc2[nH]5)C=C4)C=C3)cc1
REMARK SMILES IDX 16 1 15 2 14 3 13 4 11 5 12 6 2 8 1 9 3 13 4 14 5 15 6 16
REMARK SMILES IDX 7 17 10 18 8 19 9 20 17 21 18 22 19 23 20 24 21 25 22 27
REMARK SMILES IDX 23 28 24 29 82 30 25 31 81 32 26 33 27 34 28 35 75 36 29 37
REMARK SMILES IDX 80 38 74 39 76 40 30 41 79 42 73 43 72 44 31 46 61 47 42 48
REMARK SMILES IDX 60 49 43 50 46 51 59 52 77 53 44 54 45 55 58 57 78 58 47 59
REMARK SMILES IDX 32 60 33 61 41 62 34 63 40 64 35 65 36 66 37 67 38 68 39 69
REMARK SMILES IDX 62 70 63 71 71 72 64 73 70 74 65 75 66 76 67 77 68 78 69 79
REMARK SMILES IDX 48 80 49 81 57 82 50 83 56 84 51 85 52 86 53 87 54 88 55 89
REMARK H PARENT 13 7 1 10 1 11 1 12 20 26 76 45 46 56
REMARK Flexibility Score: inf
ROOT
ATOM      1  C   UNL A   1      32.079  29.365  26.148  1.00  0.00     0.002 C 
ENDROOT
BRANCH   1   2
ATOM      2  C   UNL A   1      31.319  28.932  24.893  1.00  0.00     0.021 C 
BRANCH   2   3
ATOM      3  C   UNL A   1      31.426  27.445  24.557  1.00  0.00     0.116 C 
BRANCH   3   4
ATOM      4  N   UNL A   1      30.772  26.649  25.580  1.00  0.00    -0.351 N 
ATOM      5  C   UNL A   1      30.458  25.331  25.673  1.00  0.00     0.279 C 
ATOM      6  O   UNL A   1      29.761  25.017  26.652  1.00  0.00    -0.268 OA
ATOM      7  H   UNL A   1      30.501  27.172  26.368  1.00  0.00     0.163 HD
BRANCH   5   8
ATOM      8  C   UNL A   1      30.886  24.221  24.687  1.00  0.00     0.280 C 
BRANCH   8   9
ATOM      9  N   UNL A   1      30.183  24.197  23.388  1.00  0.00    -0.347 N 
ATOM     10  H   UNL A   1      29.698  25.084  23.248  1.00  0.00     0.345 HD
ATOM     11  H   UNL A   1      29.506  23.435  23.382  1.00  0.00     0.345 HD
ATOM     12  H   UNL A   1      30.859  24.058  22.638  1.00  0.00     0.345 HD
ENDBRANCH   8   9
BRANCH   8  13
ATOM     13  C   UNL A   1      31.080  22.859  25.392  1.00  0.00     0.145 C 
BRANCH  13  14
ATOM     14  S   UNL A   1      32.788  22.286  25.776  1.00  0.00    -0.147 SA
BRANCH  14  15
ATOM     15  C   UNL A   1      33.164  21.184  24.387  1.00  0.00     0.145 C 
BRANCH  15  16
ATOM     16  C   UNL A   1      33.302  19.746  24.722  1.00  0.00     0.113 A 
ATOM     17  C   UNL A   1      34.239  18.784  24.398  1.00  0.00     0.046 A 
ATOM     18  O   UNL A   1      32.262  19.161  25.381  1.00  0.00    -0.468 OA
ATOM     19  C   UNL A   1      33.731  17.549  24.876  1.00  0.00     0.042 A 
ATOM     20  C   UNL A   1      32.528  17.835  25.474  1.00  0.00     0.195 A 
ENDBRANCH  15  16
ENDBRANCH  14  15
ENDBRANCH  13  14
ENDBRANCH   8  13
ENDBRANCH   5   8
ENDBRANCH   3   4
ENDBRANCH   2   3
ENDBRANCH   1   2
BRANCH   1  21
ATOM     21  C   UNL A   1      33.603  29.290  26.020  1.00  0.00     0.002 C 
BRANCH  21  22
ATOM     22  C   UNL A   1      34.353  28.758  27.249  1.00  0.00     0.021 C 
BRANCH  22  23
ATOM     23  C   UNL A   1      35.513  29.625  27.737  1.00  0.00     0.116 C 
BRANCH  23  24
ATOM     24  N   UNL A   1      35.458  29.850  29.171  1.00  0.00    -0.352 N 
ATOM     25  C   UNL A   1      36.443  29.678  30.111  1.00  0.00     0.251 C 
ATOM     26  H   UNL A   1      34.594  30.170  29.517  1.00  0.00     0.163 HD
ATOM     27  O   UNL A   1      36.159  29.678  31.309  1.00  0.00    -0.269 OA
BRANCH  25  28
ATOM     28  C   UNL A   1      37.842  29.480  29.684  1.00  0.00     0.039 A 
ATOM     29  C   UNL A   1      38.799  29.114  30.633  1.00  0.00     0.014 A 
ATOM     30  C   UNL A   1      38.213  29.675  28.350  1.00  0.00     0.014 A 
ATOM     31  C   UNL A   1      40.120  28.889  30.233  1.00  0.00     0.010 A 
ATOM     32  C   UNL A   1      39.515  29.389  27.943  1.00  0.00     0.010 A 
ATOM     33  C   UNL A   1      40.483  29.000  28.881  1.00  0.00    -0.014 A 
BRANCH  33  34
ATOM     34  C   UNL A   1      41.871  28.715  28.432  1.00  0.00     0.031 A 
ATOM     35  C   UNL A   1      42.252  27.330  27.982  1.00  0.00     0.074 A 
ATOM     36  C   UNL A   1      42.804  29.686  28.489  1.00  0.00     0.049 A 
ATOM     37  N   UNL A   1      43.421  26.877  27.605  1.00  0.00    -0.248 NA
ATOM     38  C   UNL A   1      41.187  26.313  27.977  1.00  0.00     0.031 C 
ATOM     39  C   UNL A   1      42.573  31.059  28.945  1.00  0.00     0.029 A 
ATOM     40  N   UNL A   1      44.139  29.666  28.166  1.00  0.00    -0.354 N 
ATOM     41  C   UNL A   1      43.239  25.524  27.342  1.00  0.00     0.074 A 
ATOM     42  C   UNL A   1      41.856  25.219  27.639  1.00  0.00     0.031 C 
ATOM     43  C   UNL A   1      43.719  31.752  28.853  1.00  0.00     0.029 A 
ATOM     44  C   UNL A   1      44.775  30.869  28.368  1.00  0.00     0.049 A 
ATOM     45  H   UNL A   1      44.598  28.865  27.822  1.00  0.00     0.167 HD
ATOM     46  C   UNL A   1      44.136  24.621  26.877  1.00  0.00     0.031 A 
ATOM     47  C   UNL A   1      46.064  31.221  28.190  1.00  0.00     0.031 A 
ATOM     48  C   UNL A   1      45.504  24.932  26.562  1.00  0.00     0.049 A 
ATOM     49  C   UNL A   1      47.039  30.200  27.670  1.00  0.00     0.074 A 
ATOM     50  C   UNL A   1      46.470  24.103  26.018  1.00  0.00     0.029 A 
ATOM     51  N   UNL A   1      46.104  26.166  26.763  1.00  0.00    -0.354 N 
ATOM     52  N   UNL A   1      46.826  28.944  27.353  1.00  0.00    -0.248 NA
ATOM     53  C   UNL A   1      48.425  30.645  27.475  1.00  0.00     0.031 C 
ATOM     54  C   UNL A   1      47.668  24.821  25.940  1.00  0.00     0.029 A 
ATOM     55  C   UNL A   1      47.434  26.113  26.380  1.00  0.00     0.049 A 
ATOM     56  H   UNL A   1      45.651  26.962  27.125  1.00  0.00     0.167 HD
ATOM     57  C   UNL A   1      48.046  28.460  26.891  1.00  0.00     0.074 A 
ATOM     58  C   UNL A   1      48.986  29.559  26.959  1.00  0.00     0.031 C 
ATOM     59  C   UNL A   1      48.357  27.217  26.450  1.00  0.00     0.031 A 
BRANCH  46  60
ATOM     60  C   UNL A   1      43.667  23.202  26.690  1.00  0.00    -0.014 A 
ATOM     61  C   UNL A   1      43.817  22.542  25.456  1.00  0.00     0.010 A 
ATOM     62  C   UNL A   1      43.114  22.501  27.777  1.00  0.00     0.010 A 
ATOM     63  C   UNL A   1      43.386  21.220  25.304  1.00  0.00     0.020 A 
ATOM     64  C   UNL A   1      42.709  21.171  27.637  1.00  0.00     0.020 A 
ATOM     65  C   UNL A   1      42.832  20.544  26.396  1.00  0.00     0.054 A 
BRANCH  65  66
ATOM     66  S   UNL A   1      42.308  18.822  26.177  1.00  0.00     0.124 S 
ATOM     67  O   UNL A   1      42.530  18.268  27.510  1.00  0.00    -0.237 OA
ATOM     68  O   UNL A   1      40.909  18.961  25.780  1.00  0.00    -0.237 OA
ATOM     69  O   UNL A   1      43.199  18.316  25.137  1.00  0.00    -0.744 OA
ENDBRANCH  65  66
ENDBRANCH  46  60
BRANCH  47  70
ATOM     70  C   UNL A   1      46.507  32.608  28.496  1.00  0.00    -0.014 A 
ATOM     71  C   UNL A   1      46.943  32.951  29.788  1.00  0.00     0.010 A 
ATOM     72  C   UNL A   1      46.496  33.596  27.494  1.00  0.00     0.010 A 
ATOM     73  C   UNL A   1      47.335  34.262  30.079  1.00  0.00     0.020 A 
ATOM     74  C   UNL A   1      46.914  34.900  27.774  1.00  0.00     0.020 A 
ATOM     75  C   UNL A   1      47.318  35.228  29.070  1.00  0.00     0.054 A 
BRANCH  75  76
ATOM     76  S   UNL A   1      47.870  36.912  29.459  1.00  0.00     0.124 S 
ATOM     77  O   UNL A   1      47.534  37.021  30.875  1.00  0.00    -0.237 OA
ATOM     78  O   UNL A   1      49.296  36.857  29.148  1.00  0.00    -0.237 OA
ATOM     79  O   UNL A   1      47.076  37.747  28.560  1.00  0.00    -0.744 OA
ENDBRANCH  75  76
ENDBRANCH  47  70
BRANCH  59  80
ATOM     80  C   UNL A   1      49.765  26.983  25.970  1.00  0.00    -0.014 A 
ATOM     81  C   UNL A   1      50.760  26.495  26.835  1.00  0.00     0.010 A 
ATOM     82  C   UNL A   1      50.080  27.203  24.616  1.00  0.00     0.010 A 
ATOM     83  C   UNL A   1      52.054  26.261  26.363  1.00  0.00     0.020 A 
ATOM     84  C   UNL A   1      51.365  26.945  24.134  1.00  0.00     0.020 A 
ATOM     85  C   UNL A   1      52.348  26.488  25.013  1.00  0.00     0.054 A 
BRANCH  85  86
ATOM     86  S   UNL A   1      54.022  26.132  24.413  1.00  0.00     0.124 S 
ATOM     87  O   UNL A   1      53.873  26.319  22.972  1.00  0.00    -0.237 OA
ATOM     88  O   UNL A   1      54.830  27.140  25.097  1.00  0.00    -0.237 OA
ATOM     89  O   UNL A   1      54.259  24.756  24.842  1.00  0.00    -0.744 OA
ENDBRANCH  85  86
ENDBRANCH  59  80
ENDBRANCH  33  34
ENDBRANCH  25  28
ENDBRANCH  23  24
ENDBRANCH  22  23
ENDBRANCH  21  22
ENDBRANCH   1  21
TORSDOF 21
ENDMDL
MODEL 2
REMARK VINA RESULT:      -9.7      2.693      4.104
REMARK SMILES [NH3+][C@H](CSCc1ccco1)C(=O)NCCCCCCNC(=O)c1ccc(-c2c3nc(c(-c4ccc(S(=O)(=O)[O-])cc4)c4ccc([nH]4)c(-c4ccc(S(=O)(=O)[O-])cc4)c4nc(c(-c5ccc(S(=O)(=O)[O-])cc5)c5ccc2[nH]5)C=C4)C=C3)cc1
REMARK SMILES IDX 16 1 15 2 14 3 13 4 11 5 12 6 2 8 1 9 3 13 4 14 5 15 6 16
REMARK SMILES IDX 7 17 10 18 8 19 9 20 17 21 18 22 19 23 20 24 21 25 22 27
REMARK SMILES IDX 23 28 24 29 82 30 25 31 81 32 26 33 27 34 28 35 75 36 29 37
REMARK SMILES IDX 80 38 74 39 76 40 30 41 79 42 73 43 72 44 31 46 61 47 42 48
REMARK SMILES IDX 60 49 43 50 46 51 59 52 77 53 44 54 45 55 58 57 78 58 47 59
REMARK SMILES IDX 32 60 33 61 41 62 34 63 40 64 35 65 36 66 37 67 38 68 39 69
REMARK SMILES IDX 62 70 63 71 71 72 64 73 70 74 65 75 66 76 67 77 68 78 69 79
REMARK SMILES IDX 48 80 49 81 57 82 50 83 56 84 51 85 52 86 53 87 54 88 55 89
REMARK H PARENT 13 7 1 10 1 11 1 12 20 26 76 45 46 56
REMARK Flexibility Score: inf
ROOT
ATOM      1  C   UNL A   1      33.710  30.863  27.280  1.00  0.00     0.002 C 
ENDROOT
BRANCH   1   2
ATOM      2  C   UNL A   1      34.526  29.595  27.531  1.00  0.00     0.021 C 
BRANCH   2   3
ATOM      3  C   UNL A   1      34.194  28.424  26.606  1.00  0.00     0.116 C 
BRANCH   3   4
ATOM      4  N   UNL A   1      34.021  28.891  25.242  1.00  0.00    -0.351 N 
ATOM      5  C   UNL A   1      33.642  28.279  24.092  1.00  0.00     0.279 C 
ATOM      6  O   UNL A   1      33.740  28.969  23.063  1.00  0.00    -0.268 OA
ATOM      7  H   UNL A   1      34.220  29.848  25.130  1.00  0.00     0.163 HD
BRANCH   5   8
ATOM      8  C   UNL A   1      33.110  26.834  23.961  1.00  0.00     0.280 C 
BRANCH   8   9
ATOM      9  N   UNL A   1      34.043  25.848  23.377  1.00  0.00    -0.347 N 
ATOM     10  H   UNL A   1      34.023  25.924  22.360  1.00  0.00     0.345 HD
ATOM     11  H   UNL A   1      33.760  24.908  23.654  1.00  0.00     0.345 HD
ATOM     12  H   UNL A   1      34.987  26.033  23.713  1.00  0.00     0.345 HD
ENDBRANCH   8   9
BRANCH   8  13
ATOM     13  C   UNL A   1      31.652  26.794  23.447  1.00  0.00     0.145 C 
BRANCH  13  14
ATOM     14  S   UNL A   1      30.477  28.106  23.988  1.00  0.00    -0.147 SA
BRANCH  14  15
ATOM     15  C   UNL A   1      29.787  28.698  22.420  1.00  0.00     0.145 C 
BRANCH  15  16
ATOM     16  C   UNL A   1      29.165  30.044  22.455  1.00  0.00     0.113 A 
ATOM     17  C   UNL A   1      28.734  30.863  23.481  1.00  0.00     0.046 A 
ATOM     18  O   UNL A   1      28.806  30.591  21.259  1.00  0.00    -0.468 OA
ATOM     19  C   UNL A   1      28.068  31.956  22.872  1.00  0.00     0.042 A 
ATOM     20  C   UNL A   1      28.147  31.747  21.516  1.00  0.00     0.195 A 
ENDBRANCH  15  16
ENDBRANCH  14  15
ENDBRANCH  13  14
ENDBRANCH   8  13
ENDBRANCH   5   8
ENDBRANCH   3   4
ENDBRANCH   2   3
ENDBRANCH   1   2
BRANCH   1  21
ATOM     21  C   UNL A   1      34.205  32.095  28.043  1.00  0.00     0.002 C 
BRANCH  21  22
ATOM     22  C   UNL A   1      35.717  32.352  27.992  1.00  0.00     0.021 C 
BRANCH  22  23
ATOM     23  C   UNL A   1      36.389  32.589  29.344  1.00  0.00     0.116 C 
BRANCH  23  24
ATOM     24  N   UNL A   1      36.040  31.564  30.312  1.00  0.00    -0.352 N 
ATOM     25  C   UNL A   1      36.686  30.386  30.594  1.00  0.00     0.251 C 
ATOM     26  H   UNL A   1      35.227  31.737  30.839  1.00  0.00     0.163 HD
ATOM     27  O   UNL A   1      36.124  29.521  31.266  1.00  0.00    -0.269 OA
BRANCH  25  28
ATOM     28  C   UNL A   1      38.050  30.153  30.081  1.00  0.00     0.039 A 
ATOM     29  C   UNL A   1      39.127  30.182  30.970  1.00  0.00     0.014 A 
ATOM     30  C   UNL A   1      38.268  29.927  28.718  1.00  0.00     0.014 A 
ATOM     31  C   UNL A   1      40.419  29.928  30.501  1.00  0.00     0.010 A 
ATOM     32  C   UNL A   1      39.548  29.612  28.264  1.00  0.00     0.010 A 
ATOM     33  C   UNL A   1      40.637  29.615  29.148  1.00  0.00    -0.014 A 
BRANCH  33  34
ATOM     34  C   UNL A   1      41.997  29.292  28.643  1.00  0.00     0.031 A 
ATOM     35  C   UNL A   1      42.320  27.898  28.177  1.00  0.00     0.074 A 
ATOM     36  C   UNL A   1      42.959  30.237  28.663  1.00  0.00     0.049 A 
ATOM     37  N   UNL A   1      43.461  27.414  27.753  1.00  0.00    -0.248 NA
ATOM     38  C   UNL A   1      41.228  26.912  28.214  1.00  0.00     0.031 C 
ATOM     39  C   UNL A   1      42.784  31.615  29.130  1.00  0.00     0.029 A 
ATOM     40  N   UNL A   1      44.278  30.180  28.287  1.00  0.00    -0.354 N 
ATOM     41  C   UNL A   1      43.230  26.068  27.495  1.00  0.00     0.074 A 
ATOM     42  C   UNL A   1      41.852  25.801  27.848  1.00  0.00     0.031 C 
ATOM     43  C   UNL A   1      43.945  32.277  28.993  1.00  0.00     0.029 A 
ATOM     44  C   UNL A   1      44.955  31.365  28.465  1.00  0.00     0.049 A 
ATOM     45  H   UNL A   1      44.700  29.368  27.924  1.00  0.00     0.167 HD
ATOM     46  C   UNL A   1      44.082  25.141  26.994  1.00  0.00     0.031 A 
ATOM     47  C   UNL A   1      46.245  31.681  28.235  1.00  0.00     0.031 A 
ATOM     48  C   UNL A   1      45.445  25.415  26.624  1.00  0.00     0.049 A 
ATOM     49  C   UNL A   1      47.169  30.634  27.675  1.00  0.00     0.074 A 
ATOM     50  C   UNL A   1      46.364  24.560  26.041  1.00  0.00     0.029 A 
ATOM     51  N   UNL A   1      46.086  26.631  26.802  1.00  0.00    -0.354 N 
ATOM     52  N   UNL A   1      46.909  29.386  27.365  1.00  0.00    -0.248 NA
ATOM     53  C   UNL A   1      48.559  31.041  27.424  1.00  0.00     0.031 C 
ATOM     54  C   UNL A   1      47.578  25.244  25.915  1.00  0.00     0.029 A 
ATOM     55  C   UNL A   1      47.397  26.541  26.366  1.00  0.00     0.049 A 
ATOM     56  H   UNL A   1      45.671  27.438  27.183  1.00  0.00     0.167 HD
ATOM     57  C   UNL A   1      48.095  28.869  26.854  1.00  0.00     0.074 A 
ATOM     58  C   UNL A   1      49.068  29.942  26.885  1.00  0.00     0.031 C 
ATOM     59  C   UNL A   1      48.354  27.619  26.399  1.00  0.00     0.031 A 
BRANCH  46  60
ATOM     60  C   UNL A   1      43.567  23.736  26.824  1.00  0.00    -0.014 A 
ATOM     61  C   UNL A   1      43.473  22.856  27.918  1.00  0.00     0.010 A 
ATOM     62  C   UNL A   1      43.122  23.304  25.560  1.00  0.00     0.010 A 
ATOM     63  C   UNL A   1      42.981  21.559  27.743  1.00  0.00     0.020 A 
ATOM     64  C   UNL A   1      42.603  22.018  25.388  1.00  0.00     0.020 A 
ATOM     65  C   UNL A   1      42.551  21.148  26.477  1.00  0.00     0.054 A 
BRANCH  65  66
ATOM     66  S   UNL A   1      41.893  19.469  26.285  1.00  0.00     0.124 S 
ATOM     67  O   UNL A   1      42.611  18.997  25.104  1.00  0.00    -0.237 OA
ATOM     68  O   UNL A   1      42.268  18.831  27.545  1.00  0.00    -0.237 OA
ATOM     69  O   UNL A   1      40.459  19.677  26.100  1.00  0.00    -0.744 OA
ENDBRANCH  65  66
ENDBRANCH  46  60
BRANCH  47  70
ATOM     70  C   UNL A   1      46.739  33.055  28.524  1.00  0.00    -0.014 A 
ATOM     71  C   UNL A   1      46.883  33.995  27.488  1.00  0.00     0.010 A 
ATOM     72  C   UNL A   1      47.068  33.432  29.839  1.00  0.00     0.010 A 
ATOM     73  C   UNL A   1      47.372  35.278  27.758  1.00  0.00     0.020 A 
ATOM     74  C   UNL A   1      47.529  34.721  30.117  1.00  0.00     0.020 A 
ATOM     75  C   UNL A   1      47.691  35.633  29.070  1.00  0.00     0.054 A 
BRANCH  75  76
ATOM     76  S   UNL A   1      48.285  37.315  29.405  1.00  0.00     0.124 S 
ATOM     77  O   UNL A   1      47.047  38.011  29.737  1.00  0.00    -0.237 OA
ATOM     78  O   UNL A   1      49.214  37.108  30.513  1.00  0.00    -0.237 OA
ATOM     79  O   UNL A   1      48.910  37.712  28.145  1.00  0.00    -0.744 OA
ENDBRANCH  75  76
ENDBRANCH  47  70
BRANCH  59  80
ATOM     80  C   UNL A   1      49.733  27.347  25.863  1.00  0.00    -0.014 A 
ATOM     81  C   UNL A   1      50.037  27.530  24.503  1.00  0.00     0.010 A 
ATOM     82  C   UNL A   1      50.756  26.957  26.748  1.00  0.00     0.010 A 
ATOM     83  C   UNL A   1      51.332  27.297  24.031  1.00  0.00     0.020 A 
ATOM     84  C   UNL A   1      52.057  26.749  26.285  1.00  0.00     0.020 A 
ATOM     85  C   UNL A   1      52.334  26.908  24.926  1.00  0.00     0.054 A 
BRANCH  85  86
ATOM     86  S   UNL A   1      54.017  26.657  24.298  1.00  0.00     0.124 S 
ATOM     87  O   UNL A   1      53.913  27.174  22.936  1.00  0.00    -0.237 OA
ATOM     88  O   UNL A   1      54.825  27.458  25.214  1.00  0.00    -0.237 OA
ATOM     89  O   UNL A   1      54.215  25.213  24.403  1.00  0.00    -0.744 OA
ENDBRANCH  85  86
ENDBRANCH  59  80
ENDBRANCH  33  34
ENDBRANCH  25  28
ENDBRANCH  23  24
ENDBRANCH  22  23
ENDBRANCH  21  22
ENDBRANCH   1  21
TORSDOF 21
ENDMDL
MODEL 3
REMARK VINA RESULT:      -9.6      6.780     13.766
REMARK SMILES [NH3+][C@H](CSCc1ccco1)C(=O)NCCCCCCNC(=O)c1ccc(-c2c3nc(c(-c4ccc(S(=O)(=O)[O-])cc4)c4ccc([nH]4)c(-c4ccc(S(=O)(=O)[O-])cc4)c4nc(c(-c5ccc(S(=O)(=O)[O-])cc5)c5ccc2[nH]5)C=C4)C=C3)cc1
REMARK SMILES IDX 16 1 15 2 14 3 13 4 11 5 12 6 2 8 1 9 3 13 4 14 5 15 6 16
REMARK SMILES IDX 7 17 10 18 8 19 9 20 17 21 18 22 19 23 20 24 21 25 22 27
REMARK SMILES IDX 23 28 24 29 82 30 25 31 81 32 26 33 27 34 28 35 75 36 29 37
REMARK SMILES IDX 80 38 74 39 76 40 30 41 79 42 73 43 72 44 31 46 61 47 42 48
REMARK SMILES IDX 60 49 43 50 46 51 59 52 77 53 44 54 45 55 58 57 78 58 47 59
REMARK SMILES IDX 32 60 33 61 41 62 34 63 40 64 35 65 36 66 37 67 38 68 39 69
REMARK SMILES IDX 62 70 63 71 71 72 64 73 70 74 65 75 66 76 67 77 68 78 69 79
REMARK SMILES IDX 48 80 49 81 57 82 50 83 56 84 51 85 52 86 53 87 54 88 55 89
REMARK H PARENT 13 7 1 10 1 11 1 12 20 26 76 45 46 56
REMARK Flexibility Score: inf
ROOT
ATOM      1  C   UNL A   1      40.942  20.741  26.725  1.00  0.00     0.002 C 
ENDROOT
BRANCH   1   2
ATOM      2  C   UNL A   1      42.302  20.059  26.877  1.00  0.00     0.021 C 
BRANCH   2   3
ATOM      3  C   UNL A   1      42.915  19.550  25.572  1.00  0.00     0.116 C 
BRANCH   3   4
ATOM      4  N   UNL A   1      44.365  19.609  25.639  1.00  0.00    -0.351 N 
ATOM      5  C   UNL A   1      45.280  20.506  25.192  1.00  0.00     0.279 C 
ATOM      6  O   UNL A   1      46.467  20.159  25.307  1.00  0.00    -0.268 OA
ATOM      7  H   UNL A   1      44.765  18.840  26.106  1.00  0.00     0.163 HD
BRANCH   5   8
ATOM      8  C   UNL A   1      44.973  21.886  24.570  1.00  0.00     0.280 C 
BRANCH   8   9
ATOM      9  N   UNL A   1      46.034  22.469  23.723  1.00  0.00    -0.347 N 
ATOM     10  H   UNL A   1      46.891  21.926  23.832  1.00  0.00     0.345 HD
ATOM     11  H   UNL A   1      46.204  23.433  24.007  1.00  0.00     0.345 HD
ATOM     12  H   UNL A   1      45.741  22.447  22.747  1.00  0.00     0.345 HD
ENDBRANCH   8   9
BRANCH   8  13
ATOM     13  C   UNL A   1      44.292  22.841  25.578  1.00  0.00     0.145 C 
BRANCH  13  14
ATOM     14  S   UNL A   1      45.171  23.265  27.142  1.00  0.00    -0.147 SA
BRANCH  14  15
ATOM     15  C   UNL A   1      46.500  24.358  26.572  1.00  0.00     0.145 C 
BRANCH  15  16
ATOM     16  C   UNL A   1      46.085  25.724  26.170  1.00  0.00     0.113 A 
ATOM     17  C   UNL A   1      45.054  26.556  26.562  1.00  0.00     0.046 A 
ATOM     18  O   UNL A   1      46.741  26.284  25.114  1.00  0.00    -0.468 OA
ATOM     19  C   UNL A   1      45.081  27.672  25.688  1.00  0.00     0.042 A 
ATOM     20  C   UNL A   1      46.133  27.461  24.829  1.00  0.00     0.195 A 
ENDBRANCH  15  16
ENDBRANCH  14  15
ENDBRANCH  13  14
ENDBRANCH   8  13
ENDBRANCH   5   8
ENDBRANCH   3   4
ENDBRANCH   2   3
ENDBRANCH   1   2
BRANCH   1  21
ATOM     21  C   UNL A   1      40.992  22.269  26.781  1.00  0.00     0.002 C 
BRANCH  21  22
ATOM     22  C   UNL A   1      39.707  22.965  27.253  1.00  0.00     0.021 C 
BRANCH  22  23
ATOM     23  C   UNL A   1      39.358  24.263  26.525  1.00  0.00     0.116 C 
BRANCH  23  24
ATOM     24  N   UNL A   1      40.480  24.773  25.756  1.00  0.00    -0.352 N 
ATOM     25  C   UNL A   1      41.145  25.966  25.885  1.00  0.00     0.251 C 
ATOM     26  H   UNL A   1      40.809  24.181  25.042  1.00  0.00     0.163 HD
ATOM     27  O   UNL A   1      41.909  26.346  24.998  1.00  0.00    -0.269 OA
BRANCH  25  28
ATOM     28  C   UNL A   1      40.933  26.801  27.084  1.00  0.00     0.039 A 
ATOM     29  C   UNL A   1      40.111  26.327  28.109  1.00  0.00     0.014 A 
ATOM     30  C   UNL A   1      41.531  28.062  27.188  1.00  0.00     0.014 A 
ATOM     31  C   UNL A   1      39.932  27.095  29.263  1.00  0.00     0.010 A 
ATOM     32  C   UNL A   1      41.402  28.796  28.365  1.00  0.00     0.010 A 
ATOM     33  C   UNL A   1      40.596  28.323  29.413  1.00  0.00    -0.014 A 
BRANCH  33  34
ATOM     34  C   UNL A   1      40.457  29.127  30.655  1.00  0.00     0.031 A 
ATOM     35  C   UNL A   1      39.394  30.188  30.756  1.00  0.00     0.074 A 
ATOM     36  C   UNL A   1      41.328  28.946  31.669  1.00  0.00     0.049 A 
ATOM     37  N   UNL A   1      39.152  31.022  31.736  1.00  0.00    -0.248 NA
ATOM     38  C   UNL A   1      38.501  30.349  29.597  1.00  0.00     0.031 C 
ATOM     39  C   UNL A   1      42.429  27.979  31.678  1.00  0.00     0.029 A 
ATOM     40  N   UNL A   1      41.428  29.573  32.886  1.00  0.00    -0.354 N 
ATOM     41  C   UNL A   1      38.098  31.819  31.304  1.00  0.00     0.074 A 
ATOM     42  C   UNL A   1      37.772  31.397  29.960  1.00  0.00     0.031 C 
ATOM     43  C   UNL A   1      43.079  28.064  32.850  1.00  0.00     0.029 A 
ATOM     44  C   UNL A   1      42.468  29.113  33.660  1.00  0.00     0.049 A 
ATOM     45  H   UNL A   1      40.814  30.285  33.177  1.00  0.00     0.167 HD
ATOM     46  C   UNL A   1      37.448  32.803  31.972  1.00  0.00     0.031 A 
ATOM     47  C   UNL A   1      42.887  29.495  34.883  1.00  0.00     0.031 A 
ATOM     48  C   UNL A   1      37.761  33.207  33.317  1.00  0.00     0.049 A 
ATOM     49  C   UNL A   1      42.146  30.587  35.605  1.00  0.00     0.074 A 
ATOM     50  C   UNL A   1      37.114  34.143  34.105  1.00  0.00     0.029 A 
ATOM     51  N   UNL A   1      38.808  32.703  34.074  1.00  0.00    -0.354 N 
ATOM     52  N   UNL A   1      41.102  31.276  35.209  1.00  0.00    -0.248 NA
ATOM     53  C   UNL A   1      42.634  30.948  36.944  1.00  0.00     0.031 C 
ATOM     54  C   UNL A   1      37.802  34.243  35.319  1.00  0.00     0.029 A 
ATOM     55  C   UNL A   1      38.842  33.329  35.309  1.00  0.00     0.049 A 
ATOM     56  H   UNL A   1      39.435  32.004  33.776  1.00  0.00     0.167 HD
ATOM     57  C   UNL A   1      40.790  32.129  36.263  1.00  0.00     0.074 A 
ATOM     58  C   UNL A   1      41.747  31.861  37.316  1.00  0.00     0.031 C 
ATOM     59  C   UNL A   1      39.799  33.049  36.349  1.00  0.00     0.031 A 
BRANCH  46  60
ATOM     60  C   UNL A   1      36.337  33.521  31.254  1.00  0.00    -0.014 A 
ATOM     61  C   UNL A   1      35.129  33.833  31.906  1.00  0.00     0.010 A 
ATOM     62  C   UNL A   1      36.520  33.935  29.922  1.00  0.00     0.010 A 
ATOM     63  C   UNL A   1      34.113  34.510  31.226  1.00  0.00     0.020 A 
ATOM     64  C   UNL A   1      35.517  34.638  29.248  1.00  0.00     0.020 A 
ATOM     65  C   UNL A   1      34.312  34.906  29.900  1.00  0.00     0.054 A 
BRANCH  65  66
ATOM     66  S   UNL A   1      32.987  35.807  29.051  1.00  0.00     0.124 S 
ATOM     67  O   UNL A   1      33.735  36.831  28.327  1.00  0.00    -0.237 OA
ATOM     68  O   UNL A   1      32.375  34.772  28.222  1.00  0.00    -0.237 OA
ATOM     69  O   UNL A   1      32.150  36.303  30.141  1.00  0.00    -0.744 OA
ENDBRANCH  65  66
ENDBRANCH  46  60
BRANCH  47  70
ATOM     70  C   UNL A   1      44.063  28.832  35.510  1.00  0.00    -0.014 A 
ATOM     71  C   UNL A   1      43.893  27.707  36.336  1.00  0.00     0.010 A 
ATOM     72  C   UNL A   1      45.362  29.322  35.283  1.00  0.00     0.010 A 
ATOM     73  C   UNL A   1      44.997  27.100  36.944  1.00  0.00     0.020 A 
ATOM     74  C   UNL A   1      46.470  28.702  35.867  1.00  0.00     0.020 A 
ATOM     75  C   UNL A   1      46.278  27.602  36.706  1.00  0.00     0.054 A 
BRANCH  75  76
ATOM     76  S   UNL A   1      47.700  26.775  37.471  1.00  0.00     0.124 S 
ATOM     77  O   UNL A   1      47.754  27.417  38.781  1.00  0.00    -0.237 OA
ATOM     78  O   UNL A   1      47.291  25.373  37.468  1.00  0.00    -0.237 OA
ATOM     79  O   UNL A   1      48.806  27.095  36.570  1.00  0.00    -0.744 OA
ENDBRANCH  75  76
ENDBRANCH  47  70
BRANCH  59  80
ATOM     80  C   UNL A   1      39.673  33.813  37.640  1.00  0.00    -0.014 A 
ATOM     81  C   UNL A   1      40.283  35.069  37.808  1.00  0.00     0.010 A 
ATOM     82  C   UNL A   1      38.883  33.289  38.681  1.00  0.00     0.010 A 
ATOM     83  C   UNL A   1      40.131  35.773  39.005  1.00  0.00     0.020 A 
ATOM     84  C   UNL A   1      38.707  34.002  39.868  1.00  0.00     0.020 A 
ATOM     85  C   UNL A   1      39.343  35.234  40.029  1.00  0.00     0.054 A 
BRANCH  85  86
ATOM     86  S   UNL A   1      39.123  36.188  41.556  1.00  0.00     0.124 S 
ATOM     87  O   UNL A   1      38.934  37.542  41.043  1.00  0.00    -0.237 OA
ATOM     88  O   UNL A   1      37.941  35.572  42.153  1.00  0.00    -0.237 OA
ATOM     89  O   UNL A   1      40.370  35.966  42.286  1.00  0.00    -0.744 OA
ENDBRANCH  85  86
ENDBRANCH  59  80
ENDBRANCH  33  34
ENDBRANCH  25  28
ENDBRANCH  23  24
ENDBRANCH  22  23
ENDBRANCH  21  22
ENDBRANCH   1  21
TORSDOF 21
ENDMDL
