MODEL 1
REMARK VINA RESULT:     -11.7      0.000      0.000
REMARK SMILES Cc1nn(C)cc1CNC(=O)[C@H]1[C@@H]2CC[C@@H](C2)[C@@H]1C(=O)NCCCCCCNC(=O)c1ccc(-c2c3nc(c(-c4ccc(S(=O)(=O)[O-])cc4)c4ccc([nH]4)c(-c4ccc(S(=O)(=O)[O-])cc4)c4nc(c(-c5ccc(S(=O)(=O)[O-])cc5)c5ccc2[nH]5)C=C4)C=C3)cc1
REMARK SMILES IDX 24 1 23 2 22 3 21 4 19 5 20 6 18 8 12 9 13 10 14 11 17 12
REMARK SMILES IDX 16 13 15 14 10 15 9 16 11 18 8 19 7 20 1 21 2 22 3 23 4 24
REMARK SMILES IDX 6 25 5 26 25 27 26 28 27 29 28 30 29 31 30 33 31 34 32 35
REMARK SMILES IDX 90 36 33 37 89 38 34 39 35 40 36 41 83 42 37 43 88 44 82 45
REMARK SMILES IDX 84 46 38 47 87 48 81 49 80 50 39 52 69 53 50 54 68 55 51 56
REMARK SMILES IDX 54 57 67 58 85 59 52 60 53 61 66 63 86 64 55 65 40 66 41 67
REMARK SMILES IDX 49 68 42 69 48 70 43 71 44 72 45 73 46 74 47 75 70 76 71 77
REMARK SMILES IDX 79 78 72 79 78 80 73 81 74 82 75 83 76 84 77 85 56 86 57 87
REMARK SMILES IDX 65 88 58 89 64 90 59 91 60 92 61 93 62 94 63 95
REMARK H PARENT 21 7 9 17 28 32 84 51 54 62
REMARK Flexibility Score: inf
ROOT
ATOM      1  C   UNL A   1      37.080  21.218  24.372  1.00  0.00     0.002 C 
ENDROOT
BRANCH   1   2
ATOM      2  C   UNL A   1      36.300  20.038  24.946  1.00  0.00     0.021 C 
BRANCH   2   3
ATOM      3  C   UNL A   1      34.839  20.337  25.242  1.00  0.00     0.116 C 
BRANCH   3   4
ATOM      4  N   UNL A   1      34.661  21.203  26.383  1.00  0.00    -0.356 N 
ATOM      5  C   UNL A   1      33.932  22.331  26.553  1.00  0.00     0.224 C 
ATOM      6  O   UNL A   1      34.000  22.859  27.670  1.00  0.00    -0.275 OA
ATOM      7  H   UNL A   1      35.161  20.923  27.183  1.00  0.00     0.163 HD
BRANCH   5   8
ATOM      8  C   UNL A   1      33.103  23.013  25.469  1.00  0.00     0.094 C 
ATOM      9  C   UNL A   1      32.809  24.530  25.457  1.00  0.00     0.094 C 
ATOM     10  C   UNL A   1      31.279  24.554  25.137  1.00  0.00     0.002 C 
ATOM     11  C   UNL A   1      30.459  24.118  26.366  1.00  0.00     0.005 C 
ATOM     12  C   UNL A   1      31.097  23.320  24.245  1.00  0.00     0.009 C 
ATOM     13  C   UNL A   1      31.706  22.371  25.278  1.00  0.00     0.002 C 
ATOM     14  C   UNL A   1      30.783  22.619  26.481  1.00  0.00     0.005 C 
BRANCH   9  15
ATOM     15  C   UNL A   1      33.624  25.242  24.377  1.00  0.00     0.224 C 
ATOM     16  N   UNL A   1      33.483  26.587  24.208  1.00  0.00    -0.352 N 
ATOM     17  H   UNL A   1      34.055  26.973  23.506  1.00  0.00     0.163 HD
ATOM     18  O   UNL A   1      34.411  24.645  23.643  1.00  0.00    -0.275 OA
BRANCH  16  19
ATOM     19  C   UNL A   1      32.633  27.542  24.890  1.00  0.00     0.155 C 
BRANCH  19  20
ATOM     20  C   UNL A   1      31.658  28.109  23.921  1.00  0.00     0.012 A 
ATOM     21  C   UNL A   1      31.713  26.353  21.961  1.00  0.00     0.069 C 
ATOM     22  C   UNL A   1      31.263  27.588  22.651  1.00  0.00     0.064 A 
ATOM     23  N   UNL A   1      30.357  28.371  22.050  1.00  0.00    -0.178 NA
ATOM     24  N   UNL A   1      30.150  29.367  22.926  1.00  0.00    -0.275 N 
ATOM     25  C   UNL A   1      30.895  29.253  24.058  1.00  0.00     0.114 A 
ATOM     26  C   UNL A   1      29.222  30.421  22.603  1.00  0.00     0.173 C 
ENDBRANCH  19  20
ENDBRANCH  16  19
ENDBRANCH   9  15
ENDBRANCH   5   8
ENDBRANCH   3   4
ENDBRANCH   2   3
ENDBRANCH   1   2
BRANCH   1  27
ATOM     27  C   UNL A   1      37.936  21.987  25.384  1.00  0.00     0.002 C 
BRANCH  27  28
ATOM     28  C   UNL A   1      37.523  23.440  25.634  1.00  0.00     0.021 C 
BRANCH  28  29
ATOM     29  C   UNL A   1      38.447  24.226  26.558  1.00  0.00     0.116 C 
BRANCH  29  30
ATOM     30  N   UNL A   1      39.840  24.108  26.169  1.00  0.00    -0.352 N 
ATOM     31  C   UNL A   1      40.904  24.909  26.498  1.00  0.00     0.251 C 
ATOM     32  H   UNL A   1      40.052  23.345  25.584  1.00  0.00     0.163 HD
ATOM     33  O   UNL A   1      41.976  24.770  25.921  1.00  0.00    -0.269 OA
BRANCH  31  34
ATOM     34  C   UNL A   1      40.741  25.950  27.535  1.00  0.00     0.039 A 
ATOM     35  C   UNL A   1      39.770  25.770  28.520  1.00  0.00     0.014 A 
ATOM     36  C   UNL A   1      41.541  27.097  27.531  1.00  0.00     0.014 A 
ATOM     37  C   UNL A   1      39.635  26.719  29.535  1.00  0.00     0.010 A 
ATOM     38  C   UNL A   1      41.456  28.002  28.584  1.00  0.00     0.010 A 
ATOM     39  C   UNL A   1      40.497  27.827  29.592  1.00  0.00    -0.014 A 
BRANCH  39  40
ATOM     40  C   UNL A   1      40.403  28.813  30.698  1.00  0.00     0.031 A 
ATOM     41  C   UNL A   1      41.295  28.683  31.904  1.00  0.00     0.074 A 
ATOM     42  C   UNL A   1      39.484  29.798  30.638  1.00  0.00     0.049 A 
ATOM     43  N   UNL A   1      41.328  29.418  32.987  1.00  0.00    -0.248 NA
ATOM     44  C   UNL A   1      42.260  27.570  31.905  1.00  0.00     0.031 C 
ATOM     45  C   UNL A   1      38.540  30.010  29.536  1.00  0.00     0.029 A 
ATOM     46  N   UNL A   1      39.190  30.804  31.521  1.00  0.00    -0.354 N 
ATOM     47  C   UNL A   1      42.307  28.854  33.797  1.00  0.00     0.074 A 
ATOM     48  C   UNL A   1      42.803  27.683  33.109  1.00  0.00     0.031 C 
ATOM     49  C   UNL A   1      37.797  31.097  29.796  1.00  0.00     0.029 A 
ATOM     50  C   UNL A   1      38.174  31.632  31.101  1.00  0.00     0.049 A 
ATOM     51  H   UNL A   1      39.661  30.925  32.377  1.00  0.00     0.167 HD
ATOM     52  C   UNL A   1      42.768  29.285  34.995  1.00  0.00     0.031 A 
ATOM     53  C   UNL A   1      37.605  32.696  31.699  1.00  0.00     0.031 A 
ATOM     54  C   UNL A   1      42.275  30.454  35.674  1.00  0.00     0.049 A 
ATOM     55  C   UNL A   1      38.112  33.133  33.047  1.00  0.00     0.074 A 
ATOM     56  C   UNL A   1      42.704  30.998  36.872  1.00  0.00     0.029 A 
ATOM     57  N   UNL A   1      41.242  31.259  35.218  1.00  0.00    -0.354 N 
ATOM     58  N   UNL A   1      39.081  32.621  33.769  1.00  0.00    -0.248 NA
ATOM     59  C   UNL A   1      37.458  34.298  33.656  1.00  0.00     0.031 C 
ATOM     60  C   UNL A   1      41.893  32.097  37.169  1.00  0.00     0.029 A 
ATOM     61  C   UNL A   1      41.004  32.280  36.121  1.00  0.00     0.049 A 
ATOM     62  H   UNL A   1      40.751  31.126  34.375  1.00  0.00     0.167 HD
ATOM     63  C   UNL A   1      39.172  33.423  34.902  1.00  0.00     0.074 A 
ATOM     64  C   UNL A   1      38.174  34.462  34.760  1.00  0.00     0.031 C 
ATOM     65  C   UNL A   1      40.008  33.310  35.964  1.00  0.00     0.031 A 
BRANCH  52  66
ATOM     66  C   UNL A   1      43.862  28.485  35.654  1.00  0.00    -0.014 A 
ATOM     67  C   UNL A   1      43.559  27.429  36.533  1.00  0.00     0.010 A 
ATOM     68  C   UNL A   1      45.208  28.753  35.348  1.00  0.00     0.010 A 
ATOM     69  C   UNL A   1      44.583  26.680  37.120  1.00  0.00     0.020 A 
ATOM     70  C   UNL A   1      46.234  27.986  35.908  1.00  0.00     0.020 A 
ATOM     71  C   UNL A   1      45.914  26.962  36.801  1.00  0.00     0.054 A 
BRANCH  71  72
ATOM     72  S   UNL A   1      47.218  25.947  37.549  1.00  0.00     0.124 S 
ATOM     73  O   UNL A   1      47.367  26.567  38.863  1.00  0.00    -0.237 OA
ATOM     74  O   UNL A   1      46.623  24.612  37.548  1.00  0.00    -0.237 OA
ATOM     75  O   UNL A   1      48.354  26.120  36.647  1.00  0.00    -0.744 OA
ENDBRANCH  71  72
ENDBRANCH  52  66
BRANCH  53  76
ATOM     76  C   UNL A   1      36.492  33.426  31.031  1.00  0.00    -0.014 A 
ATOM     77  C   UNL A   1      35.281  33.661  31.707  1.00  0.00     0.010 A 
ATOM     78  C   UNL A   1      36.633  33.882  29.708  1.00  0.00     0.010 A 
ATOM     79  C   UNL A   1      34.223  34.310  31.062  1.00  0.00     0.020 A 
ATOM     80  C   UNL A   1      35.591  34.561  29.072  1.00  0.00     0.020 A 
ATOM     81  C   UNL A   1      34.385  34.756  29.749  1.00  0.00     0.054 A 
BRANCH  81  82
ATOM     82  S   UNL A   1      33.009  35.621  28.942  1.00  0.00     0.124 S 
ATOM     83  O   UNL A   1      33.697  36.706  28.251  1.00  0.00    -0.237 OA
ATOM     84  O   UNL A   1      32.444  34.581  28.087  1.00  0.00    -0.237 OA
ATOM     85  O   UNL A   1      32.160  36.027  30.060  1.00  0.00    -0.744 OA
ENDBRANCH  81  82
ENDBRANCH  53  76
BRANCH  65  86
ATOM     86  C   UNL A   1      39.909  34.360  37.040  1.00  0.00    -0.014 A 
ATOM     87  C   UNL A   1      40.597  35.582  36.938  1.00  0.00     0.010 A 
ATOM     88  C   UNL A   1      39.067  34.138  38.146  1.00  0.00     0.010 A 
ATOM     89  C   UNL A   1      40.473  36.548  37.941  1.00  0.00     0.020 A 
ATOM     90  C   UNL A   1      38.915  35.114  39.133  1.00  0.00     0.020 A 
ATOM     91  C   UNL A   1      39.630  36.308  39.031  1.00  0.00     0.054 A 
BRANCH  91  92
ATOM     92  S   UNL A   1      39.452  37.597  40.294  1.00  0.00     0.124 S 
ATOM     93  O   UNL A   1      40.820  38.092  40.418  1.00  0.00    -0.237 OA
ATOM     94  O   UNL A   1      38.503  38.520  39.676  1.00  0.00    -0.237 OA
ATOM     95  O   UNL A   1      38.943  36.875  41.457  1.00  0.00    -0.744 OA
ENDBRANCH  91  92
ENDBRANCH  65  86
ENDBRANCH  39  40
ENDBRANCH  31  34
ENDBRANCH  29  30
ENDBRANCH  28  29
ENDBRANCH  27  28
ENDBRANCH   1  27
TORSDOF 19
ENDMDL
MODEL 2
REMARK VINA RESULT:     -11.6      2.956      8.747
REMARK SMILES Cc1nn(C)cc1CNC(=O)[C@H]1[C@@H]2CC[C@@H](C2)[C@@H]1C(=O)NCCCCCCNC(=O)c1ccc(-c2c3nc(c(-c4ccc(S(=O)(=O)[O-])cc4)c4ccc([nH]4)c(-c4ccc(S(=O)(=O)[O-])cc4)c4nc(c(-c5ccc(S(=O)(=O)[O-])cc5)c5ccc2[nH]5)C=C4)C=C3)cc1
REMARK SMILES IDX 24 1 23 2 22 3 21 4 19 5 20 6 18 8 12 9 13 10 14 11 17 12
REMARK SMILES IDX 16 13 15 14 10 15 9 16 11 18 8 19 7 20 1 21 2 22 3 23 4 24
REMARK SMILES IDX 6 25 5 26 25 27 26 28 27 29 28 30 29 31 30 33 31 34 32 35
REMARK SMILES IDX 90 36 33 37 89 38 34 39 35 40 36 41 83 42 37 43 88 44 82 45
REMARK SMILES IDX 84 46 38 47 87 48 81 49 80 50 39 52 69 53 50 54 68 55 51 56
REMARK SMILES IDX 54 57 67 58 85 59 52 60 53 61 66 63 86 64 55 65 40 66 41 67
REMARK SMILES IDX 49 68 42 69 48 70 43 71 44 72 45 73 46 74 47 75 70 76 71 77
REMARK SMILES IDX 79 78 72 79 78 80 73 81 74 82 75 83 76 84 77 85 56 86 57 87
REMARK SMILES IDX 65 88 58 89 64 90 59 91 60 92 61 93 62 94 63 95
REMARK H PARENT 21 7 9 17 28 32 84 51 54 62
REMARK Flexibility Score: inf
ROOT
ATOM      1  C   UNL A   1      35.518  31.586  28.780  1.00  0.00     0.002 C 
ENDROOT
BRANCH   1   2
ATOM      2  C   UNL A   1      35.123  30.850  27.502  1.00  0.00     0.021 C 
BRANCH   2   3
ATOM      3  C   UNL A   1      35.010  29.342  27.657  1.00  0.00     0.116 C 
BRANCH   3   4
ATOM      4  N   UNL A   1      33.648  28.891  27.808  1.00  0.00    -0.356 N 
ATOM      5  C   UNL A   1      32.862  28.119  27.021  1.00  0.00     0.224 C 
ATOM      6  O   UNL A   1      31.711  27.920  27.431  1.00  0.00    -0.275 OA
ATOM      7  H   UNL A   1      33.209  29.201  28.633  1.00  0.00     0.163 HD
BRANCH   5   8
ATOM      8  C   UNL A   1      33.267  27.545  25.667  1.00  0.00     0.094 C 
ATOM      9  C   UNL A   1      32.280  27.368  24.492  1.00  0.00     0.094 C 
ATOM     10  C   UNL A   1      32.625  25.924  24.003  1.00  0.00     0.002 C 
ATOM     11  C   UNL A   1      32.082  24.871  24.988  1.00  0.00     0.005 C 
ATOM     12  C   UNL A   1      34.125  25.813  24.295  1.00  0.00     0.009 C 
ATOM     13  C   UNL A   1      33.955  26.161  25.775  1.00  0.00     0.002 C 
ATOM     14  C   UNL A   1      32.980  25.060  26.223  1.00  0.00     0.005 C 
BRANCH   9  15
ATOM     15  C   UNL A   1      32.527  28.409  23.400  1.00  0.00     0.224 C 
ATOM     16  N   UNL A   1      31.520  28.732  22.541  1.00  0.00    -0.352 N 
ATOM     17  H   UNL A   1      31.752  29.423  21.879  1.00  0.00     0.163 HD
ATOM     18  O   UNL A   1      33.611  28.974  23.260  1.00  0.00    -0.275 OA
BRANCH  16  19
ATOM     19  C   UNL A   1      30.165  28.229  22.441  1.00  0.00     0.155 C 
BRANCH  19  20
ATOM     20  C   UNL A   1      29.220  29.376  22.379  1.00  0.00     0.012 A 
ATOM     21  C   UNL A   1      27.058  28.397  23.516  1.00  0.00     0.069 C 
ATOM     22  C   UNL A   1      27.873  29.443  22.848  1.00  0.00     0.064 A 
ATOM     23  N   UNL A   1      27.324  30.645  22.622  1.00  0.00    -0.178 NA
ATOM     24  N   UNL A   1      28.307  31.351  22.042  1.00  0.00    -0.275 N 
ATOM     25  C   UNL A   1      29.457  30.644  21.881  1.00  0.00     0.114 A 
ATOM     26  C   UNL A   1      28.068  32.715  21.645  1.00  0.00     0.173 C 
ENDBRANCH  19  20
ENDBRANCH  16  19
ENDBRANCH   9  15
ENDBRANCH   5   8
ENDBRANCH   3   4
ENDBRANCH   2   3
ENDBRANCH   1   2
BRANCH   1  27
ATOM     27  C   UNL A   1      35.256  33.096  28.770  1.00  0.00     0.002 C 
BRANCH  27  28
ATOM     28  C   UNL A   1      33.794  33.517  28.939  1.00  0.00     0.021 C 
BRANCH  28  29
ATOM     29  C   UNL A   1      33.566  35.016  29.097  1.00  0.00     0.116 C 
BRANCH  29  30
ATOM     30  N   UNL A   1      32.842  35.334  30.315  1.00  0.00    -0.352 N 
ATOM     31  C   UNL A   1      33.114  34.965  31.608  1.00  0.00     0.251 C 
ATOM     32  H   UNL A   1      32.040  35.893  30.196  1.00  0.00     0.163 HD
ATOM     33  O   UNL A   1      32.285  35.164  32.488  1.00  0.00    -0.269 OA
BRANCH  31  34
ATOM     34  C   UNL A   1      34.401  34.311  31.925  1.00  0.00     0.039 A 
ATOM     35  C   UNL A   1      35.574  35.063  31.848  1.00  0.00     0.014 A 
ATOM     36  C   UNL A   1      34.448  32.963  32.292  1.00  0.00     0.014 A 
ATOM     37  C   UNL A   1      36.792  34.475  32.191  1.00  0.00     0.010 A 
ATOM     38  C   UNL A   1      35.652  32.401  32.706  1.00  0.00     0.010 A 
ATOM     39  C   UNL A   1      36.838  33.149  32.652  1.00  0.00    -0.014 A 
BRANCH  39  40
ATOM     40  C   UNL A   1      38.119  32.529  33.075  1.00  0.00     0.031 A 
ATOM     41  C   UNL A   1      38.667  32.792  34.452  1.00  0.00     0.074 A 
ATOM     42  C   UNL A   1      38.812  31.767  32.204  1.00  0.00     0.049 A 
ATOM     43  N   UNL A   1      39.788  32.377  34.985  1.00  0.00    -0.248 NA
ATOM     44  C   UNL A   1      37.862  33.650  35.339  1.00  0.00     0.031 C 
ATOM     45  C   UNL A   1      38.400  31.464  30.830  1.00  0.00     0.029 A 
ATOM     46  N   UNL A   1      40.007  31.109  32.342  1.00  0.00    -0.354 N 
ATOM     47  C   UNL A   1      39.827  32.929  36.261  1.00  0.00     0.074 A 
ATOM     48  C   UNL A   1      38.646  33.753  36.402  1.00  0.00     0.031 C 
ATOM     49  C   UNL A   1      39.312  30.656  30.265  1.00  0.00     0.029 A 
ATOM     50  C   UNL A   1      40.394  30.420  31.216  1.00  0.00     0.049 A 
ATOM     51  H   UNL A   1      40.539  31.128  33.170  1.00  0.00     0.167 HD
ATOM     52  C   UNL A   1      40.749  32.747  37.236  1.00  0.00     0.031 A 
ATOM     53  C   UNL A   1      41.498  29.688  30.972  1.00  0.00     0.031 A 
ATOM     54  C   UNL A   1      41.919  31.921  37.093  1.00  0.00     0.049 A 
ATOM     55  C   UNL A   1      42.525  29.530  32.061  1.00  0.00     0.074 A 
ATOM     56  C   UNL A   1      42.892  31.639  38.035  1.00  0.00     0.029 A 
ATOM     57  N   UNL A   1      42.277  31.247  35.935  1.00  0.00    -0.354 N 
ATOM     58  N   UNL A   1      42.511  30.010  33.282  1.00  0.00    -0.248 NA
ATOM     59  C   UNL A   1      43.709  28.722  31.744  1.00  0.00     0.031 C 
ATOM     60  C   UNL A   1      43.868  30.842  37.430  1.00  0.00     0.029 A 
ATOM     61  C   UNL A   1      43.468  30.570  36.131  1.00  0.00     0.049 A 
ATOM     62  H   UNL A   1      41.760  31.248  35.097  1.00  0.00     0.167 HD
ATOM     63  C   UNL A   1      43.670  29.535  33.888  1.00  0.00     0.074 A 
ATOM     64  C   UNL A   1      44.349  28.716  32.905  1.00  0.00     0.031 C 
ATOM     65  C   UNL A   1      44.130  29.755  35.144  1.00  0.00     0.031 A 
BRANCH  52  66
ATOM     66  C   UNL A   1      40.532  33.457  38.547  1.00  0.00    -0.014 A 
ATOM     67  C   UNL A   1      41.170  34.681  38.823  1.00  0.00     0.010 A 
ATOM     68  C   UNL A   1      39.637  32.927  39.493  1.00  0.00     0.010 A 
ATOM     69  C   UNL A   1      40.943  35.341  40.033  1.00  0.00     0.020 A 
ATOM     70  C   UNL A   1      39.382  33.600  40.691  1.00  0.00     0.020 A 
ATOM     71  C   UNL A   1      40.048  34.797  40.959  1.00  0.00     0.054 A 
BRANCH  71  72
ATOM     72  S   UNL A   1      39.745  35.698  42.504  1.00  0.00     0.124 S 
ATOM     73  O   UNL A   1      40.400  36.976  42.240  1.00  0.00    -0.237 OA
ATOM     74  O   UNL A   1      38.286  35.740  42.567  1.00  0.00    -0.237 OA
ATOM     75  O   UNL A   1      40.386  34.868  43.522  1.00  0.00    -0.744 OA
ENDBRANCH  71  72
ENDBRANCH  52  66
BRANCH  53  76
ATOM     76  C   UNL A   1      41.693  29.044  29.643  1.00  0.00    -0.014 A 
ATOM     77  C   UNL A   1      41.382  27.686  29.452  1.00  0.00     0.010 A 
ATOM     78  C   UNL A   1      42.202  29.785  28.561  1.00  0.00     0.010 A 
ATOM     79  C   UNL A   1      41.606  27.074  28.215  1.00  0.00     0.020 A 
ATOM     80  C   UNL A   1      42.396  29.186  27.314  1.00  0.00     0.020 A 
ATOM     81  C   UNL A   1      42.111  27.829  27.153  1.00  0.00     0.054 A 
BRANCH  81  82
ATOM     82  S   UNL A   1      42.367  27.021  25.549  1.00  0.00     0.124 S 
ATOM     83  O   UNL A   1      41.163  26.206  25.425  1.00  0.00    -0.237 OA
ATOM     84  O   UNL A   1      42.461  28.158  24.637  1.00  0.00    -0.237 OA
ATOM     85  O   UNL A   1      43.611  26.278  25.736  1.00  0.00    -0.744 OA
ENDBRANCH  81  82
ENDBRANCH  53  76
BRANCH  65  86
ATOM     86  C   UNL A   1      45.410  29.069  35.545  1.00  0.00    -0.014 A 
ATOM     87  C   UNL A   1      46.659  29.693  35.384  1.00  0.00     0.010 A 
ATOM     88  C   UNL A   1      45.353  27.797  36.145  1.00  0.00     0.010 A 
ATOM     89  C   UNL A   1      47.830  29.044  35.784  1.00  0.00     0.020 A 
ATOM     90  C   UNL A   1      46.518  27.159  36.575  1.00  0.00     0.020 A 
ATOM     91  C   UNL A   1      47.752  27.781  36.379  1.00  0.00     0.054 A 
BRANCH  91  92
ATOM     92  S   UNL A   1      49.283  26.980  36.928  1.00  0.00     0.124 S 
ATOM     93  O   UNL A   1      49.426  25.899  35.958  1.00  0.00    -0.237 OA
ATOM     94  O   UNL A   1      50.263  28.058  36.818  1.00  0.00    -0.237 OA
ATOM     95  O   UNL A   1      48.982  26.556  38.293  1.00  0.00    -0.744 OA
ENDBRANCH  91  92
ENDBRANCH  65  86
ENDBRANCH  39  40
ENDBRANCH  31  34
ENDBRANCH  29  30
ENDBRANCH  28  29
ENDBRANCH  27  28
ENDBRANCH   1  27
TORSDOF 19
ENDMDL
MODEL 3
REMARK VINA RESULT:     -11.6      6.167     11.900
REMARK SMILES Cc1nn(C)cc1CNC(=O)[C@H]1[C@@H]2CC[C@@H](C2)[C@@H]1C(=O)NCCCCCCNC(=O)c1ccc(-c2c3nc(c(-c4ccc(S(=O)(=O)[O-])cc4)c4ccc([nH]4)c(-c4ccc(S(=O)(=O)[O-])cc4)c4nc(c(-c5ccc(S(=O)(=O)[O-])cc5)c5ccc2[nH]5)C=C4)C=C3)cc1
REMARK SMILES IDX 24 1 23 2 22 3 21 4 19 5 20 6 18 8 12 9 13 10 14 11 17 12
REMARK SMILES IDX 16 13 15 14 10 15 9 16 11 18 8 19 7 20 1 21 2 22 3 23 4 24
REMARK SMILES IDX 6 25 5 26 25 27 26 28 27 29 28 30 29 31 30 33 31 34 32 35
REMARK SMILES IDX 90 36 33 37 89 38 34 39 35 40 36 41 83 42 37 43 88 44 82 45
REMARK SMILES IDX 84 46 38 47 87 48 81 49 80 50 39 52 69 53 50 54 68 55 51 56
REMARK SMILES IDX 54 57 67 58 85 59 52 60 53 61 66 63 86 64 55 65 40 66 41 67
REMARK SMILES IDX 49 68 42 69 48 70 43 71 44 72 45 73 46 74 47 75 70 76 71 77
REMARK SMILES IDX 79 78 72 79 78 80 73 81 74 82 75 83 76 84 77 85 56 86 57 87
REMARK SMILES IDX 65 88 58 89 64 90 59 91 60 92 61 93 62 94 63 95
REMARK H PARENT 21 7 9 17 28 32 84 51 54 62
REMARK Flexibility Score: inf
ROOT
ATOM      1  C   UNL A   1      35.221  31.337  27.624  1.00  0.00     0.002 C 
ENDROOT
BRANCH   1   2
ATOM      2  C   UNL A   1      34.526  29.978  27.619  1.00  0.00     0.021 C 
BRANCH   2   3
ATOM      3  C   UNL A   1      33.306  29.901  26.715  1.00  0.00     0.116 C 
BRANCH   3   4
ATOM      4  N   UNL A   1      33.647  29.768  25.319  1.00  0.00    -0.356 N 
ATOM      5  C   UNL A   1      33.219  28.908  24.365  1.00  0.00     0.224 C 
ATOM      6  O   UNL A   1      33.722  29.047  23.243  1.00  0.00    -0.275 OA
ATOM      7  H   UNL A   1      34.311  30.422  25.002  1.00  0.00     0.163 HD
BRANCH   5   8
ATOM      8  C   UNL A   1      32.232  27.767  24.589  1.00  0.00     0.094 C 
ATOM      9  C   UNL A   1      32.508  26.310  24.156  1.00  0.00     0.094 C 
ATOM     10  C   UNL A   1      31.155  25.918  23.478  1.00  0.00     0.002 C 
ATOM     11  C   UNL A   1      31.018  26.599  22.103  1.00  0.00     0.005 C 
ATOM     12  C   UNL A   1      30.126  26.724  24.279  1.00  0.00     0.009 C 
ATOM     13  C   UNL A   1      30.825  28.058  24.008  1.00  0.00     0.002 C 
ATOM     14  C   UNL A   1      30.824  28.080  22.471  1.00  0.00     0.005 C 
BRANCH   9  15
ATOM     15  C   UNL A   1      32.814  25.423  25.363  1.00  0.00     0.224 C 
ATOM     16  N   UNL A   1      33.394  24.206  25.171  1.00  0.00    -0.352 N 
ATOM     17  H   UNL A   1      33.575  23.704  25.999  1.00  0.00     0.163 HD
ATOM     18  O   UNL A   1      32.552  25.765  26.516  1.00  0.00    -0.275 OA
BRANCH  16  19
ATOM     19  C   UNL A   1      33.791  23.529  23.953  1.00  0.00     0.155 C 
BRANCH  19  20
ATOM     20  C   UNL A   1      33.783  22.060  24.185  1.00  0.00     0.012 A 
ATOM     21  C   UNL A   1      36.159  21.634  25.233  1.00  0.00     0.069 C 
ATOM     22  C   UNL A   1      34.814  21.243  24.741  1.00  0.00     0.064 A 
ATOM     23  N   UNL A   1      34.454  19.954  24.798  1.00  0.00    -0.178 NA
ATOM     24  N   UNL A   1      33.202  19.940  24.313  1.00  0.00    -0.275 N 
ATOM     25  C   UNL A   1      32.755  21.168  23.940  1.00  0.00     0.114 A 
ATOM     26  C   UNL A   1      32.487  18.693  24.217  1.00  0.00     0.173 C 
ENDBRANCH  19  20
ENDBRANCH  16  19
ENDBRANCH   9  15
ENDBRANCH   5   8
ENDBRANCH   3   4
ENDBRANCH   2   3
ENDBRANCH   1   2
BRANCH   1  27
ATOM     27  C   UNL A   1      34.508  32.430  28.426  1.00  0.00     0.002 C 
BRANCH  27  28
ATOM     28  C   UNL A   1      35.404  33.550  28.964  1.00  0.00     0.021 C 
BRANCH  28  29
ATOM     29  C   UNL A   1      36.487  33.100  29.939  1.00  0.00     0.116 C 
BRANCH  29  30
ATOM     30  N   UNL A   1      36.015  32.064  30.840  1.00  0.00    -0.352 N 
ATOM     31  C   UNL A   1      36.563  30.836  31.113  1.00  0.00     0.251 C 
ATOM     32  H   UNL A   1      35.184  32.271  31.324  1.00  0.00     0.163 HD
ATOM     33  O   UNL A   1      35.925  30.010  31.755  1.00  0.00    -0.269 OA
BRANCH  31  34
ATOM     34  C   UNL A   1      37.915  30.511  30.610  1.00  0.00     0.039 A 
ATOM     35  C   UNL A   1      38.963  30.401  31.524  1.00  0.00     0.014 A 
ATOM     36  C   UNL A   1      38.144  30.320  29.244  1.00  0.00     0.014 A 
ATOM     37  C   UNL A   1      40.235  30.047  31.072  1.00  0.00     0.010 A 
ATOM     38  C   UNL A   1      39.394  29.893  28.806  1.00  0.00     0.010 A 
ATOM     39  C   UNL A   1      40.454  29.761  29.714  1.00  0.00    -0.014 A 
BRANCH  39  40
ATOM     40  C   UNL A   1      41.789  29.327  29.229  1.00  0.00     0.031 A 
ATOM     41  C   UNL A   1      42.925  30.312  29.162  1.00  0.00     0.074 A 
ATOM     42  C   UNL A   1      41.965  28.059  28.806  1.00  0.00     0.049 A 
ATOM     43  N   UNL A   1      44.147  30.132  28.726  1.00  0.00    -0.248 NA
ATOM     44  C   UNL A   1      42.649  31.683  29.624  1.00  0.00     0.031 C 
ATOM     45  C   UNL A   1      40.932  27.019  28.792  1.00  0.00     0.029 A 
ATOM     46  N   UNL A   1      43.075  27.427  28.305  1.00  0.00    -0.354 N 
ATOM     47  C   UNL A   1      44.779  31.364  28.853  1.00  0.00     0.074 A 
ATOM     48  C   UNL A   1      43.792  32.297  29.352  1.00  0.00     0.031 C 
ATOM     49  C   UNL A   1      41.466  25.874  28.338  1.00  0.00     0.029 A 
ATOM     50  C   UNL A   1      42.863  26.106  27.984  1.00  0.00     0.049 A 
ATOM     51  H   UNL A   1      43.943  27.877  28.187  1.00  0.00     0.167 HD
ATOM     52  C   UNL A   1      46.070  31.684  28.600  1.00  0.00     0.031 A 
ATOM     53  C   UNL A   1      43.695  25.188  27.456  1.00  0.00     0.031 A 
ATOM     54  C   UNL A   1      47.049  30.751  28.109  1.00  0.00     0.049 A 
ATOM     55  C   UNL A   1      45.116  25.580  27.151  1.00  0.00     0.074 A 
ATOM     56  C   UNL A   1      48.393  30.967  27.860  1.00  0.00     0.029 A 
ATOM     57  N   UNL A   1      46.792  29.426  27.790  1.00  0.00    -0.354 N 
ATOM     58  N   UNL A   1      45.710  26.735  27.336  1.00  0.00    -0.248 NA
ATOM     59  C   UNL A   1      45.981  24.541  26.577  1.00  0.00     0.031 C 
ATOM     60  C   UNL A   1      48.935  29.791  27.335  1.00  0.00     0.029 A 
ATOM     61  C   UNL A   1      47.946  28.820  27.323  1.00  0.00     0.049 A 
ATOM     62  H   UNL A   1      45.919  28.982  27.883  1.00  0.00     0.167 HD
ATOM     63  C   UNL A   1      47.028  26.551  26.931  1.00  0.00     0.074 A 
ATOM     64  C   UNL A   1      47.146  25.170  26.509  1.00  0.00     0.031 C 
ATOM     65  C   UNL A   1      48.049  27.443  26.911  1.00  0.00     0.031 A 
BRANCH  52  66
ATOM     66  C   UNL A   1      46.500  33.107  28.847  1.00  0.00    -0.014 A 
ATOM     67  C   UNL A   1      46.417  34.077  27.830  1.00  0.00     0.010 A 
ATOM     68  C   UNL A   1      46.938  33.496  30.125  1.00  0.00     0.010 A 
ATOM     69  C   UNL A   1      46.798  35.398  28.078  1.00  0.00     0.020 A 
ATOM     70  C   UNL A   1      47.290  34.824  30.387  1.00  0.00     0.020 A 
ATOM     71  C   UNL A   1      47.230  35.763  29.356  1.00  0.00     0.054 A 
BRANCH  71  72
ATOM     72  S   UNL A   1      47.679  37.495  29.657  1.00  0.00     0.124 S 
ATOM     73  O   UNL A   1      48.033  37.472  31.075  1.00  0.00    -0.237 OA
ATOM     74  O   UNL A   1      48.794  37.700  28.735  1.00  0.00    -0.237 OA
ATOM     75  O   UNL A   1      46.461  38.232  29.332  1.00  0.00    -0.744 OA
ENDBRANCH  71  72
ENDBRANCH  52  66
BRANCH  53  76
ATOM     76  C   UNL A   1      43.211  23.806  27.183  1.00  0.00    -0.014 A 
ATOM     77  C   UNL A   1      43.001  22.899  28.237  1.00  0.00     0.010 A 
ATOM     78  C   UNL A   1      42.968  23.385  25.863  1.00  0.00     0.010 A 
ATOM     79  C   UNL A   1      42.588  21.589  27.974  1.00  0.00     0.020 A 
ATOM     80  C   UNL A   1      42.522  22.087  25.599  1.00  0.00     0.020 A 
ATOM     81  C   UNL A   1      42.350  21.192  26.656  1.00  0.00     0.054 A 
BRANCH  81  82
ATOM     82  S   UNL A   1      41.787  19.496  26.341  1.00  0.00     0.124 S 
ATOM     83  O   UNL A   1      42.198  18.809  27.560  1.00  0.00    -0.237 OA
ATOM     84  O   UNL A   1      40.347  19.672  26.166  1.00  0.00    -0.237 OA
ATOM     85  O   UNL A   1      42.512  19.116  25.131  1.00  0.00    -0.744 OA
ENDBRANCH  81  82
ENDBRANCH  53  76
BRANCH  65  86
ATOM     86  C   UNL A   1      49.396  26.947  26.455  1.00  0.00    -0.014 A 
ATOM     87  C   UNL A   1      50.324  26.406  27.363  1.00  0.00     0.010 A 
ATOM     88  C   UNL A   1      49.715  26.974  25.084  1.00  0.00     0.010 A 
ATOM     89  C   UNL A   1      51.559  25.933  26.912  1.00  0.00     0.020 A 
ATOM     90  C   UNL A   1      50.936  26.472  24.627  1.00  0.00     0.020 A 
ATOM     91  C   UNL A   1      51.856  25.968  25.546  1.00  0.00     0.054 A 
BRANCH  91  92
ATOM     92  S   UNL A   1      53.449  25.307  24.984  1.00  0.00     0.124 S 
ATOM     93  O   UNL A   1      53.488  25.751  23.594  1.00  0.00    -0.237 OA
ATOM     94  O   UNL A   1      54.399  25.961  25.880  1.00  0.00    -0.237 OA
ATOM     95  O   UNL A   1      53.313  23.865  25.174  1.00  0.00    -0.744 OA
ENDBRANCH  91  92
ENDBRANCH  65  86
ENDBRANCH  39  40
ENDBRANCH  31  34
ENDBRANCH  29  30
ENDBRANCH  28  29
ENDBRANCH  27  28
ENDBRANCH   1  27
TORSDOF 19
ENDMDL
