MODEL 1
REMARK VINA RESULT:     -10.2      0.000      0.000
REMARK SMILES CC(C)Cc1ccc([C@H](CC[C@@H](C)O)C(=O)NCCCCCCNC(=O)c2ccc(-c3c4nc(c(-c5ccc(S(=O)(=O)[O-])cc5)c5ccc([nH]5)c(-c5ccc(S(=O)(=O)[O-])cc5)c5nc(c(-c6ccc(S(=O)(=O)[O-])cc6)c6ccc3[nH]6)C=C5)C=C4)cc2)cc1
REMARK SMILES IDX 20 1 19 2 18 3 17 4 15 5 16 6 9 8 8 9 5 10 6 11 88 12 7 13
REMARK SMILES IDX 87 14 4 15 2 16 1 17 3 18 10 19 11 20 12 21 13 22 14 23
REMARK SMILES IDX 21 25 22 26 23 27 24 28 25 29 26 31 27 32 28 33 86 34 29 35
REMARK SMILES IDX 85 36 30 37 31 38 32 39 79 40 33 41 84 42 78 43 80 44 34 45
REMARK SMILES IDX 83 46 77 47 76 48 35 50 65 51 46 52 64 53 47 54 50 55 63 56
REMARK SMILES IDX 81 57 48 58 49 59 62 61 82 62 51 63 36 64 37 65 45 66 38 67
REMARK SMILES IDX 44 68 39 69 40 70 41 71 42 72 43 73 66 74 67 75 75 76 68 77
REMARK SMILES IDX 74 78 69 79 70 80 71 81 72 82 73 83 52 84 53 85 61 86 54 87
REMARK SMILES IDX 60 88 55 89 56 90 57 91 58 92 59 93
REMARK H PARENT 17 7 14 24 24 30 80 49 50 60
REMARK Flexibility Score: inf
ROOT
ATOM      1  C   UNL A   1      31.461  27.316  24.873  1.00  0.00     0.002 C 
ENDROOT
BRANCH   1   2
ATOM      2  C   UNL A   1      30.341  26.558  24.156  1.00  0.00     0.021 C 
BRANCH   2   3
ATOM      3  C   UNL A   1      30.510  25.042  24.193  1.00  0.00     0.116 C 
BRANCH   3   4
ATOM      4  N   UNL A   1      30.573  24.565  25.563  1.00  0.00    -0.356 N 
ATOM      5  C   UNL A   1      31.565  23.863  26.183  1.00  0.00     0.227 C 
ATOM      6  O   UNL A   1      31.401  23.539  27.362  1.00  0.00    -0.274 OA
ATOM      7  H   UNL A   1      29.791  24.779  26.121  1.00  0.00     0.163 HD
BRANCH   5   8
ATOM      8  C   UNL A   1      32.840  23.468  25.414  1.00  0.00     0.108 C 
BRANCH   8   9
ATOM      9  C   UNL A   1      32.853  21.975  25.060  1.00  0.00    -0.036 A 
ATOM     10  C   UNL A   1      32.557  19.184  24.555  1.00  0.00    -0.048 A 
ATOM     11  C   UNL A   1      32.351  20.127  23.552  1.00  0.00     0.004 A 
ATOM     12  C   UNL A   1      33.019  19.632  25.793  1.00  0.00     0.004 A 
ATOM     13  C   UNL A   1      32.457  21.490  23.814  1.00  0.00     0.005 A 
ATOM     14  C   UNL A   1      33.163  21.006  26.039  1.00  0.00     0.005 A 
BRANCH  10  15
ATOM     15  C   UNL A   1      32.198  17.743  24.292  1.00  0.00     0.038 C 
BRANCH  15  16
ATOM     16  C   UNL A   1      33.352  16.748  24.587  1.00  0.00    -0.013 C 
ATOM     17  C   UNL A   1      32.900  15.397  25.156  1.00  0.00     0.008 C 
ATOM     18  C   UNL A   1      34.143  16.488  23.303  1.00  0.00     0.008 C 
ENDBRANCH  15  16
ENDBRANCH  10  15
ENDBRANCH   8   9
BRANCH   8  19
ATOM     19  C   UNL A   1      34.023  24.173  26.149  1.00  0.00     0.021 C 
BRANCH  19  20
ATOM     20  C   UNL A   1      35.350  24.446  25.438  1.00  0.00     0.032 C 
BRANCH  20  21
ATOM     21  C   UNL A   1      36.434  23.386  25.631  1.00  0.00     0.111 C 
ATOM     22  C   UNL A   1      37.739  24.002  26.109  1.00  0.00     0.038 C 
BRANCH  21  23
ATOM     23  O   UNL A   1      35.993  22.442  26.607  1.00  0.00    -0.393 OA
ATOM     24  H   UNL A   1      36.180  22.783  27.495  1.00  0.00     0.210 HD
ENDBRANCH  21  23
ENDBRANCH  20  21
ENDBRANCH  19  20
ENDBRANCH   8  19
ENDBRANCH   5   8
ENDBRANCH   3   4
ENDBRANCH   2   3
ENDBRANCH   1   2
BRANCH   1  25
ATOM     25  C   UNL A   1      32.869  27.014  24.347  1.00  0.00     0.002 C 
BRANCH  25  26
ATOM     26  C   UNL A   1      33.932  28.044  24.742  1.00  0.00     0.021 C 
BRANCH  26  27
ATOM     27  C   UNL A   1      34.184  28.136  26.242  1.00  0.00     0.116 C 
BRANCH  27  28
ATOM     28  N   UNL A   1      33.718  29.400  26.789  1.00  0.00    -0.352 N 
ATOM     29  C   UNL A   1      34.319  30.216  27.714  1.00  0.00     0.251 C 
ATOM     30  H   UNL A   1      32.850  29.715  26.448  1.00  0.00     0.163 HD
ATOM     31  O   UNL A   1      33.689  31.128  28.234  1.00  0.00    -0.269 OA
BRANCH  29  32
ATOM     32  C   UNL A   1      35.729  29.973  28.085  1.00  0.00     0.039 A 
ATOM     33  C   UNL A   1      36.025  29.534  29.377  1.00  0.00     0.014 A 
ATOM     34  C   UNL A   1      36.754  30.174  27.155  1.00  0.00     0.014 A 
ATOM     35  C   UNL A   1      37.346  29.246  29.720  1.00  0.00     0.010 A 
ATOM     36  C   UNL A   1      38.057  29.811  27.474  1.00  0.00     0.010 A 
ATOM     37  C   UNL A   1      38.369  29.351  28.762  1.00  0.00    -0.014 A 
BRANCH  37  38
ATOM     38  C   UNL A   1      39.770  28.987  29.091  1.00  0.00     0.031 A 
ATOM     39  C   UNL A   1      40.679  29.991  29.745  1.00  0.00     0.074 A 
ATOM     40  C   UNL A   1      40.238  27.769  28.752  1.00  0.00     0.049 A 
ATOM     41  N   UNL A   1      41.941  29.873  30.069  1.00  0.00    -0.248 NA
ATOM     42  C   UNL A   1      40.103  31.310  30.054  1.00  0.00     0.031 C 
ATOM     43  C   UNL A   1      39.465  26.719  28.084  1.00  0.00     0.029 A 
ATOM     44  N   UNL A   1      41.479  27.207  28.923  1.00  0.00    -0.354 N 
ATOM     45  C   UNL A   1      42.311  31.099  30.609  1.00  0.00     0.074 A 
ATOM     46  C   UNL A   1      41.158  31.967  30.513  1.00  0.00     0.031 C 
ATOM     47  C   UNL A   1      40.237  25.631  27.936  1.00  0.00     0.029 A 
ATOM     48  C   UNL A   1      41.572  25.919  28.452  1.00  0.00     0.049 A 
ATOM     49  H   UNL A   1      42.232  27.682  29.343  1.00  0.00     0.167 HD
ATOM     50  C   UNL A   1      43.495  31.464  31.156  1.00  0.00     0.031 A 
ATOM     51  C   UNL A   1      42.614  25.065  28.432  1.00  0.00     0.031 A 
ATOM     52  C   UNL A   1      44.640  30.597  31.247  1.00  0.00     0.049 A 
ATOM     53  C   UNL A   1      43.930  25.506  29.012  1.00  0.00     0.074 A 
ATOM     54  C   UNL A   1      45.872  30.857  31.821  1.00  0.00     0.029 A 
ATOM     55  N   UNL A   1      44.696  29.304  30.749  1.00  0.00    -0.354 N 
ATOM     56  N   UNL A   1      44.242  26.651  29.574  1.00  0.00    -0.248 NA
ATOM     57  C   UNL A   1      45.032  24.536  28.966  1.00  0.00     0.031 C 
ATOM     58  C   UNL A   1      46.693  29.744  31.614  1.00  0.00     0.029 A 
ATOM     59  C   UNL A   1      45.951  28.764  30.975  1.00  0.00     0.049 A 
ATOM     60  H   UNL A   1      43.953  28.839  30.299  1.00  0.00     0.167 HD
ATOM     61  C   UNL A   1      45.567  26.525  29.977  1.00  0.00     0.074 A 
ATOM     62  C   UNL A   1      45.991  25.190  29.608  1.00  0.00     0.031 C 
ATOM     63  C   UNL A   1      46.359  27.432  30.601  1.00  0.00     0.031 A 
BRANCH  50  64
ATOM     64  C   UNL A   1      43.611  32.869  31.690  1.00  0.00    -0.014 A 
ATOM     65  C   UNL A   1      42.954  33.256  32.874  1.00  0.00     0.010 A 
ATOM     66  C   UNL A   1      44.411  33.811  31.018  1.00  0.00     0.010 A 
ATOM     67  C   UNL A   1      43.056  34.567  33.346  1.00  0.00     0.020 A 
ATOM     68  C   UNL A   1      44.542  35.114  31.505  1.00  0.00     0.020 A 
ATOM     69  C   UNL A   1      43.848  35.489  32.657  1.00  0.00     0.054 A 
BRANCH  69  70
ATOM     70  S   UNL A   1      43.971  37.179  33.303  1.00  0.00     0.124 S 
ATOM     71  O   UNL A   1      43.670  37.977  32.116  1.00  0.00    -0.237 OA
ATOM     72  O   UNL A   1      42.950  37.198  34.346  1.00  0.00    -0.237 OA
ATOM     73  O   UNL A   1      45.349  37.270  33.779  1.00  0.00    -0.744 OA
ENDBRANCH  69  70
ENDBRANCH  50  64
BRANCH  51  74
ATOM     74  C   UNL A   1      42.449  23.701  27.857  1.00  0.00    -0.014 A 
ATOM     75  C   UNL A   1      42.713  23.464  26.496  1.00  0.00     0.010 A 
ATOM     76  C   UNL A   1      42.034  22.630  28.668  1.00  0.00     0.010 A 
ATOM     77  C   UNL A   1      42.548  22.187  25.954  1.00  0.00     0.020 A 
ATOM     78  C   UNL A   1      41.897  21.344  28.138  1.00  0.00     0.020 A 
ATOM     79  C   UNL A   1      42.144  21.133  26.780  1.00  0.00     0.054 A 
BRANCH  79  80
ATOM     80  S   UNL A   1      41.982  19.474  26.064  1.00  0.00     0.124 S 
ATOM     81  O   UNL A   1      42.819  19.575  24.872  1.00  0.00    -0.237 OA
ATOM     82  O   UNL A   1      42.498  18.620  27.130  1.00  0.00    -0.237 OA
ATOM     83  O   UNL A   1      40.548  19.348  25.813  1.00  0.00    -0.744 OA
ENDBRANCH  79  80
ENDBRANCH  51  74
BRANCH  63  84
ATOM     84  C   UNL A   1      47.758  27.002  30.960  1.00  0.00    -0.014 A 
ATOM     85  C   UNL A   1      48.023  26.275  32.135  1.00  0.00     0.010 A 
ATOM     86  C   UNL A   1      48.817  27.288  30.078  1.00  0.00     0.010 A 
ATOM     87  C   UNL A   1      49.326  25.871  32.436  1.00  0.00     0.020 A 
ATOM     88  C   UNL A   1      50.116  26.856  30.359  1.00  0.00     0.020 A 
ATOM     89  C   UNL A   1      50.364  26.162  31.545  1.00  0.00     0.054 A 
BRANCH  89  90
ATOM     90  S   UNL A   1      52.038  25.587  31.938  1.00  0.00     0.124 S 
ATOM     91  O   UNL A   1      52.768  25.915  30.716  1.00  0.00    -0.237 OA
ATOM     92  O   UNL A   1      52.384  26.387  33.110  1.00  0.00    -0.237 OA
ATOM     93  O   UNL A   1      51.864  24.159  32.195  1.00  0.00    -0.744 OA
ENDBRANCH  89  90
ENDBRANCH  63  84
ENDBRANCH  37  38
ENDBRANCH  29  32
ENDBRANCH  27  28
ENDBRANCH  26  27
ENDBRANCH  25  26
ENDBRANCH   1  25
TORSDOF 23
ENDMDL
MODEL 2
REMARK VINA RESULT:      -9.9      4.776     10.034
REMARK SMILES CC(C)Cc1ccc([C@H](CC[C@@H](C)O)C(=O)NCCCCCCNC(=O)c2ccc(-c3c4nc(c(-c5ccc(S(=O)(=O)[O-])cc5)c5ccc([nH]5)c(-c5ccc(S(=O)(=O)[O-])cc5)c5nc(c(-c6ccc(S(=O)(=O)[O-])cc6)c6ccc3[nH]6)C=C5)C=C4)cc2)cc1
REMARK SMILES IDX 20 1 19 2 18 3 17 4 15 5 16 6 9 8 8 9 5 10 6 11 88 12 7 13
REMARK SMILES IDX 87 14 4 15 2 16 1 17 3 18 10 19 11 20 12 21 13 22 14 23
REMARK SMILES IDX 21 25 22 26 23 27 24 28 25 29 26 31 27 32 28 33 86 34 29 35
REMARK SMILES IDX 85 36 30 37 31 38 32 39 79 40 33 41 84 42 78 43 80 44 34 45
REMARK SMILES IDX 83 46 77 47 76 48 35 50 65 51 46 52 64 53 47 54 50 55 63 56
REMARK SMILES IDX 81 57 48 58 49 59 62 61 82 62 51 63 36 64 37 65 45 66 38 67
REMARK SMILES IDX 44 68 39 69 40 70 41 71 42 72 43 73 66 74 67 75 75 76 68 77
REMARK SMILES IDX 74 78 69 79 70 80 71 81 72 82 73 83 52 84 53 85 61 86 54 87
REMARK SMILES IDX 60 88 55 89 56 90 57 91 58 92 59 93
REMARK H PARENT 17 7 14 24 24 30 80 49 50 60
REMARK Flexibility Score: inf
ROOT
ATOM      1  C   UNL A   1      35.524  30.668  28.816  1.00  0.00     0.002 C 
ENDROOT
BRANCH   1   2
ATOM      2  C   UNL A   1      35.744  29.394  27.996  1.00  0.00     0.021 C 
BRANCH   2   3
ATOM      3  C   UNL A   1      34.632  29.118  26.987  1.00  0.00     0.116 C 
BRANCH   3   4
ATOM      4  N   UNL A   1      33.387  28.810  27.668  1.00  0.00    -0.356 N 
ATOM      5  C   UNL A   1      32.355  28.018  27.254  1.00  0.00     0.227 C 
ATOM      6  O   UNL A   1      31.372  27.909  27.990  1.00  0.00    -0.274 OA
ATOM      7  H   UNL A   1      33.271  29.230  28.549  1.00  0.00     0.163 HD
BRANCH   5   8
ATOM      8  C   UNL A   1      32.418  27.304  25.890  1.00  0.00     0.108 C 
BRANCH   8   9
ATOM      9  C   UNL A   1      31.704  28.105  24.794  1.00  0.00    -0.036 A 
ATOM     10  C   UNL A   1      30.079  29.425  22.857  1.00  0.00    -0.048 A 
ATOM     11  C   UNL A   1      30.468  30.063  24.031  1.00  0.00     0.004 A 
ATOM     12  C   UNL A   1      30.593  28.154  22.598  1.00  0.00     0.004 A 
ATOM     13  C   UNL A   1      31.228  29.401  24.991  1.00  0.00     0.005 A 
ATOM     14  C   UNL A   1      31.392  27.506  23.553  1.00  0.00     0.005 A 
BRANCH  10  15
ATOM     15  C   UNL A   1      29.064  30.091  21.963  1.00  0.00     0.038 C 
BRANCH  15  16
ATOM     16  C   UNL A   1      27.627  30.104  22.549  1.00  0.00    -0.013 C 
ATOM     17  C   UNL A   1      27.188  28.784  23.195  1.00  0.00     0.008 C 
ATOM     18  C   UNL A   1      27.514  31.213  23.599  1.00  0.00     0.008 C 
ENDBRANCH  15  16
ENDBRANCH  10  15
ENDBRANCH   8   9
BRANCH   8  19
ATOM     19  C   UNL A   1      32.111  25.800  26.175  1.00  0.00     0.021 C 
BRANCH  19  20
ATOM     20  C   UNL A   1      30.687  25.249  26.076  1.00  0.00     0.032 C 
BRANCH  20  21
ATOM     21  C   UNL A   1      30.541  23.747  26.326  1.00  0.00     0.111 C 
ATOM     22  C   UNL A   1      31.184  22.931  25.216  1.00  0.00     0.038 C 
BRANCH  21  23
ATOM     23  O   UNL A   1      31.177  23.417  27.560  1.00  0.00    -0.393 OA
ATOM     24  H   UNL A   1      30.980  24.101  28.219  1.00  0.00     0.210 HD
ENDBRANCH  21  23
ENDBRANCH  20  21
ENDBRANCH  19  20
ENDBRANCH   8  19
ENDBRANCH   5   8
ENDBRANCH   3   4
ENDBRANCH   2   3
ENDBRANCH   1   2
BRANCH   1  25
ATOM     25  C   UNL A   1      35.540  31.961  27.994  1.00  0.00     0.002 C 
BRANCH  25  26
ATOM     26  C   UNL A   1      34.177  32.646  27.855  1.00  0.00     0.021 C 
BRANCH  26  27
ATOM     27  C   UNL A   1      34.242  34.168  27.846  1.00  0.00     0.116 C 
BRANCH  27  28
ATOM     28  N   UNL A   1      33.298  34.752  28.785  1.00  0.00    -0.352 N 
ATOM     29  C   UNL A   1      33.305  34.709  30.157  1.00  0.00     0.251 C 
ATOM     30  H   UNL A   1      32.549  35.248  28.382  1.00  0.00     0.163 HD
ATOM     31  O   UNL A   1      32.316  35.058  30.790  1.00  0.00    -0.269 OA
BRANCH  29  32
ATOM     32  C   UNL A   1      34.512  34.226  30.860  1.00  0.00     0.039 A 
ATOM     33  C   UNL A   1      34.448  33.024  31.568  1.00  0.00     0.014 A 
ATOM     34  C   UNL A   1      35.703  34.957  30.813  1.00  0.00     0.014 A 
ATOM     35  C   UNL A   1      35.597  32.529  32.187  1.00  0.00     0.010 A 
ATOM     36  C   UNL A   1      36.863  34.423  31.362  1.00  0.00     0.010 A 
ATOM     37  C   UNL A   1      36.821  33.208  32.061  1.00  0.00    -0.014 A 
BRANCH  37  38
ATOM     38  C   UNL A   1      38.067  32.663  32.658  1.00  0.00     0.031 A 
ATOM     39  C   UNL A   1      38.961  31.762  31.850  1.00  0.00     0.074 A 
ATOM     40  C   UNL A   1      38.364  32.938  33.943  1.00  0.00     0.049 A 
ATOM     41  N   UNL A   1      40.065  31.159  32.210  1.00  0.00    -0.248 NA
ATOM     42  C   UNL A   1      38.551  31.484  30.464  1.00  0.00     0.031 C 
ATOM     43  C   UNL A   1      37.560  33.771  34.841  1.00  0.00     0.029 A 
ATOM     44  N   UNL A   1      39.426  32.545  34.720  1.00  0.00    -0.354 N 
ATOM     45  C   UNL A   1      40.474  30.424  31.103  1.00  0.00     0.074 A 
ATOM     46  C   UNL A   1      39.468  30.609  30.079  1.00  0.00     0.031 C 
ATOM     47  C   UNL A   1      38.175  33.856  36.031  1.00  0.00     0.029 A 
ATOM     48  C   UNL A   1      39.389  33.047  36.000  1.00  0.00     0.049 A 
ATOM     49  H   UNL A   1      40.145  31.959  34.392  1.00  0.00     0.167 HD
ATOM     50  C   UNL A   1      41.595  29.681  30.943  1.00  0.00     0.031 A 
ATOM     51  C   UNL A   1      40.234  32.873  37.035  1.00  0.00     0.031 A 
ATOM     52  C   UNL A   1      42.591  29.499  31.965  1.00  0.00     0.049 A 
ATOM     53  C   UNL A   1      41.454  32.013  36.844  1.00  0.00     0.074 A 
ATOM     54  C   UNL A   1      43.783  28.800  31.890  1.00  0.00     0.029 A 
ATOM     55  N   UNL A   1      42.511  30.015  33.251  1.00  0.00    -0.354 N 
ATOM     56  N   UNL A   1      41.855  31.375  35.769  1.00  0.00    -0.248 NA
ATOM     57  C   UNL A   1      42.342  31.859  38.004  1.00  0.00     0.031 C 
ATOM     58  C   UNL A   1      44.393  28.842  33.147  1.00  0.00     0.029 A 
ATOM     59  C   UNL A   1      43.618  29.626  33.986  1.00  0.00     0.049 A 
ATOM     60  H   UNL A   1      41.775  30.574  33.590  1.00  0.00     0.167 HD
ATOM     61  C   UNL A   1      43.058  30.771  36.115  1.00  0.00     0.074 A 
ATOM     62  C   UNL A   1      43.326  31.131  37.492  1.00  0.00     0.031 C 
ATOM     63  C   UNL A   1      43.870  29.992  35.358  1.00  0.00     0.031 A 
BRANCH  50  64
ATOM     64  C   UNL A   1      41.795  29.001  29.612  1.00  0.00    -0.014 A 
ATOM     65  C   UNL A   1      42.245  29.719  28.488  1.00  0.00     0.010 A 
ATOM     66  C   UNL A   1      41.560  27.620  29.488  1.00  0.00     0.010 A 
ATOM     67  C   UNL A   1      42.409  29.079  27.256  1.00  0.00     0.020 A 
ATOM     68  C   UNL A   1      41.754  26.970  28.266  1.00  0.00     0.020 A 
ATOM     69  C   UNL A   1      42.159  27.708  27.153  1.00  0.00     0.054 A 
BRANCH  69  70
ATOM     70  S   UNL A   1      42.393  26.904  25.544  1.00  0.00     0.124 S 
ATOM     71  O   UNL A   1      41.148  26.152  25.400  1.00  0.00    -0.237 OA
ATOM     72  O   UNL A   1      42.549  28.038  24.639  1.00  0.00    -0.237 OA
ATOM     73  O   UNL A   1      43.592  26.090  25.734  1.00  0.00    -0.744 OA
ENDBRANCH  69  70
ENDBRANCH  50  64
BRANCH  51  74
ATOM     74  C   UNL A   1      39.964  33.541  38.338  1.00  0.00    -0.014 A 
ATOM     75  C   UNL A   1      40.427  34.847  38.579  1.00  0.00     0.010 A 
ATOM     76  C   UNL A   1      39.235  32.879  39.342  1.00  0.00     0.010 A 
ATOM     77  C   UNL A   1      40.183  35.470  39.805  1.00  0.00     0.020 A 
ATOM     78  C   UNL A   1      38.962  33.510  40.559  1.00  0.00     0.020 A 
ATOM     79  C   UNL A   1      39.448  34.798  40.788  1.00  0.00     0.054 A 
BRANCH  79  80
ATOM     80  S   UNL A   1      39.103  35.646  42.354  1.00  0.00     0.124 S 
ATOM     81  O   UNL A   1      40.039  34.995  43.265  1.00  0.00    -0.237 OA
ATOM     82  O   UNL A   1      39.400  37.039  42.029  1.00  0.00    -0.237 OA
ATOM     83  O   UNL A   1      37.691  35.359  42.595  1.00  0.00    -0.744 OA
ENDBRANCH  79  80
ENDBRANCH  51  74
BRANCH  63  84
ATOM     84  C   UNL A   1      45.149  29.503  35.989  1.00  0.00    -0.014 A 
ATOM     85  C   UNL A   1      45.216  28.263  36.648  1.00  0.00     0.010 A 
ATOM     86  C   UNL A   1      46.317  30.280  35.872  1.00  0.00     0.010 A 
ATOM     87  C   UNL A   1      46.418  27.823  37.206  1.00  0.00     0.020 A 
ATOM     88  C   UNL A   1      47.529  29.829  36.401  1.00  0.00     0.020 A 
ATOM     89  C   UNL A   1      47.568  28.609  37.078  1.00  0.00     0.054 A 
BRANCH  89  90
ATOM     90  S   UNL A   1      49.126  27.995  37.774  1.00  0.00     0.124 S 
ATOM     91  O   UNL A   1      49.980  29.178  37.699  1.00  0.00    -0.237 OA
ATOM     92  O   UNL A   1      48.736  27.586  39.121  1.00  0.00    -0.237 OA
ATOM     93  O   UNL A   1      49.499  26.900  36.880  1.00  0.00    -0.744 OA
ENDBRANCH  89  90
ENDBRANCH  63  84
ENDBRANCH  37  38
ENDBRANCH  29  32
ENDBRANCH  27  28
ENDBRANCH  26  27
ENDBRANCH  25  26
ENDBRANCH   1  25
TORSDOF 23
ENDMDL
MODEL 3
REMARK VINA RESULT:      -9.6      3.114      4.631
REMARK SMILES CC(C)Cc1ccc([C@H](CC[C@@H](C)O)C(=O)NCCCCCCNC(=O)c2ccc(-c3c4nc(c(-c5ccc(S(=O)(=O)[O-])cc5)c5ccc([nH]5)c(-c5ccc(S(=O)(=O)[O-])cc5)c5nc(c(-c6ccc(S(=O)(=O)[O-])cc6)c6ccc3[nH]6)C=C5)C=C4)cc2)cc1
REMARK SMILES IDX 20 1 19 2 18 3 17 4 15 5 16 6 9 8 8 9 5 10 6 11 88 12 7 13
REMARK SMILES IDX 87 14 4 15 2 16 1 17 3 18 10 19 11 20 12 21 13 22 14 23
REMARK SMILES IDX 21 25 22 26 23 27 24 28 25 29 26 31 27 32 28 33 86 34 29 35
REMARK SMILES IDX 85 36 30 37 31 38 32 39 79 40 33 41 84 42 78 43 80 44 34 45
REMARK SMILES IDX 83 46 77 47 76 48 35 50 65 51 46 52 64 53 47 54 50 55 63 56
REMARK SMILES IDX 81 57 48 58 49 59 62 61 82 62 51 63 36 64 37 65 45 66 38 67
REMARK SMILES IDX 44 68 39 69 40 70 41 71 42 72 43 73 66 74 67 75 75 76 68 77
REMARK SMILES IDX 74 78 69 79 70 80 71 81 72 82 73 83 52 84 53 85 61 86 54 87
REMARK SMILES IDX 60 88 55 89 56 90 57 91 58 92 59 93
REMARK H PARENT 17 7 14 24 24 30 80 49 50 60
REMARK Flexibility Score: inf
ROOT
ATOM      1  C   UNL A   1      34.080  27.246  23.454  1.00  0.00     0.002 C 
ENDROOT
BRANCH   1   2
ATOM      2  C   UNL A   1      33.112  27.000  22.295  1.00  0.00     0.021 C 
BRANCH   2   3
ATOM      3  C   UNL A   1      32.092  28.118  22.104  1.00  0.00     0.116 C 
BRANCH   3   4
ATOM      4  N   UNL A   1      31.975  28.918  23.311  1.00  0.00    -0.356 N 
ATOM      5  C   UNL A   1      30.963  28.949  24.226  1.00  0.00     0.227 C 
ATOM      6  O   UNL A   1      31.062  29.726  25.179  1.00  0.00    -0.274 OA
ATOM      7  H   UNL A   1      32.730  29.521  23.493  1.00  0.00     0.163 HD
BRANCH   5   8
ATOM      8  C   UNL A   1      29.725  28.050  24.051  1.00  0.00     0.108 C 
BRANCH   8   9
ATOM      9  C   UNL A   1      30.021  26.591  24.425  1.00  0.00    -0.036 A 
ATOM     10  C   UNL A   1      30.907  23.947  25.019  1.00  0.00    -0.048 A 
ATOM     11  C   UNL A   1      30.718  24.889  26.025  1.00  0.00     0.004 A 
ATOM     12  C   UNL A   1      30.549  24.295  23.716  1.00  0.00     0.004 A 
ATOM     13  C   UNL A   1      30.324  26.190  25.726  1.00  0.00     0.005 A 
ATOM     14  C   UNL A   1      30.114  25.597  23.426  1.00  0.00     0.005 A 
BRANCH  10  15
ATOM     15  C   UNL A   1      31.561  22.631  25.360  1.00  0.00     0.038 C 
BRANCH  15  16
ATOM     16  C   UNL A   1      33.095  22.617  25.128  1.00  0.00    -0.013 C 
ATOM     17  C   UNL A   1      33.544  23.216  23.788  1.00  0.00     0.008 C 
ATOM     18  C   UNL A   1      33.791  23.385  26.254  1.00  0.00     0.008 C 
ENDBRANCH  15  16
ENDBRANCH  10  15
ENDBRANCH   8   9
BRANCH   8  19
ATOM     19  C   UNL A   1      29.084  28.459  22.688  1.00  0.00     0.021 C 
BRANCH  19  20
ATOM     20  C   UNL A   1      28.181  29.689  22.572  1.00  0.00     0.032 C 
BRANCH  20  21
ATOM     21  C   UNL A   1      28.620  30.738  21.551  1.00  0.00     0.111 C 
ATOM     22  C   UNL A   1      28.162  32.132  21.950  1.00  0.00     0.038 C 
BRANCH  21  23
ATOM     23  O   UNL A   1      30.045  30.736  21.464  1.00  0.00    -0.393 OA
ATOM     24  H   UNL A   1      30.325  31.301  20.727  1.00  0.00     0.210 HD
ENDBRANCH  21  23
ENDBRANCH  20  21
ENDBRANCH  19  20
ENDBRANCH   8  19
ENDBRANCH   5   8
ENDBRANCH   3   4
ENDBRANCH   2   3
ENDBRANCH   1   2
BRANCH   1  25
ATOM     25  C   UNL A   1      33.696  26.544  24.761  1.00  0.00     0.002 C 
BRANCH  25  26
ATOM     26  C   UNL A   1      33.742  27.439  26.003  1.00  0.00     0.021 C 
BRANCH  26  27
ATOM     27  C   UNL A   1      34.670  28.641  25.872  1.00  0.00     0.116 C 
BRANCH  27  28
ATOM     28  N   UNL A   1      34.037  29.862  26.344  1.00  0.00    -0.352 N 
ATOM     29  C   UNL A   1      34.332  30.616  27.453  1.00  0.00     0.251 C 
ATOM     30  H   UNL A   1      33.293  30.195  25.793  1.00  0.00     0.163 HD
ATOM     31  O   UNL A   1      33.559  31.487  27.830  1.00  0.00    -0.269 OA
BRANCH  29  32
ATOM     32  C   UNL A   1      35.586  30.356  28.191  1.00  0.00     0.039 A 
ATOM     33  C   UNL A   1      35.535  29.617  29.375  1.00  0.00     0.014 A 
ATOM     34  C   UNL A   1      36.808  30.837  27.711  1.00  0.00     0.014 A 
ATOM     35  C   UNL A   1      36.718  29.316  30.049  1.00  0.00     0.010 A 
ATOM     36  C   UNL A   1      37.991  30.468  28.340  1.00  0.00     0.010 A 
ATOM     37  C   UNL A   1      37.959  29.711  29.521  1.00  0.00    -0.014 A 
BRANCH  37  38
ATOM     38  C   UNL A   1      39.232  29.344  30.190  1.00  0.00     0.031 A 
ATOM     39  C   UNL A   1      39.677  30.080  31.425  1.00  0.00     0.074 A 
ATOM     40  C   UNL A   1      40.013  28.384  29.655  1.00  0.00     0.049 A 
ATOM     41  N   UNL A   1      40.773  29.931  32.124  1.00  0.00    -0.248 NA
ATOM     42  C   UNL A   1      38.784  31.136  31.930  1.00  0.00     0.031 C 
ATOM     43  C   UNL A   1      39.708  27.622  28.442  1.00  0.00     0.029 A 
ATOM     44  N   UNL A   1      41.225  27.885  30.064  1.00  0.00    -0.354 N 
ATOM     45  C   UNL A   1      40.707  30.878  33.139  1.00  0.00     0.074 A 
ATOM     46  C   UNL A   1      39.493  31.636  32.930  1.00  0.00     0.031 C 
ATOM     47  C   UNL A   1      40.687  26.729  28.227  1.00  0.00     0.029 A 
ATOM     48  C   UNL A   1      41.711  26.886  29.254  1.00  0.00     0.049 A 
ATOM     49  H   UNL A   1      41.701  28.212  30.861  1.00  0.00     0.167 HD
ATOM     50  C   UNL A   1      41.567  31.084  34.165  1.00  0.00     0.031 A 
ATOM     51  C   UNL A   1      42.855  26.177  29.326  1.00  0.00     0.031 A 
ATOM     52  C   UNL A   1      42.775  30.328  34.367  1.00  0.00     0.049 A 
ATOM     53  C   UNL A   1      43.812  26.450  30.455  1.00  0.00     0.074 A 
ATOM     54  C   UNL A   1      43.691  30.430  35.398  1.00  0.00     0.029 A 
ATOM     55  N   UNL A   1      43.237  29.332  33.518  1.00  0.00    -0.354 N 
ATOM     56  N   UNL A   1      43.702  27.309  31.441  1.00  0.00    -0.248 NA
ATOM     57  C   UNL A   1      45.042  25.648  30.487  1.00  0.00     0.031 C 
ATOM     58  C   UNL A   1      44.739  29.540  35.141  1.00  0.00     0.029 A 
ATOM     59  C   UNL A   1      44.440  28.832  33.988  1.00  0.00     0.049 A 
ATOM     60  H   UNL A   1      42.777  29.027  32.703  1.00  0.00     0.167 HD
ATOM     61  C   UNL A   1      44.834  27.128  32.228  1.00  0.00     0.074 A 
ATOM     62  C   UNL A   1      45.607  26.069  31.611  1.00  0.00     0.031 C 
ATOM     63  C   UNL A   1      45.199  27.777  33.361  1.00  0.00     0.031 A 
BRANCH  50  64
ATOM     64  C   UNL A   1      41.232  32.181  35.144  1.00  0.00    -0.014 A 
ATOM     65  C   UNL A   1      40.497  31.914  36.315  1.00  0.00     0.010 A 
ATOM     66  C   UNL A   1      41.682  33.493  34.908  1.00  0.00     0.010 A 
ATOM     67  C   UNL A   1      40.179  32.944  37.203  1.00  0.00     0.020 A 
ATOM     68  C   UNL A   1      41.393  34.520  35.810  1.00  0.00     0.020 A 
ATOM     69  C   UNL A   1      40.627  34.242  36.943  1.00  0.00     0.054 A 
BRANCH  69  70
ATOM     70  S   UNL A   1      40.208  35.556  38.122  1.00  0.00     0.124 S 
ATOM     71  O   UNL A   1      40.011  36.702  37.237  1.00  0.00    -0.237 OA
ATOM     72  O   UNL A   1      39.000  35.040  38.759  1.00  0.00    -0.237 OA
ATOM     73  O   UNL A   1      41.383  35.633  38.987  1.00  0.00    -0.744 OA
ENDBRANCH  69  70
ENDBRANCH  50  64
BRANCH  51  74
ATOM     74  C   UNL A   1      43.149  25.131  28.309  1.00  0.00    -0.014 A 
ATOM     75  C   UNL A   1      43.897  25.444  27.159  1.00  0.00     0.010 A 
ATOM     76  C   UNL A   1      42.690  23.814  28.486  1.00  0.00     0.010 A 
ATOM     77  C   UNL A   1      44.163  24.465  26.198  1.00  0.00     0.020 A 
ATOM     78  C   UNL A   1      42.980  22.824  27.543  1.00  0.00     0.020 A 
ATOM     79  C   UNL A   1      43.706  23.159  26.398  1.00  0.00     0.054 A 
BRANCH  79  80
ATOM     80  S   UNL A   1      44.105  21.894  25.160  1.00  0.00     0.124 S 
ATOM     81  O   UNL A   1      43.176  20.823  25.509  1.00  0.00    -0.237 OA
ATOM     82  O   UNL A   1      43.829  22.587  23.904  1.00  0.00    -0.237 OA
ATOM     83  O   UNL A   1      45.515  21.606  25.408  1.00  0.00    -0.744 OA
ENDBRANCH  79  80
ENDBRANCH  51  74
BRANCH  63  84
ATOM     84  C   UNL A   1      46.473  27.337  34.035  1.00  0.00    -0.014 A 
ATOM     85  C   UNL A   1      47.706  27.946  33.743  1.00  0.00     0.010 A 
ATOM     86  C   UNL A   1      46.423  26.329  35.016  1.00  0.00     0.010 A 
ATOM     87  C   UNL A   1      48.870  27.534  34.396  1.00  0.00     0.020 A 
ATOM     88  C   UNL A   1      47.579  25.936  35.695  1.00  0.00     0.020 A 
ATOM     89  C   UNL A   1      48.799  26.532  35.369  1.00  0.00     0.054 A 
BRANCH  89  90
ATOM     90  S   UNL A   1      50.317  26.046  36.234  1.00  0.00     0.124 S 
ATOM     91  O   UNL A   1      51.243  25.831  35.125  1.00  0.00    -0.237 OA
ATOM     92  O   UNL A   1      50.597  27.211  37.069  1.00  0.00    -0.237 OA
ATOM     93  O   UNL A   1      49.931  24.841  36.965  1.00  0.00    -0.744 OA
ENDBRANCH  89  90
ENDBRANCH  63  84
ENDBRANCH  37  38
ENDBRANCH  29  32
ENDBRANCH  27  28
ENDBRANCH  26  27
ENDBRANCH  25  26
ENDBRANCH   1  25
TORSDOF 23
ENDMDL
