MODEL 1
REMARK VINA RESULT:     -11.6      0.000      0.000
REMARK SMILES COc1ccc2c(c1)OC[C@@]1(C(=O)NCCCCCCNC(=O)c3ccc(-c4c5nc(c(-c6ccc(S(=O)(=O)[O-])cc6)c6ccc([nH]6)c(-c6ccc(S(=O)(=O)[O-])cc6)c6nc(c(-c7ccc(S(=O)(=O)[O-])cc7)c7ccc4[nH]7)C=C6)C=C5)cc3)C[N@@H+](Cc3cc(C(C)(C)C)n[nH]3)C[C@H]21
REMARK SMILES IDX 17 1 16 2 15 3 14 4 12 5 13 6 11 8 3 9 4 10 8 11 5 12 7 13
REMARK SMILES IDX 6 14 9 15 97 16 10 17 96 18 84 19 85 20 2 22 1 23 86 24
REMARK SMILES IDX 87 25 88 26 95 27 89 28 94 29 90 31 91 32 92 33 93 34 18 35
REMARK SMILES IDX 19 36 20 37 21 38 22 39 23 41 24 42 25 43 83 44 26 45 82 46
REMARK SMILES IDX 27 47 28 48 29 49 76 50 30 51 81 52 75 53 77 54 31 55 80 56
REMARK SMILES IDX 74 57 73 58 32 60 62 61 43 62 61 63 44 64 47 65 60 66 78 67
REMARK SMILES IDX 45 68 46 69 59 71 79 72 48 73 33 74 34 75 42 76 35 77 41 78
REMARK SMILES IDX 36 79 37 80 38 81 39 82 40 83 63 84 64 85 72 86 65 87 71 88
REMARK SMILES IDX 66 89 67 90 68 91 69 92 70 93 49 94 50 95 58 96 51 97 57 98
REMARK SMILES IDX 52 99 53 100 54 101 55 102 56 103
REMARK H PARENT 14 7 85 21 95 30 21 40 77 59 47 70
REMARK Flexibility Score: inf
ROOT
ATOM      1  C   UNL A   1      31.391  28.609  25.760  1.00  0.00     0.002 C 
ENDROOT
BRANCH   1   2
ATOM      2  C   UNL A   1      31.859  27.648  26.854  1.00  0.00     0.021 C 
BRANCH   2   3
ATOM      3  C   UNL A   1      32.080  26.199  26.454  1.00  0.00     0.116 C 
BRANCH   3   4
ATOM      4  N   UNL A   1      33.462  25.756  26.501  1.00  0.00    -0.355 N 
ATOM      5  C   UNL A   1      34.050  24.926  25.567  1.00  0.00     0.236 C 
ATOM      6  O   UNL A   1      35.259  25.046  25.354  1.00  0.00    -0.274 OA
ATOM      7  H   UNL A   1      34.018  26.069  27.251  1.00  0.00     0.163 HD
BRANCH   5   8
ATOM      8  C   UNL A   1      33.117  23.870  24.891  1.00  0.00     0.144 C 
ATOM      9  C   UNL A   1      32.476  18.638  24.346  1.00  0.00     0.122 A 
ATOM     10  C   UNL A   1      32.238  19.157  23.073  1.00  0.00     0.047 A 
ATOM     11  C   UNL A   1      32.822  19.505  25.382  1.00  0.00     0.093 A 
ATOM     12  C   UNL A   1      32.314  20.531  22.839  1.00  0.00     0.012 A 
ATOM     13  C   UNL A   1      32.925  20.874  25.128  1.00  0.00     0.126 A 
ATOM     14  C   UNL A   1      32.644  21.406  23.882  1.00  0.00     0.005 A 
ATOM     15  O   UNL A   1      33.342  21.694  26.131  1.00  0.00    -0.492 OA
ATOM     16  C   UNL A   1      32.803  22.894  23.662  1.00  0.00     0.103 C 
ATOM     17  C   UNL A   1      34.091  22.815  25.597  1.00  0.00     0.253 C 
ATOM     18  C   UNL A   1      31.503  23.462  23.076  1.00  0.00     0.272 C 
ATOM     19  C   UNL A   1      33.027  25.054  23.776  1.00  0.00     0.284 C 
ATOM     20  N   UNL A   1      31.672  24.894  23.221  1.00  0.00    -0.328 N 
ATOM     21  H   UNL A   1      30.969  25.285  23.849  1.00  0.00     0.348 HD
BRANCH   9  22
ATOM     22  O   UNL A   1      32.384  17.276  24.435  1.00  0.00    -0.497 OA
ATOM     23  C   UNL A   1      33.257  16.649  25.367  1.00  0.00     0.278 C 
ENDBRANCH   9  22
BRANCH  20  24
ATOM     24  C   UNL A   1      31.369  25.697  22.032  1.00  0.00     0.319 C 
BRANCH  24  25
ATOM     25  C   UNL A   1      30.890  27.059  22.367  1.00  0.00     0.090 A 
ATOM     26  C   UNL A   1      29.698  27.513  22.883  1.00  0.00     0.055 A 
ATOM     27  N   UNL A   1      31.605  28.184  22.065  1.00  0.00    -0.277 N 
ATOM     28  C   UNL A   1      29.683  28.897  22.597  1.00  0.00     0.068 A 
ATOM     29  N   UNL A   1      30.880  29.308  22.155  1.00  0.00    -0.180 NA
ATOM     30  H   UNL A   1      32.556  28.170  21.808  1.00  0.00     0.190 HD
BRANCH  28  31
ATOM     31  C   UNL A   1      28.511  29.856  22.661  1.00  0.00     0.006 C 
ATOM     32  C   UNL A   1      27.254  29.118  23.151  1.00  0.00     0.017 C 
ATOM     33  C   UNL A   1      28.836  31.019  23.624  1.00  0.00     0.017 C 
ATOM     34  C   UNL A   1      28.213  30.475  21.278  1.00  0.00     0.017 C 
ENDBRANCH  28  31
ENDBRANCH  24  25
ENDBRANCH  20  24
ENDBRANCH   5   8
ENDBRANCH   3   4
ENDBRANCH   2   3
ENDBRANCH   1   2
BRANCH   1  35
ATOM     35  C   UNL A   1      32.088  29.968  25.650  1.00  0.00     0.002 C 
BRANCH  35  36
ATOM     36  C   UNL A   1      31.914  30.939  26.814  1.00  0.00     0.021 C 
BRANCH  36  37
ATOM     37  C   UNL A   1      33.121  31.798  27.158  1.00  0.00     0.116 C 
BRANCH  37  38
ATOM     38  N   UNL A   1      32.773  33.115  27.665  1.00  0.00    -0.352 N 
ATOM     39  C   UNL A   1      33.413  33.877  28.615  1.00  0.00     0.251 C 
ATOM     40  H   UNL A   1      31.964  33.518  27.274  1.00  0.00     0.163 HD
ATOM     41  O   UNL A   1      32.918  34.939  28.984  1.00  0.00    -0.269 OA
BRANCH  39  42
ATOM     42  C   UNL A   1      34.675  33.393  29.221  1.00  0.00     0.039 A 
ATOM     43  C   UNL A   1      34.675  32.330  30.126  1.00  0.00     0.014 A 
ATOM     44  C   UNL A   1      35.874  34.034  28.896  1.00  0.00     0.014 A 
ATOM     45  C   UNL A   1      35.835  32.025  30.830  1.00  0.00     0.010 A 
ATOM     46  C   UNL A   1      37.059  33.663  29.539  1.00  0.00     0.010 A 
ATOM     47  C   UNL A   1      37.043  32.685  30.545  1.00  0.00    -0.014 A 
BRANCH  47  48
ATOM     48  C   UNL A   1      38.273  32.313  31.294  1.00  0.00     0.031 A 
ATOM     49  C   UNL A   1      38.546  32.871  32.665  1.00  0.00     0.074 A 
ATOM     50  C   UNL A   1      39.121  31.417  30.749  1.00  0.00     0.049 A 
ATOM     51  N   UNL A   1      39.557  32.627  33.460  1.00  0.00    -0.248 NA
ATOM     52  C   UNL A   1      37.569  33.821  33.221  1.00  0.00     0.031 C 
ATOM     53  C   UNL A   1      38.958  30.803  29.428  1.00  0.00     0.029 A 
ATOM     54  N   UNL A   1      40.268  30.846  31.240  1.00  0.00    -0.354 N 
ATOM     55  C   UNL A   1      39.344  33.392  34.600  1.00  0.00     0.074 A 
ATOM     56  C   UNL A   1      38.122  34.136  34.386  1.00  0.00     0.031 C 
ATOM     57  C   UNL A   1      39.933  29.903  29.238  1.00  0.00     0.029 A 
ATOM     58  C   UNL A   1      40.832  29.924  30.388  1.00  0.00     0.049 A 
ATOM     59  H   UNL A   1      40.651  31.075  32.117  1.00  0.00     0.167 HD
ATOM     60  C   UNL A   1      40.091  33.454  35.727  1.00  0.00     0.031 A 
ATOM     61  C   UNL A   1      41.953  29.184  30.503  1.00  0.00     0.031 A 
ATOM     62  C   UNL A   1      41.299  32.698  35.941  1.00  0.00     0.049 A 
ATOM     63  C   UNL A   1      42.779  29.298  31.750  1.00  0.00     0.074 A 
ATOM     64  C   UNL A   1      42.115  32.692  37.059  1.00  0.00     0.029 A 
ATOM     65  N   UNL A   1      41.860  31.813  35.034  1.00  0.00    -0.354 N 
ATOM     66  N   UNL A   1      42.554  30.026  32.817  1.00  0.00    -0.248 NA
ATOM     67  C   UNL A   1      44.008  28.495  31.815  1.00  0.00     0.031 C 
ATOM     68  C   UNL A   1      43.196  31.847  36.808  1.00  0.00     0.029 A 
ATOM     69  C   UNL A   1      43.022  31.274  35.559  1.00  0.00     0.049 A 
ATOM     70  H   UNL A   1      41.487  31.600  34.147  1.00  0.00     0.167 HD
ATOM     71  C   UNL A   1      43.613  29.772  33.679  1.00  0.00     0.074 A 
ATOM     72  C   UNL A   1      44.462  28.797  33.025  1.00  0.00     0.031 C 
ATOM     73  C   UNL A   1      43.865  30.310  34.897  1.00  0.00     0.031 A 
BRANCH  60  74
ATOM     74  C   UNL A   1      39.637  34.351  36.849  1.00  0.00    -0.014 A 
ATOM     75  C   UNL A   1      40.072  35.689  36.897  1.00  0.00     0.010 A 
ATOM     76  C   UNL A   1      38.924  33.823  37.941  1.00  0.00     0.010 A 
ATOM     77  C   UNL A   1      39.846  36.468  38.034  1.00  0.00     0.020 A 
ATOM     78  C   UNL A   1      38.674  34.609  39.070  1.00  0.00     0.020 A 
ATOM     79  C   UNL A   1      39.163  35.917  39.121  1.00  0.00     0.054 A 
BRANCH  79  80
ATOM     80  S   UNL A   1      38.941  36.920  40.616  1.00  0.00     0.124 S 
ATOM     81  O   UNL A   1      40.318  37.146  41.044  1.00  0.00    -0.237 OA
ATOM     82  O   UNL A   1      38.237  38.096  40.110  1.00  0.00    -0.237 OA
ATOM     83  O   UNL A   1      38.147  36.060  41.491  1.00  0.00    -0.744 OA
ENDBRANCH  79  80
ENDBRANCH  60  74
BRANCH  61  84
ATOM     84  C   UNL A   1      42.341  28.280  29.385  1.00  0.00    -0.014 A 
ATOM     85  C   UNL A   1      43.052  28.789  28.282  1.00  0.00     0.010 A 
ATOM     86  C   UNL A   1      41.936  26.934  29.374  1.00  0.00     0.010 A 
ATOM     87  C   UNL A   1      43.300  27.990  27.165  1.00  0.00     0.020 A 
ATOM     88  C   UNL A   1      42.213  26.120  28.271  1.00  0.00     0.020 A 
ATOM     89  C   UNL A   1      42.866  26.663  27.161  1.00  0.00     0.054 A 
BRANCH  89  90
ATOM     90  S   UNL A   1      43.162  25.651  25.685  1.00  0.00     0.124 S 
ATOM     91  O   UNL A   1      42.752  24.327  26.145  1.00  0.00    -0.237 OA
ATOM     92  O   UNL A   1      42.290  26.270  24.690  1.00  0.00    -0.237 OA
ATOM     93  O   UNL A   1      44.593  25.816  25.443  1.00  0.00    -0.744 OA
ENDBRANCH  89  90
ENDBRANCH  61  84
BRANCH  73  94
ATOM     94  C   UNL A   1      45.115  29.880  35.617  1.00  0.00    -0.014 A 
ATOM     95  C   UNL A   1      45.067  28.811  36.530  1.00  0.00     0.010 A 
ATOM     96  C   UNL A   1      46.305  30.618  35.484  1.00  0.00     0.010 A 
ATOM     97  C   UNL A   1      46.176  28.507  37.322  1.00  0.00     0.020 A 
ATOM     98  C   UNL A   1      47.425  30.298  36.256  1.00  0.00     0.020 A 
ATOM     99  C   UNL A   1      47.345  29.261  37.188  1.00  0.00     0.054 A 
BRANCH  99 100
ATOM    100  S   UNL A   1      48.766  28.870  38.245  1.00  0.00     0.124 S 
ATOM    101  O   UNL A   1      48.475  27.501  38.658  1.00  0.00    -0.237 OA
ATOM    102  O   UNL A   1      49.899  29.024  37.333  1.00  0.00    -0.237 OA
ATOM    103  O   UNL A   1      48.690  29.873  39.305  1.00  0.00    -0.744 OA
ENDBRANCH  99 100
ENDBRANCH  73  94
ENDBRANCH  47  48
ENDBRANCH  39  42
ENDBRANCH  37  38
ENDBRANCH  36  37
ENDBRANCH  35  36
ENDBRANCH   1  35
TORSDOF 20
ENDMDL
MODEL 2
REMARK VINA RESULT:     -11.6      5.637      9.877
REMARK SMILES COc1ccc2c(c1)OC[C@@]1(C(=O)NCCCCCCNC(=O)c3ccc(-c4c5nc(c(-c6ccc(S(=O)(=O)[O-])cc6)c6ccc([nH]6)c(-c6ccc(S(=O)(=O)[O-])cc6)c6nc(c(-c7ccc(S(=O)(=O)[O-])cc7)c7ccc4[nH]7)C=C6)C=C5)cc3)C[N@@H+](Cc3cc(C(C)(C)C)n[nH]3)C[C@H]21
REMARK SMILES IDX 17 1 16 2 15 3 14 4 12 5 13 6 11 8 3 9 4 10 8 11 5 12 7 13
REMARK SMILES IDX 6 14 9 15 97 16 10 17 96 18 84 19 85 20 2 22 1 23 86 24
REMARK SMILES IDX 87 25 88 26 95 27 89 28 94 29 90 31 91 32 92 33 93 34 18 35
REMARK SMILES IDX 19 36 20 37 21 38 22 39 23 41 24 42 25 43 83 44 26 45 82 46
REMARK SMILES IDX 27 47 28 48 29 49 76 50 30 51 81 52 75 53 77 54 31 55 80 56
REMARK SMILES IDX 74 57 73 58 32 60 62 61 43 62 61 63 44 64 47 65 60 66 78 67
REMARK SMILES IDX 45 68 46 69 59 71 79 72 48 73 33 74 34 75 42 76 35 77 41 78
REMARK SMILES IDX 36 79 37 80 38 81 39 82 40 83 63 84 64 85 72 86 65 87 71 88
REMARK SMILES IDX 66 89 67 90 68 91 69 92 70 93 49 94 50 95 58 96 51 97 57 98
REMARK SMILES IDX 52 99 53 100 54 101 55 102 56 103
REMARK H PARENT 14 7 85 21 95 30 21 40 77 59 47 70
REMARK Flexibility Score: inf
ROOT
ATOM      1  C   UNL A   1      32.247  28.875  27.246  1.00  0.00     0.002 C 
ENDROOT
BRANCH   1   2
ATOM      2  C   UNL A   1      31.643  27.953  26.184  1.00  0.00     0.021 C 
BRANCH   2   3
ATOM      3  C   UNL A   1      31.827  26.458  26.381  1.00  0.00     0.116 C 
BRANCH   3   4
ATOM      4  N   UNL A   1      33.206  26.025  26.526  1.00  0.00    -0.355 N 
ATOM      5  C   UNL A   1      33.853  25.170  25.656  1.00  0.00     0.236 C 
ATOM      6  O   UNL A   1      35.072  25.290  25.513  1.00  0.00    -0.274 OA
ATOM      7  H   UNL A   1      33.714  26.364  27.298  1.00  0.00     0.163 HD
BRANCH   5   8
ATOM      8  C   UNL A   1      32.967  24.088  24.957  1.00  0.00     0.144 C 
ATOM      9  C   UNL A   1      32.509  18.841  24.375  1.00  0.00     0.122 A 
ATOM     10  C   UNL A   1      32.276  19.358  23.100  1.00  0.00     0.047 A 
ATOM     11  C   UNL A   1      32.807  19.713  25.421  1.00  0.00     0.093 A 
ATOM     12  C   UNL A   1      32.311  20.736  22.874  1.00  0.00     0.012 A 
ATOM     13  C   UNL A   1      32.870  21.085  25.176  1.00  0.00     0.126 A 
ATOM     14  C   UNL A   1      32.593  21.615  23.928  1.00  0.00     0.005 A 
ATOM     15  O   UNL A   1      33.241  21.913  26.191  1.00  0.00    -0.492 OA
ATOM     16  C   UNL A   1      32.708  23.109  23.718  1.00  0.00     0.103 C 
ATOM     17  C   UNL A   1      33.963  23.061  25.676  1.00  0.00     0.253 C 
ATOM     18  C   UNL A   1      31.400  23.638  23.111  1.00  0.00     0.272 C 
ATOM     19  C   UNL A   1      32.859  25.274  23.847  1.00  0.00     0.284 C 
ATOM     20  N   UNL A   1      31.520  25.073  23.267  1.00  0.00    -0.328 N 
ATOM     21  H   UNL A   1      30.793  25.437  23.884  1.00  0.00     0.348 HD
BRANCH   9  22
ATOM     22  O   UNL A   1      32.459  17.476  24.455  1.00  0.00    -0.497 OA
ATOM     23  C   UNL A   1      33.697  16.794  24.291  1.00  0.00     0.278 C 
ENDBRANCH   9  22
BRANCH  20  24
ATOM     24  C   UNL A   1      31.212  25.873  22.077  1.00  0.00     0.319 C 
BRANCH  24  25
ATOM     25  C   UNL A   1      30.859  27.275  22.403  1.00  0.00     0.090 A 
ATOM     26  C   UNL A   1      29.727  27.834  22.951  1.00  0.00     0.055 A 
ATOM     27  N   UNL A   1      31.654  28.331  22.057  1.00  0.00    -0.277 N 
ATOM     28  C   UNL A   1      29.817  29.209  22.640  1.00  0.00     0.068 A 
ATOM     29  N   UNL A   1      31.028  29.513  22.151  1.00  0.00    -0.180 NA
ATOM     30  H   UNL A   1      32.590  28.234  21.768  1.00  0.00     0.190 HD
BRANCH  28  31
ATOM     31  C   UNL A   1      28.731  30.264  22.728  1.00  0.00     0.006 C 
ATOM     32  C   UNL A   1      29.079  31.289  23.818  1.00  0.00     0.017 C 
ATOM     33  C   UNL A   1      28.586  30.982  21.368  1.00  0.00     0.017 C 
ATOM     34  C   UNL A   1      27.361  29.634  23.061  1.00  0.00     0.017 C 
ENDBRANCH  28  31
ENDBRANCH  24  25
ENDBRANCH  20  24
ENDBRANCH   5   8
ENDBRANCH   3   4
ENDBRANCH   2   3
ENDBRANCH   1   2
BRANCH   1  35
ATOM     35  C   UNL A   1      33.352  29.842  26.815  1.00  0.00     0.002 C 
BRANCH  35  36
ATOM     36  C   UNL A   1      34.791  29.448  27.139  1.00  0.00     0.021 C 
BRANCH  36  37
ATOM     37  C   UNL A   1      35.632  30.501  27.845  1.00  0.00     0.116 C 
BRANCH  37  38
ATOM     38  N   UNL A   1      35.473  30.500  29.290  1.00  0.00    -0.352 N 
ATOM     39  C   UNL A   1      36.346  30.063  30.259  1.00  0.00     0.251 C 
ATOM     40  H   UNL A   1      34.620  30.864  29.621  1.00  0.00     0.163 HD
ATOM     41  O   UNL A   1      36.001  30.058  31.438  1.00  0.00    -0.269 OA
BRANCH  39  42
ATOM     42  C   UNL A   1      37.683  29.557  29.872  1.00  0.00     0.039 A 
ATOM     43  C   UNL A   1      38.687  29.379  30.826  1.00  0.00     0.014 A 
ATOM     44  C   UNL A   1      37.942  29.284  28.526  1.00  0.00     0.014 A 
ATOM     45  C   UNL A   1      39.986  29.097  30.416  1.00  0.00     0.010 A 
ATOM     46  C   UNL A   1      39.230  28.910  28.126  1.00  0.00     0.010 A 
ATOM     47  C   UNL A   1      40.274  28.856  29.061  1.00  0.00    -0.014 A 
BRANCH  47  48
ATOM     48  C   UNL A   1      41.668  28.526  28.659  1.00  0.00     0.031 A 
ATOM     49  C   UNL A   1      42.034  27.142  28.193  1.00  0.00     0.074 A 
ATOM     50  C   UNL A   1      42.595  29.505  28.662  1.00  0.00     0.049 A 
ATOM     51  N   UNL A   1      43.196  26.699  27.784  1.00  0.00    -0.248 NA
ATOM     52  C   UNL A   1      40.972  26.123  28.182  1.00  0.00     0.031 C 
ATOM     53  C   UNL A   1      42.356  30.887  29.087  1.00  0.00     0.029 A 
ATOM     54  N   UNL A   1      43.912  29.501  28.275  1.00  0.00    -0.354 N 
ATOM     55  C   UNL A   1      43.010  25.357  27.475  1.00  0.00     0.074 A 
ATOM     56  C   UNL A   1      41.629  25.044  27.772  1.00  0.00     0.031 C 
ATOM     57  C   UNL A   1      43.467  31.608  28.886  1.00  0.00     0.029 A 
ATOM     58  C   UNL A   1      44.521  30.730  28.384  1.00  0.00     0.049 A 
ATOM     59  H   UNL A   1      44.376  28.697  27.950  1.00  0.00     0.167 HD
ATOM     60  C   UNL A   1      43.904  24.474  26.973  1.00  0.00     0.031 A 
ATOM     61  C   UNL A   1      45.787  31.116  28.128  1.00  0.00     0.031 A 
ATOM     62  C   UNL A   1      45.274  24.795  26.664  1.00  0.00     0.049 A 
ATOM     63  C   UNL A   1      46.766  30.107  27.603  1.00  0.00     0.074 A 
ATOM     64  C   UNL A   1      46.249  23.963  26.142  1.00  0.00     0.029 A 
ATOM     65  N   UNL A   1      45.862  26.039  26.835  1.00  0.00    -0.354 N 
ATOM     66  N   UNL A   1      46.564  28.844  27.315  1.00  0.00    -0.248 NA
ATOM     67  C   UNL A   1      48.142  30.567  27.369  1.00  0.00     0.031 C 
ATOM     68  C   UNL A   1      47.439  24.686  26.049  1.00  0.00     0.029 A 
ATOM     69  C   UNL A   1      47.191  25.989  26.451  1.00  0.00     0.049 A 
ATOM     70  H   UNL A   1      45.403  26.839  27.180  1.00  0.00     0.167 HD
ATOM     71  C   UNL A   1      47.786  28.358  26.867  1.00  0.00     0.074 A 
ATOM     72  C   UNL A   1      48.713  29.469  26.891  1.00  0.00     0.031 C 
ATOM     73  C   UNL A   1      48.110  27.099  26.485  1.00  0.00     0.031 A 
BRANCH  60  74
ATOM     74  C   UNL A   1      43.452  23.064  26.695  1.00  0.00    -0.014 A 
ATOM     75  C   UNL A   1      42.753  22.345  27.683  1.00  0.00     0.010 A 
ATOM     76  C   UNL A   1      43.868  22.397  25.529  1.00  0.00     0.010 A 
ATOM     77  C   UNL A   1      42.521  20.975  27.533  1.00  0.00     0.020 A 
ATOM     78  C   UNL A   1      43.616  21.032  25.365  1.00  0.00     0.020 A 
ATOM     79  C   UNL A   1      42.970  20.323  26.382  1.00  0.00     0.054 A 
BRANCH  79  80
ATOM     80  S   UNL A   1      42.722  18.532  26.236  1.00  0.00     0.124 S 
ATOM     81  O   UNL A   1      41.346  18.449  25.757  1.00  0.00    -0.237 OA
ATOM     82  O   UNL A   1      43.750  18.146  25.272  1.00  0.00    -0.237 OA
ATOM     83  O   UNL A   1      42.943  18.045  27.596  1.00  0.00    -0.744 OA
ENDBRANCH  79  80
ENDBRANCH  60  74
BRANCH  61  84
ATOM     84  C   UNL A   1      46.178  32.530  28.378  1.00  0.00    -0.014 A 
ATOM     85  C   UNL A   1      46.128  33.470  27.332  1.00  0.00     0.010 A 
ATOM     86  C   UNL A   1      46.676  32.928  29.631  1.00  0.00     0.010 A 
ATOM     87  C   UNL A   1      46.624  34.763  27.512  1.00  0.00     0.020 A 
ATOM     88  C   UNL A   1      47.142  34.233  29.825  1.00  0.00     0.020 A 
ATOM     89  C   UNL A   1      47.141  35.132  28.755  1.00  0.00     0.054 A 
BRANCH  89  90
ATOM     90  S   UNL A   1      47.816  36.803  28.960  1.00  0.00     0.124 S 
ATOM     91  O   UNL A   1      48.011  37.217  27.573  1.00  0.00    -0.237 OA
ATOM     92  O   UNL A   1      46.749  37.495  29.679  1.00  0.00    -0.237 OA
ATOM     93  O   UNL A   1      49.039  36.584  29.727  1.00  0.00    -0.744 OA
ENDBRANCH  89  90
ENDBRANCH  61  84
BRANCH  73  94
ATOM     94  C   UNL A   1      49.531  26.828  26.069  1.00  0.00    -0.014 A 
ATOM     95  C   UNL A   1      49.949  27.132  24.761  1.00  0.00     0.010 A 
ATOM     96  C   UNL A   1      50.413  26.157  26.934  1.00  0.00     0.010 A 
ATOM     97  C   UNL A   1      51.213  26.740  24.313  1.00  0.00     0.020 A 
ATOM     98  C   UNL A   1      51.688  25.787  26.497  1.00  0.00     0.020 A 
ATOM     99  C   UNL A   1      52.070  26.059  25.182  1.00  0.00     0.054 A 
BRANCH  99 100
ATOM    100  S   UNL A   1      53.696  25.533  24.575  1.00  0.00     0.124 S 
ATOM    101  O   UNL A   1      53.635  24.085  24.748  1.00  0.00    -0.237 OA
ATOM    102  O   UNL A   1      53.691  26.002  23.190  1.00  0.00    -0.237 OA
ATOM    103  O   UNL A   1      54.632  26.230  25.455  1.00  0.00    -0.744 OA
ENDBRANCH  99 100
ENDBRANCH  73  94
ENDBRANCH  47  48
ENDBRANCH  39  42
ENDBRANCH  37  38
ENDBRANCH  36  37
ENDBRANCH  35  36
ENDBRANCH   1  35
TORSDOF 20
ENDMDL
MODEL 3
REMARK VINA RESULT:     -11.2      1.963      9.160
REMARK SMILES COc1ccc2c(c1)OC[C@@]1(C(=O)NCCCCCCNC(=O)c3ccc(-c4c5nc(c(-c6ccc(S(=O)(=O)[O-])cc6)c6ccc([nH]6)c(-c6ccc(S(=O)(=O)[O-])cc6)c6nc(c(-c7ccc(S(=O)(=O)[O-])cc7)c7ccc4[nH]7)C=C6)C=C5)cc3)C[N@@H+](Cc3cc(C(C)(C)C)n[nH]3)C[C@H]21
REMARK SMILES IDX 17 1 16 2 15 3 14 4 12 5 13 6 11 8 3 9 4 10 8 11 5 12 7 13
REMARK SMILES IDX 6 14 9 15 97 16 10 17 96 18 84 19 85 20 2 22 1 23 86 24
REMARK SMILES IDX 87 25 88 26 95 27 89 28 94 29 90 31 91 32 92 33 93 34 18 35
REMARK SMILES IDX 19 36 20 37 21 38 22 39 23 41 24 42 25 43 83 44 26 45 82 46
REMARK SMILES IDX 27 47 28 48 29 49 76 50 30 51 81 52 75 53 77 54 31 55 80 56
REMARK SMILES IDX 74 57 73 58 32 60 62 61 43 62 61 63 44 64 47 65 60 66 78 67
REMARK SMILES IDX 45 68 46 69 59 71 79 72 48 73 33 74 34 75 42 76 35 77 41 78
REMARK SMILES IDX 36 79 37 80 38 81 39 82 40 83 63 84 64 85 72 86 65 87 71 88
REMARK SMILES IDX 66 89 67 90 68 91 69 92 70 93 49 94 50 95 58 96 51 97 57 98
REMARK SMILES IDX 52 99 53 100 54 101 55 102 56 103
REMARK H PARENT 14 7 85 21 95 30 21 40 77 59 47 70
REMARK Flexibility Score: inf
ROOT
ATOM      1  C   UNL A   1      35.092  30.833  28.042  1.00  0.00     0.002 C 
ENDROOT
BRANCH   1   2
ATOM      2  C   UNL A   1      33.992  30.343  27.097  1.00  0.00     0.021 C 
BRANCH   2   3
ATOM      3  C   UNL A   1      34.208  29.000  26.422  1.00  0.00     0.116 C 
BRANCH   3   4
ATOM      4  N   UNL A   1      33.367  27.924  26.918  1.00  0.00    -0.355 N 
ATOM      5  C   UNL A   1      32.648  27.060  26.117  1.00  0.00     0.236 C 
ATOM      6  O   UNL A   1      32.441  25.915  26.525  1.00  0.00    -0.274 OA
ATOM      7  H   UNL A   1      33.306  27.804  27.893  1.00  0.00     0.163 HD
BRANCH   5   8
ATOM      8  C   UNL A   1      32.121  27.642  24.764  1.00  0.00     0.144 C 
ATOM      9  C   UNL A   1      28.661  31.153  22.819  1.00  0.00     0.122 A 
ATOM     10  C   UNL A   1      28.532  30.035  21.993  1.00  0.00     0.047 A 
ATOM     11  C   UNL A   1      29.558  31.111  23.887  1.00  0.00     0.093 A 
ATOM     12  C   UNL A   1      29.310  28.897  22.209  1.00  0.00     0.012 A 
ATOM     13  C   UNL A   1      30.307  29.955  24.111  1.00  0.00     0.126 A 
ATOM     14  C   UNL A   1      30.225  28.859  23.270  1.00  0.00     0.005 A 
ATOM     15  O   UNL A   1      31.116  29.905  25.205  1.00  0.00    -0.492 OA
ATOM     16  C   UNL A   1      31.041  27.625  23.584  1.00  0.00     0.103 C 
ATOM     17  C   UNL A   1      31.205  28.549  25.712  1.00  0.00     0.253 C 
ATOM     18  C   UNL A   1      31.865  27.235  22.349  1.00  0.00     0.272 C 
ATOM     19  C   UNL A   1      32.438  26.117  24.290  1.00  0.00     0.284 C 
ATOM     20  N   UNL A   1      32.813  26.273  22.874  1.00  0.00    -0.328 N 
ATOM     21  H   UNL A   1      33.770  26.614  22.783  1.00  0.00     0.348 HD
BRANCH   9  22
ATOM     22  O   UNL A   1      27.830  32.194  22.508  1.00  0.00    -0.497 OA
ATOM     23  C   UNL A   1      27.894  32.665  21.167  1.00  0.00     0.278 C 
ENDBRANCH   9  22
BRANCH  20  24
ATOM     24  C   UNL A   1      32.954  25.031  22.108  1.00  0.00     0.319 C 
BRANCH  24  25
ATOM     25  C   UNL A   1      33.651  23.965  22.866  1.00  0.00     0.090 A 
ATOM     26  C   UNL A   1      33.269  22.692  23.224  1.00  0.00     0.055 A 
ATOM     27  N   UNL A   1      34.856  24.168  23.479  1.00  0.00    -0.277 N 
ATOM     28  C   UNL A   1      34.160  22.326  24.258  1.00  0.00     0.068 A 
ATOM     29  N   UNL A   1      35.165  23.207  24.362  1.00  0.00    -0.180 NA
ATOM     30  H   UNL A   1      35.437  24.941  23.292  1.00  0.00     0.190 HD
BRANCH  28  31
ATOM     31  C   UNL A   1      34.044  21.168  25.230  1.00  0.00     0.006 C 
ATOM     32  C   UNL A   1      35.150  20.137  24.956  1.00  0.00     0.017 C 
ATOM     33  C   UNL A   1      34.167  21.685  26.680  1.00  0.00     0.017 C 
ATOM     34  C   UNL A   1      32.673  20.467  25.109  1.00  0.00     0.017 C 
ENDBRANCH  28  31
ENDBRANCH  24  25
ENDBRANCH  20  24
ENDBRANCH   5   8
ENDBRANCH   3   4
ENDBRANCH   2   3
ENDBRANCH   1   2
BRANCH   1  35
ATOM     35  C   UNL A   1      35.117  32.320  28.407  1.00  0.00     0.002 C 
BRANCH  35  36
ATOM     36  C   UNL A   1      33.833  33.115  28.189  1.00  0.00     0.021 C 
BRANCH  36  37
ATOM     37  C   UNL A   1      33.944  34.624  28.338  1.00  0.00     0.116 C 
BRANCH  37  38
ATOM     38  N   UNL A   1      33.010  35.184  29.300  1.00  0.00    -0.352 N 
ATOM     39  C   UNL A   1      33.050  35.142  30.675  1.00  0.00     0.251 C 
ATOM     40  H   UNL A   1      32.240  35.661  28.914  1.00  0.00     0.163 HD
ATOM     41  O   UNL A   1      32.116  35.599  31.329  1.00  0.00    -0.269 OA
BRANCH  39  42
ATOM     42  C   UNL A   1      34.199  34.506  31.360  1.00  0.00     0.039 A 
ATOM     43  C   UNL A   1      35.444  35.135  31.408  1.00  0.00     0.014 A 
ATOM     44  C   UNL A   1      34.030  33.244  31.938  1.00  0.00     0.014 A 
ATOM     45  C   UNL A   1      36.551  34.437  31.878  1.00  0.00     0.010 A 
ATOM     46  C   UNL A   1      35.129  32.580  32.493  1.00  0.00     0.010 A 
ATOM     47  C   UNL A   1      36.409  33.151  32.429  1.00  0.00    -0.014 A 
BRANCH  47  48
ATOM     48  C   UNL A   1      37.608  32.444  32.951  1.00  0.00     0.031 A 
ATOM     49  C   UNL A   1      38.299  31.382  32.138  1.00  0.00     0.074 A 
ATOM     50  C   UNL A   1      38.108  32.807  34.149  1.00  0.00     0.049 A 
ATOM     51  N   UNL A   1      39.369  30.690  32.438  1.00  0.00    -0.248 NA
ATOM     52  C   UNL A   1      37.725  31.049  30.824  1.00  0.00     0.031 C 
ATOM     53  C   UNL A   1      37.528  33.828  35.026  1.00  0.00     0.029 A 
ATOM     54  N   UNL A   1      39.225  32.386  34.827  1.00  0.00    -0.354 N 
ATOM     55  C   UNL A   1      39.593  29.840  31.361  1.00  0.00     0.074 A 
ATOM     56  C   UNL A   1      38.529  30.077  30.409  1.00  0.00     0.031 C 
ATOM     57  C   UNL A   1      38.320  33.993  36.094  1.00  0.00     0.029 A 
ATOM     58  C   UNL A   1      39.427  33.044  36.018  1.00  0.00     0.049 A 
ATOM     59  H   UNL A   1      39.824  31.681  34.492  1.00  0.00     0.167 HD
ATOM     60  C   UNL A   1      40.601  28.957  31.178  1.00  0.00     0.031 A 
ATOM     61  C   UNL A   1      40.382  32.898  36.958  1.00  0.00     0.031 A 
ATOM     62  C   UNL A   1      41.666  28.736  32.123  1.00  0.00     0.049 A 
ATOM     63  C   UNL A   1      41.470  31.887  36.743  1.00  0.00     0.074 A 
ATOM     64  C   UNL A   1      42.738  27.866  32.013  1.00  0.00     0.029 A 
ATOM     65  N   UNL A   1      41.806  29.389  33.337  1.00  0.00    -0.354 N 
ATOM     66  N   UNL A   1      41.662  31.098  35.714  1.00  0.00    -0.248 NA
ATOM     67  C   UNL A   1      42.470  31.743  37.810  1.00  0.00     0.031 C 
ATOM     68  C   UNL A   1      43.493  27.952  33.184  1.00  0.00     0.029 A 
ATOM     69  C   UNL A   1      42.932  28.924  33.996  1.00  0.00     0.049 A 
ATOM     70  H   UNL A   1      41.195  30.080  33.681  1.00  0.00     0.167 HD
ATOM     71  C   UNL A   1      42.802  30.362  36.009  1.00  0.00     0.074 A 
ATOM     72  C   UNL A   1      43.277  30.822  37.298  1.00  0.00     0.031 C 
ATOM     73  C   UNL A   1      43.393  29.383  35.282  1.00  0.00     0.031 A 
BRANCH  60  74
ATOM     74  C   UNL A   1      40.641  28.156  29.902  1.00  0.00    -0.014 A 
ATOM     75  C   UNL A   1      39.844  27.003  29.773  1.00  0.00     0.010 A 
ATOM     76  C   UNL A   1      41.590  28.448  28.906  1.00  0.00     0.010 A 
ATOM     77  C   UNL A   1      40.028  26.131  28.697  1.00  0.00     0.020 A 
ATOM     78  C   UNL A   1      41.759  27.589  27.815  1.00  0.00     0.020 A 
ATOM     79  C   UNL A   1      40.997  26.421  27.734  1.00  0.00     0.054 A 
BRANCH  79  80
ATOM     80  S   UNL A   1      41.271  25.241  26.383  1.00  0.00     0.124 S 
ATOM     81  O   UNL A   1      41.359  26.119  25.220  1.00  0.00    -0.237 OA
ATOM     82  O   UNL A   1      42.517  24.588  26.778  1.00  0.00    -0.237 OA
ATOM     83  O   UNL A   1      40.088  24.384  26.433  1.00  0.00    -0.744 OA
ENDBRANCH  79  80
ENDBRANCH  60  74
BRANCH  61  84
ATOM     84  C   UNL A   1      40.325  33.740  38.185  1.00  0.00    -0.014 A 
ATOM     85  C   UNL A   1      39.498  33.363  39.260  1.00  0.00     0.010 A 
ATOM     86  C   UNL A   1      41.026  34.956  38.256  1.00  0.00     0.010 A 
ATOM     87  C   UNL A   1      39.325  34.211  40.355  1.00  0.00     0.020 A 
ATOM     88  C   UNL A   1      40.882  35.792  39.368  1.00  0.00     0.020 A 
ATOM     89  C   UNL A   1      40.008  35.428  40.396  1.00  0.00     0.054 A 
BRANCH  89  90
ATOM     90  S   UNL A   1      39.742  36.533  41.809  1.00  0.00     0.124 S 
ATOM     91  O   UNL A   1      38.894  35.714  42.671  1.00  0.00    -0.237 OA
ATOM     92  O   UNL A   1      41.098  36.765  42.297  1.00  0.00    -0.237 OA
ATOM     93  O   UNL A   1      39.090  37.696  41.212  1.00  0.00    -0.744 OA
ENDBRANCH  89  90
ENDBRANCH  61  84
BRANCH  73  94
ATOM     94  C   UNL A   1      44.616  28.715  35.853  1.00  0.00    -0.014 A 
ATOM     95  C   UNL A   1      44.475  27.607  36.707  1.00  0.00     0.010 A 
ATOM     96  C   UNL A   1      45.893  29.265  35.643  1.00  0.00     0.010 A 
ATOM     97  C   UNL A   1      45.586  27.080  37.370  1.00  0.00     0.020 A 
ATOM     98  C   UNL A   1      47.010  28.722  36.284  1.00  0.00     0.020 A 
ATOM     99  C   UNL A   1      46.846  27.649  37.162  1.00  0.00     0.054 A 
BRANCH  99 100
ATOM    100  S   UNL A   1      48.272  26.969  38.052  1.00  0.00     0.124 S 
ATOM    101  O   UNL A   1      47.735  26.781  39.396  1.00  0.00    -0.237 OA
ATOM    102  O   UNL A   1      48.559  25.742  37.312  1.00  0.00    -0.237 OA
ATOM    103  O   UNL A   1      49.285  28.015  37.924  1.00  0.00    -0.744 OA
ENDBRANCH  99 100
ENDBRANCH  73  94
ENDBRANCH  47  48
ENDBRANCH  39  42
ENDBRANCH  37  38
ENDBRANCH  36  37
ENDBRANCH  35  36
ENDBRANCH   1  35
TORSDOF 20
ENDMDL
