MODEL 1
REMARK VINA RESULT:     -11.2      0.000      0.000
REMARK SMILES O=C(CSc1nnnn1-c1ccc(C(=O)NCCCCCCNC(=O)c2ccc(-c3c4nc(c(-c5ccc(S(=O)(=O)[O-])cc5)c5ccc([nH]5)c(-c5ccc(S(=O)(=O)[O-])cc5)c5nc(c(-c6ccc(S(=O)(=O)[O-])cc6)c6ccc3[nH]6)C=C5)C=C4)cc2)cc1)Nc1nc(-c2ccccc2)cs1
REMARK SMILES IDX 18 1 17 2 16 3 14 4 15 5 13 7 10 8 11 9 87 10 12 11 86 12
REMARK SMILES IDX 9 13 5 14 6 15 7 16 8 17 4 18 3 19 2 20 1 21 88 22 89 24
REMARK SMILES IDX 90 25 99 26 91 27 98 28 92 29 93 30 97 31 94 32 96 33 95 34
REMARK SMILES IDX 19 35 20 36 21 37 22 38 23 39 24 40 25 42 26 43 27 44 85 45
REMARK SMILES IDX 28 46 84 47 29 48 30 49 31 50 78 51 32 52 83 53 77 54 79 55
REMARK SMILES IDX 33 56 82 57 76 58 75 59 34 61 64 62 45 63 63 64 46 65 49 66
REMARK SMILES IDX 62 67 80 68 47 69 48 70 61 72 81 73 50 74 35 75 36 76 44 77
REMARK SMILES IDX 37 78 43 79 38 80 39 81 40 82 41 83 42 84 65 85 66 86 74 87
REMARK SMILES IDX 67 88 73 89 68 90 69 91 70 92 71 93 72 94 51 95 52 96 60 97
REMARK SMILES IDX 53 98 59 99 54 100 55 101 56 102 57 103 58 104
REMARK H PARENT 16 6 88 23 23 41 79 60 49 71
REMARK Flexibility Score: inf
ROOT
ATOM      1  C   UNL A   1      43.148  20.818  25.754  1.00  0.00     0.021 C 
ENDROOT
BRANCH   1   2
ATOM      2  C   UNL A   1      41.834  20.927  26.531  1.00  0.00     0.116 C 
BRANCH   2   3
ATOM      3  N   UNL A   1      41.770  22.190  27.241  1.00  0.00    -0.352 N 
ATOM      4  C   UNL A   1      40.808  23.160  27.358  1.00  0.00     0.251 C 
ATOM      5  O   UNL A   1      41.071  24.127  28.075  1.00  0.00    -0.269 OA
ATOM      6  H   UNL A   1      42.591  22.395  27.746  1.00  0.00     0.163 HD
BRANCH   4   7
ATOM      7  C   UNL A   1      39.448  23.060  26.750  1.00  0.00     0.039 A 
ATOM      8  C   UNL A   1      37.064  22.778  25.301  1.00  0.00     0.069 A 
ATOM      9  C   UNL A   1      37.906  21.676  25.454  1.00  0.00     0.029 A 
ATOM     10  C   UNL A   1      37.344  23.978  25.959  1.00  0.00     0.029 A 
ATOM     11  C   UNL A   1      39.111  21.836  26.143  1.00  0.00     0.016 A 
ATOM     12  C   UNL A   1      38.502  24.088  26.734  1.00  0.00     0.016 A 
BRANCH   8  13
ATOM     13  N   UNL A   1      35.932  22.683  24.471  1.00  0.00    -0.187 N 
ATOM     14  C   UNL A   1      34.745  21.998  24.675  1.00  0.00     0.214 A 
ATOM     15  N   UNL A   1      33.990  22.137  23.612  1.00  0.00    -0.101 NA
ATOM     16  N   UNL A   1      34.672  22.990  22.779  1.00  0.00    -0.022 NA
ATOM     17  N   UNL A   1      35.800  23.408  23.340  1.00  0.00    -0.039 NA
BRANCH  14  18
ATOM     18  S   UNL A   1      34.227  21.403  26.222  1.00  0.00    -0.074 SA
BRANCH  18  19
ATOM     19  C   UNL A   1      32.512  21.984  26.310  1.00  0.00     0.178 C 
BRANCH  19  20
ATOM     20  C   UNL A   1      32.317  23.494  26.336  1.00  0.00     0.236 C 
ATOM     21  O   UNL A   1      31.576  23.981  27.188  1.00  0.00    -0.274 OA
ATOM     22  N   UNL A   1      33.086  24.205  25.440  1.00  0.00    -0.301 N 
ATOM     23  H   UNL A   1      33.676  23.716  24.822  1.00  0.00     0.172 HD
BRANCH  22  24
ATOM     24  C   UNL A   1      33.051  25.572  25.384  1.00  0.00     0.189 A 
ATOM     25  N   UNL A   1      33.679  26.448  26.124  1.00  0.00    -0.220 NA
ATOM     26  S   UNL A   1      32.028  26.205  24.170  1.00  0.00    -0.105 S 
ATOM     27  C   UNL A   1      33.256  27.719  25.798  1.00  0.00     0.084 A 
ATOM     28  C   UNL A   1      32.344  27.790  24.761  1.00  0.00     0.097 A 
BRANCH  27  29
ATOM     29  C   UNL A   1      33.751  28.880  26.513  1.00  0.00     0.001 A 
ATOM     30  C   UNL A   1      35.071  28.901  26.976  1.00  0.00     0.010 A 
ATOM     31  C   UNL A   1      32.906  29.961  26.787  1.00  0.00     0.010 A 
ATOM     32  C   UNL A   1      35.547  30.000  27.693  1.00  0.00     0.001 A 
ATOM     33  C   UNL A   1      33.382  31.057  27.514  1.00  0.00     0.001 A 
ATOM     34  C   UNL A   1      34.703  31.076  27.962  1.00  0.00     0.000 A 
ENDBRANCH  27  29
ENDBRANCH  22  24
ENDBRANCH  19  20
ENDBRANCH  18  19
ENDBRANCH  14  18
ENDBRANCH   8  13
ENDBRANCH   4   7
ENDBRANCH   2   3
ENDBRANCH   1   2
BRANCH   1  35
ATOM     35  C   UNL A   1      43.978  22.110  25.775  1.00  0.00     0.002 C 
BRANCH  35  36
ATOM     36  C   UNL A   1      43.717  23.084  24.612  1.00  0.00     0.002 C 
BRANCH  36  37
ATOM     37  C   UNL A   1      43.174  24.466  25.001  1.00  0.00     0.021 C 
BRANCH  37  38
ATOM     38  C   UNL A   1      44.073  25.218  25.971  1.00  0.00     0.116 C 
BRANCH  38  39
ATOM     39  N   UNL A   1      45.049  26.050  25.269  1.00  0.00    -0.352 N 
ATOM     40  C   UNL A   1      45.153  27.429  25.262  1.00  0.00     0.251 C 
ATOM     41  H   UNL A   1      45.717  25.567  24.732  1.00  0.00     0.163 HD
ATOM     42  O   UNL A   1      45.756  28.008  24.378  1.00  0.00    -0.269 OA
BRANCH  40  43
ATOM     43  C   UNL A   1      44.516  28.174  26.361  1.00  0.00     0.039 A 
ATOM     44  C   UNL A   1      45.129  28.289  27.612  1.00  0.00     0.014 A 
ATOM     45  C   UNL A   1      43.305  28.805  26.092  1.00  0.00     0.014 A 
ATOM     46  C   UNL A   1      44.550  29.122  28.567  1.00  0.00     0.010 A 
ATOM     47  C   UNL A   1      42.820  29.735  26.975  1.00  0.00     0.010 A 
ATOM     48  C   UNL A   1      43.403  29.859  28.233  1.00  0.00    -0.014 A 
BRANCH  48  49
ATOM     49  C   UNL A   1      42.847  30.842  29.158  1.00  0.00     0.031 A 
ATOM     50  C   UNL A   1      43.677  32.059  29.365  1.00  0.00     0.074 A 
ATOM     51  C   UNL A   1      41.567  30.785  29.589  1.00  0.00     0.049 A 
ATOM     52  N   UNL A   1      44.305  32.424  30.433  1.00  0.00    -0.248 NA
ATOM     53  C   UNL A   1      43.941  32.921  28.199  1.00  0.00     0.031 C 
ATOM     54  C   UNL A   1      40.520  29.843  29.163  1.00  0.00     0.029 A 
ATOM     55  N   UNL A   1      40.886  31.643  30.396  1.00  0.00    -0.354 N 
ATOM     56  C   UNL A   1      44.853  33.674  30.146  1.00  0.00     0.074 A 
ATOM     57  C   UNL A   1      44.768  33.831  28.717  1.00  0.00     0.031 C 
ATOM     58  C   UNL A   1      39.307  30.332  29.500  1.00  0.00     0.029 A 
ATOM     59  C   UNL A   1      39.505  31.494  30.344  1.00  0.00     0.049 A 
ATOM     60  H   UNL A   1      41.331  32.311  30.966  1.00  0.00     0.167 HD
ATOM     61  C   UNL A   1      45.080  34.592  31.128  1.00  0.00     0.031 A 
ATOM     62  C   UNL A   1      38.578  32.270  30.951  1.00  0.00     0.031 A 
ATOM     63  C   UNL A   1      44.896  34.013  32.432  1.00  0.00     0.049 A 
ATOM     64  C   UNL A   1      39.250  32.955  32.076  1.00  0.00     0.074 A 
ATOM     65  C   UNL A   1      45.592  33.163  33.260  1.00  0.00     0.029 A 
ATOM     66  N   UNL A   1      43.597  34.053  32.876  1.00  0.00    -0.354 N 
ATOM     67  N   UNL A   1      39.776  32.318  33.087  1.00  0.00    -0.248 NA
ATOM     68  C   UNL A   1      39.665  34.344  31.931  1.00  0.00     0.031 C 
ATOM     69  C   UNL A   1      44.609  32.507  34.059  1.00  0.00     0.029 A 
ATOM     70  C   UNL A   1      43.349  33.009  33.726  1.00  0.00     0.049 A 
ATOM     71  H   UNL A   1      42.937  34.736  32.619  1.00  0.00     0.167 HD
ATOM     72  C   UNL A   1      40.880  33.072  33.435  1.00  0.00     0.074 A 
ATOM     73  C   UNL A   1      40.663  34.375  32.817  1.00  0.00     0.031 C 
ATOM     74  C   UNL A   1      42.010  32.487  33.926  1.00  0.00     0.031 A 
BRANCH  61  75
ATOM     75  C   UNL A   1      44.999  36.095  30.947  1.00  0.00    -0.014 A 
ATOM     76  C   UNL A   1      44.067  36.618  30.023  1.00  0.00     0.010 A 
ATOM     77  C   UNL A   1      45.982  36.985  31.426  1.00  0.00     0.010 A 
ATOM     78  C   UNL A   1      44.151  37.941  29.563  1.00  0.00     0.020 A 
ATOM     79  C   UNL A   1      46.053  38.316  31.002  1.00  0.00     0.020 A 
ATOM     80  C   UNL A   1      45.155  38.778  30.049  1.00  0.00     0.054 A 
BRANCH  80  81
ATOM     81  S   UNL A   1      45.319  40.453  29.381  1.00  0.00     0.124 S 
ATOM     82  O   UNL A   1      46.589  40.372  28.668  1.00  0.00    -0.237 OA
ATOM     83  O   UNL A   1      44.127  40.571  28.546  1.00  0.00    -0.237 OA
ATOM     84  O   UNL A   1      45.322  41.296  30.576  1.00  0.00    -0.744 OA
ENDBRANCH  80  81
ENDBRANCH  61  75
BRANCH  62  85
ATOM     85  C   UNL A   1      37.237  32.652  30.451  1.00  0.00    -0.014 A 
ATOM     86  C   UNL A   1      36.094  32.488  31.254  1.00  0.00     0.010 A 
ATOM     87  C   UNL A   1      37.125  33.454  29.295  1.00  0.00     0.010 A 
ATOM     88  C   UNL A   1      34.902  33.167  30.954  1.00  0.00     0.020 A 
ATOM     89  C   UNL A   1      35.939  34.129  28.989  1.00  0.00     0.020 A 
ATOM     90  C   UNL A   1      34.840  34.004  29.837  1.00  0.00     0.054 A 
BRANCH  90  91
ATOM     91  S   UNL A   1      33.365  35.034  29.577  1.00  0.00     0.124 S 
ATOM     92  O   UNL A   1      33.946  36.318  29.197  1.00  0.00    -0.237 OA
ATOM     93  O   UNL A   1      32.663  34.318  28.516  1.00  0.00    -0.237 OA
ATOM     94  O   UNL A   1      32.699  35.015  30.879  1.00  0.00    -0.744 OA
ENDBRANCH  90  91
ENDBRANCH  62  85
BRANCH  74  95
ATOM     95  C   UNL A   1      41.886  31.134  34.575  1.00  0.00    -0.014 A 
ATOM     96  C   UNL A   1      41.397  29.982  33.934  1.00  0.00     0.010 A 
ATOM     97  C   UNL A   1      42.405  31.014  35.876  1.00  0.00     0.010 A 
ATOM     98  C   UNL A   1      41.425  28.739  34.587  1.00  0.00     0.020 A 
ATOM     99  C   UNL A   1      42.451  29.779  36.524  1.00  0.00     0.020 A 
ATOM    100  C   UNL A   1      41.956  28.647  35.879  1.00  0.00     0.054 A 
BRANCH 100 101
ATOM    101  S   UNL A   1      42.047  27.031  36.701  1.00  0.00     0.124 S 
ATOM    102  O   UNL A   1      40.695  26.866  37.227  1.00  0.00    -0.237 OA
ATOM    103  O   UNL A   1      42.414  26.131  35.610  1.00  0.00    -0.237 OA
ATOM    104  O   UNL A   1      43.085  27.216  37.715  1.00  0.00    -0.744 OA
ENDBRANCH 100 101
ENDBRANCH  74  95
ENDBRANCH  48  49
ENDBRANCH  40  43
ENDBRANCH  38  39
ENDBRANCH  37  38
ENDBRANCH  36  37
ENDBRANCH  35  36
ENDBRANCH   1  35
TORSDOF 22
ENDMDL
MODEL 2
REMARK VINA RESULT:     -11.1      1.488      2.250
REMARK SMILES O=C(CSc1nnnn1-c1ccc(C(=O)NCCCCCCNC(=O)c2ccc(-c3c4nc(c(-c5ccc(S(=O)(=O)[O-])cc5)c5ccc([nH]5)c(-c5ccc(S(=O)(=O)[O-])cc5)c5nc(c(-c6ccc(S(=O)(=O)[O-])cc6)c6ccc3[nH]6)C=C5)C=C4)cc2)cc1)Nc1nc(-c2ccccc2)cs1
REMARK SMILES IDX 18 1 17 2 16 3 14 4 15 5 13 7 10 8 11 9 87 10 12 11 86 12
REMARK SMILES IDX 9 13 5 14 6 15 7 16 8 17 4 18 3 19 2 20 1 21 88 22 89 24
REMARK SMILES IDX 90 25 99 26 91 27 98 28 92 29 93 30 97 31 94 32 96 33 95 34
REMARK SMILES IDX 19 35 20 36 21 37 22 38 23 39 24 40 25 42 26 43 27 44 85 45
REMARK SMILES IDX 28 46 84 47 29 48 30 49 31 50 78 51 32 52 83 53 77 54 79 55
REMARK SMILES IDX 33 56 82 57 76 58 75 59 34 61 64 62 45 63 63 64 46 65 49 66
REMARK SMILES IDX 62 67 80 68 47 69 48 70 61 72 81 73 50 74 35 75 36 76 44 77
REMARK SMILES IDX 37 78 43 79 38 80 39 81 40 82 41 83 42 84 65 85 66 86 74 87
REMARK SMILES IDX 67 88 73 89 68 90 69 91 70 92 71 93 72 94 51 95 52 96 60 97
REMARK SMILES IDX 53 98 59 99 54 100 55 101 56 102 57 103 58 104
REMARK H PARENT 16 6 88 23 23 41 79 60 49 71
REMARK Flexibility Score: inf
ROOT
ATOM      1  C   UNL A   1      43.620  20.313  25.395  1.00  0.00     0.021 C 
ENDROOT
BRANCH   1   2
ATOM      2  C   UNL A   1      42.300  20.192  26.160  1.00  0.00     0.116 C 
BRANCH   2   3
ATOM      3  N   UNL A   1      42.242  21.174  27.226  1.00  0.00    -0.352 N 
ATOM      4  C   UNL A   1      41.320  22.122  27.588  1.00  0.00     0.251 C 
ATOM      5  O   UNL A   1      41.574  22.799  28.585  1.00  0.00    -0.269 OA
ATOM      6  H   UNL A   1      43.031  21.156  27.815  1.00  0.00     0.163 HD
BRANCH   4   7
ATOM      7  C   UNL A   1      40.006  22.308  26.903  1.00  0.00     0.039 A 
ATOM      8  C   UNL A   1      37.705  22.541  25.317  1.00  0.00     0.069 A 
ATOM      9  C   UNL A   1      38.309  21.292  25.465  1.00  0.00     0.029 A 
ATOM     10  C   UNL A   1      38.168  23.641  26.042  1.00  0.00     0.029 A 
ATOM     11  C   UNL A   1      39.479  21.192  26.225  1.00  0.00     0.016 A 
ATOM     12  C   UNL A   1      39.276  23.499  26.883  1.00  0.00     0.016 A 
BRANCH   8  13
ATOM     13  N   UNL A   1      36.629  22.694  24.424  1.00  0.00    -0.187 N 
ATOM     14  C   UNL A   1      35.286  22.412  24.607  1.00  0.00     0.214 A 
ATOM     15  N   UNL A   1      34.647  22.654  23.487  1.00  0.00    -0.101 NA
ATOM     16  N   UNL A   1      35.583  23.178  22.631  1.00  0.00    -0.022 NA
ATOM     17  N   UNL A   1      36.763  23.304  23.227  1.00  0.00    -0.039 NA
BRANCH  14  18
ATOM     18  S   UNL A   1      34.555  22.159  26.162  1.00  0.00    -0.074 SA
BRANCH  18  19
ATOM     19  C   UNL A   1      32.814  22.555  25.845  1.00  0.00     0.178 C 
BRANCH  19  20
ATOM     20  C   UNL A   1      32.499  24.020  25.573  1.00  0.00     0.236 C 
ATOM     21  O   UNL A   1      32.546  24.820  26.506  1.00  0.00    -0.274 OA
ATOM     22  N   UNL A   1      32.281  24.341  24.250  1.00  0.00    -0.301 N 
ATOM     23  H   UNL A   1      32.302  23.626  23.574  1.00  0.00     0.172 HD
BRANCH  22  24
ATOM     24  C   UNL A   1      32.036  25.626  23.850  1.00  0.00     0.189 A 
ATOM     25  N   UNL A   1      30.892  26.235  23.672  1.00  0.00    -0.220 NA
ATOM     26  S   UNL A   1      33.439  26.550  23.536  1.00  0.00    -0.105 S 
ATOM     27  C   UNL A   1      31.113  27.491  23.146  1.00  0.00     0.084 A 
ATOM     28  C   UNL A   1      32.441  27.840  22.987  1.00  0.00     0.097 A 
BRANCH  27  29
ATOM     29  C   UNL A   1      30.006  28.359  22.793  1.00  0.00     0.001 A 
ATOM     30  C   UNL A   1      30.244  29.523  22.052  1.00  0.00     0.010 A 
ATOM     31  C   UNL A   1      28.708  28.071  23.227  1.00  0.00     0.010 A 
ATOM     32  C   UNL A   1      29.189  30.382  21.735  1.00  0.00     0.001 A 
ATOM     33  C   UNL A   1      27.655  28.937  22.917  1.00  0.00     0.001 A 
ATOM     34  C   UNL A   1      27.897  30.089  22.168  1.00  0.00     0.000 A 
ENDBRANCH  27  29
ENDBRANCH  22  24
ENDBRANCH  19  20
ENDBRANCH  18  19
ENDBRANCH  14  18
ENDBRANCH   8  13
ENDBRANCH   4   7
ENDBRANCH   2   3
ENDBRANCH   1   2
BRANCH   1  35
ATOM     35  C   UNL A   1      44.278  21.694  25.529  1.00  0.00     0.002 C 
BRANCH  35  36
ATOM     36  C   UNL A   1      43.812  22.751  24.513  1.00  0.00     0.002 C 
BRANCH  36  37
ATOM     37  C   UNL A   1      43.030  23.940  25.091  1.00  0.00     0.021 C 
BRANCH  37  38
ATOM     38  C   UNL A   1      43.843  24.785  26.059  1.00  0.00     0.116 C 
BRANCH  38  39
ATOM     39  N   UNL A   1      44.822  25.617  25.361  1.00  0.00    -0.352 N 
ATOM     40  C   UNL A   1      44.926  26.995  25.351  1.00  0.00     0.251 C 
ATOM     41  H   UNL A   1      45.494  25.133  24.829  1.00  0.00     0.163 HD
ATOM     42  O   UNL A   1      45.533  27.573  24.469  1.00  0.00    -0.269 OA
BRANCH  40  43
ATOM     43  C   UNL A   1      44.282  27.743  26.445  1.00  0.00     0.039 A 
ATOM     44  C   UNL A   1      44.815  27.744  27.737  1.00  0.00     0.014 A 
ATOM     45  C   UNL A   1      43.151  28.492  26.132  1.00  0.00     0.014 A 
ATOM     46  C   UNL A   1      44.246  28.581  28.694  1.00  0.00     0.010 A 
ATOM     47  C   UNL A   1      42.689  29.420  27.029  1.00  0.00     0.010 A 
ATOM     48  C   UNL A   1      43.193  29.432  28.327  1.00  0.00    -0.014 A 
BRANCH  48  49
ATOM     49  C   UNL A   1      42.662  30.417  29.265  1.00  0.00     0.031 A 
ATOM     50  C   UNL A   1      43.493  31.638  29.441  1.00  0.00     0.074 A 
ATOM     51  C   UNL A   1      41.396  30.357  29.735  1.00  0.00     0.049 A 
ATOM     52  N   UNL A   1      44.153  32.010  30.487  1.00  0.00    -0.248 NA
ATOM     53  C   UNL A   1      43.718  32.496  28.264  1.00  0.00     0.031 C 
ATOM     54  C   UNL A   1      40.340  29.410  29.346  1.00  0.00     0.029 A 
ATOM     55  N   UNL A   1      40.737  31.216  30.559  1.00  0.00    -0.354 N 
ATOM     56  C   UNL A   1      44.687  33.260  30.178  1.00  0.00     0.074 A 
ATOM     57  C   UNL A   1      44.557  33.411  28.751  1.00  0.00     0.031 C 
ATOM     58  C   UNL A   1      39.136  29.895  29.718  1.00  0.00     0.029 A 
ATOM     59  C   UNL A   1      39.356  31.062  30.550  1.00  0.00     0.049 A 
ATOM     60  H   UNL A   1      41.197  31.888  31.112  1.00  0.00     0.167 HD
ATOM     61  C   UNL A   1      44.940  34.184  31.148  1.00  0.00     0.031 A 
ATOM     62  C   UNL A   1      38.445  31.837  31.182  1.00  0.00     0.031 A 
ATOM     63  C   UNL A   1      44.799  33.610  32.460  1.00  0.00     0.049 A 
ATOM     64  C   UNL A   1      39.149  32.530  32.283  1.00  0.00     0.074 A 
ATOM     65  C   UNL A   1      45.524  32.766  33.270  1.00  0.00     0.029 A 
ATOM     66  N   UNL A   1      43.515  33.647  32.944  1.00  0.00    -0.354 N 
ATOM     67  N   UNL A   1      39.708  31.899  33.280  1.00  0.00    -0.248 NA
ATOM     68  C   UNL A   1      39.554  33.919  32.120  1.00  0.00     0.031 C 
ATOM     69  C   UNL A   1      44.568  32.110  34.101  1.00  0.00     0.029 A 
ATOM     70  C   UNL A   1      43.297  32.605  33.806  1.00  0.00     0.049 A 
ATOM     71  H   UNL A   1      42.844  34.327  32.705  1.00  0.00     0.167 HD
ATOM     72  C   UNL A   1      40.820  32.659  33.590  1.00  0.00     0.074 A 
ATOM     73  C   UNL A   1      40.579  33.958  32.975  1.00  0.00     0.031 C 
ATOM     74  C   UNL A   1      41.966  32.079  34.049  1.00  0.00     0.031 A 
BRANCH  61  75
ATOM     75  C   UNL A   1      44.848  35.686  30.964  1.00  0.00    -0.014 A 
ATOM     76  C   UNL A   1      45.438  36.526  31.935  1.00  0.00     0.010 A 
ATOM     77  C   UNL A   1      43.974  36.300  30.044  1.00  0.00     0.010 A 
ATOM     78  C   UNL A   1      45.124  37.891  32.016  1.00  0.00     0.020 A 
ATOM     79  C   UNL A   1      43.682  37.667  30.092  1.00  0.00     0.020 A 
ATOM     80  C   UNL A   1      44.235  38.449  31.097  1.00  0.00     0.054 A 
BRANCH  80  81
ATOM     81  S   UNL A   1      43.759  40.188  31.263  1.00  0.00     0.124 S 
ATOM     82  O   UNL A   1      45.053  40.843  31.423  1.00  0.00    -0.237 OA
ATOM     83  O   UNL A   1      43.069  40.441  30.001  1.00  0.00    -0.237 OA
ATOM     84  O   UNL A   1      42.901  40.194  32.447  1.00  0.00    -0.744 OA
ENDBRANCH  80  81
ENDBRANCH  61  75
BRANCH  62  85
ATOM     85  C   UNL A   1      37.088  32.212  30.723  1.00  0.00    -0.014 A 
ATOM     86  C   UNL A   1      36.341  33.190  31.403  1.00  0.00     0.010 A 
ATOM     87  C   UNL A   1      36.651  31.818  29.440  1.00  0.00     0.010 A 
ATOM     88  C   UNL A   1      35.241  33.810  30.788  1.00  0.00     0.020 A 
ATOM     89  C   UNL A   1      35.554  32.428  28.825  1.00  0.00     0.020 A 
ATOM     90  C   UNL A   1      34.870  33.443  29.492  1.00  0.00     0.054 A 
BRANCH  90  91
ATOM     91  S   UNL A   1      33.579  34.392  28.632  1.00  0.00     0.124 S 
ATOM     92  O   UNL A   1      33.004  33.392  27.737  1.00  0.00    -0.237 OA
ATOM     93  O   UNL A   1      32.722  34.826  29.731  1.00  0.00    -0.237 OA
ATOM     94  O   UNL A   1      34.324  35.463  27.971  1.00  0.00    -0.744 OA
ENDBRANCH  90  91
ENDBRANCH  62  85
BRANCH  74  95
ATOM     95  C   UNL A   1      41.868  30.730  34.708  1.00  0.00    -0.014 A 
ATOM     96  C   UNL A   1      41.303  29.589  34.110  1.00  0.00     0.010 A 
ATOM     97  C   UNL A   1      42.491  30.597  35.961  1.00  0.00     0.010 A 
ATOM     98  C   UNL A   1      41.358  28.345  34.760  1.00  0.00     0.020 A 
ATOM     99  C   UNL A   1      42.564  29.361  36.604  1.00  0.00     0.020 A 
ATOM    100  C   UNL A   1      41.992  28.241  36.003  1.00  0.00     0.054 A 
BRANCH 100 101
ATOM    101  S   UNL A   1      42.116  26.622  36.817  1.00  0.00     0.124 S 
ATOM    102  O   UNL A   1      42.575  25.757  35.734  1.00  0.00    -0.237 OA
ATOM    103  O   UNL A   1      43.085  26.867  37.883  1.00  0.00    -0.237 OA
ATOM    104  O   UNL A   1      40.753  26.362  37.280  1.00  0.00    -0.744 OA
ENDBRANCH 100 101
ENDBRANCH  74  95
ENDBRANCH  48  49
ENDBRANCH  40  43
ENDBRANCH  38  39
ENDBRANCH  37  38
ENDBRANCH  36  37
ENDBRANCH  35  36
ENDBRANCH   1  35
TORSDOF 22
ENDMDL
MODEL 3
REMARK VINA RESULT:     -10.7      4.992     11.001
REMARK SMILES O=C(CSc1nnnn1-c1ccc(C(=O)NCCCCCCNC(=O)c2ccc(-c3c4nc(c(-c5ccc(S(=O)(=O)[O-])cc5)c5ccc([nH]5)c(-c5ccc(S(=O)(=O)[O-])cc5)c5nc(c(-c6ccc(S(=O)(=O)[O-])cc6)c6ccc3[nH]6)C=C5)C=C4)cc2)cc1)Nc1nc(-c2ccccc2)cs1
REMARK SMILES IDX 18 1 17 2 16 3 14 4 15 5 13 7 10 8 11 9 87 10 12 11 86 12
REMARK SMILES IDX 9 13 5 14 6 15 7 16 8 17 4 18 3 19 2 20 1 21 88 22 89 24
REMARK SMILES IDX 90 25 99 26 91 27 98 28 92 29 93 30 97 31 94 32 96 33 95 34
REMARK SMILES IDX 19 35 20 36 21 37 22 38 23 39 24 40 25 42 26 43 27 44 85 45
REMARK SMILES IDX 28 46 84 47 29 48 30 49 31 50 78 51 32 52 83 53 77 54 79 55
REMARK SMILES IDX 33 56 82 57 76 58 75 59 34 61 64 62 45 63 63 64 46 65 49 66
REMARK SMILES IDX 62 67 80 68 47 69 48 70 61 72 81 73 50 74 35 75 36 76 44 77
REMARK SMILES IDX 37 78 43 79 38 80 39 81 40 82 41 83 42 84 65 85 66 86 74 87
REMARK SMILES IDX 67 88 73 89 68 90 69 91 70 92 71 93 72 94 51 95 52 96 60 97
REMARK SMILES IDX 53 98 59 99 54 100 55 101 56 102 57 103 58 104
REMARK H PARENT 16 6 88 23 23 41 79 60 49 71
REMARK Flexibility Score: inf
ROOT
ATOM      1  C   UNL A   1      40.306  24.586  27.982  1.00  0.00     0.021 C 
ENDROOT
BRANCH   1   2
ATOM      2  C   UNL A   1      39.952  25.940  28.600  1.00  0.00     0.116 C 
BRANCH   2   3
ATOM      3  N   UNL A   1      40.995  26.910  28.325  1.00  0.00    -0.352 N 
ATOM      4  C   UNL A   1      41.031  28.281  28.316  1.00  0.00     0.251 C 
ATOM      5  O   UNL A   1      42.111  28.811  28.053  1.00  0.00    -0.269 OA
ATOM      6  H   UNL A   1      41.859  26.498  28.097  1.00  0.00     0.163 HD
BRANCH   4   7
ATOM      7  C   UNL A   1      39.874  29.146  28.695  1.00  0.00     0.039 A 
ATOM      8  C   UNL A   1      37.724  30.617  29.733  1.00  0.00     0.069 A 
ATOM      9  C   UNL A   1      38.984  30.740  30.320  1.00  0.00     0.029 A 
ATOM     10  C   UNL A   1      37.557  29.861  28.570  1.00  0.00     0.029 A 
ATOM     11  C   UNL A   1      40.041  29.973  29.822  1.00  0.00     0.016 A 
ATOM     12  C   UNL A   1      38.651  29.185  28.021  1.00  0.00     0.016 A 
BRANCH   8  13
ATOM     13  N   UNL A   1      36.614  31.248  30.322  1.00  0.00    -0.187 N 
ATOM     14  C   UNL A   1      35.637  32.038  29.739  1.00  0.00     0.214 A 
ATOM     15  N   UNL A   1      34.825  32.467  30.675  1.00  0.00    -0.101 NA
ATOM     16  N   UNL A   1      35.244  31.864  31.836  1.00  0.00    -0.022 NA
ATOM     17  N   UNL A   1      36.262  31.042  31.610  1.00  0.00    -0.039 NA
BRANCH  14  18
ATOM     18  S   UNL A   1      35.346  32.107  28.028  1.00  0.00    -0.074 SA
BRANCH  18  19
ATOM     19  C   UNL A   1      33.866  31.077  27.841  1.00  0.00     0.178 C 
BRANCH  19  20
ATOM     20  C   UNL A   1      33.992  29.888  26.897  1.00  0.00     0.236 C 
ATOM     21  O   UNL A   1      35.113  29.533  26.538  1.00  0.00    -0.274 OA
ATOM     22  N   UNL A   1      32.812  29.240  26.602  1.00  0.00    -0.301 N 
ATOM     23  H   UNL A   1      31.969  29.588  26.974  1.00  0.00     0.172 HD
BRANCH  22  24
ATOM     24  C   UNL A   1      32.779  28.127  25.807  1.00  0.00     0.189 A 
ATOM     25  N   UNL A   1      33.455  27.013  25.912  1.00  0.00    -0.220 NA
ATOM     26  S   UNL A   1      31.698  28.232  24.486  1.00  0.00    -0.105 S 
ATOM     27  C   UNL A   1      33.196  26.209  24.821  1.00  0.00     0.084 A 
ATOM     28  C   UNL A   1      32.270  26.710  23.925  1.00  0.00     0.097 A 
BRANCH  27  29
ATOM     29  C   UNL A   1      33.866  24.934  24.655  1.00  0.00     0.001 A 
ATOM     30  C   UNL A   1      34.078  24.421  23.370  1.00  0.00     0.010 A 
ATOM     31  C   UNL A   1      34.261  24.187  25.770  1.00  0.00     0.010 A 
ATOM     32  C   UNL A   1      34.694  23.179  23.202  1.00  0.00     0.001 A 
ATOM     33  C   UNL A   1      34.868  22.939  25.600  1.00  0.00     0.001 A 
ATOM     34  C   UNL A   1      35.087  22.439  24.316  1.00  0.00     0.000 A 
ENDBRANCH  27  29
ENDBRANCH  22  24
ENDBRANCH  19  20
ENDBRANCH  18  19
ENDBRANCH  14  18
ENDBRANCH   8  13
ENDBRANCH   4   7
ENDBRANCH   2   3
ENDBRANCH   1   2
BRANCH   1  35
ATOM     35  C   UNL A   1      41.815  24.383  27.782  1.00  0.00     0.002 C 
BRANCH  35  36
ATOM     36  C   UNL A   1      42.343  22.976  28.112  1.00  0.00     0.002 C 
BRANCH  36  37
ATOM     37  C   UNL A   1      42.512  22.024  26.919  1.00  0.00     0.021 C 
BRANCH  37  38
ATOM     38  C   UNL A   1      42.203  22.674  25.579  1.00  0.00     0.116 C 
BRANCH  38  39
ATOM     39  N   UNL A   1      43.158  22.268  24.548  1.00  0.00    -0.352 N 
ATOM     40  C   UNL A   1      44.369  22.850  24.223  1.00  0.00     0.251 C 
ATOM     41  H   UNL A   1      42.905  21.479  24.017  1.00  0.00     0.163 HD
ATOM     42  O   UNL A   1      44.888  22.656  23.139  1.00  0.00    -0.269 OA
BRANCH  40  43
ATOM     43  C   UNL A   1      45.013  23.709  25.231  1.00  0.00     0.039 A 
ATOM     44  C   UNL A   1      44.829  25.094  25.230  1.00  0.00     0.014 A 
ATOM     45  C   UNL A   1      45.770  23.085  26.218  1.00  0.00     0.014 A 
ATOM     46  C   UNL A   1      45.346  25.839  26.288  1.00  0.00     0.010 A 
ATOM     47  C   UNL A   1      46.147  23.796  27.328  1.00  0.00     0.010 A 
ATOM     48  C   UNL A   1      45.988  25.179  27.346  1.00  0.00    -0.014 A 
BRANCH  48  49
ATOM     49  C   UNL A   1      46.423  25.908  28.534  1.00  0.00     0.031 A 
ATOM     50  C   UNL A   1      45.337  26.281  29.481  1.00  0.00     0.074 A 
ATOM     51  C   UNL A   1      47.724  26.008  28.884  1.00  0.00     0.049 A 
ATOM     52  N   UNL A   1      44.892  27.461  29.758  1.00  0.00    -0.248 NA
ATOM     53  C   UNL A   1      44.568  25.195  30.111  1.00  0.00     0.031 C 
ATOM     54  C   UNL A   1      48.877  25.361  28.240  1.00  0.00     0.029 A 
ATOM     55  N   UNL A   1      48.284  26.595  29.976  1.00  0.00    -0.354 N 
ATOM     56  C   UNL A   1      43.945  27.286  30.766  1.00  0.00     0.074 A 
ATOM     57  C   UNL A   1      43.648  25.876  30.797  1.00  0.00     0.031 C 
ATOM     58  C   UNL A   1      49.932  25.371  29.083  1.00  0.00     0.029 A 
ATOM     59  C   UNL A   1      49.596  26.205  30.219  1.00  0.00     0.049 A 
ATOM     60  H   UNL A   1      47.803  27.240  30.545  1.00  0.00     0.167 HD
ATOM     61  C   UNL A   1      43.686  28.267  31.676  1.00  0.00     0.031 A 
ATOM     62  C   UNL A   1      50.361  26.540  31.283  1.00  0.00     0.031 A 
ATOM     63  C   UNL A   1      44.329  29.500  31.307  1.00  0.00     0.049 A 
ATOM     64  C   UNL A   1      49.793  27.778  31.859  1.00  0.00     0.074 A 
ATOM     65  C   UNL A   1      44.129  30.498  30.382  1.00  0.00     0.029 A 
ATOM     66  N   UNL A   1      45.622  29.605  31.756  1.00  0.00    -0.354 N 
ATOM     67  N   UNL A   1      49.729  28.905  31.204  1.00  0.00    -0.248 NA
ATOM     68  C   UNL A   1      48.960  27.703  33.052  1.00  0.00     0.031 C 
ATOM     69  C   UNL A   1      45.419  31.045  30.114  1.00  0.00     0.029 A 
ATOM     70  C   UNL A   1      46.360  30.395  30.916  1.00  0.00     0.049 A 
ATOM     71  H   UNL A   1      45.970  29.173  32.570  1.00  0.00     0.167 HD
ATOM     72  C   UNL A   1      48.561  29.496  31.646  1.00  0.00     0.074 A 
ATOM     73  C   UNL A   1      48.230  28.809  32.888  1.00  0.00     0.031 C 
ATOM     74  C   UNL A   1      47.802  30.270  30.817  1.00  0.00     0.031 A 
BRANCH  61  75
ATOM     75  C   UNL A   1      43.270  28.031  33.115  1.00  0.00    -0.014 A 
ATOM     76  C   UNL A   1      44.165  27.358  33.978  1.00  0.00     0.010 A 
ATOM     77  C   UNL A   1      41.946  28.182  33.571  1.00  0.00     0.010 A 
ATOM     78  C   UNL A   1      43.740  26.819  35.201  1.00  0.00     0.020 A 
ATOM     79  C   UNL A   1      41.520  27.681  34.805  1.00  0.00     0.020 A 
ATOM     80  C   UNL A   1      42.413  26.974  35.600  1.00  0.00     0.054 A 
BRANCH  80  81
ATOM     81  S   UNL A   1      41.847  26.195  37.133  1.00  0.00     0.124 S 
ATOM     82  O   UNL A   1      42.970  26.441  38.032  1.00  0.00    -0.237 OA
ATOM     83  O   UNL A   1      40.624  26.938  37.424  1.00  0.00    -0.237 OA
ATOM     84  O   UNL A   1      41.644  24.798  36.750  1.00  0.00    -0.744 OA
ENDBRANCH  80  81
ENDBRANCH  61  75
BRANCH  62  85
ATOM     85  C   UNL A   1      51.375  25.712  31.977  1.00  0.00    -0.014 A 
ATOM     86  C   UNL A   1      51.036  24.458  32.514  1.00  0.00     0.010 A 
ATOM     87  C   UNL A   1      52.743  26.031  31.849  1.00  0.00     0.010 A 
ATOM     88  C   UNL A   1      52.032  23.522  32.836  1.00  0.00     0.020 A 
ATOM     89  C   UNL A   1      53.740  25.104  32.172  1.00  0.00     0.020 A 
ATOM     90  C   UNL A   1      53.378  23.842  32.639  1.00  0.00     0.054 A 
BRANCH  90  91
ATOM     91  S   UNL A   1      54.642  22.554  32.864  1.00  0.00     0.124 S 
ATOM     92  O   UNL A   1      53.917  21.342  32.492  1.00  0.00    -0.237 OA
ATOM     93  O   UNL A   1      55.689  22.974  31.937  1.00  0.00    -0.237 OA
ATOM     94  O   UNL A   1      54.991  22.660  34.279  1.00  0.00    -0.744 OA
ENDBRANCH  90  91
ENDBRANCH  62  85
BRANCH  74  95
ATOM     95  C   UNL A   1      48.470  30.905  29.627  1.00  0.00    -0.014 A 
ATOM     96  C   UNL A   1      48.499  30.348  28.336  1.00  0.00     0.010 A 
ATOM     97  C   UNL A   1      48.996  32.195  29.818  1.00  0.00     0.010 A 
ATOM     98  C   UNL A   1      49.050  31.069  27.263  1.00  0.00     0.020 A 
ATOM     99  C   UNL A   1      49.528  32.923  28.753  1.00  0.00     0.020 A 
ATOM    100  C   UNL A   1      49.558  32.355  27.481  1.00  0.00     0.054 A 
BRANCH 100 101
ATOM    101  S   UNL A   1      50.215  33.311  26.084  1.00  0.00     0.124 S 
ATOM    102  O   UNL A   1      51.027  32.324  25.378  1.00  0.00    -0.237 OA
ATOM    103  O   UNL A   1      49.005  33.746  25.390  1.00  0.00    -0.237 OA
ATOM    104  O   UNL A   1      50.971  34.387  26.726  1.00  0.00    -0.744 OA
ENDBRANCH 100 101
ENDBRANCH  74  95
ENDBRANCH  48  49
ENDBRANCH  40  43
ENDBRANCH  38  39
ENDBRANCH  37  38
ENDBRANCH  36  37
ENDBRANCH  35  36
ENDBRANCH   1  35
TORSDOF 22
ENDMDL
