MODEL 1
REMARK VINA RESULT:     -10.6      0.000      0.000
REMARK SMILES Cc1cc(OCC(=O)Nc2sccc2C(=O)NCCCCCCNC(=O)c2ccc(-c3c4nc(c(-c5ccc(S(=O)(=O)[O-])cc5)c5ccc([nH]5)c(-c5ccc(S(=O)(=O)[O-])cc5)c5nc(c(-c6ccc(S(=O)(=O)[O-])cc6)c6ccc3[nH]6)C=C5)C=C4)cc2)ccc1Cl
REMARK SMILES IDX 20 1 19 2 18 3 17 4 15 5 16 6 14 8 10 9 11 10 12 11 13 12
REMARK SMILES IDX 9 13 7 14 8 15 6 17 5 18 4 19 1 20 2 21 3 22 89 23 88 24
REMARK SMILES IDX 90 25 87 26 21 27 22 28 23 29 24 30 25 31 26 33 27 34 28 35
REMARK SMILES IDX 86 36 29 37 85 38 30 39 31 40 32 41 79 42 33 43 84 44 78 45
REMARK SMILES IDX 80 46 34 47 83 48 77 49 76 50 35 52 65 53 46 54 64 55 47 56
REMARK SMILES IDX 50 57 63 58 81 59 48 60 49 61 62 63 82 64 51 65 36 66 37 67
REMARK SMILES IDX 45 68 38 69 44 70 39 71 40 72 41 73 42 74 43 75 66 76 67 77
REMARK SMILES IDX 75 78 68 79 74 80 69 81 70 82 71 83 72 84 73 85 52 86 53 87
REMARK SMILES IDX 61 88 54 89 60 90 55 91 56 92 57 93 58 94 59 95
REMARK H PARENT 17 7 9 16 24 32 80 51 50 62
REMARK Flexibility Score: inf
ROOT
ATOM      1  C   UNL A   1      31.701  25.289  26.466  1.00  0.00     0.002 C 
ENDROOT
BRANCH   1   2
ATOM      2  C   UNL A   1      30.298  24.955  25.947  1.00  0.00     0.021 C 
BRANCH   2   3
ATOM      3  C   UNL A   1      30.168  24.909  24.423  1.00  0.00     0.116 C 
BRANCH   3   4
ATOM      4  N   UNL A   1      29.058  25.697  23.926  1.00  0.00    -0.352 N 
ATOM      5  C   UNL A   1      29.020  27.005  23.518  1.00  0.00     0.254 C 
ATOM      6  O   UNL A   1      27.918  27.558  23.481  1.00  0.00    -0.269 OA
ATOM      7  H   UNL A   1      28.199  25.219  23.872  1.00  0.00     0.163 HD
BRANCH   5   8
ATOM      8  C   UNL A   1      30.235  27.777  23.274  1.00  0.00     0.074 A 
ATOM      9  C   UNL A   1      31.309  27.544  22.434  1.00  0.00     0.108 A 
ATOM     10  S   UNL A   1      32.651  28.547  22.810  1.00  0.00    -0.126 S 
ATOM     11  C   UNL A   1      31.724  29.518  23.854  1.00  0.00     0.068 A 
ATOM     12  C   UNL A   1      30.459  29.008  24.009  1.00  0.00     0.028 A 
BRANCH   9  13
ATOM     13  N   UNL A   1      31.658  26.666  21.440  1.00  0.00    -0.314 N 
ATOM     14  C   UNL A   1      32.769  25.905  21.235  1.00  0.00     0.262 C 
ATOM     15  O   UNL A   1      32.931  25.459  20.091  1.00  0.00    -0.271 OA
ATOM     16  H   UNL A   1      30.973  26.566  20.740  1.00  0.00     0.170 HD
BRANCH  14  17
ATOM     17  C   UNL A   1      33.648  25.376  22.380  1.00  0.00     0.329 C 
BRANCH  17  18
ATOM     18  O   UNL A   1      33.141  24.578  23.416  1.00  0.00    -0.484 OA
BRANCH  18  19
ATOM     19  C   UNL A   1      33.874  23.555  23.945  1.00  0.00     0.120 A 
ATOM     20  C   UNL A   1      33.939  19.831  24.787  1.00  0.00     0.046 C 
ATOM     21  C   UNL A   1      34.392  21.254  24.590  1.00  0.00    -0.029 A 
ATOM     22  C   UNL A   1      33.457  22.254  24.227  1.00  0.00     0.051 A 
ATOM     23  C   UNL A   1      35.751  21.597  24.676  1.00  0.00     0.044 A 
ATOM     24  C   UNL A   1      36.158  22.910  24.470  1.00  0.00     0.024 A 
ATOM     25  Cl  UNL A   1      36.973  20.418  24.996  1.00  0.00    -0.084 Cl
ATOM     26  C   UNL A   1      35.220  23.880  24.126  1.00  0.00     0.048 A 
ENDBRANCH  18  19
ENDBRANCH  17  18
ENDBRANCH  14  17
ENDBRANCH   9  13
ENDBRANCH   5   8
ENDBRANCH   3   4
ENDBRANCH   2   3
ENDBRANCH   1   2
BRANCH   1  27
ATOM     27  C   UNL A   1      32.115  26.759  26.364  1.00  0.00     0.002 C 
BRANCH  27  28
ATOM     28  C   UNL A   1      33.523  27.053  25.870  1.00  0.00     0.021 C 
BRANCH  28  29
ATOM     29  C   UNL A   1      34.379  27.858  26.835  1.00  0.00     0.116 C 
BRANCH  29  30
ATOM     30  N   UNL A   1      33.837  29.168  27.174  1.00  0.00    -0.352 N 
ATOM     31  C   UNL A   1      34.468  30.222  27.795  1.00  0.00     0.251 C 
ATOM     32  H   UNL A   1      32.897  29.320  26.926  1.00  0.00     0.163 HD
ATOM     33  O   UNL A   1      33.849  31.249  28.051  1.00  0.00    -0.269 OA
BRANCH  31  34
ATOM     34  C   UNL A   1      35.884  30.077  28.199  1.00  0.00     0.039 A 
ATOM     35  C   UNL A   1      36.176  29.619  29.486  1.00  0.00     0.014 A 
ATOM     36  C   UNL A   1      36.915  30.321  27.290  1.00  0.00     0.014 A 
ATOM     37  C   UNL A   1      37.498  29.323  29.825  1.00  0.00     0.010 A 
ATOM     38  C   UNL A   1      38.211  29.924  27.593  1.00  0.00     0.010 A 
ATOM     39  C   UNL A   1      38.519  29.427  28.865  1.00  0.00    -0.014 A 
BRANCH  39  40
ATOM     40  C   UNL A   1      39.912  29.021  29.179  1.00  0.00     0.031 A 
ATOM     41  C   UNL A   1      40.838  29.975  29.886  1.00  0.00     0.074 A 
ATOM     42  C   UNL A   1      40.359  27.814  28.776  1.00  0.00     0.049 A 
ATOM     43  N   UNL A   1      42.082  29.795  30.251  1.00  0.00    -0.248 NA
ATOM     44  C   UNL A   1      40.313  31.316  30.192  1.00  0.00     0.031 C 
ATOM     45  C   UNL A   1      39.583  26.834  28.011  1.00  0.00     0.029 A 
ATOM     46  N   UNL A   1      41.573  27.204  28.960  1.00  0.00    -0.354 N 
ATOM     47  C   UNL A   1      42.488  31.001  30.811  1.00  0.00     0.074 A 
ATOM     48  C   UNL A   1      41.384  31.925  30.675  1.00  0.00     0.031 C 
ATOM     49  C   UNL A   1      40.322  25.726  27.839  1.00  0.00     0.029 A 
ATOM     50  C   UNL A   1      41.630  25.926  28.453  1.00  0.00     0.049 A 
ATOM     51  H   UNL A   1      42.332  27.639  29.411  1.00  0.00     0.167 HD
ATOM     52  C   UNL A   1      43.662  31.306  31.414  1.00  0.00     0.031 A 
ATOM     53  C   UNL A   1      42.618  25.012  28.496  1.00  0.00     0.031 A 
ATOM     54  C   UNL A   1      44.748  30.376  31.568  1.00  0.00     0.049 A 
ATOM     55  C   UNL A   1      43.895  25.353  29.213  1.00  0.00     0.074 A 
ATOM     56  C   UNL A   1      45.956  30.562  32.215  1.00  0.00     0.029 A 
ATOM     57  N   UNL A   1      44.751  29.081  31.073  1.00  0.00    -0.354 N 
ATOM     58  N   UNL A   1      44.232  26.473  29.806  1.00  0.00    -0.248 NA
ATOM     59  C   UNL A   1      44.913  24.298  29.289  1.00  0.00     0.031 C 
ATOM     60  C   UNL A   1      46.706  29.388  32.080  1.00  0.00     0.029 A 
ATOM     61  C   UNL A   1      45.944  28.456  31.392  1.00  0.00     0.049 A 
ATOM     62  H   UNL A   1      44.014  28.666  30.568  1.00  0.00     0.167 HD
ATOM     63  C   UNL A   1      45.491  26.248  30.352  1.00  0.00     0.074 A 
ATOM     64  C   UNL A   1      45.846  24.881  30.029  1.00  0.00     0.031 C 
ATOM     65  C   UNL A   1      46.279  27.095  31.061  1.00  0.00     0.031 A 
BRANCH  52  66
ATOM     66  C   UNL A   1      43.816  32.702  31.956  1.00  0.00    -0.014 A 
ATOM     67  C   UNL A   1      44.343  33.736  31.159  1.00  0.00     0.010 A 
ATOM     68  C   UNL A   1      43.426  32.990  33.276  1.00  0.00     0.010 A 
ATOM     69  C   UNL A   1      44.527  35.016  31.686  1.00  0.00     0.020 A 
ATOM     70  C   UNL A   1      43.580  34.278  33.799  1.00  0.00     0.020 A 
ATOM     71  C   UNL A   1      44.150  35.277  33.007  1.00  0.00     0.054 A 
BRANCH  71  72
ATOM     72  S   UNL A   1      44.396  36.948  33.667  1.00  0.00     0.124 S 
ATOM     73  O   UNL A   1      45.803  36.912  34.059  1.00  0.00    -0.237 OA
ATOM     74  O   UNL A   1      44.086  37.796  32.520  1.00  0.00    -0.237 OA
ATOM     75  O   UNL A   1      43.444  37.027  34.772  1.00  0.00    -0.744 OA
ENDBRANCH  71  72
ENDBRANCH  52  66
BRANCH  53  76
ATOM     76  C   UNL A   1      42.409  23.666  27.896  1.00  0.00    -0.014 A 
ATOM     77  C   UNL A   1      42.879  23.385  26.600  1.00  0.00     0.010 A 
ATOM     78  C   UNL A   1      41.766  22.649  28.625  1.00  0.00     0.010 A 
ATOM     79  C   UNL A   1      42.695  22.119  26.037  1.00  0.00     0.020 A 
ATOM     80  C   UNL A   1      41.602  21.374  28.074  1.00  0.00     0.020 A 
ATOM     81  C   UNL A   1      42.059  21.120  26.779  1.00  0.00     0.054 A 
BRANCH  81  82
ATOM     82  S   UNL A   1      41.883  19.467  26.052  1.00  0.00     0.124 S 
ATOM     83  O   UNL A   1      42.367  18.609  27.129  1.00  0.00    -0.237 OA
ATOM     84  O   UNL A   1      40.450  19.392  25.778  1.00  0.00    -0.237 OA
ATOM     85  O   UNL A   1      42.733  19.523  24.865  1.00  0.00    -0.744 OA
ENDBRANCH  81  82
ENDBRANCH  53  76
BRANCH  65  86
ATOM     86  C   UNL A   1      47.586  26.552  31.569  1.00  0.00    -0.014 A 
ATOM     87  C   UNL A   1      47.684  25.940  32.830  1.00  0.00     0.010 A 
ATOM     88  C   UNL A   1      48.727  26.623  30.748  1.00  0.00     0.010 A 
ATOM     89  C   UNL A   1      48.910  25.445  33.279  1.00  0.00     0.020 A 
ATOM     90  C   UNL A   1      49.949  26.104  31.183  1.00  0.00     0.020 A 
ATOM     91  C   UNL A   1      50.036  25.534  32.455  1.00  0.00     0.054 A 
BRANCH  91  92
ATOM     92  S   UNL A   1      51.612  24.861  33.048  1.00  0.00     0.124 S 
ATOM     93  O   UNL A   1      51.685  23.589  32.335  1.00  0.00    -0.237 OA
ATOM     94  O   UNL A   1      52.575  25.875  32.624  1.00  0.00    -0.237 OA
ATOM     95  O   UNL A   1      51.423  24.758  34.492  1.00  0.00    -0.744 OA
ENDBRANCH  91  92
ENDBRANCH  65  86
ENDBRANCH  39  40
ENDBRANCH  31  34
ENDBRANCH  29  30
ENDBRANCH  28  29
ENDBRANCH  27  28
ENDBRANCH   1  27
TORSDOF 20
ENDMDL
MODEL 2
REMARK VINA RESULT:     -10.5      4.231      5.959
REMARK SMILES Cc1cc(OCC(=O)Nc2sccc2C(=O)NCCCCCCNC(=O)c2ccc(-c3c4nc(c(-c5ccc(S(=O)(=O)[O-])cc5)c5ccc([nH]5)c(-c5ccc(S(=O)(=O)[O-])cc5)c5nc(c(-c6ccc(S(=O)(=O)[O-])cc6)c6ccc3[nH]6)C=C5)C=C4)cc2)ccc1Cl
REMARK SMILES IDX 20 1 19 2 18 3 17 4 15 5 16 6 14 8 10 9 11 10 12 11 13 12
REMARK SMILES IDX 9 13 7 14 8 15 6 17 5 18 4 19 1 20 2 21 3 22 89 23 88 24
REMARK SMILES IDX 90 25 87 26 21 27 22 28 23 29 24 30 25 31 26 33 27 34 28 35
REMARK SMILES IDX 86 36 29 37 85 38 30 39 31 40 32 41 79 42 33 43 84 44 78 45
REMARK SMILES IDX 80 46 34 47 83 48 77 49 76 50 35 52 65 53 46 54 64 55 47 56
REMARK SMILES IDX 50 57 63 58 81 59 48 60 49 61 62 63 82 64 51 65 36 66 37 67
REMARK SMILES IDX 45 68 38 69 44 70 39 71 40 72 41 73 42 74 43 75 66 76 67 77
REMARK SMILES IDX 75 78 68 79 74 80 69 81 70 82 71 83 72 84 73 85 52 86 53 87
REMARK SMILES IDX 61 88 54 89 60 90 55 91 56 92 57 93 58 94 59 95
REMARK H PARENT 17 7 9 16 24 32 80 51 50 62
REMARK Flexibility Score: inf
ROOT
ATOM      1  C   UNL A   1      31.510  28.768  25.713  1.00  0.00     0.002 C 
ENDROOT
BRANCH   1   2
ATOM      2  C   UNL A   1      32.440  27.555  25.594  1.00  0.00     0.021 C 
BRANCH   2   3
ATOM      3  C   UNL A   1      32.427  26.613  26.800  1.00  0.00     0.116 C 
BRANCH   3   4
ATOM      4  N   UNL A   1      31.357  25.638  26.744  1.00  0.00    -0.352 N 
ATOM      5  C   UNL A   1      31.411  24.279  26.570  1.00  0.00     0.254 C 
ATOM      6  O   UNL A   1      30.381  23.711  26.198  1.00  0.00    -0.269 OA
ATOM      7  H   UNL A   1      30.451  26.007  26.849  1.00  0.00     0.163 HD
BRANCH   5   8
ATOM      8  C   UNL A   1      32.663  23.535  26.670  1.00  0.00     0.074 A 
ATOM      9  C   UNL A   1      33.783  23.521  25.858  1.00  0.00     0.108 A 
ATOM     10  S   UNL A   1      34.811  22.188  26.200  1.00  0.00    -0.126 S 
ATOM     11  C   UNL A   1      33.967  21.811  27.628  1.00  0.00     0.068 A 
ATOM     12  C   UNL A   1      32.854  22.603  27.767  1.00  0.00     0.028 A 
BRANCH   9  13
ATOM     13  N   UNL A   1      34.271  24.210  24.778  1.00  0.00    -0.314 N 
ATOM     14  C   UNL A   1      33.754  24.468  23.544  1.00  0.00     0.262 C 
ATOM     15  O   UNL A   1      34.555  24.840  22.675  1.00  0.00    -0.271 OA
ATOM     16  H   UNL A   1      35.167  24.591  24.921  1.00  0.00     0.170 HD
BRANCH  14  17
ATOM     17  C   UNL A   1      32.245  24.577  23.271  1.00  0.00     0.329 C 
BRANCH  17  18
ATOM     18  O   UNL A   1      31.708  25.458  22.322  1.00  0.00    -0.484 OA
BRANCH  18  19
ATOM     19  C   UNL A   1      30.786  26.402  22.674  1.00  0.00     0.120 A 
ATOM     20  C   UNL A   1      29.502  29.942  22.047  1.00  0.00     0.046 C 
ATOM     21  C   UNL A   1      29.595  28.534  22.574  1.00  0.00    -0.029 A 
ATOM     22  C   UNL A   1      30.727  27.738  22.277  1.00  0.00     0.051 A 
ATOM     23  C   UNL A   1      28.531  27.961  23.289  1.00  0.00     0.044 A 
ATOM     24  C   UNL A   1      28.621  26.653  23.751  1.00  0.00     0.024 A 
ATOM     25  Cl  UNL A   1      27.064  28.821  23.592  1.00  0.00    -0.084 Cl
ATOM     26  C   UNL A   1      29.750  25.891  23.458  1.00  0.00     0.048 A 
ENDBRANCH  18  19
ENDBRANCH  17  18
ENDBRANCH  14  17
ENDBRANCH   9  13
ENDBRANCH   5   8
ENDBRANCH   3   4
ENDBRANCH   2   3
ENDBRANCH   1   2
BRANCH   1  27
ATOM     27  C   UNL A   1      32.203  30.122  25.878  1.00  0.00     0.002 C 
BRANCH  27  28
ATOM     28  C   UNL A   1      32.680  30.495  27.274  1.00  0.00     0.021 C 
BRANCH  28  29
ATOM     29  C   UNL A   1      33.678  31.640  27.318  1.00  0.00     0.116 C 
BRANCH  29  30
ATOM     30  N   UNL A   1      33.093  32.940  27.621  1.00  0.00    -0.352 N 
ATOM     31  C   UNL A   1      33.489  33.860  28.565  1.00  0.00     0.251 C 
ATOM     32  H   UNL A   1      32.313  33.195  27.078  1.00  0.00     0.163 HD
ATOM     33  O   UNL A   1      32.852  34.895  28.725  1.00  0.00    -0.269 OA
BRANCH  31  34
ATOM     34  C   UNL A   1      34.655  33.555  29.423  1.00  0.00     0.039 A 
ATOM     35  C   UNL A   1      34.480  32.726  30.533  1.00  0.00     0.014 A 
ATOM     36  C   UNL A   1      35.928  34.025  29.092  1.00  0.00     0.014 A 
ATOM     37  C   UNL A   1      35.597  32.299  31.255  1.00  0.00     0.010 A 
ATOM     38  C   UNL A   1      37.043  33.514  29.742  1.00  0.00     0.010 A 
ATOM     39  C   UNL A   1      36.891  32.651  30.834  1.00  0.00    -0.014 A 
BRANCH  39  40
ATOM     40  C   UNL A   1      38.093  32.125  31.529  1.00  0.00     0.031 A 
ATOM     41  C   UNL A   1      38.490  32.671  32.875  1.00  0.00     0.074 A 
ATOM     42  C   UNL A   1      38.858  31.196  30.921  1.00  0.00     0.049 A 
ATOM     43  N   UNL A   1      39.499  32.330  33.636  1.00  0.00    -0.248 NA
ATOM     44  C   UNL A   1      37.670  33.764  33.423  1.00  0.00     0.031 C 
ATOM     45  C   UNL A   1      38.625  30.647  29.582  1.00  0.00     0.029 A 
ATOM     46  N   UNL A   1      39.985  30.543  31.353  1.00  0.00    -0.354 N 
ATOM     47  C   UNL A   1      39.442  33.177  34.737  1.00  0.00     0.074 A 
ATOM     48  C   UNL A   1      38.344  34.090  34.514  1.00  0.00     0.031 C 
ATOM     49  C   UNL A   1      39.545  29.704  29.326  1.00  0.00     0.029 A 
ATOM     50  C   UNL A   1      40.451  29.601  30.466  1.00  0.00     0.049 A 
ATOM     51  H   UNL A   1      40.419  30.731  32.217  1.00  0.00     0.167 HD
ATOM     52  C   UNL A   1      40.213  33.175  35.851  1.00  0.00     0.031 A 
ATOM     53  C   UNL A   1      41.479  28.737  30.567  1.00  0.00     0.031 A 
ATOM     54  C   UNL A   1      41.288  32.248  36.079  1.00  0.00     0.049 A 
ATOM     55  C   UNL A   1      42.291  28.718  31.832  1.00  0.00     0.074 A 
ATOM     56  C   UNL A   1      42.093  32.120  37.197  1.00  0.00     0.029 A 
ATOM     57  N   UNL A   1      41.705  31.286  35.172  1.00  0.00    -0.354 N 
ATOM     58  N   UNL A   1      42.174  29.474  32.898  1.00  0.00    -0.248 NA
ATOM     59  C   UNL A   1      43.358  27.712  31.919  1.00  0.00     0.031 C 
ATOM     60  C   UNL A   1      43.020  31.101  36.950  1.00  0.00     0.029 A 
ATOM     61  C   UNL A   1      42.760  30.564  35.699  1.00  0.00     0.049 A 
ATOM     62  H   UNL A   1      41.308  31.138  34.282  1.00  0.00     0.167 HD
ATOM     63  C   UNL A   1      43.132  29.016  33.795  1.00  0.00     0.074 A 
ATOM     64  C   UNL A   1      43.810  27.909  33.150  1.00  0.00     0.031 C 
ATOM     65  C   UNL A   1      43.421  29.466  35.041  1.00  0.00     0.031 A 
BRANCH  52  66
ATOM     66  C   UNL A   1      39.904  34.206  36.905  1.00  0.00    -0.014 A 
ATOM     67  C   UNL A   1      40.341  35.537  36.768  1.00  0.00     0.010 A 
ATOM     68  C   UNL A   1      39.163  33.845  38.044  1.00  0.00     0.010 A 
ATOM     69  C   UNL A   1      40.091  36.474  37.773  1.00  0.00     0.020 A 
ATOM     70  C   UNL A   1      38.884  34.787  39.039  1.00  0.00     0.020 A 
ATOM     71  C   UNL A   1      39.369  36.090  38.907  1.00  0.00     0.054 A 
BRANCH  71  72
ATOM     72  S   UNL A   1      39.054  37.325  40.196  1.00  0.00     0.124 S 
ATOM     73  O   UNL A   1      38.386  36.527  41.220  1.00  0.00    -0.237 OA
ATOM     74  O   UNL A   1      40.398  37.785  40.537  1.00  0.00    -0.237 OA
ATOM     75  O   UNL A   1      38.212  38.315  39.530  1.00  0.00    -0.744 OA
ENDBRANCH  71  72
ENDBRANCH  52  66
BRANCH  53  76
ATOM     76  C   UNL A   1      41.753  27.778  29.463  1.00  0.00    -0.014 A 
ATOM     77  C   UNL A   1      40.883  26.698  29.228  1.00  0.00     0.010 A 
ATOM     78  C   UNL A   1      42.868  27.952  28.623  1.00  0.00     0.010 A 
ATOM     79  C   UNL A   1      41.130  25.801  28.185  1.00  0.00     0.020 A 
ATOM     80  C   UNL A   1      43.105  27.071  27.563  1.00  0.00     0.020 A 
ATOM     81  C   UNL A   1      42.240  25.995  27.357  1.00  0.00     0.054 A 
BRANCH  81  82
ATOM     82  S   UNL A   1      42.510  24.853  25.973  1.00  0.00     0.124 S 
ATOM     83  O   UNL A   1      42.156  25.680  24.824  1.00  0.00    -0.237 OA
ATOM     84  O   UNL A   1      43.927  24.525  26.104  1.00  0.00    -0.237 OA
ATOM     85  O   UNL A   1      41.595  23.749  26.256  1.00  0.00    -0.744 OA
ENDBRANCH  81  82
ENDBRANCH  53  76
BRANCH  65  86
ATOM     86  C   UNL A   1      44.492  28.736  35.803  1.00  0.00    -0.014 A 
ATOM     87  C   UNL A   1      45.839  29.132  35.734  1.00  0.00     0.010 A 
ATOM     88  C   UNL A   1      44.134  27.658  36.635  1.00  0.00     0.010 A 
ATOM     89  C   UNL A   1      46.816  28.437  36.451  1.00  0.00     0.020 A 
ATOM     90  C   UNL A   1      45.104  26.978  37.374  1.00  0.00     0.020 A 
ATOM     91  C   UNL A   1      46.442  27.361  37.263  1.00  0.00     0.054 A 
BRANCH  91  92
ATOM     92  S   UNL A   1      47.723  26.489  38.205  1.00  0.00     0.124 S 
ATOM     93  O   UNL A   1      47.055  26.261  39.484  1.00  0.00    -0.237 OA
ATOM     94  O   UNL A   1      47.959  25.294  37.399  1.00  0.00    -0.237 OA
ATOM     95  O   UNL A   1      48.833  27.437  38.240  1.00  0.00    -0.744 OA
ENDBRANCH  91  92
ENDBRANCH  65  86
ENDBRANCH  39  40
ENDBRANCH  31  34
ENDBRANCH  29  30
ENDBRANCH  28  29
ENDBRANCH  27  28
ENDBRANCH   1  27
TORSDOF 20
ENDMDL
MODEL 3
REMARK VINA RESULT:     -10.4      4.416     10.316
REMARK SMILES Cc1cc(OCC(=O)Nc2sccc2C(=O)NCCCCCCNC(=O)c2ccc(-c3c4nc(c(-c5ccc(S(=O)(=O)[O-])cc5)c5ccc([nH]5)c(-c5ccc(S(=O)(=O)[O-])cc5)c5nc(c(-c6ccc(S(=O)(=O)[O-])cc6)c6ccc3[nH]6)C=C5)C=C4)cc2)ccc1Cl
REMARK SMILES IDX 20 1 19 2 18 3 17 4 15 5 16 6 14 8 10 9 11 10 12 11 13 12
REMARK SMILES IDX 9 13 7 14 8 15 6 17 5 18 4 19 1 20 2 21 3 22 89 23 88 24
REMARK SMILES IDX 90 25 87 26 21 27 22 28 23 29 24 30 25 31 26 33 27 34 28 35
REMARK SMILES IDX 86 36 29 37 85 38 30 39 31 40 32 41 79 42 33 43 84 44 78 45
REMARK SMILES IDX 80 46 34 47 83 48 77 49 76 50 35 52 65 53 46 54 64 55 47 56
REMARK SMILES IDX 50 57 63 58 81 59 48 60 49 61 62 63 82 64 51 65 36 66 37 67
REMARK SMILES IDX 45 68 38 69 44 70 39 71 40 72 41 73 42 74 43 75 66 76 67 77
REMARK SMILES IDX 75 78 68 79 74 80 69 81 70 82 71 83 72 84 73 85 52 86 53 87
REMARK SMILES IDX 61 88 54 89 60 90 55 91 56 92 57 93 58 94 59 95
REMARK H PARENT 17 7 9 16 24 32 80 51 50 62
REMARK Flexibility Score: inf
ROOT
ATOM      1  C   UNL A   1      39.682  21.498  26.090  1.00  0.00     0.002 C 
ENDROOT
BRANCH   1   2
ATOM      2  C   UNL A   1      38.206  21.638  25.701  1.00  0.00     0.021 C 
BRANCH   2   3
ATOM      3  C   UNL A   1      37.697  23.079  25.610  1.00  0.00     0.116 C 
BRANCH   3   4
ATOM      4  N   UNL A   1      37.117  23.393  24.321  1.00  0.00    -0.352 N 
ATOM      5  C   UNL A   1      35.860  23.140  23.835  1.00  0.00     0.254 C 
ATOM      6  O   UNL A   1      35.706  23.170  22.612  1.00  0.00    -0.269 OA
ATOM      7  H   UNL A   1      37.717  23.861  23.697  1.00  0.00     0.163 HD
BRANCH   5   8
ATOM      8  C   UNL A   1      34.768  22.706  24.701  1.00  0.00     0.074 A 
ATOM      9  C   UNL A   1      34.023  23.393  25.642  1.00  0.00     0.108 A 
ATOM     10  S   UNL A   1      33.132  22.334  26.659  1.00  0.00    -0.126 S 
ATOM     11  C   UNL A   1      33.455  20.992  25.665  1.00  0.00     0.068 A 
ATOM     12  C   UNL A   1      34.328  21.324  24.658  1.00  0.00     0.028 A 
BRANCH   9  13
ATOM     13  N   UNL A   1      33.863  24.685  26.074  1.00  0.00    -0.314 N 
ATOM     14  C   UNL A   1      33.801  25.874  25.411  1.00  0.00     0.262 C 
ATOM     15  O   UNL A   1      33.972  26.895  26.090  1.00  0.00    -0.271 OA
ATOM     16  H   UNL A   1      33.775  24.770  27.050  1.00  0.00     0.170 HD
BRANCH  14  17
ATOM     17  C   UNL A   1      33.281  26.006  23.971  1.00  0.00     0.329 C 
BRANCH  17  18
ATOM     18  O   UNL A   1      32.927  27.239  23.404  1.00  0.00    -0.484 OA
BRANCH  18  19
ATOM     19  C   UNL A   1      31.620  27.571  23.189  1.00  0.00     0.120 A 
ATOM     20  C   UNL A   1      27.980  26.660  23.891  1.00  0.00     0.046 C 
ATOM     21  C   UNL A   1      29.191  27.419  23.416  1.00  0.00    -0.029 A 
ATOM     22  C   UNL A   1      30.480  26.845  23.532  1.00  0.00     0.051 A 
ATOM     23  C   UNL A   1      29.075  28.733  22.935  1.00  0.00     0.044 A 
ATOM     24  C   UNL A   1      30.204  29.430  22.520  1.00  0.00     0.024 A 
ATOM     25  Cl  UNL A   1      27.555  29.553  22.871  1.00  0.00    -0.084 Cl
ATOM     26  C   UNL A   1      31.461  28.842  22.631  1.00  0.00     0.048 A 
ENDBRANCH  18  19
ENDBRANCH  17  18
ENDBRANCH  14  17
ENDBRANCH   9  13
ENDBRANCH   5   8
ENDBRANCH   3   4
ENDBRANCH   2   3
ENDBRANCH   1   2
BRANCH   1  27
ATOM     27  C   UNL A   1      40.264  22.649  26.913  1.00  0.00     0.002 C 
BRANCH  27  28
ATOM     28  C   UNL A   1      41.646  22.444  27.517  1.00  0.00     0.021 C 
BRANCH  28  29
ATOM     29  C   UNL A   1      42.669  23.500  27.131  1.00  0.00     0.116 C 
BRANCH  29  30
ATOM     30  N   UNL A   1      42.273  24.343  26.010  1.00  0.00    -0.352 N 
ATOM     31  C   UNL A   1      41.820  25.643  26.032  1.00  0.00     0.251 C 
ATOM     32  H   UNL A   1      42.338  23.930  25.119  1.00  0.00     0.163 HD
ATOM     33  O   UNL A   1      41.481  26.197  24.993  1.00  0.00    -0.269 OA
BRANCH  31  34
ATOM     34  C   UNL A   1      41.694  26.339  27.331  1.00  0.00     0.039 A 
ATOM     35  C   UNL A   1      42.613  27.340  27.654  1.00  0.00     0.014 A 
ATOM     36  C   UNL A   1      40.631  26.058  28.192  1.00  0.00     0.014 A 
ATOM     37  C   UNL A   1      42.411  28.114  28.798  1.00  0.00     0.010 A 
ATOM     38  C   UNL A   1      40.372  26.898  29.267  1.00  0.00     0.010 A 
ATOM     39  C   UNL A   1      41.262  27.931  29.587  1.00  0.00    -0.014 A 
BRANCH  39  40
ATOM     40  C   UNL A   1      40.980  28.812  30.748  1.00  0.00     0.031 A 
ATOM     41  C   UNL A   1      41.801  28.695  32.005  1.00  0.00     0.074 A 
ATOM     42  C   UNL A   1      39.947  29.677  30.691  1.00  0.00     0.049 A 
ATOM     43  N   UNL A   1      41.709  29.382  33.115  1.00  0.00    -0.248 NA
ATOM     44  C   UNL A   1      42.837  27.648  32.033  1.00  0.00     0.031 C 
ATOM     45  C   UNL A   1      39.026  29.826  29.561  1.00  0.00     0.029 A 
ATOM     46  N   UNL A   1      39.502  30.600  31.603  1.00  0.00    -0.354 N 
ATOM     47  C   UNL A   1      42.659  28.840  33.973  1.00  0.00     0.074 A 
ATOM     48  C   UNL A   1      43.268  27.725  33.283  1.00  0.00     0.031 C 
ATOM     49  C   UNL A   1      38.162  30.819  29.825  1.00  0.00     0.029 A 
ATOM     50  C   UNL A   1      38.446  31.356  31.151  1.00  0.00     0.049 A 
ATOM     51  H   UNL A   1      39.901  30.710  32.496  1.00  0.00     0.167 HD
ATOM     52  C   UNL A   1      43.018  29.251  35.213  1.00  0.00     0.031 A 
ATOM     53  C   UNL A   1      37.793  32.381  31.732  1.00  0.00     0.031 A 
ATOM     54  C   UNL A   1      42.426  30.375  35.886  1.00  0.00     0.049 A 
ATOM     55  C   UNL A   1      38.239  32.854  33.088  1.00  0.00     0.074 A 
ATOM     56  C   UNL A   1      42.755  30.914  37.116  1.00  0.00     0.029 A 
ATOM     57  N   UNL A   1      41.385  31.137  35.379  1.00  0.00    -0.354 N 
ATOM     58  N   UNL A   1      39.193  32.378  33.853  1.00  0.00    -0.248 NA
ATOM     59  C   UNL A   1      37.538  34.017  33.647  1.00  0.00     0.031 C 
ATOM     60  C   UNL A   1      41.887  31.982  37.369  1.00  0.00     0.029 A 
ATOM     61  C   UNL A   1      41.052  32.138  36.274  1.00  0.00     0.049 A 
ATOM     62  H   UNL A   1      40.946  30.989  34.509  1.00  0.00     0.167 HD
ATOM     63  C   UNL A   1      39.227  33.203  34.971  1.00  0.00     0.074 A 
ATOM     64  C   UNL A   1      38.207  34.213  34.775  1.00  0.00     0.031 C 
ATOM     65  C   UNL A   1      40.033  33.134  36.060  1.00  0.00     0.031 A 
BRANCH  52  66
ATOM     66  C   UNL A   1      44.108  28.478  35.907  1.00  0.00    -0.014 A 
ATOM     67  C   UNL A   1      43.807  27.368  36.718  1.00  0.00     0.010 A 
ATOM     68  C   UNL A   1      45.452  28.859  35.744  1.00  0.00     0.010 A 
ATOM     69  C   UNL A   1      44.821  26.688  37.396  1.00  0.00     0.020 A 
ATOM     70  C   UNL A   1      46.474  28.162  36.396  1.00  0.00     0.020 A 
ATOM     71  C   UNL A   1      46.149  27.094  37.236  1.00  0.00     0.054 A 
BRANCH  71  72
ATOM     72  S   UNL A   1      47.447  26.193  38.124  1.00  0.00     0.124 S 
ATOM     73  O   UNL A   1      48.637  26.969  37.785  1.00  0.00    -0.237 OA
ATOM     74  O   UNL A   1      47.012  26.287  39.515  1.00  0.00    -0.237 OA
ATOM     75  O   UNL A   1      47.393  24.851  37.548  1.00  0.00    -0.744 OA
ENDBRANCH  71  72
ENDBRANCH  52  66
BRANCH  53  76
ATOM     76  C   UNL A   1      36.692  33.068  31.002  1.00  0.00    -0.014 A 
ATOM     77  C   UNL A   1      36.963  33.796  29.830  1.00  0.00     0.010 A 
ATOM     78  C   UNL A   1      35.364  32.974  31.458  1.00  0.00     0.010 A 
ATOM     79  C   UNL A   1      35.930  34.433  29.136  1.00  0.00     0.020 A 
ATOM     80  C   UNL A   1      34.326  33.589  30.751  1.00  0.00     0.020 A 
ATOM     81  C   UNL A   1      34.617  34.323  29.600  1.00  0.00     0.054 A 
BRANCH  81  82
ATOM     82  S   UNL A   1      33.284  35.108  28.651  1.00  0.00     0.124 S 
ATOM     83  O   UNL A   1      32.769  33.989  27.868  1.00  0.00    -0.237 OA
ATOM     84  O   UNL A   1      32.399  35.607  29.700  1.00  0.00    -0.237 OA
ATOM     85  O   UNL A   1      33.974  36.144  27.885  1.00  0.00    -0.744 OA
ENDBRANCH  81  82
ENDBRANCH  53  76
BRANCH  65  86
ATOM     86  C   UNL A   1      39.869  34.203  37.105  1.00  0.00    -0.014 A 
ATOM     87  C   UNL A   1      39.102  33.985  38.262  1.00  0.00     0.010 A 
ATOM     88  C   UNL A   1      40.530  35.435  36.939  1.00  0.00     0.010 A 
ATOM     89  C   UNL A   1      38.964  34.995  39.217  1.00  0.00     0.020 A 
ATOM     90  C   UNL A   1      40.416  36.437  37.906  1.00  0.00     0.020 A 
ATOM     91  C   UNL A   1      39.618  36.216  39.030  1.00  0.00     0.054 A 
BRANCH  91  92
ATOM     92  S   UNL A   1      39.447  37.504  40.296  1.00  0.00     0.124 S 
ATOM     93  O   UNL A   1      38.757  36.788  41.365  1.00  0.00    -0.237 OA
ATOM     94  O   UNL A   1      40.834  37.866  40.577  1.00  0.00    -0.237 OA
ATOM     95  O   UNL A   1      38.663  38.541  39.630  1.00  0.00    -0.744 OA
ENDBRANCH  91  92
ENDBRANCH  65  86
ENDBRANCH  39  40
ENDBRANCH  31  34
ENDBRANCH  29  30
ENDBRANCH  28  29
ENDBRANCH  27  28
ENDBRANCH   1  27
TORSDOF 20
ENDMDL
