MODEL 1
REMARK VINA RESULT:     -11.8      0.000      0.000
REMARK SMILES CC(C)C[C@H](C(=O)NCCCCCCNC(=O)c1ccc(-c2c3nc(c(-c4ccc(S(=O)(=O)[O-])cc4)c4ccc([nH]4)c(-c4ccc(S(=O)(=O)[O-])cc4)c4nc(c(-c5ccc(S(=O)(=O)[O-])cc5)c5ccc2[nH]5)C=C4)C=C3)cc1)N1C(=O)/C(=C2\C(=O)Nc3ccc(Br)cc32)SC1=S
REMARK SMILES IDX 12 1 11 2 10 3 9 4 8 5 6 6 7 7 5 9 4 10 2 11 1 12 3 13 78 14
REMARK SMILES IDX 79 15 94 16 80 17 81 18 93 19 95 20 82 21 83 22 92 23 84 24
REMARK SMILES IDX 85 25 86 26 91 27 87 29 89 30 88 31 90 32 13 33 14 34 15 35
REMARK SMILES IDX 16 36 17 38 18 39 19 40 77 41 20 42 76 43 21 44 22 45 23 46
REMARK SMILES IDX 70 47 24 48 75 49 69 50 71 51 25 52 74 53 68 54 67 55 26 57
REMARK SMILES IDX 56 58 37 59 55 60 38 61 41 62 54 63 72 64 39 65 40 66 53 68
REMARK SMILES IDX 73 69 42 70 27 71 28 72 36 73 29 74 35 75 30 76 31 77 32 78
REMARK SMILES IDX 33 79 34 80 57 81 58 82 66 83 59 84 65 85 60 86 61 87 62 88
REMARK SMILES IDX 63 89 64 90 43 91 44 92 52 93 45 94 51 95 46 96 47 97 48 98
REMARK SMILES IDX 49 99 50 100
REMARK H PARENT 8 8 85 28 15 37 71 56 41 67
REMARK Flexibility Score: inf
ROOT
ATOM      1  C   UNL A   1      38.358  23.241  26.720  1.00  0.00     0.002 C 
ENDROOT
BRANCH   1   2
ATOM      2  C   UNL A   1      37.821  23.862  25.426  1.00  0.00     0.002 C 
BRANCH   2   3
ATOM      3  C   UNL A   1      36.317  23.687  25.151  1.00  0.00     0.021 C 
BRANCH   3   4
ATOM      4  C   UNL A   1      35.937  22.671  24.068  1.00  0.00     0.116 C 
BRANCH   4   5
ATOM      5  N   UNL A   1      36.072  21.306  24.536  1.00  0.00    -0.354 N 
ATOM      6  C   UNL A   1      35.167  20.307  24.691  1.00  0.00     0.243 C 
ATOM      7  O   UNL A   1      35.594  19.239  25.147  1.00  0.00    -0.273 OA
ATOM      8  H   UNL A   1      36.989  21.059  24.790  1.00  0.00     0.163 HD
BRANCH   6   9
ATOM      9  C   UNL A   1      33.650  20.478  24.456  1.00  0.00     0.181 C 
BRANCH   9  10
ATOM     10  C   UNL A   1      33.020  19.097  24.817  1.00  0.00     0.038 C 
BRANCH  10  11
ATOM     11  C   UNL A   1      32.559  18.203  23.638  1.00  0.00    -0.015 C 
ATOM     12  C   UNL A   1      32.293  18.980  22.347  1.00  0.00     0.007 C 
ATOM     13  C   UNL A   1      33.621  17.129  23.372  1.00  0.00     0.007 C 
ENDBRANCH  10  11
ENDBRANCH   9  10
BRANCH   9  14
ATOM     14  N   UNL A   1      32.971  21.703  24.974  1.00  0.00    -0.280 N 
ATOM     15  C   UNL A   1      32.470  22.622  24.059  1.00  0.00     0.267 C 
ATOM     16  C   UNL A   1      33.160  22.244  26.237  1.00  0.00     0.149 C 
ATOM     17  O   UNL A   1      31.802  22.369  23.068  1.00  0.00    -0.268 OA
ATOM     18  C   UNL A   1      32.658  24.016  24.556  1.00  0.00     0.093 C 
ATOM     19  S   UNL A   1      32.624  23.928  26.268  1.00  0.00    -0.053 SA
ATOM     20  S   UNL A   1      33.806  21.575  27.620  1.00  0.00    -0.052 S 
ATOM     21  C   UNL A   1      32.904  25.102  23.807  1.00  0.00     0.069 C 
ATOM     22  C   UNL A   1      33.199  25.017  22.327  1.00  0.00     0.257 C 
ATOM     23  C   UNL A   1      33.008  26.533  24.165  1.00  0.00     0.013 A 
ATOM     24  O   UNL A   1      33.457  24.036  21.660  1.00  0.00    -0.269 OA
ATOM     25  N   UNL A   1      33.290  26.328  21.896  1.00  0.00    -0.321 N 
ATOM     26  C   UNL A   1      33.192  27.219  22.955  1.00  0.00     0.049 A 
ATOM     27  C   UNL A   1      32.960  27.250  25.348  1.00  0.00     0.026 A 
ATOM     28  H   UNL A   1      33.409  26.595  20.956  1.00  0.00     0.170 HD
ATOM     29  C   UNL A   1      33.302  28.594  22.870  1.00  0.00     0.028 A 
ATOM     30  C   UNL A   1      33.081  28.646  25.285  1.00  0.00     0.018 A 
ATOM     31  C   UNL A   1      33.239  29.317  24.061  1.00  0.00     0.018 A 
ATOM     32  Br  UNL A   1      33.042  29.655  26.887  1.00  0.00    -0.051 Br
ENDBRANCH   9  14
ENDBRANCH   6   9
ENDBRANCH   4   5
ENDBRANCH   3   4
ENDBRANCH   2   3
ENDBRANCH   1   2
BRANCH   1  33
ATOM     33  C   UNL A   1      39.682  22.487  26.601  1.00  0.00     0.021 C 
BRANCH  33  34
ATOM     34  C   UNL A   1      40.935  23.287  26.945  1.00  0.00     0.116 C 
BRANCH  34  35
ATOM     35  N   UNL A   1      41.312  24.243  25.914  1.00  0.00    -0.352 N 
ATOM     36  C   UNL A   1      41.482  25.606  26.017  1.00  0.00     0.251 C 
ATOM     37  H   UNL A   1      41.466  23.863  25.019  1.00  0.00     0.163 HD
ATOM     38  O   UNL A   1      41.698  26.278  25.012  1.00  0.00    -0.269 OA
BRANCH  36  39
ATOM     39  C   UNL A   1      41.370  26.266  27.338  1.00  0.00     0.039 A 
ATOM     40  C   UNL A   1      42.395  27.117  27.763  1.00  0.00     0.014 A 
ATOM     41  C   UNL A   1      40.249  26.064  28.146  1.00  0.00     0.014 A 
ATOM     42  C   UNL A   1      42.258  27.830  28.958  1.00  0.00     0.010 A 
ATOM     43  C   UNL A   1      40.084  26.823  29.302  1.00  0.00     0.010 A 
ATOM     44  C   UNL A   1      41.082  27.720  29.716  1.00  0.00    -0.014 A 
BRANCH  44  45
ATOM     45  C   UNL A   1      40.851  28.537  30.937  1.00  0.00     0.031 A 
ATOM     46  C   UNL A   1      39.775  29.587  30.945  1.00  0.00     0.074 A 
ATOM     47  C   UNL A   1      41.685  28.423  31.989  1.00  0.00     0.049 A 
ATOM     48  N   UNL A   1      39.526  30.507  31.840  1.00  0.00    -0.248 NA
ATOM     49  C   UNL A   1      38.884  29.625  29.775  1.00  0.00     0.031 C 
ATOM     50  C   UNL A   1      42.794  27.472  32.092  1.00  0.00     0.029 A 
ATOM     51  N   UNL A   1      41.749  29.136  33.161  1.00  0.00    -0.354 N 
ATOM     52  C   UNL A   1      38.476  31.258  31.326  1.00  0.00     0.074 A 
ATOM     53  C   UNL A   1      38.158  30.703  30.027  1.00  0.00     0.031 C 
ATOM     54  C   UNL A   1      43.430  27.665  33.258  1.00  0.00     0.029 A 
ATOM     55  C   UNL A   1      42.805  28.779  33.966  1.00  0.00     0.049 A 
ATOM     56  H   UNL A   1      41.101  29.838  33.402  1.00  0.00     0.167 HD
ATOM     57  C   UNL A   1      37.829  32.310  31.885  1.00  0.00     0.031 A 
ATOM     58  C   UNL A   1      43.241  29.301  35.129  1.00  0.00     0.031 A 
ATOM     59  C   UNL A   1      38.139  32.850  33.181  1.00  0.00     0.049 A 
ATOM     60  C   UNL A   1      42.505  30.458  35.744  1.00  0.00     0.074 A 
ATOM     61  C   UNL A   1      37.497  33.869  33.864  1.00  0.00     0.029 A 
ATOM     62  N   UNL A   1      39.182  32.421  33.989  1.00  0.00    -0.354 N 
ATOM     63  N   UNL A   1      41.470  31.113  35.275  1.00  0.00    -0.248 NA
ATOM     64  C   UNL A   1      42.987  30.942  37.046  1.00  0.00     0.031 C 
ATOM     65  C   UNL A   1      38.181  34.086  35.065  1.00  0.00     0.029 A 
ATOM     66  C   UNL A   1      39.216  33.169  35.153  1.00  0.00     0.049 A 
ATOM     67  H   UNL A   1      39.806  31.693  33.766  1.00  0.00     0.167 HD
ATOM     68  C   UNL A   1      41.160  32.070  36.235  1.00  0.00     0.074 A 
ATOM     69  C   UNL A   1      42.115  31.907  37.313  1.00  0.00     0.031 C 
ATOM     70  C   UNL A   1      40.168  32.994  36.223  1.00  0.00     0.031 A 
BRANCH  57  71
ATOM     71  C   UNL A   1      36.740  32.957  31.072  1.00  0.00    -0.014 A 
ATOM     72  C   UNL A   1      37.040  33.820  30.002  1.00  0.00     0.010 A 
ATOM     73  C   UNL A   1      35.392  32.705  31.390  1.00  0.00     0.010 A 
ATOM     74  C   UNL A   1      36.015  34.476  29.314  1.00  0.00     0.020 A 
ATOM     75  C   UNL A   1      34.365  33.336  30.684  1.00  0.00     0.020 A 
ATOM     76  C   UNL A   1      34.685  34.241  29.670  1.00  0.00     0.054 A 
BRANCH  76  77
ATOM     77  S   UNL A   1      33.373  35.128  28.786  1.00  0.00     0.124 S 
ATOM     78  O   UNL A   1      34.142  36.103  28.015  1.00  0.00    -0.237 OA
ATOM     79  O   UNL A   1      32.738  34.071  28.003  1.00  0.00    -0.237 OA
ATOM     80  O   UNL A   1      32.550  35.688  29.855  1.00  0.00    -0.744 OA
ENDBRANCH  76  77
ENDBRANCH  57  71
BRANCH  58  81
ATOM     81  C   UNL A   1      44.444  28.716  35.780  1.00  0.00    -0.014 A 
ATOM     82  C   UNL A   1      45.722  29.236  35.518  1.00  0.00     0.010 A 
ATOM     83  C   UNL A   1      44.305  27.682  36.726  1.00  0.00     0.010 A 
ATOM     84  C   UNL A   1      46.841  28.742  36.196  1.00  0.00     0.020 A 
ATOM     85  C   UNL A   1      45.418  27.200  37.422  1.00  0.00     0.020 A 
ATOM     86  C   UNL A   1      46.679  27.733  37.152  1.00  0.00     0.054 A 
BRANCH  86  87
ATOM     87  S   UNL A   1      48.129  27.180  38.094  1.00  0.00     0.124 S 
ATOM     88  O   UNL A   1      48.727  28.448  38.504  1.00  0.00    -0.237 OA
ATOM     89  O   UNL A   1      47.527  26.389  39.165  1.00  0.00    -0.237 OA
ATOM     90  O   UNL A   1      48.897  26.410  37.118  1.00  0.00    -0.744 OA
ENDBRANCH  86  87
ENDBRANCH  58  81
BRANCH  70  91
ATOM     91  C   UNL A   1      40.027  33.891  37.423  1.00  0.00    -0.014 A 
ATOM     92  C   UNL A   1      40.829  35.035  37.575  1.00  0.00     0.010 A 
ATOM     93  C   UNL A   1      38.999  33.643  38.352  1.00  0.00     0.010 A 
ATOM     94  C   UNL A   1      40.606  35.915  38.636  1.00  0.00     0.020 A 
ATOM     95  C   UNL A   1      38.759  34.533  39.401  1.00  0.00     0.020 A 
ATOM     96  C   UNL A   1      39.567  35.663  39.539  1.00  0.00     0.054 A 
BRANCH  96  97
ATOM     97  S   UNL A   1      39.235  36.871  40.852  1.00  0.00     0.124 S 
ATOM     98  O   UNL A   1      40.566  37.416  41.108  1.00  0.00    -0.237 OA
ATOM     99  O   UNL A   1      38.292  37.788  40.215  1.00  0.00    -0.237 OA
ATOM    100  O   UNL A   1      38.675  36.063  41.932  1.00  0.00    -0.744 OA
ENDBRANCH  96  97
ENDBRANCH  70  91
ENDBRANCH  44  45
ENDBRANCH  36  39
ENDBRANCH  34  35
ENDBRANCH  33  34
ENDBRANCH   1  33
TORSDOF 19
ENDMDL
MODEL 2
REMARK VINA RESULT:     -11.5      5.807      9.769
REMARK SMILES CC(C)C[C@H](C(=O)NCCCCCCNC(=O)c1ccc(-c2c3nc(c(-c4ccc(S(=O)(=O)[O-])cc4)c4ccc([nH]4)c(-c4ccc(S(=O)(=O)[O-])cc4)c4nc(c(-c5ccc(S(=O)(=O)[O-])cc5)c5ccc2[nH]5)C=C4)C=C3)cc1)N1C(=O)/C(=C2\C(=O)Nc3ccc(Br)cc32)SC1=S
REMARK SMILES IDX 12 1 11 2 10 3 9 4 8 5 6 6 7 7 5 9 4 10 2 11 1 12 3 13 78 14
REMARK SMILES IDX 79 15 94 16 80 17 81 18 93 19 95 20 82 21 83 22 92 23 84 24
REMARK SMILES IDX 85 25 86 26 91 27 87 29 89 30 88 31 90 32 13 33 14 34 15 35
REMARK SMILES IDX 16 36 17 38 18 39 19 40 77 41 20 42 76 43 21 44 22 45 23 46
REMARK SMILES IDX 70 47 24 48 75 49 69 50 71 51 25 52 74 53 68 54 67 55 26 57
REMARK SMILES IDX 56 58 37 59 55 60 38 61 41 62 54 63 72 64 39 65 40 66 53 68
REMARK SMILES IDX 73 69 42 70 27 71 28 72 36 73 29 74 35 75 30 76 31 77 32 78
REMARK SMILES IDX 33 79 34 80 57 81 58 82 66 83 59 84 65 85 60 86 61 87 62 88
REMARK SMILES IDX 63 89 64 90 43 91 44 92 52 93 45 94 51 95 46 96 47 97 48 98
REMARK SMILES IDX 49 99 50 100
REMARK H PARENT 8 8 85 28 15 37 71 56 41 67
REMARK Flexibility Score: inf
ROOT
ATOM      1  C   UNL A   1      38.890  22.862  26.285  1.00  0.00     0.002 C 
ENDROOT
BRANCH   1   2
ATOM      2  C   UNL A   1      37.381  23.093  26.157  1.00  0.00     0.002 C 
BRANCH   2   3
ATOM      3  C   UNL A   1      36.872  23.585  24.791  1.00  0.00     0.021 C 
BRANCH   3   4
ATOM      4  C   UNL A   1      35.996  22.607  23.998  1.00  0.00     0.116 C 
BRANCH   4   5
ATOM      5  N   UNL A   1      36.122  21.250  24.489  1.00  0.00    -0.354 N 
ATOM      6  C   UNL A   1      35.207  20.267  24.682  1.00  0.00     0.243 C 
ATOM      7  O   UNL A   1      35.629  19.201  25.149  1.00  0.00    -0.273 OA
ATOM      8  H   UNL A   1      37.042  20.994  24.728  1.00  0.00     0.163 HD
BRANCH   6   9
ATOM      9  C   UNL A   1      33.687  20.455  24.477  1.00  0.00     0.181 C 
BRANCH   9  10
ATOM     10  C   UNL A   1      33.046  19.095  24.891  1.00  0.00     0.038 C 
BRANCH  10  11
ATOM     11  C   UNL A   1      32.546  18.175  23.749  1.00  0.00    -0.015 C 
ATOM     12  C   UNL A   1      32.287  18.914  22.435  1.00  0.00     0.007 C 
ATOM     13  C   UNL A   1      33.574  17.063  23.509  1.00  0.00     0.007 C 
ENDBRANCH  10  11
ENDBRANCH   9  10
BRANCH   9  14
ATOM     14  N   UNL A   1      33.040  21.705  24.975  1.00  0.00    -0.280 N 
ATOM     15  C   UNL A   1      32.535  22.608  24.046  1.00  0.00     0.267 C 
ATOM     16  C   UNL A   1      33.264  22.275  26.220  1.00  0.00     0.149 C 
ATOM     17  O   UNL A   1      31.843  22.340  23.076  1.00  0.00    -0.268 OA
ATOM     18  C   UNL A   1      32.756  24.011  24.503  1.00  0.00     0.093 C 
ATOM     19  S   UNL A   1      32.755  23.969  26.217  1.00  0.00    -0.053 SA
ATOM     20  S   UNL A   1      33.926  21.633  27.607  1.00  0.00    -0.052 S 
ATOM     21  C   UNL A   1      33.005  25.072  23.720  1.00  0.00     0.069 C 
ATOM     22  C   UNL A   1      33.269  24.943  22.237  1.00  0.00     0.257 C 
ATOM     23  C   UNL A   1      33.139  26.510  24.037  1.00  0.00     0.013 A 
ATOM     24  O   UNL A   1      33.497  23.940  21.592  1.00  0.00    -0.269 OA
ATOM     25  N   UNL A   1      33.372  26.241  21.770  1.00  0.00    -0.321 N 
ATOM     26  C   UNL A   1      33.310  27.161  22.807  1.00  0.00     0.049 A 
ATOM     27  C   UNL A   1      33.127  27.259  25.202  1.00  0.00     0.026 A 
ATOM     28  H   UNL A   1      33.477  26.481  20.821  1.00  0.00     0.170 HD
ATOM     29  C   UNL A   1      33.441  28.532  22.682  1.00  0.00     0.028 A 
ATOM     30  C   UNL A   1      33.270  28.650  25.099  1.00  0.00     0.018 A 
ATOM     31  C   UNL A   1      33.414  29.286  23.855  1.00  0.00     0.018 A 
ATOM     32  Br  UNL A   1      33.280  29.702  26.674  1.00  0.00    -0.051 Br
ENDBRANCH   9  14
ENDBRANCH   6   9
ENDBRANCH   4   5
ENDBRANCH   3   4
ENDBRANCH   2   3
ENDBRANCH   1   2
BRANCH   1  33
ATOM     33  C   UNL A   1      39.399  21.495  25.829  1.00  0.00     0.021 C 
BRANCH  33  34
ATOM     34  C   UNL A   1      40.331  20.776  26.799  1.00  0.00     0.116 C 
BRANCH  34  35
ATOM     35  N   UNL A   1      41.280  19.891  26.141  1.00  0.00    -0.352 N 
ATOM     36  C   UNL A   1      42.544  20.172  25.668  1.00  0.00     0.251 C 
ATOM     37  H   UNL A   1      40.978  18.962  26.016  1.00  0.00     0.163 HD
ATOM     38  O   UNL A   1      43.168  19.324  25.038  1.00  0.00    -0.269 OA
BRANCH  36  39
ATOM     39  C   UNL A   1      43.134  21.511  25.892  1.00  0.00     0.039 A 
ATOM     40  C   UNL A   1      42.968  22.500  24.917  1.00  0.00     0.014 A 
ATOM     41  C   UNL A   1      43.830  21.800  27.068  1.00  0.00     0.014 A 
ATOM     42  C   UNL A   1      43.426  23.799  25.156  1.00  0.00     0.010 A 
ATOM     43  C   UNL A   1      44.227  23.108  27.334  1.00  0.00     0.010 A 
ATOM     44  C   UNL A   1      44.022  24.123  26.385  1.00  0.00    -0.014 A 
BRANCH  44  45
ATOM     45  C   UNL A   1      44.429  25.513  26.722  1.00  0.00     0.031 A 
ATOM     46  C   UNL A   1      45.811  25.994  26.375  1.00  0.00     0.074 A 
ATOM     47  C   UNL A   1      43.607  26.298  27.446  1.00  0.00     0.049 A 
ATOM     48  N   UNL A   1      46.412  27.102  26.726  1.00  0.00    -0.248 NA
ATOM     49  C   UNL A   1      46.634  25.094  25.553  1.00  0.00     0.031 C 
ATOM     50  C   UNL A   1      42.257  25.936  27.882  1.00  0.00     0.029 A 
ATOM     51  N   UNL A   1      43.801  27.551  27.972  1.00  0.00    -0.354 N 
ATOM     52  C   UNL A   1      47.696  27.016  26.201  1.00  0.00     0.074 A 
ATOM     53  C   UNL A   1      47.793  25.734  25.535  1.00  0.00     0.031 C 
ATOM     54  C   UNL A   1      41.748  26.941  28.612  1.00  0.00     0.029 A 
ATOM     55  C   UNL A   1      42.748  27.998  28.735  1.00  0.00     0.049 A 
ATOM     56  H   UNL A   1      44.618  28.080  27.819  1.00  0.00     0.167 HD
ATOM     57  C   UNL A   1      48.700  27.923  26.260  1.00  0.00     0.031 A 
ATOM     58  C   UNL A   1      42.607  29.117  29.471  1.00  0.00     0.031 A 
ATOM     59  C   UNL A   1      48.595  29.201  26.911  1.00  0.00     0.049 A 
ATOM     60  C   UNL A   1      43.724  30.121  29.516  1.00  0.00     0.074 A 
ATOM     61  C   UNL A   1      49.533  30.218  26.966  1.00  0.00     0.029 A 
ATOM     62  N   UNL A   1      47.488  29.638  27.625  1.00  0.00    -0.354 N 
ATOM     63  N   UNL A   1      44.909  30.053  28.956  1.00  0.00    -0.248 NA
ATOM     64  C   UNL A   1      43.487  31.353  30.282  1.00  0.00     0.031 C 
ATOM     65  C   UNL A   1      49.009  31.250  27.753  1.00  0.00     0.029 A 
ATOM     66  C   UNL A   1      47.727  30.899  28.143  1.00  0.00     0.049 A 
ATOM     67  H   UNL A   1      46.656  29.125  27.744  1.00  0.00     0.167 HD
ATOM     68  C   UNL A   1      45.550  31.244  29.280  1.00  0.00     0.074 A 
ATOM     69  C   UNL A   1      44.621  32.015  30.083  1.00  0.00     0.031 C 
ATOM     70  C   UNL A   1      46.793  31.659  28.936  1.00  0.00     0.031 A 
BRANCH  57  71
ATOM     71  C   UNL A   1      50.010  27.540  25.624  1.00  0.00    -0.014 A 
ATOM     72  C   UNL A   1      51.021  26.897  26.360  1.00  0.00     0.010 A 
ATOM     73  C   UNL A   1      50.236  27.837  24.267  1.00  0.00     0.010 A 
ATOM     74  C   UNL A   1      52.260  26.626  25.773  1.00  0.00     0.020 A 
ATOM     75  C   UNL A   1      51.462  27.540  23.668  1.00  0.00     0.020 A 
ATOM     76  C   UNL A   1      52.477  26.963  24.435  1.00  0.00     0.054 A 
BRANCH  76  77
ATOM     77  S   UNL A   1      54.104  26.632  23.703  1.00  0.00     0.124 S 
ATOM     78  O   UNL A   1      53.743  26.235  22.344  1.00  0.00    -0.237 OA
ATOM     79  O   UNL A   1      54.780  27.923  23.819  1.00  0.00    -0.237 OA
ATOM     80  O   UNL A   1      54.651  25.567  24.540  1.00  0.00    -0.744 OA
ENDBRANCH  76  77
ENDBRANCH  57  71
BRANCH  58  81
ATOM     81  C   UNL A   1      41.342  29.334  30.224  1.00  0.00    -0.014 A 
ATOM     82  C   UNL A   1      40.277  30.042  29.641  1.00  0.00     0.010 A 
ATOM     83  C   UNL A   1      41.170  28.767  31.500  1.00  0.00     0.010 A 
ATOM     84  C   UNL A   1      39.059  30.170  30.316  1.00  0.00     0.020 A 
ATOM     85  C   UNL A   1      39.947  28.874  32.169  1.00  0.00     0.020 A 
ATOM     86  C   UNL A   1      38.899  29.576  31.572  1.00  0.00     0.054 A 
BRANCH  86  87
ATOM     87  S   UNL A   1      37.277  29.665  32.382  1.00  0.00     0.124 S 
ATOM     88  O   UNL A   1      37.335  28.535  33.305  1.00  0.00    -0.237 OA
ATOM     89  O   UNL A   1      37.304  30.989  33.000  1.00  0.00    -0.237 OA
ATOM     90  O   UNL A   1      36.335  29.523  31.275  1.00  0.00    -0.744 OA
ENDBRANCH  86  87
ENDBRANCH  58  81
BRANCH  70  91
ATOM     91  C   UNL A   1      47.229  33.027  29.389  1.00  0.00    -0.014 A 
ATOM     92  C   UNL A   1      46.951  34.171  28.622  1.00  0.00     0.010 A 
ATOM     93  C   UNL A   1      47.825  33.175  30.655  1.00  0.00     0.010 A 
ATOM     94  C   UNL A   1      47.264  35.441  29.114  1.00  0.00     0.020 A 
ATOM     95  C   UNL A   1      48.118  34.444  31.159  1.00  0.00     0.020 A 
ATOM     96  C   UNL A   1      47.838  35.570  30.383  1.00  0.00     0.054 A 
BRANCH  96  97
ATOM     97  S   UNL A   1      48.146  37.234  31.040  1.00  0.00     0.124 S 
ATOM     98  O   UNL A   1      48.878  37.863  29.944  1.00  0.00    -0.237 OA
ATOM     99  O   UNL A   1      46.796  37.744  31.268  1.00  0.00    -0.237 OA
ATOM    100  O   UNL A   1      48.926  36.989  32.251  1.00  0.00    -0.744 OA
ENDBRANCH  96  97
ENDBRANCH  70  91
ENDBRANCH  44  45
ENDBRANCH  36  39
ENDBRANCH  34  35
ENDBRANCH  33  34
ENDBRANCH   1  33
TORSDOF 19
ENDMDL
MODEL 3
REMARK VINA RESULT:     -11.5      5.957      8.914
REMARK SMILES CC(C)C[C@H](C(=O)NCCCCCCNC(=O)c1ccc(-c2c3nc(c(-c4ccc(S(=O)(=O)[O-])cc4)c4ccc([nH]4)c(-c4ccc(S(=O)(=O)[O-])cc4)c4nc(c(-c5ccc(S(=O)(=O)[O-])cc5)c5ccc2[nH]5)C=C4)C=C3)cc1)N1C(=O)/C(=C2\C(=O)Nc3ccc(Br)cc32)SC1=S
REMARK SMILES IDX 12 1 11 2 10 3 9 4 8 5 6 6 7 7 5 9 4 10 2 11 1 12 3 13 78 14
REMARK SMILES IDX 79 15 94 16 80 17 81 18 93 19 95 20 82 21 83 22 92 23 84 24
REMARK SMILES IDX 85 25 86 26 91 27 87 29 89 30 88 31 90 32 13 33 14 34 15 35
REMARK SMILES IDX 16 36 17 38 18 39 19 40 77 41 20 42 76 43 21 44 22 45 23 46
REMARK SMILES IDX 70 47 24 48 75 49 69 50 71 51 25 52 74 53 68 54 67 55 26 57
REMARK SMILES IDX 56 58 37 59 55 60 38 61 41 62 54 63 72 64 39 65 40 66 53 68
REMARK SMILES IDX 73 69 42 70 27 71 28 72 36 73 29 74 35 75 30 76 31 77 32 78
REMARK SMILES IDX 33 79 34 80 57 81 58 82 66 83 59 84 65 85 60 86 61 87 62 88
REMARK SMILES IDX 63 89 64 90 43 91 44 92 52 93 45 94 51 95 46 96 47 97 48 98
REMARK SMILES IDX 49 99 50 100
REMARK H PARENT 8 8 85 28 15 37 71 56 41 67
REMARK Flexibility Score: inf
ROOT
ATOM      1  C   UNL A   1      36.479  22.159  25.188  1.00  0.00     0.002 C 
ENDROOT
BRANCH   1   2
ATOM      2  C   UNL A   1      36.289  23.193  24.073  1.00  0.00     0.002 C 
BRANCH   2   3
ATOM      3  C   UNL A   1      34.994  24.022  24.115  1.00  0.00     0.021 C 
BRANCH   3   4
ATOM      4  C   UNL A   1      34.859  25.015  25.276  1.00  0.00     0.116 C 
BRANCH   4   5
ATOM      5  N   UNL A   1      34.687  26.375  24.806  1.00  0.00    -0.354 N 
ATOM      6  C   UNL A   1      33.627  27.220  24.844  1.00  0.00     0.243 C 
ATOM      7  O   UNL A   1      33.786  28.333  24.325  1.00  0.00    -0.273 OA
ATOM      8  H   UNL A   1      35.489  26.756  24.380  1.00  0.00     0.163 HD
BRANCH   6   9
ATOM      9  C   UNL A   1      32.230  26.823  25.370  1.00  0.00     0.181 C 
BRANCH   9  10
ATOM     10  C   UNL A   1      31.389  28.136  25.336  1.00  0.00     0.038 C 
BRANCH  10  11
ATOM     11  C   UNL A   1      31.289  28.942  26.655  1.00  0.00    -0.015 C 
ATOM     12  C   UNL A   1      31.664  28.134  27.898  1.00  0.00     0.007 C 
ATOM     13  C   UNL A   1      32.195  30.177  26.562  1.00  0.00     0.007 C 
ENDBRANCH  10  11
ENDBRANCH   9  10
BRANCH   9  14
ATOM     14  N   UNL A   1      31.588  25.578  24.850  1.00  0.00    -0.280 N 
ATOM     15  C   UNL A   1      31.480  24.482  25.697  1.00  0.00     0.267 C 
ATOM     16  C   UNL A   1      31.481  25.239  23.508  1.00  0.00     0.149 C 
ATOM     17  O   UNL A   1      31.091  24.496  26.855  1.00  0.00    -0.268 OA
ATOM     18  C   UNL A   1      31.691  23.211  24.945  1.00  0.00     0.093 C 
ATOM     19  S   UNL A   1      31.168  23.507  23.339  1.00  0.00    -0.053 SA
ATOM     20  S   UNL A   1      31.627  26.172  22.136  1.00  0.00    -0.052 S 
ATOM     21  C   UNL A   1      32.267  22.095  25.415  1.00  0.00     0.069 C 
ATOM     22  C   UNL A   1      32.953  22.039  26.760  1.00  0.00     0.257 C 
ATOM     23  C   UNL A   1      32.442  20.756  24.810  1.00  0.00     0.013 A 
ATOM     24  O   UNL A   1      33.265  22.958  27.491  1.00  0.00    -0.269 OA
ATOM     25  N   UNL A   1      33.320  20.716  26.930  1.00  0.00    -0.321 N 
ATOM     26  C   UNL A   1      33.040  19.962  25.800  1.00  0.00     0.049 A 
ATOM     27  C   UNL A   1      32.152  20.195  23.577  1.00  0.00     0.026 A 
ATOM     28  H   UNL A   1      33.730  20.356  27.750  1.00  0.00     0.170 HD
ATOM     29  C   UNL A   1      33.336  18.623  25.625  1.00  0.00     0.028 A 
ATOM     30  C   UNL A   1      32.456  18.841  23.375  1.00  0.00     0.018 A 
ATOM     31  C   UNL A   1      33.031  18.056  24.388  1.00  0.00     0.018 A 
ATOM     32  Br  UNL A   1      32.094  18.049  21.694  1.00  0.00    -0.051 Br
ENDBRANCH   9  14
ENDBRANCH   6   9
ENDBRANCH   4   5
ENDBRANCH   3   4
ENDBRANCH   2   3
ENDBRANCH   1   2
BRANCH   1  33
ATOM     33  C   UNL A   1      37.570  21.115  24.955  1.00  0.00     0.021 C 
BRANCH  33  34
ATOM     34  C   UNL A   1      38.843  21.290  25.777  1.00  0.00     0.116 C 
BRANCH  34  35
ATOM     35  N   UNL A   1      39.628  20.070  25.895  1.00  0.00    -0.352 N 
ATOM     36  C   UNL A   1      40.969  19.925  26.173  1.00  0.00     0.251 C 
ATOM     37  H   UNL A   1      39.131  19.231  25.757  1.00  0.00     0.163 HD
ATOM     38  O   UNL A   1      41.492  18.815  26.127  1.00  0.00    -0.269 OA
BRANCH  36  39
ATOM     39  C   UNL A   1      41.789  21.116  26.492  1.00  0.00     0.039 A 
ATOM     40  C   UNL A   1      42.204  21.956  25.454  1.00  0.00     0.014 A 
ATOM     41  C   UNL A   1      42.130  21.417  27.813  1.00  0.00     0.014 A 
ATOM     42  C   UNL A   1      42.888  23.140  25.746  1.00  0.00     0.010 A 
ATOM     43  C   UNL A   1      42.753  22.627  28.108  1.00  0.00     0.010 A 
ATOM     44  C   UNL A   1      43.130  23.506  27.080  1.00  0.00    -0.014 A 
BRANCH  44  45
ATOM     45  C   UNL A   1      43.761  24.803  27.439  1.00  0.00     0.031 A 
ATOM     46  C   UNL A   1      42.906  25.952  27.897  1.00  0.00     0.074 A 
ATOM     47  C   UNL A   1      45.080  24.988  27.235  1.00  0.00     0.049 A 
ATOM     48  N   UNL A   1      43.238  27.201  28.096  1.00  0.00    -0.248 NA
ATOM     49  C   UNL A   1      41.483  25.660  28.130  1.00  0.00     0.031 C 
ATOM     50  C   UNL A   1      46.015  23.969  26.756  1.00  0.00     0.029 A 
ATOM     51  N   UNL A   1      45.858  26.112  27.376  1.00  0.00    -0.354 N 
ATOM     52  C   UNL A   1      42.060  27.854  28.440  1.00  0.00     0.074 A 
ATOM     53  C   UNL A   1      41.002  26.866  28.391  1.00  0.00     0.031 C 
ATOM     54  C   UNL A   1      47.236  24.514  26.636  1.00  0.00     0.029 A 
ATOM     55  C   UNL A   1      47.164  25.930  26.987  1.00  0.00     0.049 A 
ATOM     56  H   UNL A   1      45.512  26.967  27.721  1.00  0.00     0.167 HD
ATOM     57  C   UNL A   1      41.875  29.154  28.772  1.00  0.00     0.031 A 
ATOM     58  C   UNL A   1      48.186  26.803  26.898  1.00  0.00     0.031 A 
ATOM     59  C   UNL A   1      42.931  30.129  28.833  1.00  0.00     0.049 A 
ATOM     60  C   UNL A   1      47.969  28.239  27.284  1.00  0.00     0.074 A 
ATOM     61  C   UNL A   1      42.857  31.454  29.226  1.00  0.00     0.029 A 
ATOM     62  N   UNL A   1      44.252  29.887  28.485  1.00  0.00    -0.354 N 
ATOM     63  N   UNL A   1      46.861  28.825  27.672  1.00  0.00    -0.248 NA
ATOM     64  C   UNL A   1      49.137  29.130  27.229  1.00  0.00     0.031 C 
ATOM     65  C   UNL A   1      44.124  32.025  29.072  1.00  0.00     0.029 A 
ATOM     66  C   UNL A   1      44.998  31.044  28.633  1.00  0.00     0.049 A 
ATOM     67  H   UNL A   1      44.606  29.021  28.179  1.00  0.00     0.167 HD
ATOM     68  C   UNL A   1      47.203  30.147  27.933  1.00  0.00     0.074 A 
ATOM     69  C   UNL A   1      48.621  30.275  27.660  1.00  0.00     0.031 C 
ATOM     70  C   UNL A   1      46.411  31.158  28.365  1.00  0.00     0.031 A 
BRANCH  57  71
ATOM     71  C   UNL A   1      40.466  29.594  29.067  1.00  0.00    -0.014 A 
ATOM     72  C   UNL A   1      39.448  29.481  28.103  1.00  0.00     0.010 A 
ATOM     73  C   UNL A   1      40.157  30.138  30.328  1.00  0.00     0.010 A 
ATOM     74  C   UNL A   1      38.166  29.972  28.368  1.00  0.00     0.020 A 
ATOM     75  C   UNL A   1      38.869  30.602  30.606  1.00  0.00     0.020 A 
ATOM     76  C   UNL A   1      37.890  30.543  29.613  1.00  0.00     0.054 A 
BRANCH  76  77
ATOM     77  S   UNL A   1      36.229  31.203  29.922  1.00  0.00     0.124 S 
ATOM     78  O   UNL A   1      35.477  30.657  28.794  1.00  0.00    -0.237 OA
ATOM     79  O   UNL A   1      35.895  30.641  31.229  1.00  0.00    -0.237 OA
ATOM     80  O   UNL A   1      36.422  32.651  29.901  1.00  0.00    -0.744 OA
ENDBRANCH  76  77
ENDBRANCH  57  71
BRANCH  58  81
ATOM     81  C   UNL A   1      49.510  26.322  26.419  1.00  0.00    -0.014 A 
ATOM     82  C   UNL A   1      49.879  26.474  25.071  1.00  0.00     0.010 A 
ATOM     83  C   UNL A   1      50.438  25.779  27.327  1.00  0.00     0.010 A 
ATOM     84  C   UNL A   1      51.157  26.101  24.642  1.00  0.00     0.020 A 
ATOM     85  C   UNL A   1      51.723  25.425  26.906  1.00  0.00     0.020 A 
ATOM     86  C   UNL A   1      52.074  25.588  25.565  1.00  0.00     0.054 A 
BRANCH  86  87
ATOM     87  S   UNL A   1      53.759  25.209  25.007  1.00  0.00     0.124 S 
ATOM     88  O   UNL A   1      54.566  25.701  26.119  1.00  0.00    -0.237 OA
ATOM     89  O   UNL A   1      53.721  23.757  24.846  1.00  0.00    -0.237 OA
ATOM     90  O   UNL A   1      53.882  25.962  23.760  1.00  0.00    -0.744 OA
ENDBRANCH  86  87
ENDBRANCH  58  81
BRANCH  70  91
ATOM     91  C   UNL A   1      47.051  32.498  28.610  1.00  0.00    -0.014 A 
ATOM     92  C   UNL A   1      47.658  32.801  29.841  1.00  0.00     0.010 A 
ATOM     93  C   UNL A   1      47.143  33.422  27.552  1.00  0.00     0.010 A 
ATOM     94  C   UNL A   1      48.345  34.006  30.009  1.00  0.00     0.020 A 
ATOM     95  C   UNL A   1      47.848  34.617  27.710  1.00  0.00     0.020 A 
ATOM     96  C   UNL A   1      48.443  34.904  28.940  1.00  0.00     0.054 A 
BRANCH  96  97
ATOM     97  S   UNL A   1      49.422  36.417  29.154  1.00  0.00     0.124 S 
ATOM     98  O   UNL A   1      50.711  36.027  28.589  1.00  0.00    -0.237 OA
ATOM     99  O   UNL A   1      48.668  37.400  28.381  1.00  0.00    -0.237 OA
ATOM    100  O   UNL A   1      49.415  36.632  30.599  1.00  0.00    -0.744 OA
ENDBRANCH  96  97
ENDBRANCH  70  91
ENDBRANCH  44  45
ENDBRANCH  36  39
ENDBRANCH  34  35
ENDBRANCH  33  34
ENDBRANCH   1  33
TORSDOF 19
ENDMDL
