MODEL 1
REMARK VINA RESULT:     -12.1      0.000      0.000
REMARK SMILES Cc1c(Br)c(C)c2c(c1Br)O[C@H](C(F)(F)F)C(C(=O)NCCCCCCNC(=O)c1ccc(-c3c4nc(c(-c5ccc(S(=O)(=O)[O-])cc5)c5ccc([nH]5)c(-c5ccc(S(=O)(=O)[O-])cc5)c5nc(c(-c6ccc(S(=O)(=O)[O-])cc6)c6ccc3[nH]6)C=C5)C=C4)cc1)=C2
REMARK SMILES IDX 24 1 23 2 22 3 21 4 20 5 18 6 19 7 17 9 1 10 2 11 3 12 9 13
REMARK SMILES IDX 4 14 5 15 8 16 10 17 6 18 7 19 11 20 90 21 12 22 13 23 14 24
REMARK SMILES IDX 15 25 16 26 25 27 26 28 27 29 28 30 29 32 30 33 31 34 89 35
REMARK SMILES IDX 32 36 88 37 33 38 34 39 35 40 82 41 36 42 87 43 81 44 83 45
REMARK SMILES IDX 37 46 86 47 80 48 79 49 38 51 68 52 49 53 67 54 50 55 53 56
REMARK SMILES IDX 66 57 84 58 51 59 52 60 65 62 85 63 54 64 39 65 40 66 48 67
REMARK SMILES IDX 41 68 47 69 42 70 43 71 44 72 45 73 46 74 69 75 70 76 78 77
REMARK SMILES IDX 71 78 77 79 72 80 73 81 74 82 75 83 76 84 55 85 56 86 64 87
REMARK SMILES IDX 57 88 63 89 58 90 59 91 60 92 61 93 62 94
REMARK H PARENT 20 8 27 31 83 50 53 61
REMARK Flexibility Score: inf
ROOT
ATOM      1  C   UNL A   1      37.039  22.188  25.596  1.00  0.00     0.002 C 
ENDROOT
BRANCH   1   2
ATOM      2  C   UNL A   1      35.559  21.854  25.831  1.00  0.00     0.002 C 
BRANCH   2   3
ATOM      3  C   UNL A   1      34.750  22.957  26.518  1.00  0.00     0.021 C 
BRANCH   3   4
ATOM      4  C   UNL A   1      33.517  23.390  25.733  1.00  0.00     0.116 C 
BRANCH   4   5
ATOM      5  N   UNL A   1      33.847  23.748  24.363  1.00  0.00    -0.352 N 
ATOM      6  C   UNL A   1      33.678  24.816  23.551  1.00  0.00     0.251 C 
ATOM      7  O   UNL A   1      34.163  24.701  22.420  1.00  0.00    -0.270 OA
ATOM      8  H   UNL A   1      34.321  23.017  23.905  1.00  0.00     0.163 HD
BRANCH   6   9
ATOM      9  C   UNL A   1      32.967  26.078  23.921  1.00  0.00     0.067 C 
ATOM     10  C   UNL A   1      31.078  31.949  26.160  1.00  0.00     0.047 C 
ATOM     11  C   UNL A   1      31.755  30.632  25.861  1.00  0.00    -0.019 A 
ATOM     12  C   UNL A   1      32.956  30.228  26.498  1.00  0.00     0.025 A 
ATOM     13  C   UNL A   1      31.220  29.791  24.869  1.00  0.00     0.064 A 
ATOM     14  Br  UNL A   1      33.781  31.414  27.763  1.00  0.00    -0.050 Br
ATOM     15  C   UNL A   1      33.579  28.987  26.194  1.00  0.00    -0.026 A 
ATOM     16  C   UNL A   1      31.833  28.569  24.553  1.00  0.00     0.142 A 
ATOM     17  Br  UNL A   1      29.651  30.293  23.885  1.00  0.00    -0.046 Br
ATOM     18  C   UNL A   1      34.848  28.526  26.878  1.00  0.00     0.046 C 
ATOM     19  C   UNL A   1      33.006  28.161  25.196  1.00  0.00     0.022 A 
ATOM     20  O   UNL A   1      31.264  27.837  23.550  1.00  0.00    -0.474 OA
ATOM     21  C   UNL A   1      33.627  26.904  24.752  1.00  0.00     0.026 C 
ATOM     22  C   UNL A   1      31.593  26.435  23.453  1.00  0.00     0.314 C 
BRANCH  22  23
ATOM     23  C   UNL A   1      30.494  25.594  24.126  1.00  0.00     0.429 C 
ATOM     24  F   UNL A   1      29.302  26.234  24.072  1.00  0.00    -0.167 F 
ATOM     25  F   UNL A   1      30.315  24.396  23.521  1.00  0.00    -0.167 F 
ATOM     26  F   UNL A   1      30.767  25.340  25.426  1.00  0.00    -0.167 F 
ENDBRANCH  22  23
ENDBRANCH   6   9
ENDBRANCH   4   5
ENDBRANCH   3   4
ENDBRANCH   2   3
ENDBRANCH   1   2
BRANCH   1  27
ATOM     27  C   UNL A   1      37.391  23.680  25.645  1.00  0.00     0.021 C 
BRANCH  27  28
ATOM     28  C   UNL A   1      38.418  24.054  26.709  1.00  0.00     0.116 C 
BRANCH  28  29
ATOM     29  N   UNL A   1      39.764  24.096  26.163  1.00  0.00    -0.352 N 
ATOM     30  C   UNL A   1      40.748  25.029  26.357  1.00  0.00     0.251 C 
ATOM     31  H   UNL A   1      40.003  23.347  25.570  1.00  0.00     0.163 HD
ATOM     32  O   UNL A   1      41.747  25.024  25.636  1.00  0.00    -0.269 OA
BRANCH  30  33
ATOM     33  C   UNL A   1      40.607  26.039  27.422  1.00  0.00     0.039 A 
ATOM     34  C   UNL A   1      39.777  25.766  28.511  1.00  0.00     0.014 A 
ATOM     35  C   UNL A   1      41.278  27.263  27.333  1.00  0.00     0.014 A 
ATOM     36  C   UNL A   1      39.654  26.704  29.538  1.00  0.00     0.010 A 
ATOM     37  C   UNL A   1      41.202  28.171  28.385  1.00  0.00     0.010 A 
ATOM     38  C   UNL A   1      40.385  27.900  29.494  1.00  0.00    -0.014 A 
BRANCH  38  39
ATOM     39  C   UNL A   1      40.314  28.891  30.595  1.00  0.00     0.031 A 
ATOM     40  C   UNL A   1      41.225  28.760  31.783  1.00  0.00     0.074 A 
ATOM     41  C   UNL A   1      39.387  29.868  30.549  1.00  0.00     0.049 A 
ATOM     42  N   UNL A   1      41.245  29.462  32.887  1.00  0.00    -0.248 NA
ATOM     43  C   UNL A   1      42.233  27.689  31.732  1.00  0.00     0.031 C 
ATOM     44  C   UNL A   1      38.444  30.090  29.451  1.00  0.00     0.029 A 
ATOM     45  N   UNL A   1      39.080  30.851  31.455  1.00  0.00    -0.354 N 
ATOM     46  C   UNL A   1      42.260  28.915  33.663  1.00  0.00     0.074 A 
ATOM     47  C   UNL A   1      42.801  27.794  32.925  1.00  0.00     0.031 C 
ATOM     48  C   UNL A   1      37.681  31.157  29.736  1.00  0.00     0.029 A 
ATOM     49  C   UNL A   1      38.046  31.663  31.056  1.00  0.00     0.049 A 
ATOM     50  H   UNL A   1      39.556  30.965  32.308  1.00  0.00     0.167 HD
ATOM     51  C   UNL A   1      42.711  29.322  34.874  1.00  0.00     0.031 A 
ATOM     52  C   UNL A   1      37.450  32.694  31.686  1.00  0.00     0.031 A 
ATOM     53  C   UNL A   1      42.164  30.436  35.604  1.00  0.00     0.049 A 
ATOM     54  C   UNL A   1      37.940  33.099  33.049  1.00  0.00     0.074 A 
ATOM     55  C   UNL A   1      42.560  30.937  36.832  1.00  0.00     0.029 A 
ATOM     56  N   UNL A   1      41.108  31.224  35.172  1.00  0.00    -0.354 N 
ATOM     57  N   UNL A   1      38.906  32.574  33.766  1.00  0.00    -0.248 NA
ATOM     58  C   UNL A   1      37.267  34.239  33.682  1.00  0.00     0.031 C 
ATOM     59  C   UNL A   1      41.711  31.998  37.165  1.00  0.00     0.029 A 
ATOM     60  C   UNL A   1      40.830  32.199  36.114  1.00  0.00     0.049 A 
ATOM     61  H   UNL A   1      40.627  31.108  34.321  1.00  0.00     0.167 HD
ATOM     62  C   UNL A   1      38.979  33.344  34.921  1.00  0.00     0.074 A 
ATOM     63  C   UNL A   1      37.966  34.373  34.801  1.00  0.00     0.031 C 
ATOM     64  C   UNL A   1      39.813  33.214  35.983  1.00  0.00     0.031 A 
BRANCH  51  65
ATOM     65  C   UNL A   1      43.853  28.553  35.488  1.00  0.00    -0.014 A 
ATOM     66  C   UNL A   1      43.614  27.448  36.325  1.00  0.00     0.010 A 
ATOM     67  C   UNL A   1      45.180  28.904  35.182  1.00  0.00     0.010 A 
ATOM     68  C   UNL A   1      44.680  26.727  36.868  1.00  0.00     0.020 A 
ATOM     69  C   UNL A   1      46.250  28.168  35.700  1.00  0.00     0.020 A 
ATOM     70  C   UNL A   1      45.993  27.091  36.551  1.00  0.00     0.054 A 
BRANCH  70  71
ATOM     71  S   UNL A   1      47.355  26.113  37.242  1.00  0.00     0.124 S 
ATOM     72  O   UNL A   1      46.673  25.331  38.271  1.00  0.00    -0.237 OA
ATOM     73  O   UNL A   1      47.821  25.355  36.084  1.00  0.00    -0.237 OA
ATOM     74  O   UNL A   1      48.287  27.119  37.742  1.00  0.00    -0.744 OA
ENDBRANCH  70  71
ENDBRANCH  51  65
BRANCH  52  75
ATOM     75  C   UNL A   1      36.341  33.428  31.018  1.00  0.00    -0.014 A 
ATOM     76  C   UNL A   1      35.146  33.690  31.711  1.00  0.00     0.010 A 
ATOM     77  C   UNL A   1      36.484  33.897  29.699  1.00  0.00     0.010 A 
ATOM     78  C   UNL A   1      34.111  34.400  31.095  1.00  0.00     0.020 A 
ATOM     79  C   UNL A   1      35.462  34.631  29.089  1.00  0.00     0.020 A 
ATOM     80  C   UNL A   1      34.278  34.872  29.790  1.00  0.00     0.054 A 
BRANCH  80  81
ATOM     81  S   UNL A   1      32.946  35.847  29.039  1.00  0.00     0.124 S 
ATOM     82  O   UNL A   1      33.682  36.953  28.434  1.00  0.00    -0.237 OA
ATOM     83  O   UNL A   1      32.349  34.895  28.106  1.00  0.00    -0.237 OA
ATOM     84  O   UNL A   1      32.101  36.206  30.177  1.00  0.00    -0.744 OA
ENDBRANCH  80  81
ENDBRANCH  52  75
BRANCH  64  85
ATOM     85  C   UNL A   1      39.697  34.237  37.081  1.00  0.00    -0.014 A 
ATOM     86  C   UNL A   1      40.284  35.509  36.964  1.00  0.00     0.010 A 
ATOM     87  C   UNL A   1      38.951  33.930  38.234  1.00  0.00     0.010 A 
ATOM     88  C   UNL A   1      40.164  36.439  38.000  1.00  0.00     0.020 A 
ATOM     89  C   UNL A   1      38.802  34.868  39.258  1.00  0.00     0.020 A 
ATOM     90  C   UNL A   1      39.427  36.111  39.142  1.00  0.00     0.054 A 
BRANCH  90  91
ATOM     91  S   UNL A   1      39.273  37.342  40.465  1.00  0.00     0.124 S 
ATOM     92  O   UNL A   1      40.625  37.890  40.529  1.00  0.00    -0.237 OA
ATOM     93  O   UNL A   1      38.252  38.248  39.942  1.00  0.00    -0.237 OA
ATOM     94  O   UNL A   1      38.864  36.556  41.626  1.00  0.00    -0.744 OA
ENDBRANCH  90  91
ENDBRANCH  64  85
ENDBRANCH  38  39
ENDBRANCH  30  33
ENDBRANCH  28  29
ENDBRANCH  27  28
ENDBRANCH   1  27
TORSDOF 17
ENDMDL
MODEL 2
REMARK VINA RESULT:     -12.0      4.645     10.440
REMARK SMILES Cc1c(Br)c(C)c2c(c1Br)O[C@H](C(F)(F)F)C(C(=O)NCCCCCCNC(=O)c1ccc(-c3c4nc(c(-c5ccc(S(=O)(=O)[O-])cc5)c5ccc([nH]5)c(-c5ccc(S(=O)(=O)[O-])cc5)c5nc(c(-c6ccc(S(=O)(=O)[O-])cc6)c6ccc3[nH]6)C=C5)C=C4)cc1)=C2
REMARK SMILES IDX 24 1 23 2 22 3 21 4 20 5 18 6 19 7 17 9 1 10 2 11 3 12 9 13
REMARK SMILES IDX 4 14 5 15 8 16 10 17 6 18 7 19 11 20 90 21 12 22 13 23 14 24
REMARK SMILES IDX 15 25 16 26 25 27 26 28 27 29 28 30 29 32 30 33 31 34 89 35
REMARK SMILES IDX 32 36 88 37 33 38 34 39 35 40 82 41 36 42 87 43 81 44 83 45
REMARK SMILES IDX 37 46 86 47 80 48 79 49 38 51 68 52 49 53 67 54 50 55 53 56
REMARK SMILES IDX 66 57 84 58 51 59 52 60 65 62 85 63 54 64 39 65 40 66 48 67
REMARK SMILES IDX 41 68 47 69 42 70 43 71 44 72 45 73 46 74 69 75 70 76 78 77
REMARK SMILES IDX 71 78 77 79 72 80 73 81 74 82 75 83 76 84 55 85 56 86 64 87
REMARK SMILES IDX 57 88 63 89 58 90 59 91 60 92 61 93 62 94
REMARK H PARENT 20 8 27 31 83 50 53 61
REMARK Flexibility Score: inf
ROOT
ATOM      1  C   UNL A   1      33.878  26.943  24.595  1.00  0.00     0.002 C 
ENDROOT
BRANCH   1   2
ATOM      2  C   UNL A   1      33.311  26.981  23.169  1.00  0.00     0.002 C 
BRANCH   2   3
ATOM      3  C   UNL A   1      33.050  25.609  22.541  1.00  0.00     0.021 C 
BRANCH   3   4
ATOM      4  C   UNL A   1      31.578  25.211  22.534  1.00  0.00     0.116 C 
BRANCH   4   5
ATOM      5  N   UNL A   1      31.093  24.911  23.871  1.00  0.00    -0.352 N 
ATOM      6  C   UNL A   1      31.381  24.028  24.854  1.00  0.00     0.251 C 
ATOM      7  O   UNL A   1      30.713  24.149  25.886  1.00  0.00    -0.270 OA
ATOM      8  H   UNL A   1      30.358  25.512  24.130  1.00  0.00     0.163 HD
BRANCH   6   9
ATOM      9  C   UNL A   1      32.418  22.953  24.771  1.00  0.00     0.067 C 
ATOM     10  C   UNL A   1      37.768  19.170  25.116  1.00  0.00     0.047 C 
ATOM     11  C   UNL A   1      36.745  20.282  25.111  1.00  0.00    -0.019 A 
ATOM     12  C   UNL A   1      37.074  21.625  25.426  1.00  0.00     0.025 A 
ATOM     13  C   UNL A   1      35.397  19.978  24.846  1.00  0.00     0.064 A 
ATOM     14  Br  UNL A   1      38.880  22.048  25.920  1.00  0.00    -0.050 Br
ATOM     15  C   UNL A   1      36.091  22.652  25.423  1.00  0.00    -0.026 A 
ATOM     16  C   UNL A   1      34.418  20.983  24.850  1.00  0.00     0.142 A 
ATOM     17  Br  UNL A   1      34.839  18.175  24.500  1.00  0.00    -0.046 Br
ATOM     18  C   UNL A   1      36.424  24.096  25.734  1.00  0.00     0.046 C 
ATOM     19  C   UNL A   1      34.745  22.310  25.141  1.00  0.00     0.022 A 
ATOM     20  O   UNL A   1      33.130  20.587  24.619  1.00  0.00    -0.474 OA
ATOM     21  C   UNL A   1      33.648  23.287  25.201  1.00  0.00     0.026 C 
ATOM     22  C   UNL A   1      32.167  21.585  24.223  1.00  0.00     0.314 C 
BRANCH  22  23
ATOM     23  C   UNL A   1      32.005  21.575  22.693  1.00  0.00     0.429 C 
ATOM     24  F   UNL A   1      32.060  20.309  22.215  1.00  0.00    -0.167 F 
ATOM     25  F   UNL A   1      30.815  22.084  22.295  1.00  0.00    -0.167 F 
ATOM     26  F   UNL A   1      32.967  22.292  22.070  1.00  0.00    -0.167 F 
ENDBRANCH  22  23
ENDBRANCH   6   9
ENDBRANCH   4   5
ENDBRANCH   3   4
ENDBRANCH   2   3
ENDBRANCH   1   2
BRANCH   1  27
ATOM     27  C   UNL A   1      33.157  27.836  25.611  1.00  0.00     0.021 C 
BRANCH  27  28
ATOM     28  C   UNL A   1      33.994  28.214  26.829  1.00  0.00     0.116 C 
BRANCH  28  29
ATOM     29  N   UNL A   1      33.846  29.621  27.166  1.00  0.00    -0.352 N 
ATOM     30  C   UNL A   1      34.678  30.427  27.896  1.00  0.00     0.251 C 
ATOM     31  H   UNL A   1      33.034  30.055  26.820  1.00  0.00     0.163 HD
ATOM     32  O   UNL A   1      34.284  31.532  28.273  1.00  0.00    -0.269 OA
BRANCH  30  33
ATOM     33  C   UNL A   1      36.039  29.970  28.234  1.00  0.00     0.039 A 
ATOM     34  C   UNL A   1      37.047  30.071  27.273  1.00  0.00     0.014 A 
ATOM     35  C   UNL A   1      36.313  29.423  29.492  1.00  0.00     0.014 A 
ATOM     36  C   UNL A   1      38.345  29.665  27.589  1.00  0.00     0.010 A 
ATOM     37  C   UNL A   1      37.618  29.075  29.824  1.00  0.00     0.010 A 
ATOM     38  C   UNL A   1      38.644  29.189  28.874  1.00  0.00    -0.014 A 
BRANCH  38  39
ATOM     39  C   UNL A   1      40.024  28.798  29.253  1.00  0.00     0.031 A 
ATOM     40  C   UNL A   1      40.902  29.769  29.989  1.00  0.00     0.074 A 
ATOM     41  C   UNL A   1      40.500  27.596  28.876  1.00  0.00     0.049 A 
ATOM     42  N   UNL A   1      42.164  29.654  30.317  1.00  0.00    -0.248 NA
ATOM     43  C   UNL A   1      40.289  31.044  30.396  1.00  0.00     0.031 C 
ATOM     44  C   UNL A   1      39.742  26.573  28.151  1.00  0.00     0.029 A 
ATOM     45  N   UNL A   1      41.740  27.033  29.044  1.00  0.00    -0.354 N 
ATOM     46  C   UNL A   1      42.497  30.840  30.961  1.00  0.00     0.074 A 
ATOM     47  C   UNL A   1      41.319  31.680  30.937  1.00  0.00     0.031 C 
ATOM     48  C   UNL A   1      40.526  25.501  27.958  1.00  0.00     0.029 A 
ATOM     49  C   UNL A   1      41.852  25.777  28.500  1.00  0.00     0.049 A 
ATOM     50  H   UNL A   1      42.478  27.487  29.510  1.00  0.00     0.167 HD
ATOM     51  C   UNL A   1      43.672  31.189  31.536  1.00  0.00     0.031 A 
ATOM     52  C   UNL A   1      42.908  24.943  28.436  1.00  0.00     0.031 A 
ATOM     53  C   UNL A   1      44.841  30.349  31.552  1.00  0.00     0.049 A 
ATOM     54  C   UNL A   1      44.215  25.372  29.042  1.00  0.00     0.074 A 
ATOM     55  C   UNL A   1      46.077  30.605  32.120  1.00  0.00     0.029 A 
ATOM     56  N   UNL A   1      44.918  29.088  30.978  1.00  0.00    -0.354 N 
ATOM     57  N   UNL A   1      44.510  26.495  29.653  1.00  0.00    -0.248 NA
ATOM     58  C   UNL A   1      45.328  24.417  28.959  1.00  0.00     0.031 C 
ATOM     59  C   UNL A   1      46.917  29.520  31.848  1.00  0.00     0.029 A 
ATOM     60  C   UNL A   1      46.184  28.560  31.168  1.00  0.00     0.049 A 
ATOM     61  H   UNL A   1      44.183  28.636  30.507  1.00  0.00     0.167 HD
ATOM     62  C   UNL A   1      45.834  26.367  30.058  1.00  0.00     0.074 A 
ATOM     63  C   UNL A   1      46.277  25.056  29.631  1.00  0.00     0.031 C 
ATOM     64  C   UNL A   1      46.611  27.254  30.730  1.00  0.00     0.031 A 
BRANCH  51  65
ATOM     65  C   UNL A   1      43.754  32.543  32.192  1.00  0.00    -0.014 A 
ATOM     66  C   UNL A   1      44.037  33.697  31.439  1.00  0.00     0.010 A 
ATOM     67  C   UNL A   1      43.490  32.673  33.568  1.00  0.00     0.010 A 
ATOM     68  C   UNL A   1      44.085  34.951  32.054  1.00  0.00     0.020 A 
ATOM     69  C   UNL A   1      43.507  33.929  34.182  1.00  0.00     0.020 A 
ATOM     70  C   UNL A   1      43.818  35.059  33.423  1.00  0.00     0.054 A 
BRANCH  70  71
ATOM     71  S   UNL A   1      43.851  36.705  34.185  1.00  0.00     0.124 S 
ATOM     72  O   UNL A   1      44.465  36.425  35.480  1.00  0.00    -0.237 OA
ATOM     73  O   UNL A   1      44.674  37.470  33.252  1.00  0.00    -0.237 OA
ATOM     74  O   UNL A   1      42.444  37.093  34.234  1.00  0.00    -0.744 OA
ENDBRANCH  70  71
ENDBRANCH  51  65
BRANCH  52  75
ATOM     75  C   UNL A   1      42.759  23.609  27.792  1.00  0.00    -0.014 A 
ATOM     76  C   UNL A   1      43.234  23.395  26.486  1.00  0.00     0.010 A 
ATOM     77  C   UNL A   1      42.173  22.538  28.492  1.00  0.00     0.010 A 
ATOM     78  C   UNL A   1      43.118  22.137  25.888  1.00  0.00     0.020 A 
ATOM     79  C   UNL A   1      42.080  21.271  27.907  1.00  0.00     0.020 A 
ATOM     80  C   UNL A   1      42.548  21.081  26.604  1.00  0.00     0.054 A 
BRANCH  80  81
ATOM     81  S   UNL A   1      42.469  19.443  25.828  1.00  0.00     0.124 S 
ATOM     82  O   UNL A   1      41.072  19.369  25.413  1.00  0.00    -0.237 OA
ATOM     83  O   UNL A   1      43.447  19.562  24.749  1.00  0.00    -0.237 OA
ATOM     84  O   UNL A   1      42.851  18.534  26.907  1.00  0.00    -0.744 OA
ENDBRANCH  80  81
ENDBRANCH  52  75
BRANCH  64  85
ATOM     85  C   UNL A   1      48.009  26.818  31.083  1.00  0.00    -0.014 A 
ATOM     86  C   UNL A   1      48.274  26.083  32.252  1.00  0.00     0.010 A 
ATOM     87  C   UNL A   1      49.067  27.116  30.206  1.00  0.00     0.010 A 
ATOM     88  C   UNL A   1      49.581  25.694  32.559  1.00  0.00     0.020 A 
ATOM     89  C   UNL A   1      50.370  26.702  30.493  1.00  0.00     0.020 A 
ATOM     90  C   UNL A   1      50.621  26.009  31.678  1.00  0.00     0.054 A 
BRANCH  90  91
ATOM     91  S   UNL A   1      52.305  25.478  32.092  1.00  0.00     0.124 S 
ATOM     92  O   UNL A   1      53.043  25.837  30.884  1.00  0.00    -0.237 OA
ATOM     93  O   UNL A   1      52.610  26.278  33.276  1.00  0.00    -0.237 OA
ATOM     94  O   UNL A   1      52.168  24.044  32.335  1.00  0.00    -0.744 OA
ENDBRANCH  90  91
ENDBRANCH  64  85
ENDBRANCH  38  39
ENDBRANCH  30  33
ENDBRANCH  28  29
ENDBRANCH  27  28
ENDBRANCH   1  27
TORSDOF 17
ENDMDL
MODEL 3
REMARK VINA RESULT:     -11.5      6.520     12.046
REMARK SMILES Cc1c(Br)c(C)c2c(c1Br)O[C@H](C(F)(F)F)C(C(=O)NCCCCCCNC(=O)c1ccc(-c3c4nc(c(-c5ccc(S(=O)(=O)[O-])cc5)c5ccc([nH]5)c(-c5ccc(S(=O)(=O)[O-])cc5)c5nc(c(-c6ccc(S(=O)(=O)[O-])cc6)c6ccc3[nH]6)C=C5)C=C4)cc1)=C2
REMARK SMILES IDX 24 1 23 2 22 3 21 4 20 5 18 6 19 7 17 9 1 10 2 11 3 12 9 13
REMARK SMILES IDX 4 14 5 15 8 16 10 17 6 18 7 19 11 20 90 21 12 22 13 23 14 24
REMARK SMILES IDX 15 25 16 26 25 27 26 28 27 29 28 30 29 32 30 33 31 34 89 35
REMARK SMILES IDX 32 36 88 37 33 38 34 39 35 40 82 41 36 42 87 43 81 44 83 45
REMARK SMILES IDX 37 46 86 47 80 48 79 49 38 51 68 52 49 53 67 54 50 55 53 56
REMARK SMILES IDX 66 57 84 58 51 59 52 60 65 62 85 63 54 64 39 65 40 66 48 67
REMARK SMILES IDX 41 68 47 69 42 70 43 71 44 72 45 73 46 74 69 75 70 76 78 77
REMARK SMILES IDX 71 78 77 79 72 80 73 81 74 82 75 83 76 84 55 85 56 86 64 87
REMARK SMILES IDX 57 88 63 89 58 90 59 91 60 92 61 93 62 94
REMARK H PARENT 20 8 27 31 83 50 53 61
REMARK Flexibility Score: inf
ROOT
ATOM      1  C   UNL A   1      33.956  29.527  26.011  1.00  0.00     0.002 C 
ENDROOT
BRANCH   1   2
ATOM      2  C   UNL A   1      32.919  28.546  25.448  1.00  0.00     0.002 C 
BRANCH   2   3
ATOM      3  C   UNL A   1      33.467  27.538  24.435  1.00  0.00     0.021 C 
BRANCH   3   4
ATOM      4  C   UNL A   1      32.446  26.492  23.999  1.00  0.00     0.116 C 
BRANCH   4   5
ATOM      5  N   UNL A   1      31.754  25.907  25.136  1.00  0.00    -0.352 N 
ATOM      6  C   UNL A   1      31.794  24.746  25.829  1.00  0.00     0.251 C 
ATOM      7  O   UNL A   1      31.016  24.676  26.786  1.00  0.00    -0.270 OA
ATOM      8  H   UNL A   1      31.075  26.520  25.498  1.00  0.00     0.163 HD
BRANCH   6   9
ATOM      9  C   UNL A   1      32.685  23.587  25.519  1.00  0.00     0.067 C 
ATOM     10  C   UNL A   1      37.554  19.232  24.906  1.00  0.00     0.047 C 
ATOM     11  C   UNL A   1      36.674  20.439  25.132  1.00  0.00    -0.019 A 
ATOM     12  C   UNL A   1      37.184  21.682  25.585  1.00  0.00     0.025 A 
ATOM     13  C   UNL A   1      35.285  20.322  24.952  1.00  0.00     0.064 A 
ATOM     14  Br  UNL A   1      39.059  21.835  25.965  1.00  0.00    -0.050 Br
ATOM     15  C   UNL A   1      36.334  22.802  25.799  1.00  0.00    -0.026 A 
ATOM     16  C   UNL A   1      34.435  21.418  25.170  1.00  0.00     0.142 A 
ATOM     17  Br  UNL A   1      34.490  18.655  24.431  1.00  0.00    -0.046 Br
ATOM     18  C   UNL A   1      36.859  24.145  26.259  1.00  0.00     0.046 C 
ATOM     19  C   UNL A   1      34.940  22.650  25.596  1.00  0.00     0.022 A 
ATOM     20  O   UNL A   1      33.096  21.200  25.006  1.00  0.00    -0.474 OA
ATOM     21  C   UNL A   1      33.975  23.723  25.877  1.00  0.00     0.026 C 
ATOM     22  C   UNL A   1      32.233  22.342  24.827  1.00  0.00     0.314 C 
BRANCH  22  23
ATOM     23  C   UNL A   1      31.958  22.557  23.328  1.00  0.00     0.429 C 
ATOM     24  F   UNL A   1      31.727  21.375  22.710  1.00  0.00    -0.167 F 
ATOM     25  F   UNL A   1      30.866  23.325  23.107  1.00  0.00    -0.167 F 
ATOM     26  F   UNL A   1      32.994  23.156  22.698  1.00  0.00    -0.167 F 
ENDBRANCH  22  23
ENDBRANCH   6   9
ENDBRANCH   4   5
ENDBRANCH   3   4
ENDBRANCH   2   3
ENDBRANCH   1   2
BRANCH   1  27
ATOM     27  C   UNL A   1      34.137  29.487  27.534  1.00  0.00     0.021 C 
BRANCH  27  28
ATOM     28  C   UNL A   1      35.484  30.008  28.027  1.00  0.00     0.116 C 
BRANCH  28  29
ATOM     29  N   UNL A   1      35.468  30.264  29.457  1.00  0.00    -0.352 N 
ATOM     30  C   UNL A   1      36.422  29.979  30.397  1.00  0.00     0.251 C 
ATOM     31  H   UNL A   1      34.658  30.706  29.799  1.00  0.00     0.163 HD
ATOM     32  O   UNL A   1      36.145  30.060  31.595  1.00  0.00    -0.269 OA
BRANCH  30  33
ATOM     33  C   UNL A   1      37.775  29.569  29.975  1.00  0.00     0.039 A 
ATOM     34  C   UNL A   1      38.158  29.758  28.646  1.00  0.00     0.014 A 
ATOM     35  C   UNL A   1      38.656  28.979  30.888  1.00  0.00     0.014 A 
ATOM     36  C   UNL A   1      39.444  29.398  28.239  1.00  0.00     0.010 A 
ATOM     37  C   UNL A   1      39.956  28.676  30.496  1.00  0.00     0.010 A 
ATOM     38  C   UNL A   1      40.359  28.879  29.167  1.00  0.00    -0.014 A 
BRANCH  38  39
ATOM     39  C   UNL A   1      41.747  28.534  28.775  1.00  0.00     0.031 A 
ATOM     40  C   UNL A   1      42.804  29.602  28.741  1.00  0.00     0.074 A 
ATOM     41  C   UNL A   1      42.035  27.275  28.391  1.00  0.00     0.049 A 
ATOM     42  N   UNL A   1      44.043  29.522  28.330  1.00  0.00    -0.248 NA
ATOM     43  C   UNL A   1      42.412  30.940  29.214  1.00  0.00     0.031 C 
ATOM     44  C   UNL A   1      41.090  26.156  28.376  1.00  0.00     0.029 A 
ATOM     45  N   UNL A   1      43.205  26.728  27.931  1.00  0.00    -0.354 N 
ATOM     46  C   UNL A   1      44.577  30.796  28.488  1.00  0.00     0.074 A 
ATOM     47  C   UNL A   1      43.514  31.641  28.988  1.00  0.00     0.031 C 
ATOM     48  C   UNL A   1      41.724  25.052  27.953  1.00  0.00     0.029 A 
ATOM     49  C   UNL A   1      43.103  25.394  27.619  1.00  0.00     0.049 A 
ATOM     50  H   UNL A   1      44.039  27.242  27.833  1.00  0.00     0.167 HD
ATOM     51  C   UNL A   1      45.842  31.218  28.254  1.00  0.00     0.031 A 
ATOM     52  C   UNL A   1      44.016  24.541  27.113  1.00  0.00     0.031 A 
ATOM     53  C   UNL A   1      46.893  30.371  27.752  1.00  0.00     0.049 A 
ATOM     54  C   UNL A   1      45.402  25.045  26.820  1.00  0.00     0.074 A 
ATOM     55  C   UNL A   1      48.212  30.699  27.493  1.00  0.00     0.029 A 
ATOM     56  N   UNL A   1      46.745  29.028  27.436  1.00  0.00    -0.354 N 
ATOM     57  N   UNL A   1      45.891  26.252  26.982  1.00  0.00    -0.248 NA
ATOM     58  C   UNL A   1      46.360  24.069  26.286  1.00  0.00     0.031 C 
ATOM     59  C   UNL A   1      48.851  29.567  26.975  1.00  0.00     0.029 A 
ATOM     60  C   UNL A   1      47.946  28.517  26.973  1.00  0.00     0.049 A 
ATOM     61  H   UNL A   1      45.911  28.515  27.527  1.00  0.00     0.167 HD
ATOM     62  C   UNL A   1      47.225  26.171  26.601  1.00  0.00     0.074 A 
ATOM     63  C   UNL A   1      47.467  24.797  26.211  1.00  0.00     0.031 C 
ATOM     64  C   UNL A   1      48.168  27.147  26.582  1.00  0.00     0.031 A 
BRANCH  51  65
ATOM     65  C   UNL A   1      46.159  32.663  28.535  1.00  0.00    -0.014 A 
ATOM     66  C   UNL A   1      46.000  33.646  27.541  1.00  0.00     0.010 A 
ATOM     67  C   UNL A   1      46.570  33.055  29.822  1.00  0.00     0.010 A 
ATOM     68  C   UNL A   1      46.272  34.988  27.820  1.00  0.00     0.020 A 
ATOM     69  C   UNL A   1      46.816  34.400  30.115  1.00  0.00     0.020 A 
ATOM     70  C   UNL A   1      46.678  35.356  29.107  1.00  0.00     0.054 A 
BRANCH  70  71
ATOM     71  S   UNL A   1      46.988  37.111  29.449  1.00  0.00     0.124 S 
ATOM     72  O   UNL A   1      48.075  37.040  30.423  1.00  0.00    -0.237 OA
ATOM     73  O   UNL A   1      47.356  37.630  28.134  1.00  0.00    -0.237 OA
ATOM     74  O   UNL A   1      45.713  37.594  29.972  1.00  0.00    -0.744 OA
ENDBRANCH  70  71
ENDBRANCH  51  65
BRANCH  52  75
ATOM     75  C   UNL A   1      43.647  23.118  26.877  1.00  0.00    -0.014 A 
ATOM     76  C   UNL A   1      43.122  22.339  27.923  1.00  0.00     0.010 A 
ATOM     77  C   UNL A   1      43.789  22.544  25.600  1.00  0.00     0.010 A 
ATOM     78  C   UNL A   1      42.752  21.010  27.699  1.00  0.00     0.020 A 
ATOM     79  C   UNL A   1      43.395  21.223  25.366  1.00  0.00     0.020 A 
ATOM     80  C   UNL A   1      42.885  20.462  26.420  1.00  0.00     0.054 A 
BRANCH  80  81
ATOM     81  S   UNL A   1      42.336  18.755  26.142  1.00  0.00     0.124 S 
ATOM     82  O   UNL A   1      42.510  18.160  27.463  1.00  0.00    -0.237 OA
ATOM     83  O   UNL A   1      40.954  18.938  25.706  1.00  0.00    -0.237 OA
ATOM     84  O   UNL A   1      43.248  18.266  25.110  1.00  0.00    -0.744 OA
ENDBRANCH  80  81
ENDBRANCH  52  75
BRANCH  64  85
ATOM     85  C   UNL A   1      49.561  26.752  26.167  1.00  0.00    -0.014 A 
ATOM     86  C   UNL A   1      50.047  27.025  24.876  1.00  0.00     0.010 A 
ATOM     87  C   UNL A   1      50.410  26.133  27.102  1.00  0.00     0.010 A 
ATOM     88  C   UNL A   1      51.342  26.644  24.515  1.00  0.00     0.020 A 
ATOM     89  C   UNL A   1      51.716  25.778  26.755  1.00  0.00     0.020 A 
ATOM     90  C   UNL A   1      52.167  26.020  25.456  1.00  0.00     0.054 A 
BRANCH  90  91
ATOM     91  S   UNL A   1      53.849  25.551  24.966  1.00  0.00     0.124 S 
ATOM     92  O   UNL A   1      54.663  26.486  25.739  1.00  0.00    -0.237 OA
ATOM     93  O   UNL A   1      53.926  24.154  25.387  1.00  0.00    -0.237 OA
ATOM     94  O   UNL A   1      53.862  25.761  23.521  1.00  0.00    -0.744 OA
ENDBRANCH  90  91
ENDBRANCH  64  85
ENDBRANCH  38  39
ENDBRANCH  30  33
ENDBRANCH  28  29
ENDBRANCH  27  28
ENDBRANCH   1  27
TORSDOF 17
ENDMDL
