MODEL 1
REMARK VINA RESULT:     -11.6      0.000      0.000
REMARK SMILES Cc1cc(=O)c(Oc2ccc(C(=O)NCCCCCCNC(=O)c3ccc(-c4c5nc(c(-c6ccc(S(=O)(=O)[O-])cc6)c6ccc([nH]6)c(-c6ccc(S(=O)(=O)[O-])cc6)c6nc(c(-c7ccc(S(=O)(=O)[O-])cc7)c7ccc4[nH]7)C=C6)C=C5)cc3)cc2)c(-c2ccc(S(C)(=O)=O)cc2)o1
REMARK SMILES IDX 17 1 16 2 15 3 14 4 12 5 13 6 11 8 8 9 9 10 85 11 10 12
REMARK SMILES IDX 84 13 7 14 6 15 1 16 2 17 3 18 97 19 4 20 86 21 5 22 87 23
REMARK SMILES IDX 88 24 96 25 89 26 95 27 90 28 91 29 92 30 93 31 94 32 18 33
REMARK SMILES IDX 19 34 20 35 21 36 22 37 23 39 24 40 25 41 83 42 26 43 82 44
REMARK SMILES IDX 27 45 28 46 29 47 76 48 30 49 81 50 75 51 77 52 31 53 80 54
REMARK SMILES IDX 74 55 73 56 32 58 62 59 43 60 61 61 44 62 47 63 60 64 78 65
REMARK SMILES IDX 45 66 46 67 59 69 79 70 48 71 33 72 34 73 42 74 35 75 41 76
REMARK SMILES IDX 36 77 37 78 38 79 39 80 40 81 63 82 64 83 72 84 65 85 71 86
REMARK SMILES IDX 66 87 67 88 68 89 69 90 70 91 49 92 50 93 58 94 51 95 57 96
REMARK SMILES IDX 52 97 53 98 54 99 55 100 56 101
REMARK H PARENT 14 7 21 38 77 57 47 68
REMARK Flexibility Score: inf
ROOT
ATOM      1  C   UNL A   1      30.679  29.260  24.131  1.00  0.00     0.002 C 
ENDROOT
BRANCH   1   2
ATOM      2  C   UNL A   1      31.073  28.782  22.733  1.00  0.00     0.021 C 
BRANCH   2   3
ATOM      3  C   UNL A   1      30.854  27.310  22.397  1.00  0.00     0.116 C 
BRANCH   3   4
ATOM      4  N   UNL A   1      31.614  26.805  21.273  1.00  0.00    -0.352 N 
ATOM      5  C   UNL A   1      32.422  25.695  21.162  1.00  0.00     0.251 C 
ATOM      6  O   UNL A   1      32.899  25.415  20.064  1.00  0.00    -0.269 OA
ATOM      7  H   UNL A   1      31.541  27.343  20.452  1.00  0.00     0.163 HD
BRANCH   5   8
ATOM      8  C   UNL A   1      32.816  24.886  22.348  1.00  0.00     0.040 A 
ATOM      9  C   UNL A   1      34.007  23.602  24.522  1.00  0.00     0.127 A 
ATOM     10  C   UNL A   1      34.305  23.177  23.232  1.00  0.00     0.048 A 
ATOM     11  C   UNL A   1      32.971  24.511  24.732  1.00  0.00     0.048 A 
ATOM     12  C   UNL A   1      33.738  23.847  22.144  1.00  0.00     0.017 A 
ATOM     13  C   UNL A   1      32.352  25.127  23.643  1.00  0.00     0.017 A 
BRANCH   9  14
ATOM     14  O   UNL A   1      34.611  23.078  25.625  1.00  0.00    -0.449 OA
BRANCH  14  15
ATOM     15  C   UNL A   1      35.940  22.678  25.671  1.00  0.00     0.217 A 
ATOM     16  C   UNL A   1      40.160  21.920  26.242  1.00  0.00     0.088 C 
ATOM     17  C   UNL A   1      38.733  22.301  26.012  1.00  0.00     0.105 A 
ATOM     18  C   UNL A   1      38.284  23.544  26.194  1.00  0.00     0.098 A 
ATOM     19  O   UNL A   1      37.911  21.267  25.620  1.00  0.00    -0.457 OA
ATOM     20  C   UNL A   1      36.857  23.821  25.989  1.00  0.00     0.228 A 
ATOM     21  C   UNL A   1      36.540  21.473  25.471  1.00  0.00     0.180 A 
ATOM     22  O   UNL A   1      36.455  24.976  26.102  1.00  0.00    -0.285 OA
BRANCH  21  23
ATOM     23  C   UNL A   1      35.887  20.198  25.120  1.00  0.00     0.021 A 
ATOM     24  C   UNL A   1      36.670  19.041  24.961  1.00  0.00     0.013 A 
ATOM     25  C   UNL A   1      34.498  20.112  24.949  1.00  0.00     0.013 A 
ATOM     26  C   UNL A   1      36.068  17.801  24.734  1.00  0.00     0.021 A 
ATOM     27  C   UNL A   1      33.889  18.873  24.713  1.00  0.00     0.021 A 
ATOM     28  C   UNL A   1      34.676  17.722  24.628  1.00  0.00     0.067 A 
BRANCH  28  29
ATOM     29  S   UNL A   1      33.909  16.120  24.524  1.00  0.00     0.175 S 
ATOM     30  C   UNL A   1      32.488  16.257  25.569  1.00  0.00     0.163 C 
ATOM     31  O   UNL A   1      33.438  15.958  23.164  1.00  0.00    -0.224 OA
ATOM     32  O   UNL A   1      34.803  15.154  25.137  1.00  0.00    -0.224 OA
ENDBRANCH  28  29
ENDBRANCH  21  23
ENDBRANCH  14  15
ENDBRANCH   9  14
ENDBRANCH   5   8
ENDBRANCH   3   4
ENDBRANCH   2   3
ENDBRANCH   1   2
BRANCH   1  33
ATOM     33  C   UNL A   1      31.559  28.813  25.300  1.00  0.00     0.002 C 
BRANCH  33  34
ATOM     34  C   UNL A   1      33.006  28.453  24.972  1.00  0.00     0.021 C 
BRANCH  34  35
ATOM     35  C   UNL A   1      34.054  28.905  25.979  1.00  0.00     0.116 C 
BRANCH  35  36
ATOM     36  N   UNL A   1      33.795  30.222  26.537  1.00  0.00    -0.352 N 
ATOM     37  C   UNL A   1      34.481  30.907  27.517  1.00  0.00     0.251 C 
ATOM     38  H   UNL A   1      33.017  30.694  26.161  1.00  0.00     0.163 HD
ATOM     39  O   UNL A   1      34.052  31.977  27.936  1.00  0.00    -0.269 OA
BRANCH  37  40
ATOM     40  C   UNL A   1      35.715  30.324  28.095  1.00  0.00     0.039 A 
ATOM     41  C   UNL A   1      35.684  29.650  29.317  1.00  0.00     0.014 A 
ATOM     42  C   UNL A   1      36.928  30.490  27.419  1.00  0.00     0.014 A 
ATOM     43  C   UNL A   1      36.878  29.314  29.948  1.00  0.00     0.010 A 
ATOM     44  C   UNL A   1      38.120  30.064  28.015  1.00  0.00     0.010 A 
ATOM     45  C   UNL A   1      38.112  29.522  29.309  1.00  0.00    -0.014 A 
BRANCH  45  46
ATOM     46  C   UNL A   1      39.374  29.160  30.009  1.00  0.00     0.031 A 
ATOM     47  C   UNL A   1      40.278  28.083  29.468  1.00  0.00     0.074 A 
ATOM     48  C   UNL A   1      39.734  29.849  31.112  1.00  0.00     0.049 A 
ATOM     49  N   UNL A   1      41.425  27.663  29.940  1.00  0.00    -0.248 NA
ATOM     50  C   UNL A   1      39.848  27.387  28.245  1.00  0.00     0.031 C 
ATOM     51  C   UNL A   1      38.954  30.931  31.716  1.00  0.00     0.029 A 
ATOM     52  N   UNL A   1      40.855  29.768  31.901  1.00  0.00    -0.354 N 
ATOM     53  C   UNL A   1      41.846  26.652  29.082  1.00  0.00     0.074 A 
ATOM     54  C   UNL A   1      40.816  26.494  28.080  1.00  0.00     0.031 C 
ATOM     55  C   UNL A   1      39.646  31.455  32.737  1.00  0.00     0.029 A 
ATOM     56  C   UNL A   1      40.882  30.697  32.915  1.00  0.00     0.049 A 
ATOM     57  H   UNL A   1      41.571  29.108  31.756  1.00  0.00     0.167 HD
ATOM     58  C   UNL A   1      42.993  25.932  29.121  1.00  0.00     0.031 A 
ATOM     59  C   UNL A   1      41.786  30.916  33.891  1.00  0.00     0.031 A 
ATOM     60  C   UNL A   1      44.021  26.106  30.115  1.00  0.00     0.049 A 
ATOM     61  C   UNL A   1      43.019  30.063  33.950  1.00  0.00     0.074 A 
ATOM     62  C   UNL A   1      45.228  25.437  30.220  1.00  0.00     0.029 A 
ATOM     63  N   UNL A   1      43.971  27.006  31.170  1.00  0.00    -0.354 N 
ATOM     64  N   UNL A   1      43.402  29.121  33.121  1.00  0.00    -0.248 NA
ATOM     65  C   UNL A   1      43.941  30.294  35.069  1.00  0.00     0.031 C 
ATOM     66  C   UNL A   1      45.874  25.879  31.377  1.00  0.00     0.029 A 
ATOM     67  C   UNL A   1      45.109  26.883  31.949  1.00  0.00     0.049 A 
ATOM     68  H   UNL A   1      43.236  27.638  31.338  1.00  0.00     0.167 HD
ATOM     69  C   UNL A   1      44.613  28.651  33.615  1.00  0.00     0.074 A 
ATOM     70  C   UNL A   1      44.913  29.431  34.800  1.00  0.00     0.031 C 
ATOM     71  C   UNL A   1      45.398  27.658  33.131  1.00  0.00     0.031 A 
BRANCH  58  72
ATOM     72  C   UNL A   1      43.225  24.884  28.059  1.00  0.00    -0.014 A 
ATOM     73  C   UNL A   1      43.018  23.525  28.364  1.00  0.00     0.010 A 
ATOM     74  C   UNL A   1      43.778  25.226  26.813  1.00  0.00     0.010 A 
ATOM     75  C   UNL A   1      43.393  22.527  27.460  1.00  0.00     0.020 A 
ATOM     76  C   UNL A   1      44.128  24.231  25.893  1.00  0.00     0.020 A 
ATOM     77  C   UNL A   1      43.958  22.887  26.233  1.00  0.00     0.054 A 
BRANCH  77  78
ATOM     78  S   UNL A   1      44.476  21.577  25.089  1.00  0.00     0.124 S 
ATOM     79  O   UNL A   1      44.350  22.233  23.792  1.00  0.00    -0.237 OA
ATOM     80  O   UNL A   1      45.842  21.295  25.527  1.00  0.00    -0.237 OA
ATOM     81  O   UNL A   1      43.518  20.503  25.344  1.00  0.00    -0.744 OA
ENDBRANCH  77  78
ENDBRANCH  58  72
BRANCH  59  82
ATOM     82  C   UNL A   1      41.538  32.011  34.872  1.00  0.00    -0.014 A 
ATOM     83  C   UNL A   1      40.687  31.799  35.974  1.00  0.00     0.010 A 
ATOM     84  C   UNL A   1      42.065  33.295  34.654  1.00  0.00     0.010 A 
ATOM     85  C   UNL A   1      40.306  32.865  36.793  1.00  0.00     0.020 A 
ATOM     86  C   UNL A   1      41.714  34.358  35.493  1.00  0.00     0.020 A 
ATOM     87  C   UNL A   1      40.808  34.142  36.535  1.00  0.00     0.054 A 
BRANCH  87  88
ATOM     88  S   UNL A   1      40.239  35.523  37.563  1.00  0.00     0.124 S 
ATOM     89  O   UNL A   1      41.394  35.745  38.430  1.00  0.00    -0.237 OA
ATOM     90  O   UNL A   1      39.981  36.571  36.578  1.00  0.00    -0.237 OA
ATOM     91  O   UNL A   1      39.053  34.989  38.227  1.00  0.00    -0.744 OA
ENDBRANCH  87  88
ENDBRANCH  59  82
BRANCH  71  92
ATOM     92  C   UNL A   1      46.667  27.326  33.874  1.00  0.00    -0.014 A 
ATOM     93  C   UNL A   1      47.880  27.929  33.492  1.00  0.00     0.010 A 
ATOM     94  C   UNL A   1      46.684  26.311  34.847  1.00  0.00     0.010 A 
ATOM     95  C   UNL A   1      49.092  27.492  34.032  1.00  0.00     0.020 A 
ATOM     96  C   UNL A   1      47.892  25.893  35.415  1.00  0.00     0.020 A 
ATOM     97  C   UNL A   1      49.090  26.465  34.981  1.00  0.00     0.054 A 
BRANCH  97  98
ATOM     98  S   UNL A   1      50.677  25.873  35.630  1.00  0.00     0.124 S 
ATOM     99  O   UNL A   1      51.439  27.112  35.758  1.00  0.00    -0.237 OA
ATOM    100  O   UNL A   1      50.291  25.239  36.889  1.00  0.00    -0.237 OA
ATOM    101  O   UNL A   1      51.148  24.953  34.598  1.00  0.00    -0.744 OA
ENDBRANCH  97  98
ENDBRANCH  71  92
ENDBRANCH  45  46
ENDBRANCH  37  40
ENDBRANCH  35  36
ENDBRANCH  34  35
ENDBRANCH  33  34
ENDBRANCH   1  33
TORSDOF 20
ENDMDL
MODEL 2
REMARK VINA RESULT:     -11.3      3.050      9.002
REMARK SMILES Cc1cc(=O)c(Oc2ccc(C(=O)NCCCCCCNC(=O)c3ccc(-c4c5nc(c(-c6ccc(S(=O)(=O)[O-])cc6)c6ccc([nH]6)c(-c6ccc(S(=O)(=O)[O-])cc6)c6nc(c(-c7ccc(S(=O)(=O)[O-])cc7)c7ccc4[nH]7)C=C6)C=C5)cc3)cc2)c(-c2ccc(S(C)(=O)=O)cc2)o1
REMARK SMILES IDX 17 1 16 2 15 3 14 4 12 5 13 6 11 8 8 9 9 10 85 11 10 12
REMARK SMILES IDX 84 13 7 14 6 15 1 16 2 17 3 18 97 19 4 20 86 21 5 22 87 23
REMARK SMILES IDX 88 24 96 25 89 26 95 27 90 28 91 29 92 30 93 31 94 32 18 33
REMARK SMILES IDX 19 34 20 35 21 36 22 37 23 39 24 40 25 41 83 42 26 43 82 44
REMARK SMILES IDX 27 45 28 46 29 47 76 48 30 49 81 50 75 51 77 52 31 53 80 54
REMARK SMILES IDX 74 55 73 56 32 58 62 59 43 60 61 61 44 62 47 63 60 64 78 65
REMARK SMILES IDX 45 66 46 67 59 69 79 70 48 71 33 72 34 73 42 74 35 75 41 76
REMARK SMILES IDX 36 77 37 78 38 79 39 80 40 81 63 82 64 83 72 84 65 85 71 86
REMARK SMILES IDX 66 87 67 88 68 89 69 90 70 91 49 92 50 93 58 94 51 95 57 96
REMARK SMILES IDX 52 97 53 98 54 99 55 100 56 101
REMARK H PARENT 14 7 21 38 77 57 47 68
REMARK Flexibility Score: inf
ROOT
ATOM      1  C   UNL A   1      35.054  31.481  27.618  1.00  0.00     0.002 C 
ENDROOT
BRANCH   1   2
ATOM      2  C   UNL A   1      34.768  30.004  27.890  1.00  0.00     0.021 C 
BRANCH   2   3
ATOM      3  C   UNL A   1      34.551  29.088  26.689  1.00  0.00     0.116 C 
BRANCH   3   4
ATOM      4  N   UNL A   1      33.204  29.058  26.160  1.00  0.00    -0.352 N 
ATOM      5  C   UNL A   1      32.549  28.095  25.427  1.00  0.00     0.251 C 
ATOM      6  O   UNL A   1      31.358  28.255  25.165  1.00  0.00    -0.269 OA
ATOM      7  H   UNL A   1      32.666  29.858  26.359  1.00  0.00     0.163 HD
BRANCH   5   8
ATOM      8  C   UNL A   1      33.262  26.917  24.858  1.00  0.00     0.040 A 
ATOM      9  C   UNL A   1      34.164  24.458  23.893  1.00  0.00     0.127 A 
ATOM     10  C   UNL A   1      34.129  24.681  25.265  1.00  0.00     0.048 A 
ATOM     11  C   UNL A   1      33.954  25.518  23.012  1.00  0.00     0.048 A 
ATOM     12  C   UNL A   1      33.639  25.899  25.747  1.00  0.00     0.017 A 
ATOM     13  C   UNL A   1      33.536  26.757  23.498  1.00  0.00     0.017 A 
BRANCH   9  14
ATOM     14  O   UNL A   1      34.515  23.257  23.354  1.00  0.00    -0.449 OA
BRANCH  14  15
ATOM     15  C   UNL A   1      34.211  22.027  23.924  1.00  0.00     0.217 A 
ATOM     16  C   UNL A   1      32.816  18.148  25.231  1.00  0.00     0.088 C 
ATOM     17  C   UNL A   1      33.178  19.530  24.792  1.00  0.00     0.105 A 
ATOM     18  C   UNL A   1      32.321  20.327  24.150  1.00  0.00     0.098 A 
ATOM     19  O   UNL A   1      34.472  19.911  25.077  1.00  0.00    -0.457 OA
ATOM     20  C   UNL A   1      32.775  21.653  23.714  1.00  0.00     0.228 A 
ATOM     21  C   UNL A   1      34.960  21.137  24.630  1.00  0.00     0.180 A 
ATOM     22  O   UNL A   1      31.970  22.407  23.175  1.00  0.00    -0.285 OA
BRANCH  21  23
ATOM     23  C   UNL A   1      36.382  21.265  25.004  1.00  0.00     0.021 A 
ATOM     24  C   UNL A   1      36.873  22.509  25.436  1.00  0.00     0.013 A 
ATOM     25  C   UNL A   1      37.254  20.168  24.945  1.00  0.00     0.013 A 
ATOM     26  C   UNL A   1      38.186  22.633  25.898  1.00  0.00     0.021 A 
ATOM     27  C   UNL A   1      38.573  20.288  25.398  1.00  0.00     0.021 A 
ATOM     28  C   UNL A   1      39.025  21.514  25.892  1.00  0.00     0.067 A 
BRANCH  28  29
ATOM     29  S   UNL A   1      40.631  21.636  26.650  1.00  0.00     0.175 S 
ATOM     30  C   UNL A   1      40.587  23.188  27.497  1.00  0.00     0.163 C 
ATOM     31  O   UNL A   1      40.711  20.592  27.651  1.00  0.00    -0.224 OA
ATOM     32  O   UNL A   1      41.618  21.750  25.592  1.00  0.00    -0.224 OA
ENDBRANCH  28  29
ENDBRANCH  21  23
ENDBRANCH  14  15
ENDBRANCH   9  14
ENDBRANCH   5   8
ENDBRANCH   3   4
ENDBRANCH   2   3
ENDBRANCH   1   2
BRANCH   1  33
ATOM     33  C   UNL A   1      33.994  32.494  28.056  1.00  0.00     0.002 C 
BRANCH  33  34
ATOM     34  C   UNL A   1      34.263  33.252  29.353  1.00  0.00     0.021 C 
BRANCH  34  35
ATOM     35  C   UNL A   1      33.903  34.731  29.352  1.00  0.00     0.116 C 
BRANCH  35  36
ATOM     36  N   UNL A   1      32.978  35.107  30.408  1.00  0.00    -0.352 N 
ATOM     37  C   UNL A   1      33.120  34.998  31.774  1.00  0.00     0.251 C 
ATOM     38  H   UNL A   1      32.127  35.496  30.104  1.00  0.00     0.163 HD
ATOM     39  O   UNL A   1      32.182  35.275  32.515  1.00  0.00    -0.269 OA
BRANCH  37  40
ATOM     40  C   UNL A   1      34.395  34.502  32.344  1.00  0.00     0.039 A 
ATOM     41  C   UNL A   1      35.545  35.292  32.322  1.00  0.00     0.014 A 
ATOM     42  C   UNL A   1      34.446  33.209  32.875  1.00  0.00     0.014 A 
ATOM     43  C   UNL A   1      36.775  34.729  32.649  1.00  0.00     0.010 A 
ATOM     44  C   UNL A   1      35.670  32.677  33.293  1.00  0.00     0.010 A 
ATOM     45  C   UNL A   1      36.855  33.413  33.133  1.00  0.00    -0.014 A 
BRANCH  45  46
ATOM     46  C   UNL A   1      38.183  32.832  33.470  1.00  0.00     0.031 A 
ATOM     47  C   UNL A   1      38.783  33.012  34.841  1.00  0.00     0.074 A 
ATOM     48  C   UNL A   1      38.827  32.087  32.548  1.00  0.00     0.049 A 
ATOM     49  N   UNL A   1      39.915  32.550  35.307  1.00  0.00    -0.248 NA
ATOM     50  C   UNL A   1      38.019  33.809  35.815  1.00  0.00     0.031 C 
ATOM     51  C   UNL A   1      38.335  31.819  31.195  1.00  0.00     0.029 A 
ATOM     52  N   UNL A   1      40.011  31.394  32.613  1.00  0.00    -0.354 N 
ATOM     53  C   UNL A   1      40.006  33.007  36.617  1.00  0.00     0.074 A 
ATOM     54  C   UNL A   1      38.831  33.813  36.865  1.00  0.00     0.031 C 
ATOM     55  C   UNL A   1      39.173  30.971  30.582  1.00  0.00     0.029 A 
ATOM     56  C   UNL A   1      40.304  30.697  31.464  1.00  0.00     0.049 A 
ATOM     57  H   UNL A   1      40.595  31.397  33.405  1.00  0.00     0.167 HD
ATOM     58  C   UNL A   1      40.974  32.764  37.533  1.00  0.00     0.031 A 
ATOM     59  C   UNL A   1      41.366  29.931  31.140  1.00  0.00     0.031 A 
ATOM     60  C   UNL A   1      42.135  31.948  37.283  1.00  0.00     0.049 A 
ATOM     61  C   UNL A   1      42.456  29.728  32.151  1.00  0.00     0.074 A 
ATOM     62  C   UNL A   1      43.158  31.627  38.159  1.00  0.00     0.029 A 
ATOM     63  N   UNL A   1      42.430  31.324  36.079  1.00  0.00    -0.354 N 
ATOM     64  N   UNL A   1      42.515  30.160  33.388  1.00  0.00    -0.248 NA
ATOM     65  C   UNL A   1      43.623  28.942  31.729  1.00  0.00     0.031 C 
ATOM     66  C   UNL A   1      44.106  30.872  37.465  1.00  0.00     0.029 A 
ATOM     67  C   UNL A   1      43.636  30.651  36.180  1.00  0.00     0.049 A 
ATOM     68  H   UNL A   1      41.865  31.355  35.274  1.00  0.00     0.167 HD
ATOM     69  C   UNL A   1      43.721  29.692  33.896  1.00  0.00     0.074 A 
ATOM     70  C   UNL A   1      44.349  28.921  32.840  1.00  0.00     0.031 C 
ATOM     71  C   UNL A   1      44.259  29.891  35.123  1.00  0.00     0.031 A 
BRANCH  58  72
ATOM     72  C   UNL A   1      40.839  33.374  38.908  1.00  0.00    -0.014 A 
ATOM     73  C   UNL A   1      40.112  32.694  39.904  1.00  0.00     0.010 A 
ATOM     74  C   UNL A   1      41.308  34.673  39.173  1.00  0.00     0.010 A 
ATOM     75  C   UNL A   1      39.823  33.313  41.123  1.00  0.00     0.020 A 
ATOM     76  C   UNL A   1      41.046  35.285  40.404  1.00  0.00     0.020 A 
ATOM     77  C   UNL A   1      40.283  34.611  41.360  1.00  0.00     0.054 A 
BRANCH  77  78
ATOM     78  S   UNL A   1      39.864  35.415  42.933  1.00  0.00     0.124 S 
ATOM     79  O   UNL A   1      40.067  34.335  43.894  1.00  0.00    -0.237 OA
ATOM     80  O   UNL A   1      40.828  36.511  42.998  1.00  0.00    -0.237 OA
ATOM     81  O   UNL A   1      38.476  35.831  42.744  1.00  0.00    -0.744 OA
ENDBRANCH  77  78
ENDBRANCH  58  72
BRANCH  59  82
ATOM     82  C   UNL A   1      41.413  29.297  29.792  1.00  0.00    -0.014 A 
ATOM     83  C   UNL A   1      40.956  27.977  29.611  1.00  0.00     0.010 A 
ATOM     84  C   UNL A   1      42.010  29.966  28.710  1.00  0.00     0.010 A 
ATOM     85  C   UNL A   1      41.163  27.312  28.400  1.00  0.00     0.020 A 
ATOM     86  C   UNL A   1      42.187  29.316  27.484  1.00  0.00     0.020 A 
ATOM     87  C   UNL A   1      41.795  27.982  27.350  1.00  0.00     0.054 A 
BRANCH  87  88
ATOM     88  S   UNL A   1      42.122  27.075  25.813  1.00  0.00     0.124 S 
ATOM     89  O   UNL A   1      42.287  28.163  24.853  1.00  0.00    -0.237 OA
ATOM     90  O   UNL A   1      43.336  26.328  26.134  1.00  0.00    -0.237 OA
ATOM     91  O   UNL A   1      40.922  26.261  25.635  1.00  0.00    -0.744 OA
ENDBRANCH  87  88
ENDBRANCH  59  82
BRANCH  71  92
ATOM     92  C   UNL A   1      45.606  29.284  35.419  1.00  0.00    -0.014 A 
ATOM     93  C   UNL A   1      45.686  27.992  35.973  1.00  0.00     0.010 A 
ATOM     94  C   UNL A   1      46.781  30.046  35.288  1.00  0.00     0.010 A 
ATOM     95  C   UNL A   1      46.905  27.491  36.436  1.00  0.00     0.020 A 
ATOM     96  C   UNL A   1      48.009  29.535  35.719  1.00  0.00     0.020 A 
ATOM     97  C   UNL A   1      48.058  28.274  36.317  1.00  0.00     0.054 A 
BRANCH  97  98
ATOM     98  S   UNL A   1      49.621  27.629  36.972  1.00  0.00     0.124 S 
ATOM     99  O   UNL A   1      49.201  26.382  37.602  1.00  0.00    -0.237 OA
ATOM    100  O   UNL A   1      50.437  27.483  35.769  1.00  0.00    -0.237 OA
ATOM    101  O   UNL A   1      50.065  28.675  37.891  1.00  0.00    -0.744 OA
ENDBRANCH  97  98
ENDBRANCH  71  92
ENDBRANCH  45  46
ENDBRANCH  37  40
ENDBRANCH  35  36
ENDBRANCH  34  35
ENDBRANCH  33  34
ENDBRANCH   1  33
TORSDOF 20
ENDMDL
MODEL 3
REMARK VINA RESULT:     -10.4      5.738     10.674
REMARK SMILES Cc1cc(=O)c(Oc2ccc(C(=O)NCCCCCCNC(=O)c3ccc(-c4c5nc(c(-c6ccc(S(=O)(=O)[O-])cc6)c6ccc([nH]6)c(-c6ccc(S(=O)(=O)[O-])cc6)c6nc(c(-c7ccc(S(=O)(=O)[O-])cc7)c7ccc4[nH]7)C=C6)C=C5)cc3)cc2)c(-c2ccc(S(C)(=O)=O)cc2)o1
REMARK SMILES IDX 17 1 16 2 15 3 14 4 12 5 13 6 11 8 8 9 9 10 85 11 10 12
REMARK SMILES IDX 84 13 7 14 6 15 1 16 2 17 3 18 97 19 4 20 86 21 5 22 87 23
REMARK SMILES IDX 88 24 96 25 89 26 95 27 90 28 91 29 92 30 93 31 94 32 18 33
REMARK SMILES IDX 19 34 20 35 21 36 22 37 23 39 24 40 25 41 83 42 26 43 82 44
REMARK SMILES IDX 27 45 28 46 29 47 76 48 30 49 81 50 75 51 77 52 31 53 80 54
REMARK SMILES IDX 74 55 73 56 32 58 62 59 43 60 61 61 44 62 47 63 60 64 78 65
REMARK SMILES IDX 45 66 46 67 59 69 79 70 48 71 33 72 34 73 42 74 35 75 41 76
REMARK SMILES IDX 36 77 37 78 38 79 39 80 40 81 63 82 64 83 72 84 65 85 71 86
REMARK SMILES IDX 66 87 67 88 68 89 69 90 70 91 49 92 50 93 58 94 51 95 57 96
REMARK SMILES IDX 52 97 53 98 54 99 55 100 56 101
REMARK H PARENT 14 7 21 38 77 57 47 68
REMARK Flexibility Score: inf
ROOT
ATOM      1  C   UNL A   1      39.824  25.514  27.925  1.00  0.00     0.002 C 
ENDROOT
BRANCH   1   2
ATOM      2  C   UNL A   1      39.440  24.436  26.910  1.00  0.00     0.021 C 
BRANCH   2   3
ATOM      3  C   UNL A   1      37.956  24.232  26.618  1.00  0.00     0.116 C 
BRANCH   3   4
ATOM      4  N   UNL A   1      37.591  22.919  26.128  1.00  0.00    -0.352 N 
ATOM      5  C   UNL A   1      36.411  22.459  25.585  1.00  0.00     0.251 C 
ATOM      6  O   UNL A   1      36.366  21.311  25.150  1.00  0.00    -0.269 OA
ATOM      7  H   UNL A   1      38.303  22.243  26.192  1.00  0.00     0.163 HD
BRANCH   5   8
ATOM      8  C   UNL A   1      35.166  23.276  25.601  1.00  0.00     0.040 A 
ATOM      9  C   UNL A   1      32.977  24.933  26.107  1.00  0.00     0.127 A 
ATOM     10  C   UNL A   1      33.002  23.652  26.648  1.00  0.00     0.048 A 
ATOM     11  C   UNL A   1      33.927  25.304  25.157  1.00  0.00     0.048 A 
ATOM     12  C   UNL A   1      34.117  22.838  26.426  1.00  0.00     0.017 A 
ATOM     13  C   UNL A   1      35.003  24.460  24.879  1.00  0.00     0.017 A 
BRANCH   9  14
ATOM     14  O   UNL A   1      31.982  25.823  26.377  1.00  0.00    -0.449 OA
BRANCH  14  15
ATOM     15  C   UNL A   1      31.443  26.698  25.442  1.00  0.00     0.217 A 
ATOM     16  C   UNL A   1      29.283  28.990  22.478  1.00  0.00     0.088 C 
ATOM     17  C   UNL A   1      30.030  28.101  23.419  1.00  0.00     0.105 A 
ATOM     18  C   UNL A   1      29.884  26.775  23.422  1.00  0.00     0.098 A 
ATOM     19  O   UNL A   1      30.863  28.757  24.301  1.00  0.00    -0.457 OA
ATOM     20  C   UNL A   1      30.623  25.982  24.412  1.00  0.00     0.228 A 
ATOM     21  C   UNL A   1      31.537  28.048  25.294  1.00  0.00     0.180 A 
ATOM     22  O   UNL A   1      30.533  24.757  24.378  1.00  0.00    -0.285 OA
BRANCH  21  23
ATOM     23  C   UNL A   1      32.295  28.989  26.140  1.00  0.00     0.021 A 
ATOM     24  C   UNL A   1      33.599  28.655  26.546  1.00  0.00     0.013 A 
ATOM     25  C   UNL A   1      31.746  30.215  26.542  1.00  0.00     0.013 A 
ATOM     26  C   UNL A   1      34.379  29.572  27.256  1.00  0.00     0.021 A 
ATOM     27  C   UNL A   1      32.519  31.134  27.261  1.00  0.00     0.021 A 
ATOM     28  C   UNL A   1      33.838  30.816  27.596  1.00  0.00     0.067 A 
BRANCH  28  29
ATOM     29  S   UNL A   1      34.894  32.043  28.335  1.00  0.00     0.175 S 
ATOM     30  C   UNL A   1      33.888  33.497  28.389  1.00  0.00     0.163 C 
ATOM     31  O   UNL A   1      35.139  31.629  29.702  1.00  0.00    -0.224 OA
ATOM     32  O   UNL A   1      35.986  32.307  27.416  1.00  0.00    -0.224 OA
ENDBRANCH  28  29
ENDBRANCH  21  23
ENDBRANCH  14  15
ENDBRANCH   9  14
ENDBRANCH   5   8
ENDBRANCH   3   4
ENDBRANCH   2   3
ENDBRANCH   1   2
BRANCH   1  33
ATOM     33  C   UNL A   1      41.030  26.394  27.592  1.00  0.00     0.002 C 
BRANCH  33  34
ATOM     34  C   UNL A   1      40.826  27.464  26.523  1.00  0.00     0.021 C 
BRANCH  34  35
ATOM     35  C   UNL A   1      40.230  28.782  26.998  1.00  0.00     0.116 C 
BRANCH  35  36
ATOM     36  N   UNL A   1      38.966  28.630  27.700  1.00  0.00    -0.352 N 
ATOM     37  C   UNL A   1      38.477  29.328  28.781  1.00  0.00     0.251 C 
ATOM     38  H   UNL A   1      38.373  27.925  27.351  1.00  0.00     0.163 HD
ATOM     39  O   UNL A   1      37.422  28.989  29.309  1.00  0.00    -0.269 OA
BRANCH  37  40
ATOM     40  C   UNL A   1      39.252  30.464  29.335  1.00  0.00     0.039 A 
ATOM     41  C   UNL A   1      40.577  30.296  29.741  1.00  0.00     0.014 A 
ATOM     42  C   UNL A   1      38.627  31.706  29.485  1.00  0.00     0.014 A 
ATOM     43  C   UNL A   1      41.209  31.303  30.463  1.00  0.00     0.010 A 
ATOM     44  C   UNL A   1      39.301  32.750  30.129  1.00  0.00     0.010 A 
ATOM     45  C   UNL A   1      40.578  32.541  30.672  1.00  0.00    -0.014 A 
BRANCH  45  46
ATOM     46  C   UNL A   1      41.273  33.599  31.454  1.00  0.00     0.031 A 
ATOM     47  C   UNL A   1      42.044  34.694  30.762  1.00  0.00     0.074 A 
ATOM     48  C   UNL A   1      41.160  33.604  32.799  1.00  0.00     0.049 A 
ATOM     49  N   UNL A   1      42.684  35.706  31.291  1.00  0.00    -0.248 NA
ATOM     50  C   UNL A   1      42.106  34.654  29.292  1.00  0.00     0.031 C 
ATOM     51  C   UNL A   1      40.419  32.612  33.580  1.00  0.00     0.029 A 
ATOM     52  N   UNL A   1      41.636  34.481  33.742  1.00  0.00    -0.354 N 
ATOM     53  C   UNL A   1      43.232  36.413  30.226  1.00  0.00     0.074 A 
ATOM     54  C   UNL A   1      42.880  35.697  29.020  1.00  0.00     0.031 C 
ATOM     55  C   UNL A   1      40.435  32.970  34.872  1.00  0.00     0.029 A 
ATOM     56  C   UNL A   1      41.253  34.170  35.026  1.00  0.00     0.049 A 
ATOM     57  H   UNL A   1      42.198  35.258  33.521  1.00  0.00     0.167 HD
ATOM     58  C   UNL A   1      43.950  37.561  30.253  1.00  0.00     0.031 A 
ATOM     59  C   UNL A   1      41.532  34.766  36.202  1.00  0.00     0.031 A 
ATOM     60  C   UNL A   1      44.284  38.276  31.459  1.00  0.00     0.049 A 
ATOM     61  C   UNL A   1      42.383  36.003  36.211  1.00  0.00     0.074 A 
ATOM     62  C   UNL A   1      44.989  39.461  31.581  1.00  0.00     0.029 A 
ATOM     63  N   UNL A   1      43.940  37.882  32.744  1.00  0.00    -0.354 N 
ATOM     64  N   UNL A   1      42.879  36.661  35.191  1.00  0.00    -0.248 NA
ATOM     65  C   UNL A   1      42.715  36.578  37.520  1.00  0.00     0.031 C 
ATOM     66  C   UNL A   1      45.134  39.744  32.940  1.00  0.00     0.029 A 
ATOM     67  C   UNL A   1      44.450  38.782  33.665  1.00  0.00     0.049 A 
ATOM     68  H   UNL A   1      43.412  37.082  32.967  1.00  0.00     0.167 HD
ATOM     69  C   UNL A   1      43.578  37.732  35.735  1.00  0.00     0.074 A 
ATOM     70  C   UNL A   1      43.417  37.650  37.173  1.00  0.00     0.031 C 
ATOM     71  C   UNL A   1      44.292  38.691  35.096  1.00  0.00     0.031 A 
BRANCH  58  72
ATOM     72  C   UNL A   1      44.432  38.144  28.946  1.00  0.00    -0.014 A 
ATOM     73  C   UNL A   1      45.732  37.853  28.490  1.00  0.00     0.010 A 
ATOM     74  C   UNL A   1      43.657  39.083  28.243  1.00  0.00     0.010 A 
ATOM     75  C   UNL A   1      46.263  38.516  27.380  1.00  0.00     0.020 A 
ATOM     76  C   UNL A   1      44.174  39.728  27.114  1.00  0.00     0.020 A 
ATOM     77  C   UNL A   1      45.483  39.460  26.706  1.00  0.00     0.054 A 
BRANCH  77  78
ATOM     78  S   UNL A   1      46.203  40.341  25.291  1.00  0.00     0.124 S 
ATOM     79  O   UNL A   1      46.739  39.247  24.488  1.00  0.00    -0.237 OA
ATOM     80  O   UNL A   1      45.048  41.035  24.727  1.00  0.00    -0.237 OA
ATOM     81  O   UNL A   1      47.201  41.214  25.906  1.00  0.00    -0.744 OA
ENDBRANCH  77  78
ENDBRANCH  58  72
BRANCH  59  82
ATOM     82  C   UNL A   1      40.972  34.187  37.456  1.00  0.00    -0.014 A 
ATOM     83  C   UNL A   1      39.748  34.656  37.972  1.00  0.00     0.010 A 
ATOM     84  C   UNL A   1      41.706  33.243  38.194  1.00  0.00     0.010 A 
ATOM     85  C   UNL A   1      39.307  34.253  39.234  1.00  0.00     0.020 A 
ATOM     86  C   UNL A   1      41.249  32.809  39.443  1.00  0.00     0.020 A 
ATOM     87  C   UNL A   1      40.071  33.344  39.969  1.00  0.00     0.054 A 
BRANCH  87  88
ATOM     88  S   UNL A   1      39.517  32.894  41.637  1.00  0.00     0.124 S 
ATOM     89  O   UNL A   1      40.173  33.912  42.454  1.00  0.00    -0.237 OA
ATOM     90  O   UNL A   1      38.064  33.010  41.534  1.00  0.00    -0.237 OA
ATOM     91  O   UNL A   1      40.021  31.534  41.809  1.00  0.00    -0.744 OA
ENDBRANCH  87  88
ENDBRANCH  59  82
BRANCH  71  92
ATOM     92  C   UNL A   1      44.980  39.741  35.930  1.00  0.00    -0.014 A 
ATOM     93  C   UNL A   1      44.339  40.971  36.174  1.00  0.00     0.010 A 
ATOM     94  C   UNL A   1      46.313  39.570  36.343  1.00  0.00     0.010 A 
ATOM     95  C   UNL A   1      45.032  42.027  36.772  1.00  0.00     0.020 A 
ATOM     96  C   UNL A   1      46.999  40.614  36.972  1.00  0.00     0.020 A 
ATOM     97  C   UNL A   1      46.364  41.844  37.154  1.00  0.00     0.054 A 
BRANCH  97  98
ATOM     98  S   UNL A   1      47.263  43.242  37.879  1.00  0.00     0.124 S 
ATOM     99  O   UNL A   1      48.232  43.560  36.835  1.00  0.00    -0.237 OA
ATOM    100  O   UNL A   1      46.207  44.232  38.080  1.00  0.00    -0.237 OA
ATOM    101  O   UNL A   1      47.827  42.688  39.108  1.00  0.00    -0.744 OA
ENDBRANCH  97  98
ENDBRANCH  71  92
ENDBRANCH  45  46
ENDBRANCH  37  40
ENDBRANCH  35  36
ENDBRANCH  34  35
ENDBRANCH  33  34
ENDBRANCH   1  33
TORSDOF 20
ENDMDL
