MODEL 1
REMARK VINA RESULT:     -11.6      0.000      0.000
REMARK SMILES O=C(Cn1nc(C(=O)NCCCCCCNC(=O)c2ccc(-c3c4nc(c(-c5ccc(S(=O)(=O)[O-])cc5)c5ccc([nH]5)c(-c5ccc(S(=O)(=O)[O-])cc5)c5nc(c(-c6ccc(S(=O)(=O)[O-])cc6)c6ccc3[nH]6)C=C5)C=C4)cc2)c2ccccc2c1=O)Nc1ccc2c(c1)C(=O)c1ccccc1C2=O
REMARK SMILES IDX 12 1 11 2 10 3 9 4 7 5 8 6 6 8 4 9 5 10 85 11 84 12 86 13
REMARK SMILES IDX 79 14 83 15 80 16 82 17 81 18 3 19 2 20 1 21 87 22 88 24
REMARK SMILES IDX 89 25 93 26 90 27 92 28 91 29 94 30 102 31 95 32 96 33
REMARK SMILES IDX 101 34 103 35 97 36 100 37 98 38 99 39 13 40 14 41 15 42
REMARK SMILES IDX 16 43 17 44 18 46 19 47 20 48 78 49 21 50 77 51 22 52 23 53
REMARK SMILES IDX 24 54 71 55 25 56 76 57 70 58 72 59 26 60 75 61 69 62 68 63
REMARK SMILES IDX 27 65 57 66 38 67 56 68 39 69 42 70 55 71 73 72 40 73 41 74
REMARK SMILES IDX 54 76 74 77 43 78 28 79 29 80 37 81 30 82 36 83 31 84 32 85
REMARK SMILES IDX 33 86 34 87 35 88 58 89 59 90 67 91 60 92 66 93 61 94 62 95
REMARK SMILES IDX 63 96 64 97 65 98 44 99 45 100 53 101 46 102 52 103 47 104
REMARK SMILES IDX 48 105 49 106 50 107 51 108
REMARK H PARENT 9 7 87 23 16 45 72 64 42 75
REMARK Flexibility Score: inf
ROOT
ATOM      1  C   UNL A   1      33.768  24.040  26.616  1.00  0.00     0.002 C 
ENDROOT
BRANCH   1   2
ATOM      2  C   UNL A   1      32.410  23.956  27.314  1.00  0.00     0.021 C 
BRANCH   2   3
ATOM      3  C   UNL A   1      31.224  23.416  26.521  1.00  0.00     0.116 C 
BRANCH   3   4
ATOM      4  N   UNL A   1      30.111  24.336  26.404  1.00  0.00    -0.351 N 
ATOM      5  C   UNL A   1      30.012  25.462  25.616  1.00  0.00     0.272 C 
ATOM      6  O   UNL A   1      28.905  25.932  25.372  1.00  0.00    -0.267 OA
ATOM      7  H   UNL A   1      29.325  24.130  26.959  1.00  0.00     0.163 HD
BRANCH   5   8
ATOM      8  C   UNL A   1      31.266  26.158  25.066  1.00  0.00     0.156 A 
ATOM      9  N   UNL A   1      32.880  26.327  23.416  1.00  0.00    -0.219 N 
ATOM     10  N   UNL A   1      31.726  25.762  23.911  1.00  0.00    -0.163 NA
ATOM     11  C   UNL A   1      33.554  27.378  24.029  1.00  0.00     0.275 A 
ATOM     12  C   UNL A   1      32.977  27.902  25.272  1.00  0.00     0.051 A 
ATOM     13  O   UNL A   1      34.600  27.863  23.609  1.00  0.00    -0.267 OA
ATOM     14  C   UNL A   1      31.887  27.258  25.848  1.00  0.00     0.020 A 
ATOM     15  C   UNL A   1      33.576  29.007  25.896  1.00  0.00     0.014 A 
ATOM     16  C   UNL A   1      31.434  27.696  27.100  1.00  0.00     0.011 A 
ATOM     17  C   UNL A   1      33.101  29.454  27.124  1.00  0.00     0.001 A 
ATOM     18  C   UNL A   1      32.041  28.789  27.732  1.00  0.00     0.001 A 
BRANCH   9  19
ATOM     19  C   UNL A   1      33.537  25.653  22.292  1.00  0.00     0.248 C 
BRANCH  19  20
ATOM     20  C   UNL A   1      33.675  24.165  22.586  1.00  0.00     0.246 C 
ATOM     21  O   UNL A   1      34.660  23.512  22.250  1.00  0.00    -0.273 OA
ATOM     22  N   UNL A   1      32.632  23.638  23.317  1.00  0.00    -0.324 N 
ATOM     23  H   UNL A   1      32.187  24.217  23.977  1.00  0.00     0.169 HD
BRANCH  22  24
ATOM     24  C   UNL A   1      32.170  22.323  23.174  1.00  0.00     0.042 A 
ATOM     25  C   UNL A   1      32.003  21.817  21.881  1.00  0.00     0.027 A 
ATOM     26  C   UNL A   1      32.143  21.471  24.284  1.00  0.00     0.039 A 
ATOM     27  C   UNL A   1      31.862  20.447  21.677  1.00  0.00     0.015 A 
ATOM     28  C   UNL A   1      32.159  20.095  24.059  1.00  0.00     0.036 A 
ATOM     29  C   UNL A   1      32.026  19.588  22.763  1.00  0.00     0.034 A 
ATOM     30  C   UNL A   1      32.610  19.189  25.140  1.00  0.00     0.194 C 
ATOM     31  C   UNL A   1      32.325  18.168  22.508  1.00  0.00     0.194 C 
ATOM     32  O   UNL A   1      32.433  19.440  26.323  1.00  0.00    -0.289 OA
ATOM     33  C   UNL A   1      33.432  18.036  24.717  1.00  0.00     0.034 A 
ATOM     34  C   UNL A   1      33.299  17.542  23.420  1.00  0.00     0.034 A 
ATOM     35  O   UNL A   1      31.895  17.578  21.526  1.00  0.00    -0.289 OA
ATOM     36  C   UNL A   1      34.430  17.540  25.559  1.00  0.00     0.013 A 
ATOM     37  C   UNL A   1      34.171  16.561  22.943  1.00  0.00     0.013 A 
ATOM     38  C   UNL A   1      35.322  16.581  25.075  1.00  0.00     0.001 A 
ATOM     39  C   UNL A   1      35.196  16.097  23.769  1.00  0.00     0.001 A 
ENDBRANCH  22  24
ENDBRANCH  19  20
ENDBRANCH   9  19
ENDBRANCH   5   8
ENDBRANCH   3   4
ENDBRANCH   2   3
ENDBRANCH   1   2
BRANCH   1  40
ATOM     40  C   UNL A   1      34.689  22.820  26.670  1.00  0.00     0.002 C 
BRANCH  40  41
ATOM     41  C   UNL A   1      35.606  22.566  25.473  1.00  0.00     0.021 C 
BRANCH  41  42
ATOM     42  C   UNL A   1      36.898  23.371  25.405  1.00  0.00     0.116 C 
BRANCH  42  43
ATOM     43  N   UNL A   1      38.104  22.566  25.480  1.00  0.00    -0.352 N 
ATOM     44  C   UNL A   1      39.311  22.875  26.070  1.00  0.00     0.251 C 
ATOM     45  H   UNL A   1      38.053  21.682  25.051  1.00  0.00     0.163 HD
ATOM     46  O   UNL A   1      40.253  22.092  25.981  1.00  0.00    -0.269 OA
BRANCH  44  47
ATOM     47  C   UNL A   1      39.491  24.173  26.766  1.00  0.00     0.039 A 
ATOM     48  C   UNL A   1      40.156  25.240  26.157  1.00  0.00     0.014 A 
ATOM     49  C   UNL A   1      38.999  24.314  28.068  1.00  0.00     0.014 A 
ATOM     50  C   UNL A   1      40.464  26.381  26.898  1.00  0.00     0.010 A 
ATOM     51  C   UNL A   1      39.259  25.483  28.793  1.00  0.00     0.010 A 
ATOM     52  C   UNL A   1      40.038  26.504  28.231  1.00  0.00    -0.014 A 
BRANCH  52  53
ATOM     53  C   UNL A   1      40.444  27.695  29.022  1.00  0.00     0.031 A 
ATOM     54  C   UNL A   1      41.854  27.831  29.534  1.00  0.00     0.074 A 
ATOM     55  C   UNL A   1      39.566  28.698  29.214  1.00  0.00     0.049 A 
ATOM     56  N   UNL A   1      42.403  28.835  30.169  1.00  0.00    -0.248 NA
ATOM     57  C   UNL A   1      42.765  26.700  29.300  1.00  0.00     0.031 C 
ATOM     58  C   UNL A   1      38.177  28.700  28.753  1.00  0.00     0.029 A 
ATOM     59  N   UNL A   1      39.723  29.924  29.813  1.00  0.00    -0.354 N 
ATOM     60  C   UNL A   1      43.716  28.456  30.420  1.00  0.00     0.074 A 
ATOM     61  C   UNL A   1      43.879  27.121  29.884  1.00  0.00     0.031 C 
ATOM     62  C   UNL A   1      37.629  29.894  29.026  1.00  0.00     0.029 A 
ATOM     63  C   UNL A   1      38.613  30.727  29.714  1.00  0.00     0.049 A 
ATOM     64  H   UNL A   1      40.551  30.199  30.267  1.00  0.00     0.167 HD
ATOM     65  C   UNL A   1      44.701  29.155  31.031  1.00  0.00     0.031 A 
ATOM     66  C   UNL A   1      38.407  31.997  30.116  1.00  0.00     0.031 A 
ATOM     67  C   UNL A   1      44.552  30.483  31.562  1.00  0.00     0.049 A 
ATOM     68  C   UNL A   1      39.507  32.749  30.804  1.00  0.00     0.074 A 
ATOM     69  C   UNL A   1      45.495  31.258  32.214  1.00  0.00     0.029 A 
ATOM     70  N   UNL A   1      43.391  31.238  31.494  1.00  0.00    -0.354 N 
ATOM     71  N   UNL A   1      40.733  32.358  31.056  1.00  0.00    -0.248 NA
ATOM     72  C   UNL A   1      39.196  34.108  31.269  1.00  0.00     0.031 C 
ATOM     73  C   UNL A   1      44.897  32.476  32.561  1.00  0.00     0.029 A 
ATOM     74  C   UNL A   1      43.591  32.467  32.097  1.00  0.00     0.049 A 
ATOM     75  H   UNL A   1      42.549  30.942  31.078  1.00  0.00     0.167 HD
ATOM     76  C   UNL A   1      41.340  33.422  31.713  1.00  0.00     0.074 A 
ATOM     77  C   UNL A   1      40.353  34.479  31.804  1.00  0.00     0.031 C 
ATOM     78  C   UNL A   1      42.601  33.507  32.197  1.00  0.00     0.031 A 
BRANCH  65  79
ATOM     79  C   UNL A   1      46.039  28.490  31.172  1.00  0.00    -0.014 A 
ATOM     80  C   UNL A   1      46.316  27.704  32.305  1.00  0.00     0.010 A 
ATOM     81  C   UNL A   1      47.042  28.684  30.206  1.00  0.00     0.010 A 
ATOM     82  C   UNL A   1      47.574  27.118  32.470  1.00  0.00     0.020 A 
ATOM     83  C   UNL A   1      48.296  28.088  30.361  1.00  0.00     0.020 A 
ATOM     84  C   UNL A   1      48.558  27.316  31.497  1.00  0.00     0.054 A 
BRANCH  84  85
ATOM     85  S   UNL A   1      50.174  26.513  31.685  1.00  0.00     0.124 S 
ATOM     86  O   UNL A   1      50.664  26.482  30.311  1.00  0.00    -0.237 OA
ATOM     87  O   UNL A   1      50.884  27.414  32.591  1.00  0.00    -0.237 OA
ATOM     88  O   UNL A   1      49.833  25.213  32.262  1.00  0.00    -0.744 OA
ENDBRANCH  84  85
ENDBRANCH  65  79
BRANCH  66  89
ATOM     89  C   UNL A   1      37.096  32.632  29.830  1.00  0.00    -0.014 A 
ATOM     90  C   UNL A   1      36.966  33.549  28.773  1.00  0.00     0.010 A 
ATOM     91  C   UNL A   1      36.003  32.397  30.680  1.00  0.00     0.010 A 
ATOM     92  C   UNL A   1      35.777  34.260  28.599  1.00  0.00     0.020 A 
ATOM     93  C   UNL A   1      34.807  33.098  30.500  1.00  0.00     0.020 A 
ATOM     94  C   UNL A   1      34.712  34.046  29.478  1.00  0.00     0.054 A 
BRANCH  94  95
ATOM     95  S   UNL A   1      33.194  35.020  29.288  1.00  0.00     0.124 S 
ATOM     96  O   UNL A   1      32.649  34.989  30.642  1.00  0.00    -0.237 OA
ATOM     97  O   UNL A   1      33.690  36.318  28.839  1.00  0.00    -0.237 OA
ATOM     98  O   UNL A   1      32.437  34.268  28.290  1.00  0.00    -0.744 OA
ENDBRANCH  94  95
ENDBRANCH  66  89
BRANCH  78  99
ATOM     99  C   UNL A   1      43.003  34.777  32.891  1.00  0.00    -0.014 A 
ATOM    100  C   UNL A   1      43.609  35.814  32.162  1.00  0.00     0.010 A 
ATOM    101  C   UNL A   1      42.874  34.897  34.286  1.00  0.00     0.010 A 
ATOM    102  C   UNL A   1      44.098  36.946  32.817  1.00  0.00     0.020 A 
ATOM    103  C   UNL A   1      43.351  36.033  34.944  1.00  0.00     0.020 A 
ATOM    104  C   UNL A   1      43.978  37.042  34.207  1.00  0.00     0.054 A 
BRANCH 104 105
ATOM    105  S   UNL A   1      44.628  38.508  35.056  1.00  0.00     0.124 S 
ATOM    106  O   UNL A   1      44.066  38.361  36.395  1.00  0.00    -0.237 OA
ATOM    107  O   UNL A   1      46.075  38.331  34.959  1.00  0.00    -0.237 OA
ATOM    108  O   UNL A   1      44.092  39.617  34.269  1.00  0.00    -0.744 OA
ENDBRANCH 104 105
ENDBRANCH  78  99
ENDBRANCH  52  53
ENDBRANCH  44  47
ENDBRANCH  42  43
ENDBRANCH  41  42
ENDBRANCH  40  41
ENDBRANCH   1  40
TORSDOF 19
ENDMDL
MODEL 2
REMARK VINA RESULT:     -11.6      4.294      7.447
REMARK SMILES O=C(Cn1nc(C(=O)NCCCCCCNC(=O)c2ccc(-c3c4nc(c(-c5ccc(S(=O)(=O)[O-])cc5)c5ccc([nH]5)c(-c5ccc(S(=O)(=O)[O-])cc5)c5nc(c(-c6ccc(S(=O)(=O)[O-])cc6)c6ccc3[nH]6)C=C5)C=C4)cc2)c2ccccc2c1=O)Nc1ccc2c(c1)C(=O)c1ccccc1C2=O
REMARK SMILES IDX 12 1 11 2 10 3 9 4 7 5 8 6 6 8 4 9 5 10 85 11 84 12 86 13
REMARK SMILES IDX 79 14 83 15 80 16 82 17 81 18 3 19 2 20 1 21 87 22 88 24
REMARK SMILES IDX 89 25 93 26 90 27 92 28 91 29 94 30 102 31 95 32 96 33
REMARK SMILES IDX 101 34 103 35 97 36 100 37 98 38 99 39 13 40 14 41 15 42
REMARK SMILES IDX 16 43 17 44 18 46 19 47 20 48 78 49 21 50 77 51 22 52 23 53
REMARK SMILES IDX 24 54 71 55 25 56 76 57 70 58 72 59 26 60 75 61 69 62 68 63
REMARK SMILES IDX 27 65 57 66 38 67 56 68 39 69 42 70 55 71 73 72 40 73 41 74
REMARK SMILES IDX 54 76 74 77 43 78 28 79 29 80 37 81 30 82 36 83 31 84 32 85
REMARK SMILES IDX 33 86 34 87 35 88 58 89 59 90 67 91 60 92 66 93 61 94 62 95
REMARK SMILES IDX 63 96 64 97 65 98 44 99 45 100 53 101 46 102 52 103 47 104
REMARK SMILES IDX 48 105 49 106 50 107 51 108
REMARK H PARENT 9 7 87 23 16 45 72 64 42 75
REMARK Flexibility Score: inf
ROOT
ATOM      1  C   UNL A   1      39.501  22.526  26.796  1.00  0.00     0.002 C 
ENDROOT
BRANCH   1   2
ATOM      2  C   UNL A   1      38.802  22.172  25.483  1.00  0.00     0.021 C 
BRANCH   2   3
ATOM      3  C   UNL A   1      37.279  22.253  25.432  1.00  0.00     0.116 C 
BRANCH   3   4
ATOM      4  N   UNL A   1      36.743  23.586  25.614  1.00  0.00    -0.351 N 
ATOM      5  C   UNL A   1      35.474  24.043  25.331  1.00  0.00     0.272 C 
ATOM      6  O   UNL A   1      35.078  25.083  25.849  1.00  0.00    -0.267 OA
ATOM      7  H   UNL A   1      37.364  24.251  25.989  1.00  0.00     0.163 HD
BRANCH   5   8
ATOM      8  C   UNL A   1      34.560  23.292  24.351  1.00  0.00     0.156 A 
ATOM      9  N   UNL A   1      33.606  23.134  22.248  1.00  0.00    -0.219 N 
ATOM     10  N   UNL A   1      34.461  23.752  23.135  1.00  0.00    -0.163 NA
ATOM     11  C   UNL A   1      32.896  21.974  22.536  1.00  0.00     0.275 A 
ATOM     12  C   UNL A   1      33.092  21.389  23.868  1.00  0.00     0.051 A 
ATOM     13  O   UNL A   1      32.109  21.438  21.762  1.00  0.00    -0.267 OA
ATOM     14  C   UNL A   1      33.850  22.071  24.814  1.00  0.00     0.020 A 
ATOM     15  C   UNL A   1      32.454  20.180  24.188  1.00  0.00     0.014 A 
ATOM     16  C   UNL A   1      33.915  21.560  26.117  1.00  0.00     0.011 A 
ATOM     17  C   UNL A   1      32.549  19.664  25.476  1.00  0.00     0.001 A 
ATOM     18  C   UNL A   1      33.267  20.362  26.443  1.00  0.00     0.001 A 
BRANCH   9  19
ATOM     19  C   UNL A   1      33.280  23.850  21.011  1.00  0.00     0.248 C 
BRANCH  19  20
ATOM     20  C   UNL A   1      32.746  25.238  21.338  1.00  0.00     0.246 C 
ATOM     21  O   UNL A   1      33.284  26.266  20.934  1.00  0.00    -0.273 OA
ATOM     22  N   UNL A   1      31.576  25.234  22.066  1.00  0.00    -0.324 N 
ATOM     23  H   UNL A   1      30.938  24.498  21.917  1.00  0.00     0.169 HD
BRANCH  22  24
ATOM     24  C   UNL A   1      31.242  26.217  23.006  1.00  0.00     0.042 A 
ATOM     25  C   UNL A   1      32.279  26.934  23.611  1.00  0.00     0.027 A 
ATOM     26  C   UNL A   1      29.914  26.644  23.123  1.00  0.00     0.039 A 
ATOM     27  C   UNL A   1      32.009  28.117  24.294  1.00  0.00     0.015 A 
ATOM     28  C   UNL A   1      29.673  27.903  23.672  1.00  0.00     0.036 A 
ATOM     29  C   UNL A   1      30.716  28.636  24.246  1.00  0.00     0.034 A 
ATOM     30  C   UNL A   1      28.391  28.586  23.383  1.00  0.00     0.194 C 
ATOM     31  C   UNL A   1      30.510  30.061  24.561  1.00  0.00     0.194 C 
ATOM     32  O   UNL A   1      27.347  27.975  23.207  1.00  0.00    -0.289 OA
ATOM     33  C   UNL A   1      28.471  30.045  23.159  1.00  0.00     0.034 A 
ATOM     34  C   UNL A   1      29.519  30.767  23.729  1.00  0.00     0.034 A 
ATOM     35  O   UNL A   1      31.207  30.656  25.371  1.00  0.00    -0.289 OA
ATOM     36  C   UNL A   1      27.591  30.667  22.270  1.00  0.00     0.013 A 
ATOM     37  C   UNL A   1      29.710  32.112  23.405  1.00  0.00     0.013 A 
ATOM     38  C   UNL A   1      27.798  32.003  21.923  1.00  0.00     0.001 A 
ATOM     39  C   UNL A   1      28.857  32.722  22.485  1.00  0.00     0.001 A 
ENDBRANCH  22  24
ENDBRANCH  19  20
ENDBRANCH   9  19
ENDBRANCH   5   8
ENDBRANCH   3   4
ENDBRANCH   2   3
ENDBRANCH   1   2
BRANCH   1  40
ATOM     40  C   UNL A   1      40.594  21.588  27.312  1.00  0.00     0.002 C 
BRANCH  40  41
ATOM     41  C   UNL A   1      40.918  20.347  26.480  1.00  0.00     0.021 C 
BRANCH  41  42
ATOM     42  C   UNL A   1      42.262  19.674  26.732  1.00  0.00     0.116 C 
BRANCH  42  43
ATOM     43  N   UNL A   1      42.923  19.198  25.531  1.00  0.00    -0.352 N 
ATOM     44  C   UNL A   1      43.841  19.851  24.736  1.00  0.00     0.251 C 
ATOM     45  H   UNL A   1      42.682  18.287  25.244  1.00  0.00     0.163 HD
ATOM     46  O   UNL A   1      44.252  19.314  23.711  1.00  0.00    -0.269 OA
BRANCH  44  47
ATOM     47  C   UNL A   1      44.293  21.219  25.088  1.00  0.00     0.039 A 
ATOM     48  C   UNL A   1      45.190  21.443  26.136  1.00  0.00     0.014 A 
ATOM     49  C   UNL A   1      43.787  22.303  24.363  1.00  0.00     0.014 A 
ATOM     50  C   UNL A   1      45.456  22.747  26.555  1.00  0.00     0.010 A 
ATOM     51  C   UNL A   1      44.100  23.612  24.749  1.00  0.00     0.010 A 
ATOM     52  C   UNL A   1      44.896  23.844  25.880  1.00  0.00    -0.014 A 
BRANCH  52  53
ATOM     53  C   UNL A   1      45.134  25.218  26.393  1.00  0.00     0.031 A 
ATOM     54  C   UNL A   1      46.486  25.866  26.249  1.00  0.00     0.074 A 
ATOM     55  C   UNL A   1      44.112  25.920  26.918  1.00  0.00     0.049 A 
ATOM     56  N   UNL A   1      46.851  27.082  26.565  1.00  0.00    -0.248 NA
ATOM     57  C   UNL A   1      47.566  25.047  25.675  1.00  0.00     0.031 C 
ATOM     58  C   UNL A   1      42.749  25.417  27.095  1.00  0.00     0.029 A 
ATOM     59  N   UNL A   1      44.052  27.218  27.363  1.00  0.00    -0.354 N 
ATOM     60  C   UNL A   1      48.199  27.174  26.239  1.00  0.00     0.074 A 
ATOM     61  C   UNL A   1      48.594  25.882  25.717  1.00  0.00     0.031 C 
ATOM     62  C   UNL A   1      41.972  26.413  27.548  1.00  0.00     0.029 A 
ATOM     63  C   UNL A   1      42.788  27.612  27.729  1.00  0.00     0.049 A 
ATOM     64  H   UNL A   1      44.838  27.807  27.413  1.00  0.00     0.167 HD
ATOM     65  C   UNL A   1      49.032  28.235  26.354  1.00  0.00     0.031 A 
ATOM     66  C   UNL A   1      42.326  28.806  28.151  1.00  0.00     0.031 A 
ATOM     67  C   UNL A   1      48.648  29.522  26.867  1.00  0.00     0.049 A 
ATOM     68  C   UNL A   1      43.268  29.965  28.285  1.00  0.00     0.074 A 
ATOM     69  C   UNL A   1      49.436  30.649  27.035  1.00  0.00     0.029 A 
ATOM     70  N   UNL A   1      47.371  29.860  27.283  1.00  0.00    -0.354 N 
ATOM     71  N   UNL A   1      44.546  30.018  27.998  1.00  0.00    -0.248 NA
ATOM     72  C   UNL A   1      42.711  31.221  28.806  1.00  0.00     0.031 C 
ATOM     73  C   UNL A   1      48.637  31.664  27.575  1.00  0.00     0.029 A 
ATOM     74  C   UNL A   1      47.347  31.175  27.714  1.00  0.00     0.049 A 
ATOM     75  H   UNL A   1      46.595  29.254  27.275  1.00  0.00     0.167 HD
ATOM     76  C   UNL A   1      44.948  31.312  28.307  1.00  0.00     0.074 A 
ATOM     77  C   UNL A   1      43.774  32.015  28.787  1.00  0.00     0.031 C 
ATOM     78  C   UNL A   1      46.180  31.862  28.203  1.00  0.00     0.031 A 
BRANCH  65  79
ATOM     79  C   UNL A   1      50.458  28.047  25.925  1.00  0.00    -0.014 A 
ATOM     80  C   UNL A   1      50.816  28.226  24.578  1.00  0.00     0.010 A 
ATOM     81  C   UNL A   1      51.437  27.642  26.850  1.00  0.00     0.010 A 
ATOM     82  C   UNL A   1      52.130  28.008  24.158  1.00  0.00     0.020 A 
ATOM     83  C   UNL A   1      52.756  27.436  26.437  1.00  0.00     0.020 A 
ATOM     84  C   UNL A   1      53.092  27.612  25.090  1.00  0.00     0.054 A 
BRANCH  84  85
ATOM     85  S   UNL A   1      54.810  27.378  24.557  1.00  0.00     0.124 S 
ATOM     86  O   UNL A   1      54.678  26.344  23.536  1.00  0.00    -0.237 OA
ATOM     87  O   UNL A   1      55.186  28.705  24.070  1.00  0.00    -0.237 OA
ATOM     88  O   UNL A   1      55.487  26.967  25.786  1.00  0.00    -0.744 OA
ENDBRANCH  84  85
ENDBRANCH  65  79
BRANCH  66  89
ATOM     89  C   UNL A   1      40.877  28.949  28.438  1.00  0.00    -0.014 A 
ATOM     90  C   UNL A   1      39.979  29.293  27.412  1.00  0.00     0.010 A 
ATOM     91  C   UNL A   1      40.409  28.843  29.759  1.00  0.00     0.010 A 
ATOM     92  C   UNL A   1      38.644  29.577  27.709  1.00  0.00     0.020 A 
ATOM     93  C   UNL A   1      39.071  29.114  30.057  1.00  0.00     0.020 A 
ATOM     94  C   UNL A   1      38.204  29.507  29.034  1.00  0.00     0.054 A 
BRANCH  94  95
ATOM     95  S   UNL A   1      36.486  29.942  29.422  1.00  0.00     0.124 S 
ATOM     96  O   UNL A   1      36.311  29.318  30.731  1.00  0.00    -0.237 OA
ATOM     97  O   UNL A   1      36.507  31.402  29.419  1.00  0.00    -0.237 OA
ATOM     98  O   UNL A   1      35.733  29.331  28.330  1.00  0.00    -0.744 OA
ENDBRANCH  94  95
ENDBRANCH  66  89
BRANCH  78  99
ATOM     99  C   UNL A   1      46.350  33.292  28.629  1.00  0.00    -0.014 A 
ATOM    100  C   UNL A   1      46.204  34.326  27.689  1.00  0.00     0.010 A 
ATOM    101  C   UNL A   1      46.757  33.601  29.939  1.00  0.00     0.010 A 
ATOM    102  C   UNL A   1      46.481  35.648  28.045  1.00  0.00     0.020 A 
ATOM    103  C   UNL A   1      47.023  34.924  30.302  1.00  0.00     0.020 A 
ATOM    104  C   UNL A   1      46.903  35.937  29.346  1.00  0.00     0.054 A 
BRANCH 104 105
ATOM    105  S   UNL A   1      47.275  37.654  29.800  1.00  0.00     0.124 S 
ATOM    106  O   UNL A   1      48.528  37.893  29.092  1.00  0.00    -0.237 OA
ATOM    107  O   UNL A   1      46.116  38.387  29.294  1.00  0.00    -0.237 OA
ATOM    108  O   UNL A   1      47.378  37.601  31.257  1.00  0.00    -0.744 OA
ENDBRANCH 104 105
ENDBRANCH  78  99
ENDBRANCH  52  53
ENDBRANCH  44  47
ENDBRANCH  42  43
ENDBRANCH  41  42
ENDBRANCH  40  41
ENDBRANCH   1  40
TORSDOF 19
ENDMDL
MODEL 3
REMARK VINA RESULT:     -11.4      4.229     10.741
REMARK SMILES O=C(Cn1nc(C(=O)NCCCCCCNC(=O)c2ccc(-c3c4nc(c(-c5ccc(S(=O)(=O)[O-])cc5)c5ccc([nH]5)c(-c5ccc(S(=O)(=O)[O-])cc5)c5nc(c(-c6ccc(S(=O)(=O)[O-])cc6)c6ccc3[nH]6)C=C5)C=C4)cc2)c2ccccc2c1=O)Nc1ccc2c(c1)C(=O)c1ccccc1C2=O
REMARK SMILES IDX 12 1 11 2 10 3 9 4 7 5 8 6 6 8 4 9 5 10 85 11 84 12 86 13
REMARK SMILES IDX 79 14 83 15 80 16 82 17 81 18 3 19 2 20 1 21 87 22 88 24
REMARK SMILES IDX 89 25 93 26 90 27 92 28 91 29 94 30 102 31 95 32 96 33
REMARK SMILES IDX 101 34 103 35 97 36 100 37 98 38 99 39 13 40 14 41 15 42
REMARK SMILES IDX 16 43 17 44 18 46 19 47 20 48 78 49 21 50 77 51 22 52 23 53
REMARK SMILES IDX 24 54 71 55 25 56 76 57 70 58 72 59 26 60 75 61 69 62 68 63
REMARK SMILES IDX 27 65 57 66 38 67 56 68 39 69 42 70 55 71 73 72 40 73 41 74
REMARK SMILES IDX 54 76 74 77 43 78 28 79 29 80 37 81 30 82 36 83 31 84 32 85
REMARK SMILES IDX 33 86 34 87 35 88 58 89 59 90 67 91 60 92 66 93 61 94 62 95
REMARK SMILES IDX 63 96 64 97 65 98 44 99 45 100 53 101 46 102 52 103 47 104
REMARK SMILES IDX 48 105 49 106 50 107 51 108
REMARK H PARENT 9 7 87 23 16 45 72 64 42 75
REMARK Flexibility Score: inf
ROOT
ATOM      1  C   UNL A   1      46.866  24.923  27.399  1.00  0.00     0.002 C 
ENDROOT
BRANCH   1   2
ATOM      2  C   UNL A   1      45.608  24.495  28.156  1.00  0.00     0.021 C 
BRANCH   2   3
ATOM      3  C   UNL A   1      44.594  23.616  27.430  1.00  0.00     0.116 C 
BRANCH   3   4
ATOM      4  N   UNL A   1      44.503  23.856  26.005  1.00  0.00    -0.351 N 
ATOM      5  C   UNL A   1      43.859  23.100  25.050  1.00  0.00     0.272 C 
ATOM      6  O   UNL A   1      43.585  23.603  23.965  1.00  0.00    -0.267 OA
ATOM      7  H   UNL A   1      44.959  24.664  25.676  1.00  0.00     0.163 HD
BRANCH   5   8
ATOM      8  C   UNL A   1      43.508  21.626  25.308  1.00  0.00     0.156 A 
ATOM      9  N   UNL A   1      41.914  20.021  25.796  1.00  0.00    -0.219 N 
ATOM     10  N   UNL A   1      42.255  21.324  25.506  1.00  0.00    -0.163 NA
ATOM     11  C   UNL A   1      42.819  18.965  25.802  1.00  0.00     0.275 A 
ATOM     12  C   UNL A   1      44.212  19.284  25.469  1.00  0.00     0.051 A 
ATOM     13  O   UNL A   1      42.527  17.809  26.091  1.00  0.00    -0.267 OA
ATOM     14  C   UNL A   1      44.593  20.611  25.300  1.00  0.00     0.020 A 
ATOM     15  C   UNL A   1      45.154  18.246  25.391  1.00  0.00     0.014 A 
ATOM     16  C   UNL A   1      45.951  20.901  25.113  1.00  0.00     0.011 A 
ATOM     17  C   UNL A   1      46.496  18.541  25.174  1.00  0.00     0.001 A 
ATOM     18  C   UNL A   1      46.896  19.869  25.051  1.00  0.00     0.001 A 
BRANCH   9  19
ATOM     19  C   UNL A   1      40.567  19.773  26.319  1.00  0.00     0.248 C 
BRANCH  19  20
ATOM     20  C   UNL A   1      39.869  21.096  26.608  1.00  0.00     0.246 C 
ATOM     21  O   UNL A   1      40.103  21.762  27.613  1.00  0.00    -0.273 OA
ATOM     22  N   UNL A   1      39.008  21.505  25.613  1.00  0.00    -0.324 N 
ATOM     23  H   UNL A   1      39.228  21.274  24.682  1.00  0.00     0.169 HD
BRANCH  22  24
ATOM     24  C   UNL A   1      37.835  22.234  25.853  1.00  0.00     0.042 A 
ATOM     25  C   UNL A   1      37.950  23.595  26.150  1.00  0.00     0.027 A 
ATOM     26  C   UNL A   1      36.592  21.674  25.533  1.00  0.00     0.039 A 
ATOM     27  C   UNL A   1      36.834  24.425  26.078  1.00  0.00     0.015 A 
ATOM     28  C   UNL A   1      35.518  22.536  25.313  1.00  0.00     0.036 A 
ATOM     29  C   UNL A   1      35.643  23.903  25.577  1.00  0.00     0.034 A 
ATOM     30  C   UNL A   1      34.357  22.060  24.527  1.00  0.00     0.194 C 
ATOM     31  C   UNL A   1      34.613  24.831  25.080  1.00  0.00     0.194 C 
ATOM     32  O   UNL A   1      33.991  20.894  24.537  1.00  0.00    -0.289 OA
ATOM     33  C   UNL A   1      33.758  23.043  23.599  1.00  0.00     0.034 A 
ATOM     34  C   UNL A   1      33.893  24.404  23.866  1.00  0.00     0.034 A 
ATOM     35  O   UNL A   1      34.451  25.944  25.563  1.00  0.00    -0.289 OA
ATOM     36  C   UNL A   1      33.188  22.615  22.398  1.00  0.00     0.013 A 
ATOM     37  C   UNL A   1      33.478  25.354  22.930  1.00  0.00     0.013 A 
ATOM     38  C   UNL A   1      32.800  23.563  21.448  1.00  0.00     0.001 A 
ATOM     39  C   UNL A   1      32.949  24.927  21.711  1.00  0.00     0.001 A 
ENDBRANCH  22  24
ENDBRANCH  19  20
ENDBRANCH   9  19
ENDBRANCH   5   8
ENDBRANCH   3   4
ENDBRANCH   2   3
ENDBRANCH   1   2
BRANCH   1  40
ATOM     40  C   UNL A   1      47.053  26.408  27.084  1.00  0.00     0.002 C 
BRANCH  40  41
ATOM     41  C   UNL A   1      46.960  26.842  25.620  1.00  0.00     0.021 C 
BRANCH  41  42
ATOM     42  C   UNL A   1      45.813  27.773  25.244  1.00  0.00     0.116 C 
BRANCH  42  43
ATOM     43  N   UNL A   1      44.592  27.087  24.865  1.00  0.00    -0.352 N 
ATOM     44  C   UNL A   1      43.418  26.961  25.576  1.00  0.00     0.251 C 
ATOM     45  H   UNL A   1      44.604  26.652  23.982  1.00  0.00     0.163 HD
ATOM     46  O   UNL A   1      42.498  26.284  25.123  1.00  0.00    -0.269 OA
BRANCH  44  47
ATOM     47  C   UNL A   1      43.281  27.597  26.910  1.00  0.00     0.039 A 
ATOM     48  C   UNL A   1      42.653  26.938  27.970  1.00  0.00     0.014 A 
ATOM     49  C   UNL A   1      43.776  28.892  27.093  1.00  0.00     0.014 A 
ATOM     50  C   UNL A   1      42.383  27.627  29.153  1.00  0.00     0.010 A 
ATOM     51  C   UNL A   1      43.555  29.564  28.301  1.00  0.00     0.010 A 
ATOM     52  C   UNL A   1      42.812  28.954  29.322  1.00  0.00    -0.014 A 
BRANCH  52  53
ATOM     53  C   UNL A   1      42.446  29.689  30.560  1.00  0.00     0.031 A 
ATOM     54  C   UNL A   1      41.162  30.471  30.637  1.00  0.00     0.074 A 
ATOM     55  C   UNL A   1      43.230  29.589  31.651  1.00  0.00     0.049 A 
ATOM     56  N   UNL A   1      40.645  31.104  31.659  1.00  0.00    -0.248 NA
ATOM     57  C   UNL A   1      40.350  30.550  29.411  1.00  0.00     0.031 C 
ATOM     58  C   UNL A   1      44.490  28.846  31.716  1.00  0.00     0.029 A 
ATOM     59  N   UNL A   1      43.064  30.081  32.922  1.00  0.00    -0.354 N 
ATOM     60  C   UNL A   1      39.459  31.664  31.202  1.00  0.00     0.074 A 
ATOM     61  C   UNL A   1      39.338  31.312  29.803  1.00  0.00     0.031 C 
ATOM     62  C   UNL A   1      44.947  28.875  32.977  1.00  0.00     0.029 A 
ATOM     63  C   UNL A   1      44.037  29.669  33.799  1.00  0.00     0.049 A 
ATOM     64  H   UNL A   1      42.319  30.670  33.179  1.00  0.00     0.167 HD
ATOM     65  C   UNL A   1      38.546  32.397  31.883  1.00  0.00     0.031 A 
ATOM     66  C   UNL A   1      44.181  29.888  35.122  1.00  0.00     0.031 A 
ATOM     67  C   UNL A   1      38.654  32.748  33.274  1.00  0.00     0.049 A 
ATOM     68  C   UNL A   1      43.166  30.715  35.854  1.00  0.00     0.074 A 
ATOM     69  C   UNL A   1      37.782  33.504  34.038  1.00  0.00     0.029 A 
ATOM     70  N   UNL A   1      39.688  32.360  34.111  1.00  0.00    -0.354 N 
ATOM     71  N   UNL A   1      42.066  31.259  35.394  1.00  0.00    -0.248 NA
ATOM     72  C   UNL A   1      43.414  30.964  37.281  1.00  0.00     0.031 C 
ATOM     73  C   UNL A   1      38.302  33.592  35.335  1.00  0.00     0.029 A 
ATOM     74  C   UNL A   1      39.480  32.865  35.382  1.00  0.00     0.049 A 
ATOM     75  H   UNL A   1      40.456  31.807  33.840  1.00  0.00     0.167 HD
ATOM     76  C   UNL A   1      41.491  31.919  36.473  1.00  0.00     0.074 A 
ATOM     77  C   UNL A   1      42.355  31.693  37.614  1.00  0.00     0.031 C 
ATOM     78  C   UNL A   1      40.351  32.648  36.508  1.00  0.00     0.031 A 
BRANCH  65  79
ATOM     79  C   UNL A   1      37.344  32.885  31.127  1.00  0.00    -0.014 A 
ATOM     80  C   UNL A   1      37.482  33.911  30.176  1.00  0.00     0.010 A 
ATOM     81  C   UNL A   1      36.068  32.361  31.396  1.00  0.00     0.010 A 
ATOM     82  C   UNL A   1      36.363  34.405  29.500  1.00  0.00     0.020 A 
ATOM     83  C   UNL A   1      34.948  32.843  30.712  1.00  0.00     0.020 A 
ATOM     84  C   UNL A   1      35.102  33.869  29.775  1.00  0.00     0.054 A 
BRANCH  84  85
ATOM     85  S   UNL A   1      33.657  34.475  28.861  1.00  0.00     0.124 S 
ATOM     86  O   UNL A   1      34.193  35.648  28.178  1.00  0.00    -0.237 OA
ATOM     87  O   UNL A   1      33.315  33.343  28.001  1.00  0.00    -0.237 OA
ATOM     88  O   UNL A   1      32.687  34.750  29.919  1.00  0.00    -0.744 OA
ENDBRANCH  84  85
ENDBRANCH  65  79
BRANCH  66  89
ATOM     89  C   UNL A   1      45.330  29.269  35.827  1.00  0.00    -0.014 A 
ATOM     90  C   UNL A   1      45.191  28.016  36.450  1.00  0.00     0.010 A 
ATOM     91  C   UNL A   1      46.534  29.979  35.965  1.00  0.00     0.010 A 
ATOM     92  C   UNL A   1      46.221  27.505  37.242  1.00  0.00     0.020 A 
ATOM     93  C   UNL A   1      47.572  29.463  36.745  1.00  0.00     0.020 A 
ATOM     94  C   UNL A   1      47.397  28.242  37.402  1.00  0.00     0.054 A 
BRANCH  94  95
ATOM     95  S   UNL A   1      48.705  27.603  38.484  1.00  0.00     0.124 S 
ATOM     96  O   UNL A   1      49.565  26.907  37.531  1.00  0.00    -0.237 OA
ATOM     97  O   UNL A   1      49.269  28.815  39.072  1.00  0.00    -0.237 OA
ATOM     98  O   UNL A   1      47.978  26.744  39.416  1.00  0.00    -0.744 OA
ENDBRANCH  94  95
ENDBRANCH  66  89
BRANCH  78  99
ATOM     99  C   UNL A   1      39.961  33.280  37.813  1.00  0.00    -0.014 A 
ATOM    100  C   UNL A   1      39.200  32.555  38.745  1.00  0.00     0.010 A 
ATOM    101  C   UNL A   1      40.262  34.630  38.068  1.00  0.00     0.010 A 
ATOM    102  C   UNL A   1      38.728  33.172  39.905  1.00  0.00     0.020 A 
ATOM    103  C   UNL A   1      39.801  35.248  39.233  1.00  0.00     0.020 A 
ATOM    104  C   UNL A   1      39.020  34.520  40.135  1.00  0.00     0.054 A 
BRANCH 104 105
ATOM    105  S   UNL A   1      38.392  35.322  41.636  1.00  0.00     0.124 S 
ATOM    106  O   UNL A   1      39.279  34.786  42.664  1.00  0.00    -0.237 OA
ATOM    107  O   UNL A   1      38.555  36.744  41.344  1.00  0.00    -0.237 OA
ATOM    108  O   UNL A   1      37.004  34.866  41.705  1.00  0.00    -0.744 OA
ENDBRANCH 104 105
ENDBRANCH  78  99
ENDBRANCH  52  53
ENDBRANCH  44  47
ENDBRANCH  42  43
ENDBRANCH  41  42
ENDBRANCH  40  41
ENDBRANCH   1  40
TORSDOF 19
ENDMDL
