MODEL 1
REMARK VINA RESULT:      -9.9      0.000      0.000
REMARK SMILES Cc1ccc(-c2cc(Cl)cc3c2O[C@H](C(F)(F)F)C(C(=O)NCCCCCCNC(=O)c2ccc(-c4c5nc(c(-c6ccc(S(=O)(=O)[O-])cc6)c6ccc([nH]6)c(-c6ccc(S(=O)(=O)[O-])cc6)c6nc(c(-c7ccc(S(=O)(=O)[O-])cc7)c7ccc4[nH]7)C=C6)C=C5)cc2)=C3)cc1F
REMARK SMILES IDX 26 1 25 2 24 3 23 4 22 5 20 6 21 7 19 9 6 10 7 11 12 12 8 13
REMARK SMILES IDX 11 14 13 15 9 16 10 17 92 18 14 19 5 20 1 21 2 22 3 23 94 24
REMARK SMILES IDX 4 25 93 26 95 27 15 28 16 29 17 30 18 31 27 32 28 33 29 34
REMARK SMILES IDX 30 35 31 37 32 38 33 39 91 40 34 41 90 42 35 43 36 44 37 45
REMARK SMILES IDX 84 46 38 47 89 48 83 49 85 50 39 51 88 52 82 53 81 54 40 56
REMARK SMILES IDX 70 57 51 58 69 59 52 60 55 61 68 62 86 63 53 64 54 65 67 67
REMARK SMILES IDX 87 68 56 69 41 70 42 71 50 72 43 73 49 74 44 75 45 76 46 77
REMARK SMILES IDX 47 78 48 79 71 80 72 81 80 82 73 83 79 84 74 85 75 86 76 87
REMARK SMILES IDX 77 88 78 89 57 90 58 91 66 92 59 93 65 94 60 95 61 96 62 97
REMARK SMILES IDX 63 98 64 99
REMARK H PARENT 22 8 29 36 85 55 55 66
REMARK Flexibility Score: inf
ROOT
ATOM      1  C   UNL A   1      34.390  34.772  28.306  1.00  0.00     0.002 C 
ENDROOT
BRANCH   1   2
ATOM      2  C   UNL A   1      33.376  34.936  29.447  1.00  0.00     0.002 C 
BRANCH   2   3
ATOM      3  C   UNL A   1      33.635  36.107  30.401  1.00  0.00     0.021 C 
BRANCH   3   4
ATOM      4  C   UNL A   1      34.268  35.701  31.730  1.00  0.00     0.116 C 
BRANCH   4   5
ATOM      5  N   UNL A   1      33.580  34.571  32.334  1.00  0.00    -0.352 N 
ATOM      6  C   UNL A   1      33.900  33.506  33.106  1.00  0.00     0.251 C 
ATOM      7  O   UNL A   1      32.949  32.780  33.419  1.00  0.00    -0.270 OA
ATOM      8  H   UNL A   1      32.618  34.583  32.124  1.00  0.00     0.163 HD
BRANCH   6   9
ATOM      9  C   UNL A   1      35.273  33.159  33.585  1.00  0.00     0.067 C 
ATOM     10  C   UNL A   1      39.061  32.140  35.134  1.00  0.00     0.026 A 
ATOM     11  C   UNL A   1      39.555  32.851  36.236  1.00  0.00     0.033 A 
ATOM     12  C   UNL A   1      37.768  32.454  34.669  1.00  0.00     0.135 A 
ATOM     13  C   UNL A   1      38.779  33.842  36.840  1.00  0.00     0.042 A 
ATOM     14  C   UNL A   1      36.991  33.451  35.266  1.00  0.00     0.019 A 
ATOM     15  O   UNL A   1      37.271  31.689  33.648  1.00  0.00    -0.475 OA
ATOM     16  Cl  UNL A   1      39.401  34.696  38.199  1.00  0.00    -0.084 Cl
ATOM     17  C   UNL A   1      37.502  34.147  36.362  1.00  0.00     0.032 A 
ATOM     18  C   UNL A   1      35.649  33.716  34.752  1.00  0.00     0.025 C 
ATOM     19  C   UNL A   1      36.228  32.278  32.835  1.00  0.00     0.314 C 
BRANCH  10  20
ATOM     20  C   UNL A   1      39.868  31.103  34.471  1.00  0.00    -0.012 A 
ATOM     21  C   UNL A   1      42.135  27.805  32.825  1.00  0.00     0.047 C 
ATOM     22  C   UNL A   1      41.374  28.975  33.370  1.00  0.00    -0.015 A 
ATOM     23  C   UNL A   1      42.003  29.974  34.121  1.00  0.00     0.007 A 
ATOM     24  C   UNL A   1      39.998  29.067  33.158  1.00  0.00     0.126 A 
ATOM     25  C   UNL A   1      41.256  31.028  34.663  1.00  0.00     0.009 A 
ATOM     26  C   UNL A   1      39.251  30.112  33.690  1.00  0.00     0.048 A 
ATOM     27  F   UNL A   1      39.368  28.121  32.446  1.00  0.00    -0.207 F 
ENDBRANCH  10  20
BRANCH  19  28
ATOM     28  C   UNL A   1      36.860  32.978  31.618  1.00  0.00     0.429 C 
ATOM     29  F   UNL A   1      37.981  33.647  31.981  1.00  0.00    -0.167 F 
ATOM     30  F   UNL A   1      37.226  32.104  30.652  1.00  0.00    -0.167 F 
ATOM     31  F   UNL A   1      36.021  33.870  31.044  1.00  0.00    -0.167 F 
ENDBRANCH  19  28
ENDBRANCH   6   9
ENDBRANCH   4   5
ENDBRANCH   3   4
ENDBRANCH   2   3
ENDBRANCH   1   2
BRANCH   1  32
ATOM     32  C   UNL A   1      34.763  33.330  27.947  1.00  0.00     0.021 C 
BRANCH  32  33
ATOM     33  C   UNL A   1      34.325  32.278  28.960  1.00  0.00     0.116 C 
BRANCH  33  34
ATOM     34  N   UNL A   1      33.858  31.055  28.328  1.00  0.00    -0.352 N 
ATOM     35  C   UNL A   1      34.579  29.951  27.936  1.00  0.00     0.251 C 
ATOM     36  H   UNL A   1      32.890  31.009  28.157  1.00  0.00     0.163 HD
ATOM     37  O   UNL A   1      34.040  29.065  27.280  1.00  0.00    -0.269 OA
BRANCH  35  38
ATOM     38  C   UNL A   1      36.015  29.857  28.277  1.00  0.00     0.039 A 
ATOM     39  C   UNL A   1      36.992  30.282  27.372  1.00  0.00     0.014 A 
ATOM     40  C   UNL A   1      36.387  29.310  29.507  1.00  0.00     0.014 A 
ATOM     41  C   UNL A   1      38.334  30.020  27.633  1.00  0.00     0.010 A 
ATOM     42  C   UNL A   1      37.741  29.111  29.797  1.00  0.00     0.010 A 
ATOM     43  C   UNL A   1      38.722  29.421  28.843  1.00  0.00    -0.014 A 
BRANCH  43  44
ATOM     44  C   UNL A   1      40.153  29.098  29.084  1.00  0.00     0.031 A 
ATOM     45  C   UNL A   1      41.046  30.086  29.789  1.00  0.00     0.074 A 
ATOM     46  C   UNL A   1      40.635  27.890  28.724  1.00  0.00     0.049 A 
ATOM     47  N   UNL A   1      42.319  29.984  30.074  1.00  0.00    -0.248 NA
ATOM     48  C   UNL A   1      40.436  31.349  30.239  1.00  0.00     0.031 C 
ATOM     49  C   UNL A   1      39.853  26.829  28.085  1.00  0.00     0.029 A 
ATOM     50  N   UNL A   1      41.881  27.337  28.875  1.00  0.00    -0.354 N 
ATOM     51  C   UNL A   1      42.662  31.164  30.723  1.00  0.00     0.074 A 
ATOM     52  C   UNL A   1      41.473  31.985  30.768  1.00  0.00     0.031 C 
ATOM     53  C   UNL A   1      40.619  25.735  27.957  1.00  0.00     0.029 A 
ATOM     54  C   UNL A   1      41.965  26.035  28.438  1.00  0.00     0.049 A 
ATOM     55  H   UNL A   1      42.645  27.826  29.260  1.00  0.00     0.167 HD
ATOM     56  C   UNL A   1      43.858  31.523  31.245  1.00  0.00     0.031 A 
ATOM     57  C   UNL A   1      43.006  25.179  28.415  1.00  0.00     0.031 A 
ATOM     58  C   UNL A   1      45.033  30.694  31.217  1.00  0.00     0.049 A 
ATOM     59  C   UNL A   1      44.342  25.636  28.929  1.00  0.00     0.074 A 
ATOM     60  C   UNL A   1      46.294  30.982  31.713  1.00  0.00     0.029 A 
ATOM     61  N   UNL A   1      45.095  29.416  30.685  1.00  0.00    -0.354 N 
ATOM     62  N   UNL A   1      44.654  26.773  29.504  1.00  0.00    -0.248 NA
ATOM     63  C   UNL A   1      45.470  24.705  28.783  1.00  0.00     0.031 C 
ATOM     64  C   UNL A   1      47.129  29.899  31.437  1.00  0.00     0.029 A 
ATOM     65  C   UNL A   1      46.375  28.911  30.827  1.00  0.00     0.049 A 
ATOM     66  H   UNL A   1      44.341  28.939  30.269  1.00  0.00     0.167 HD
ATOM     67  C   UNL A   1      46.008  26.684  29.807  1.00  0.00     0.074 A 
ATOM     68  C   UNL A   1      46.455  25.381  29.363  1.00  0.00     0.031 C 
ATOM     69  C   UNL A   1      46.806  27.605  30.398  1.00  0.00     0.031 A 
BRANCH  56  70
ATOM     70  C   UNL A   1      43.984  32.868  31.912  1.00  0.00    -0.014 A 
ATOM     71  C   UNL A   1      43.780  32.978  33.300  1.00  0.00     0.010 A 
ATOM     72  C   UNL A   1      44.135  34.035  31.145  1.00  0.00     0.010 A 
ATOM     73  C   UNL A   1      43.675  34.234  33.903  1.00  0.00     0.020 A 
ATOM     74  C   UNL A   1      44.053  35.294  31.749  1.00  0.00     0.020 A 
ATOM     75  C   UNL A   1      43.796  35.384  33.119  1.00  0.00     0.054 A 
BRANCH  75  76
ATOM     76  S   UNL A   1      43.589  37.006  33.909  1.00  0.00     0.124 S 
ATOM     77  O   UNL A   1      42.270  36.885  34.520  1.00  0.00    -0.237 OA
ATOM     78  O   UNL A   1      44.715  37.052  34.839  1.00  0.00    -0.237 OA
ATOM     79  O   UNL A   1      43.680  37.943  32.791  1.00  0.00    -0.744 OA
ENDBRANCH  75  76
ENDBRANCH  56  70
BRANCH  57  80
ATOM     80  C   UNL A   1      42.815  23.796  27.897  1.00  0.00    -0.014 A 
ATOM     81  C   UNL A   1      43.079  23.493  26.549  1.00  0.00     0.010 A 
ATOM     82  C   UNL A   1      42.328  22.784  28.742  1.00  0.00     0.010 A 
ATOM     83  C   UNL A   1      42.819  22.216  26.045  1.00  0.00     0.020 A 
ATOM     84  C   UNL A   1      42.096  21.496  28.249  1.00  0.00     0.020 A 
ATOM     85  C   UNL A   1      42.321  21.228  26.896  1.00  0.00     0.054 A 
BRANCH  85  86
ATOM     86  S   UNL A   1      41.981  19.578  26.221  1.00  0.00     0.124 S 
ATOM     87  O   UNL A   1      42.770  19.592  24.991  1.00  0.00    -0.237 OA
ATOM     88  O   UNL A   1      42.470  18.692  27.273  1.00  0.00    -0.237 OA
ATOM     89  O   UNL A   1      40.532  19.579  26.036  1.00  0.00    -0.744 OA
ENDBRANCH  85  86
ENDBRANCH  57  80
BRANCH  69  90
ATOM     90  C   UNL A   1      48.250  27.257  30.633  1.00  0.00    -0.014 A 
ATOM     91  C   UNL A   1      48.628  26.654  31.848  1.00  0.00     0.010 A 
ATOM     92  C   UNL A   1      49.245  27.668  29.730  1.00  0.00     0.010 A 
ATOM     93  C   UNL A   1      49.977  26.508  32.175  1.00  0.00     0.020 A 
ATOM     94  C   UNL A   1      50.596  27.501  30.044  1.00  0.00     0.020 A 
ATOM     95  C   UNL A   1      50.952  26.948  31.278  1.00  0.00     0.054 A 
BRANCH  95  96
ATOM     96  S   UNL A   1      52.700  26.803  31.744  1.00  0.00     0.124 S 
ATOM     97  O   UNL A   1      53.152  28.189  31.671  1.00  0.00    -0.237 OA
ATOM     98  O   UNL A   1      52.630  26.234  33.087  1.00  0.00    -0.237 OA
ATOM     99  O   UNL A   1      53.252  25.912  30.726  1.00  0.00    -0.744 OA
ENDBRANCH  95  96
ENDBRANCH  69  90
ENDBRANCH  43  44
ENDBRANCH  35  38
ENDBRANCH  33  34
ENDBRANCH  32  33
ENDBRANCH   1  32
TORSDOF 18
ENDMDL
MODEL 2
REMARK VINA RESULT:      -9.8      5.060     10.922
REMARK SMILES Cc1ccc(-c2cc(Cl)cc3c2O[C@H](C(F)(F)F)C(C(=O)NCCCCCCNC(=O)c2ccc(-c4c5nc(c(-c6ccc(S(=O)(=O)[O-])cc6)c6ccc([nH]6)c(-c6ccc(S(=O)(=O)[O-])cc6)c6nc(c(-c7ccc(S(=O)(=O)[O-])cc7)c7ccc4[nH]7)C=C6)C=C5)cc2)=C3)cc1F
REMARK SMILES IDX 26 1 25 2 24 3 23 4 22 5 20 6 21 7 19 9 6 10 7 11 12 12 8 13
REMARK SMILES IDX 11 14 13 15 9 16 10 17 92 18 14 19 5 20 1 21 2 22 3 23 94 24
REMARK SMILES IDX 4 25 93 26 95 27 15 28 16 29 17 30 18 31 27 32 28 33 29 34
REMARK SMILES IDX 30 35 31 37 32 38 33 39 91 40 34 41 90 42 35 43 36 44 37 45
REMARK SMILES IDX 84 46 38 47 89 48 83 49 85 50 39 51 88 52 82 53 81 54 40 56
REMARK SMILES IDX 70 57 51 58 69 59 52 60 55 61 68 62 86 63 53 64 54 65 67 67
REMARK SMILES IDX 87 68 56 69 41 70 42 71 50 72 43 73 49 74 44 75 45 76 46 77
REMARK SMILES IDX 47 78 48 79 71 80 72 81 80 82 73 83 79 84 74 85 75 86 76 87
REMARK SMILES IDX 77 88 78 89 57 90 58 91 66 92 59 93 65 94 60 95 61 96 62 97
REMARK SMILES IDX 63 98 64 99
REMARK H PARENT 22 8 29 36 85 55 55 66
REMARK Flexibility Score: inf
ROOT
ATOM      1  C   UNL A   1      33.215  28.920  24.833  1.00  0.00     0.002 C 
ENDROOT
BRANCH   1   2
ATOM      2  C   UNL A   1      33.554  28.246  23.497  1.00  0.00     0.002 C 
BRANCH   2   3
ATOM      3  C   UNL A   1      32.372  28.023  22.548  1.00  0.00     0.021 C 
BRANCH   3   4
ATOM      4  C   UNL A   1      32.392  26.673  21.834  1.00  0.00     0.116 C 
BRANCH   4   5
ATOM      5  N   UNL A   1      31.316  25.805  22.285  1.00  0.00    -0.352 N 
ATOM      6  C   UNL A   1      31.191  24.655  22.988  1.00  0.00     0.251 C 
ATOM      7  O   UNL A   1      30.029  24.271  23.163  1.00  0.00    -0.270 OA
ATOM      8  H   UNL A   1      30.438  26.148  22.002  1.00  0.00     0.163 HD
BRANCH   6   9
ATOM      9  C   UNL A   1      32.319  23.847  23.542  1.00  0.00     0.067 C 
ATOM     10  C   UNL A   1      35.509  21.454  24.920  1.00  0.00     0.026 A 
ATOM     11  C   UNL A   1      35.336  20.065  24.978  1.00  0.00     0.033 A 
ATOM     12  C   UNL A   1      34.454  22.232  24.400  1.00  0.00     0.135 A 
ATOM     13  C   UNL A   1      34.146  19.484  24.535  1.00  0.00     0.042 A 
ATOM     14  C   UNL A   1      33.258  21.654  23.963  1.00  0.00     0.019 A 
ATOM     15  O   UNL A   1      34.677  23.577  24.271  1.00  0.00    -0.475 OA
ATOM     16  Cl  UNL A   1      33.958  17.774  24.607  1.00  0.00    -0.084 Cl
ATOM     17  C   UNL A   1      33.107  20.269  24.030  1.00  0.00     0.032 A 
ATOM     18  C   UNL A   1      32.209  22.511  23.414  1.00  0.00     0.025 C 
ATOM     19  C   UNL A   1      33.511  24.434  24.241  1.00  0.00     0.314 C 
BRANCH  10  20
ATOM     20  C   UNL A   1      36.747  22.090  25.396  1.00  0.00    -0.012 A 
ATOM     21  C   UNL A   1      40.329  23.770  27.150  1.00  0.00     0.047 C 
ATOM     22  C   UNL A   1      39.090  23.220  26.512  1.00  0.00    -0.015 A 
ATOM     23  C   UNL A   1      37.902  23.957  26.463  1.00  0.00     0.007 A 
ATOM     24  C   UNL A   1      39.097  21.931  25.979  1.00  0.00     0.126 A 
ATOM     25  C   UNL A   1      36.743  23.398  25.908  1.00  0.00     0.009 A 
ATOM     26  C   UNL A   1      37.952  21.371  25.423  1.00  0.00     0.048 A 
ATOM     27  F   UNL A   1      40.220  21.200  26.016  1.00  0.00    -0.207 F 
ENDBRANCH  10  20
BRANCH  19  28
ATOM     28  C   UNL A   1      33.192  24.916  25.668  1.00  0.00     0.429 C 
ATOM     29  F   UNL A   1      32.778  23.883  26.440  1.00  0.00    -0.167 F 
ATOM     30  F   UNL A   1      34.270  25.453  26.285  1.00  0.00    -0.167 F 
ATOM     31  F   UNL A   1      32.218  25.855  25.689  1.00  0.00    -0.167 F 
ENDBRANCH  19  28
ENDBRANCH   6   9
ENDBRANCH   4   5
ENDBRANCH   3   4
ENDBRANCH   2   3
ENDBRANCH   1   2
BRANCH   1  32
ATOM     32  C   UNL A   1      34.141  28.583  26.005  1.00  0.00     0.021 C 
BRANCH  32  33
ATOM     33  C   UNL A   1      33.621  28.990  27.379  1.00  0.00     0.116 C 
BRANCH  33  34
ATOM     34  N   UNL A   1      33.521  30.432  27.534  1.00  0.00    -0.352 N 
ATOM     35  C   UNL A   1      34.389  31.301  28.151  1.00  0.00     0.251 C 
ATOM     36  H   UNL A   1      32.717  30.845  27.142  1.00  0.00     0.163 HD
ATOM     37  O   UNL A   1      34.072  32.475  28.319  1.00  0.00    -0.269 OA
BRANCH  35  38
ATOM     38  C   UNL A   1      35.691  30.804  28.646  1.00  0.00     0.039 A 
ATOM     39  C   UNL A   1      35.763  29.654  29.436  1.00  0.00     0.014 A 
ATOM     40  C   UNL A   1      36.852  31.517  28.337  1.00  0.00     0.014 A 
ATOM     41  C   UNL A   1      36.968  29.305  30.040  1.00  0.00     0.010 A 
ATOM     42  C   UNL A   1      38.076  31.125  28.890  1.00  0.00     0.010 A 
ATOM     43  C   UNL A   1      38.135  30.044  29.783  1.00  0.00    -0.014 A 
BRANCH  43  44
ATOM     44  C   UNL A   1      39.401  29.692  30.477  1.00  0.00     0.031 A 
ATOM     45  C   UNL A   1      40.332  28.664  29.886  1.00  0.00     0.074 A 
ATOM     46  C   UNL A   1      39.746  30.342  31.608  1.00  0.00     0.049 A 
ATOM     47  N   UNL A   1      41.470  28.222  30.355  1.00  0.00    -0.248 NA
ATOM     48  C   UNL A   1      39.942  28.058  28.600  1.00  0.00     0.031 C 
ATOM     49  C   UNL A   1      38.953  31.396  32.247  1.00  0.00     0.029 A 
ATOM     50  N   UNL A   1      40.861  30.242  32.400  1.00  0.00    -0.354 N 
ATOM     51  C   UNL A   1      41.925  27.285  29.434  1.00  0.00     0.074 A 
ATOM     52  C   UNL A   1      40.929  27.198  28.390  1.00  0.00     0.031 C 
ATOM     53  C   UNL A   1      39.636  31.886  33.292  1.00  0.00     0.029 A 
ATOM     54  C   UNL A   1      40.881  31.137  33.444  1.00  0.00     0.049 A 
ATOM     55  H   UNL A   1      41.581  29.589  32.237  1.00  0.00     0.167 HD
ATOM     56  C   UNL A   1      43.075  26.572  29.453  1.00  0.00     0.031 A 
ATOM     57  C   UNL A   1      41.789  31.332  34.421  1.00  0.00     0.031 A 
ATOM     58  C   UNL A   1      44.074  26.678  30.484  1.00  0.00     0.049 A 
ATOM     59  C   UNL A   1      43.019  30.468  34.460  1.00  0.00     0.074 A 
ATOM     60  C   UNL A   1      45.267  25.984  30.591  1.00  0.00     0.029 A 
ATOM     61  N   UNL A   1      44.010  27.536  31.571  1.00  0.00    -0.354 N 
ATOM     62  N   UNL A   1      43.410  29.560  33.600  1.00  0.00    -0.248 NA
ATOM     63  C   UNL A   1      43.924  30.645  35.605  1.00  0.00     0.031 C 
ATOM     64  C   UNL A   1      45.902  26.387  31.766  1.00  0.00     0.029 A 
ATOM     65  C   UNL A   1      45.136  27.376  32.359  1.00  0.00     0.049 A 
ATOM     66  H   UNL A   1      43.275  28.164  31.753  1.00  0.00     0.167 HD
ATOM     67  C   UNL A   1      44.617  29.072  34.088  1.00  0.00     0.074 A 
ATOM     68  C   UNL A   1      44.899  29.792  35.312  1.00  0.00     0.031 C 
ATOM     69  C   UNL A   1      45.415  28.111  33.566  1.00  0.00     0.031 A 
BRANCH  56  70
ATOM     70  C   UNL A   1      43.352  25.610  28.328  1.00  0.00    -0.014 A 
ATOM     71  C   UNL A   1      43.449  24.233  28.597  1.00  0.00     0.010 A 
ATOM     72  C   UNL A   1      43.682  26.085  27.047  1.00  0.00     0.010 A 
ATOM     73  C   UNL A   1      43.919  23.351  27.621  1.00  0.00     0.020 A 
ATOM     74  C   UNL A   1      44.130  25.201  26.060  1.00  0.00     0.020 A 
ATOM     75  C   UNL A   1      44.272  23.845  26.362  1.00  0.00     0.054 A 
BRANCH  75  76
ATOM     76  S   UNL A   1      44.944  22.695  25.129  1.00  0.00     0.124 S 
ATOM     77  O   UNL A   1      45.492  23.603  24.128  1.00  0.00    -0.237 OA
ATOM     78  O   UNL A   1      45.926  21.937  25.901  1.00  0.00    -0.237 OA
ATOM     79  O   UNL A   1      43.773  21.928  24.706  1.00  0.00    -0.744 OA
ENDBRANCH  75  76
ENDBRANCH  56  70
BRANCH  57  80
ATOM     80  C   UNL A   1      41.569  32.402  35.433  1.00  0.00    -0.014 A 
ATOM     81  C   UNL A   1      40.850  32.137  36.613  1.00  0.00     0.010 A 
ATOM     82  C   UNL A   1      42.044  33.704  35.201  1.00  0.00     0.010 A 
ATOM     83  C   UNL A   1      40.573  33.162  37.520  1.00  0.00     0.020 A 
ATOM     84  C   UNL A   1      41.796  34.727  36.123  1.00  0.00     0.020 A 
ATOM     85  C   UNL A   1      41.040  34.453  37.265  1.00  0.00     0.054 A 
BRANCH  85  86
ATOM     86  S   UNL A   1      40.662  35.772  38.451  1.00  0.00     0.124 S 
ATOM     87  O   UNL A   1      39.833  35.068  39.426  1.00  0.00    -0.237 OA
ATOM     88  O   UNL A   1      41.985  36.172  38.921  1.00  0.00    -0.237 OA
ATOM     89  O   UNL A   1      39.966  36.768  37.640  1.00  0.00    -0.744 OA
ENDBRANCH  85  86
ENDBRANCH  57  80
BRANCH  69  90
ATOM     90  C   UNL A   1      46.693  27.772  34.285  1.00  0.00    -0.014 A 
ATOM     91  C   UNL A   1      47.890  28.411  33.908  1.00  0.00     0.010 A 
ATOM     92  C   UNL A   1      46.739  26.718  35.212  1.00  0.00     0.010 A 
ATOM     93  C   UNL A   1      49.115  27.972  34.412  1.00  0.00     0.020 A 
ATOM     94  C   UNL A   1      47.961  26.292  35.737  1.00  0.00     0.020 A 
ATOM     95  C   UNL A   1      49.144  26.904  35.311  1.00  0.00     0.054 A 
BRANCH  95  96
ATOM     96  S   UNL A   1      50.749  26.309  35.913  1.00  0.00     0.124 S 
ATOM     97  O   UNL A   1      51.357  27.534  36.426  1.00  0.00    -0.237 OA
ATOM     98  O   UNL A   1      50.370  25.324  36.923  1.00  0.00    -0.237 OA
ATOM     99  O   UNL A   1      51.377  25.754  34.717  1.00  0.00    -0.744 OA
ENDBRANCH  95  96
ENDBRANCH  69  90
ENDBRANCH  43  44
ENDBRANCH  35  38
ENDBRANCH  33  34
ENDBRANCH  32  33
ENDBRANCH   1  32
TORSDOF 18
ENDMDL
MODEL 3
REMARK VINA RESULT:      -9.7      4.856      9.814
REMARK SMILES Cc1ccc(-c2cc(Cl)cc3c2O[C@H](C(F)(F)F)C(C(=O)NCCCCCCNC(=O)c2ccc(-c4c5nc(c(-c6ccc(S(=O)(=O)[O-])cc6)c6ccc([nH]6)c(-c6ccc(S(=O)(=O)[O-])cc6)c6nc(c(-c7ccc(S(=O)(=O)[O-])cc7)c7ccc4[nH]7)C=C6)C=C5)cc2)=C3)cc1F
REMARK SMILES IDX 26 1 25 2 24 3 23 4 22 5 20 6 21 7 19 9 6 10 7 11 12 12 8 13
REMARK SMILES IDX 11 14 13 15 9 16 10 17 92 18 14 19 5 20 1 21 2 22 3 23 94 24
REMARK SMILES IDX 4 25 93 26 95 27 15 28 16 29 17 30 18 31 27 32 28 33 29 34
REMARK SMILES IDX 30 35 31 37 32 38 33 39 91 40 34 41 90 42 35 43 36 44 37 45
REMARK SMILES IDX 84 46 38 47 89 48 83 49 85 50 39 51 88 52 82 53 81 54 40 56
REMARK SMILES IDX 70 57 51 58 69 59 52 60 55 61 68 62 86 63 53 64 54 65 67 67
REMARK SMILES IDX 87 68 56 69 41 70 42 71 50 72 43 73 49 74 44 75 45 76 46 77
REMARK SMILES IDX 47 78 48 79 71 80 72 81 80 82 73 83 79 84 74 85 75 86 76 87
REMARK SMILES IDX 77 88 78 89 57 90 58 91 66 92 59 93 65 94 60 95 61 96 62 97
REMARK SMILES IDX 63 98 64 99
REMARK H PARENT 22 8 29 36 85 55 55 66
REMARK Flexibility Score: inf
ROOT
ATOM      1  C   UNL A   1      35.159  21.311  25.304  1.00  0.00     0.002 C 
ENDROOT
BRANCH   1   2
ATOM      2  C   UNL A   1      33.763  21.124  25.913  1.00  0.00     0.002 C 
BRANCH   2   3
ATOM      3  C   UNL A   1      33.366  22.142  26.987  1.00  0.00     0.021 C 
BRANCH   3   4
ATOM      4  C   UNL A   1      32.004  22.793  26.756  1.00  0.00     0.116 C 
BRANCH   4   5
ATOM      5  N   UNL A   1      31.578  22.681  25.370  1.00  0.00    -0.352 N 
ATOM      6  C   UNL A   1      31.264  23.516  24.352  1.00  0.00     0.251 C 
ATOM      7  O   UNL A   1      30.964  22.960  23.290  1.00  0.00    -0.270 OA
ATOM      8  H   UNL A   1      31.494  21.739  25.097  1.00  0.00     0.163 HD
BRANCH   6   9
ATOM      9  C   UNL A   1      31.252  25.009  24.424  1.00  0.00     0.067 C 
ATOM     10  C   UNL A   1      31.007  29.213  24.677  1.00  0.00     0.026 A 
ATOM     11  C   UNL A   1      30.109  29.889  23.841  1.00  0.00     0.033 A 
ATOM     12  C   UNL A   1      31.032  27.804  24.621  1.00  0.00     0.135 A 
ATOM     13  C   UNL A   1      29.272  29.174  22.981  1.00  0.00     0.042 A 
ATOM     14  C   UNL A   1      30.201  27.086  23.755  1.00  0.00     0.019 A 
ATOM     15  O   UNL A   1      31.853  27.160  25.507  1.00  0.00    -0.475 OA
ATOM     16  Cl  UNL A   1      28.168  30.025  21.970  1.00  0.00    -0.084 Cl
ATOM     17  C   UNL A   1      29.314  27.779  22.932  1.00  0.00     0.032 A 
ATOM     18  C   UNL A   1      30.257  25.626  23.759  1.00  0.00     0.025 C 
ATOM     19  C   UNL A   1      32.282  25.824  25.151  1.00  0.00     0.314 C 
BRANCH  10  20
ATOM     20  C   UNL A   1      31.910  29.945  25.579  1.00  0.00    -0.012 A 
ATOM     21  C   UNL A   1      34.457  31.835  28.523  1.00  0.00     0.047 C 
ATOM     22  C   UNL A   1      33.577  31.218  27.479  1.00  0.00    -0.015 A 
ATOM     23  C   UNL A   1      32.309  31.734  27.191  1.00  0.00     0.007 A 
ATOM     24  C   UNL A   1      34.006  30.082  26.793  1.00  0.00     0.126 A 
ATOM     25  C   UNL A   1      31.485  31.104  26.248  1.00  0.00     0.009 A 
ATOM     26  C   UNL A   1      33.196  29.454  25.853  1.00  0.00     0.048 A 
ATOM     27  F   UNL A   1      35.215  29.563  27.052  1.00  0.00    -0.207 F 
ENDBRANCH  10  20
BRANCH  19  28
ATOM     28  C   UNL A   1      33.625  25.899  24.402  1.00  0.00     0.429 C 
ATOM     29  F   UNL A   1      33.728  24.891  23.503  1.00  0.00    -0.167 F 
ATOM     30  F   UNL A   1      33.767  27.053  23.709  1.00  0.00    -0.167 F 
ATOM     31  F   UNL A   1      34.686  25.809  25.237  1.00  0.00    -0.167 F 
ENDBRANCH  19  28
ENDBRANCH   6   9
ENDBRANCH   4   5
ENDBRANCH   3   4
ENDBRANCH   2   3
ENDBRANCH   1   2
BRANCH   1  32
ATOM     32  C   UNL A   1      35.573  22.756  25.015  1.00  0.00     0.021 C 
BRANCH  32  33
ATOM     33  C   UNL A   1      36.734  23.277  25.855  1.00  0.00     0.116 C 
BRANCH  33  34
ATOM     34  N   UNL A   1      37.786  22.289  26.028  1.00  0.00    -0.352 N 
ATOM     35  C   UNL A   1      39.098  22.474  26.395  1.00  0.00     0.251 C 
ATOM     36  H   UNL A   1      37.522  21.356  25.859  1.00  0.00     0.163 HD
ATOM     37  O   UNL A   1      39.889  21.536  26.349  1.00  0.00    -0.269 OA
BRANCH  35  38
ATOM     38  C   UNL A   1      39.559  23.817  26.811  1.00  0.00     0.039 A 
ATOM     39  C   UNL A   1      39.976  24.753  25.861  1.00  0.00     0.014 A 
ATOM     40  C   UNL A   1      39.599  24.131  28.171  1.00  0.00     0.014 A 
ATOM     41  C   UNL A   1      40.574  25.940  26.278  1.00  0.00     0.010 A 
ATOM     42  C   UNL A   1      40.138  25.353  28.586  1.00  0.00     0.010 A 
ATOM     43  C   UNL A   1      40.672  26.247  27.645  1.00  0.00    -0.014 A 
BRANCH  43  44
ATOM     44  C   UNL A   1      41.362  27.491  28.076  1.00  0.00     0.031 A 
ATOM     45  C   UNL A   1      40.573  28.630  28.668  1.00  0.00     0.074 A 
ATOM     46  C   UNL A   1      42.706  27.572  27.993  1.00  0.00     0.049 A 
ATOM     47  N   UNL A   1      41.000  29.794  29.087  1.00  0.00    -0.248 NA
ATOM     48  C   UNL A   1      39.119  28.442  28.817  1.00  0.00     0.031 C 
ATOM     49  C   UNL A   1      43.583  26.513  27.489  1.00  0.00     0.029 A 
ATOM     50  N   UNL A   1      43.572  28.571  28.361  1.00  0.00    -0.354 N 
ATOM     51  C   UNL A   1      39.875  30.476  29.536  1.00  0.00     0.074 A 
ATOM     52  C   UNL A   1      38.738  29.610  29.317  1.00  0.00     0.031 C 
ATOM     53  C   UNL A   1      44.861  26.893  27.638  1.00  0.00     0.029 A 
ATOM     54  C   UNL A   1      44.897  28.249  28.181  1.00  0.00     0.049 A 
ATOM     55  H   UNL A   1      43.272  29.439  28.720  1.00  0.00     0.167 HD
ATOM     56  C   UNL A   1      39.801  31.706  30.094  1.00  0.00     0.031 A 
ATOM     57  C   UNL A   1      46.016  28.961  28.415  1.00  0.00     0.031 A 
ATOM     58  C   UNL A   1      40.938  32.555  30.332  1.00  0.00     0.049 A 
ATOM     59  C   UNL A   1      45.896  30.357  28.961  1.00  0.00     0.074 A 
ATOM     60  C   UNL A   1      40.955  33.825  30.883  1.00  0.00     0.029 A 
ATOM     61  N   UNL A   1      42.254  32.222  30.053  1.00  0.00    -0.354 N 
ATOM     62  N   UNL A   1      44.817  30.997  29.343  1.00  0.00    -0.248 NA
ATOM     63  C   UNL A   1      47.137  31.132  29.097  1.00  0.00     0.031 C 
ATOM     64  C   UNL A   1      42.274  34.279  30.893  1.00  0.00     0.029 A 
ATOM     65  C   UNL A   1      43.087  33.269  30.406  1.00  0.00     0.049 A 
ATOM     66  H   UNL A   1      42.551  31.369  29.662  1.00  0.00     0.167 HD
ATOM     67  C   UNL A   1      45.253  32.241  29.785  1.00  0.00     0.074 A 
ATOM     68  C   UNL A   1      46.692  32.262  29.634  1.00  0.00     0.031 C 
ATOM     69  C   UNL A   1      44.520  33.273  30.269  1.00  0.00     0.031 A 
BRANCH  56  70
ATOM     70  C   UNL A   1      38.453  32.234  30.511  1.00  0.00    -0.014 A 
ATOM     71  C   UNL A   1      37.778  33.150  29.684  1.00  0.00     0.010 A 
ATOM     72  C   UNL A   1      37.940  31.956  31.790  1.00  0.00     0.010 A 
ATOM     73  C   UNL A   1      36.641  33.817  30.145  1.00  0.00     0.020 A 
ATOM     74  C   UNL A   1      36.789  32.606  32.246  1.00  0.00     0.020 A 
ATOM     75  C   UNL A   1      36.164  33.552  31.432  1.00  0.00     0.054 A 
BRANCH  75  76
ATOM     76  S   UNL A   1      34.725  34.478  32.038  1.00  0.00     0.124 S 
ATOM     77  O   UNL A   1      34.139  34.982  30.802  1.00  0.00    -0.237 OA
ATOM     78  O   UNL A   1      33.953  33.448  32.730  1.00  0.00    -0.237 OA
ATOM     79  O   UNL A   1      35.316  35.491  32.912  1.00  0.00    -0.744 OA
ENDBRANCH  75  76
ENDBRANCH  56  70
BRANCH  57  80
ATOM     80  C   UNL A   1      47.349  28.355  28.146  1.00  0.00    -0.014 A 
ATOM     81  C   UNL A   1      47.954  28.485  26.882  1.00  0.00     0.010 A 
ATOM     82  C   UNL A   1      48.003  27.609  29.142  1.00  0.00     0.010 A 
ATOM     83  C   UNL A   1      49.164  27.845  26.605  1.00  0.00     0.020 A 
ATOM     84  C   UNL A   1      49.230  26.992  28.878  1.00  0.00     0.020 A 
ATOM     85  C   UNL A   1      49.791  27.095  27.603  1.00  0.00     0.054 A 
BRANCH  85  86
ATOM     86  S   UNL A   1      51.357  26.264  27.221  1.00  0.00     0.124 S 
ATOM     87  O   UNL A   1      52.170  26.610  28.384  1.00  0.00    -0.237 OA
ATOM     88  O   UNL A   1      50.963  24.861  27.123  1.00  0.00    -0.237 OA
ATOM     89  O   UNL A   1      51.770  26.880  25.962  1.00  0.00    -0.744 OA
ENDBRANCH  85  86
ENDBRANCH  57  80
BRANCH  69  90
ATOM     90  C   UNL A   1      45.239  34.522  30.700  1.00  0.00    -0.014 A 
ATOM     91  C   UNL A   1      45.579  35.492  29.739  1.00  0.00     0.010 A 
ATOM     92  C   UNL A   1      45.715  34.659  32.015  1.00  0.00     0.010 A 
ATOM     93  C   UNL A   1      46.420  36.555  30.074  1.00  0.00     0.020 A 
ATOM     94  C   UNL A   1      46.536  35.735  32.359  1.00  0.00     0.020 A 
ATOM     95  C   UNL A   1      46.906  36.660  31.379  1.00  0.00     0.054 A 
BRANCH  95  96
ATOM     96  S   UNL A   1      48.043  38.015  31.783  1.00  0.00     0.124 S 
ATOM     97  O   UNL A   1      48.721  38.237  30.509  1.00  0.00    -0.237 OA
ATOM     98  O   UNL A   1      47.138  39.081  32.207  1.00  0.00    -0.237 OA
ATOM     99  O   UNL A   1      48.876  37.457  32.845  1.00  0.00    -0.744 OA
ENDBRANCH  95  96
ENDBRANCH  69  90
ENDBRANCH  43  44
ENDBRANCH  35  38
ENDBRANCH  33  34
ENDBRANCH  32  33
ENDBRANCH   1  32
TORSDOF 18
ENDMDL
