MODEL 1
REMARK VINA RESULT:      -9.9      0.000      0.000
REMARK SMILES Cc1csc(C[NH2+]C[C@H]2CCC[C@H]2C(=O)NCCCCCCNC(=O)c2ccc(-c3c4nc(c(-c5ccc(S(=O)(=O)[O-])cc5)c5ccc([nH]5)c(-c5ccc(S(=O)(=O)[O-])cc5)c5nc(c(-c6ccc(S(=O)(=O)[O-])cc6)c6ccc3[nH]6)C=C5)C=C4)cc2)n1
REMARK SMILES IDX 19 1 18 2 17 3 16 4 14 5 15 6 13 8 9 9 10 10 11 11 12 12
REMARK SMILES IDX 8 13 7 14 6 17 5 18 1 19 2 20 3 21 86 22 4 23 20 24 21 25
REMARK SMILES IDX 22 26 23 27 24 28 25 30 26 31 27 32 85 33 28 34 84 35 29 36
REMARK SMILES IDX 30 37 31 38 78 39 32 40 83 41 77 42 79 43 33 44 82 45 76 46
REMARK SMILES IDX 75 47 34 49 64 50 45 51 63 52 46 53 49 54 62 55 80 56 47 57
REMARK SMILES IDX 48 58 61 60 81 61 50 62 35 63 36 64 44 65 37 66 43 67 38 68
REMARK SMILES IDX 39 69 40 70 41 71 42 72 65 73 66 74 74 75 67 76 73 77 68 78
REMARK SMILES IDX 69 79 70 80 71 81 72 82 51 83 52 84 60 85 53 86 59 87 54 88
REMARK SMILES IDX 55 89 56 90 57 91 58 92
REMARK H PARENT 16 7 7 15 7 16 23 29 79 48 49 59
REMARK Flexibility Score: inf
ROOT
ATOM      1  C   UNL A   1      34.034  25.697  23.885  1.00  0.00     0.002 C 
ENDROOT
BRANCH   1   2
ATOM      2  C   UNL A   1      33.622  26.467  22.630  1.00  0.00     0.021 C 
BRANCH   2   3
ATOM      3  C   UNL A   1      33.302  27.945  22.875  1.00  0.00     0.116 C 
BRANCH   3   4
ATOM      4  N   UNL A   1      32.003  28.280  22.317  1.00  0.00    -0.356 N 
ATOM      5  C   UNL A   1      30.729  28.066  22.725  1.00  0.00     0.223 C 
ATOM      6  O   UNL A   1      29.845  28.359  21.910  1.00  0.00    -0.275 OA
ATOM      7  H   UNL A   1      32.061  28.765  21.463  1.00  0.00     0.163 HD
BRANCH   5   8
ATOM      8  C   UNL A   1      30.320  27.510  24.087  1.00  0.00     0.087 C 
ATOM      9  C   UNL A   1      29.777  26.062  24.197  1.00  0.00     0.057 C 
ATOM     10  C   UNL A   1      29.826  25.848  25.716  1.00  0.00     0.010 C 
ATOM     11  C   UNL A   1      31.149  26.472  26.138  1.00  0.00     0.001 C 
ATOM     12  C   UNL A   1      31.302  27.707  25.252  1.00  0.00     0.014 C 
BRANCH   9  13
ATOM     13  C   UNL A   1      30.575  25.026  23.400  1.00  0.00     0.265 C 
BRANCH  13  14
ATOM     14  N   UNL A   1      31.019  23.831  24.085  1.00  0.00    -0.340 N 
ATOM     15  H   UNL A   1      31.740  24.104  24.752  1.00  0.00     0.346 HD
ATOM     16  H   UNL A   1      30.182  23.432  24.511  1.00  0.00     0.346 HD
BRANCH  14  17
ATOM     17  C   UNL A   1      31.569  22.775  23.242  1.00  0.00     0.329 C 
BRANCH  17  18
ATOM     18  C   UNL A   1      32.130  21.686  24.126  1.00  0.00     0.147 A 
ATOM     19  C   UNL A   1      34.022  18.637  24.397  1.00  0.00     0.067 C 
ATOM     20  C   UNL A   1      33.262  19.871  24.718  1.00  0.00     0.049 A 
ATOM     21  C   UNL A   1      33.078  20.434  25.966  1.00  0.00     0.090 A 
ATOM     22  N   UNL A   1      32.683  20.577  23.678  1.00  0.00    -0.241 NA
ATOM     23  S   UNL A   1      32.187  21.892  25.834  1.00  0.00    -0.121 S 
ENDBRANCH  17  18
ENDBRANCH  14  17
ENDBRANCH  13  14
ENDBRANCH   9  13
ENDBRANCH   5   8
ENDBRANCH   3   4
ENDBRANCH   2   3
ENDBRANCH   1   2
BRANCH   1  24
ATOM     24  C   UNL A   1      34.834  24.419  23.621  1.00  0.00     0.002 C 
BRANCH  24  25
ATOM     25  C   UNL A   1      35.205  23.612  24.868  1.00  0.00     0.021 C 
BRANCH  25  26
ATOM     26  C   UNL A   1      36.486  24.064  25.564  1.00  0.00     0.116 C 
BRANCH  26  27
ATOM     27  N   UNL A   1      37.434  22.971  25.710  1.00  0.00    -0.352 N 
ATOM     28  C   UNL A   1      38.733  23.001  26.154  1.00  0.00     0.251 C 
ATOM     29  H   UNL A   1      37.095  22.083  25.455  1.00  0.00     0.163 HD
ATOM     30  O   UNL A   1      39.462  22.030  25.988  1.00  0.00    -0.269 OA
BRANCH  28  31
ATOM     31  C   UNL A   1      39.248  24.213  26.825  1.00  0.00     0.039 A 
ATOM     32  C   UNL A   1      40.042  25.106  26.101  1.00  0.00     0.014 A 
ATOM     33  C   UNL A   1      38.963  24.457  28.172  1.00  0.00     0.014 A 
ATOM     34  C   UNL A   1      40.512  26.268  26.716  1.00  0.00     0.010 A 
ATOM     35  C   UNL A   1      39.373  25.649  28.762  1.00  0.00     0.010 A 
ATOM     36  C   UNL A   1      40.161  26.561  28.044  1.00  0.00    -0.014 A 
BRANCH  36  37
ATOM     37  C   UNL A   1      40.625  27.805  28.709  1.00  0.00     0.031 A 
ATOM     38  C   UNL A   1      42.024  27.888  29.258  1.00  0.00     0.074 A 
ATOM     39  C   UNL A   1      39.772  28.835  28.868  1.00  0.00     0.049 A 
ATOM     40  N   UNL A   1      42.594  28.864  29.916  1.00  0.00    -0.248 NA
ATOM     41  C   UNL A   1      42.884  26.711  29.063  1.00  0.00     0.031 C 
ATOM     42  C   UNL A   1      38.381  28.864  28.409  1.00  0.00     0.029 A 
ATOM     43  N   UNL A   1      39.949  30.058  29.465  1.00  0.00    -0.354 N 
ATOM     44  C   UNL A   1      43.873  28.414  30.226  1.00  0.00     0.074 A 
ATOM     45  C   UNL A   1      43.973  27.058  29.732  1.00  0.00     0.031 C 
ATOM     46  C   UNL A   1      37.842  30.055  28.714  1.00  0.00     0.029 A 
ATOM     47  C   UNL A   1      38.833  30.859  29.425  1.00  0.00     0.049 A 
ATOM     48  H   UNL A   1      40.797  30.336  29.882  1.00  0.00     0.167 HD
ATOM     49  C   UNL A   1      44.879  29.074  30.849  1.00  0.00     0.031 A 
ATOM     50  C   UNL A   1      38.628  32.100  29.908  1.00  0.00     0.031 A 
ATOM     51  C   UNL A   1      44.775  30.424  31.335  1.00  0.00     0.049 A 
ATOM     52  C   UNL A   1      39.753  32.809  30.610  1.00  0.00     0.074 A 
ATOM     53  C   UNL A   1      45.749  31.198  31.939  1.00  0.00     0.029 A 
ATOM     54  N   UNL A   1      43.628  31.200  31.272  1.00  0.00    -0.354 N 
ATOM     55  N   UNL A   1      40.973  32.386  30.847  1.00  0.00    -0.248 NA
ATOM     56  C   UNL A   1      39.479  34.168  31.095  1.00  0.00     0.031 C 
ATOM     57  C   UNL A   1      45.176  32.428  32.286  1.00  0.00     0.029 A 
ATOM     58  C   UNL A   1      43.863  32.439  31.845  1.00  0.00     0.049 A 
ATOM     59  H   UNL A   1      42.773  30.914  30.878  1.00  0.00     0.167 HD
ATOM     60  C   UNL A   1      41.620  33.439  31.484  1.00  0.00     0.074 A 
ATOM     61  C   UNL A   1      40.661  34.520  31.584  1.00  0.00     0.031 C 
ATOM     62  C   UNL A   1      42.897  33.505  31.939  1.00  0.00     0.031 A 
BRANCH  49  63
ATOM     63  C   UNL A   1      46.175  28.330  31.046  1.00  0.00    -0.014 A 
ATOM     64  C   UNL A   1      46.450  27.654  32.249  1.00  0.00     0.010 A 
ATOM     65  C   UNL A   1      47.128  28.295  30.011  1.00  0.00     0.010 A 
ATOM     66  C   UNL A   1      47.674  27.006  32.434  1.00  0.00     0.020 A 
ATOM     67  C   UNL A   1      48.341  27.622  30.181  1.00  0.00     0.020 A 
ATOM     68  C   UNL A   1      48.615  27.002  31.402  1.00  0.00     0.054 A 
BRANCH  68  69
ATOM     69  S   UNL A   1      50.197  26.156  31.670  1.00  0.00     0.124 S 
ATOM     70  O   UNL A   1      51.157  27.183  31.273  1.00  0.00    -0.237 OA
ATOM     71  O   UNL A   1      50.161  25.849  33.097  1.00  0.00    -0.237 OA
ATOM     72  O   UNL A   1      50.125  24.996  30.785  1.00  0.00    -0.744 OA
ENDBRANCH  68  69
ENDBRANCH  49  63
BRANCH  50  73
ATOM     73  C   UNL A   1      37.308  32.760  29.715  1.00  0.00    -0.014 A 
ATOM     74  C   UNL A   1      36.323  32.683  30.715  1.00  0.00     0.010 A 
ATOM     75  C   UNL A   1      37.038  33.492  28.544  1.00  0.00     0.010 A 
ATOM     76  C   UNL A   1      35.088  33.316  30.545  1.00  0.00     0.020 A 
ATOM     77  C   UNL A   1      35.814  34.148  28.381  1.00  0.00     0.020 A 
ATOM     78  C   UNL A   1      34.844  34.049  29.380  1.00  0.00     0.054 A 
BRANCH  78  79
ATOM     79  S   UNL A   1      33.258  34.915  29.209  1.00  0.00     0.124 S 
ATOM     80  O   UNL A   1      32.553  34.073  28.248  1.00  0.00    -0.237 OA
ATOM     81  O   UNL A   1      32.738  34.892  30.574  1.00  0.00    -0.237 OA
ATOM     82  O   UNL A   1      33.643  36.238  28.721  1.00  0.00    -0.744 OA
ENDBRANCH  78  79
ENDBRANCH  50  73
BRANCH  62  83
ATOM     83  C   UNL A   1      43.345  34.804  32.555  1.00  0.00    -0.014 A 
ATOM     84  C   UNL A   1      43.272  35.019  33.942  1.00  0.00     0.010 A 
ATOM     85  C   UNL A   1      43.900  35.802  31.733  1.00  0.00     0.010 A 
ATOM     86  C   UNL A   1      43.718  36.223  34.492  1.00  0.00     0.020 A 
ATOM     87  C   UNL A   1      44.373  36.996  32.283  1.00  0.00     0.020 A 
ATOM     88  C   UNL A   1      44.265  37.204  33.659  1.00  0.00     0.054 A 
BRANCH  88  89
ATOM     89  S   UNL A   1      44.879  38.740  34.404  1.00  0.00     0.124 S 
ATOM     90  O   UNL A   1      46.281  38.417  34.656  1.00  0.00    -0.237 OA
ATOM     91  O   UNL A   1      44.642  39.725  33.350  1.00  0.00    -0.237 OA
ATOM     92  O   UNL A   1      44.052  38.903  35.596  1.00  0.00    -0.744 OA
ENDBRANCH  88  89
ENDBRANCH  62  83
ENDBRANCH  36  37
ENDBRANCH  28  31
ENDBRANCH  26  27
ENDBRANCH  25  26
ENDBRANCH  24  25
ENDBRANCH   1  24
TORSDOF 20
ENDMDL
MODEL 2
REMARK VINA RESULT:      -9.8      1.498      3.362
REMARK SMILES Cc1csc(C[NH2+]C[C@H]2CCC[C@H]2C(=O)NCCCCCCNC(=O)c2ccc(-c3c4nc(c(-c5ccc(S(=O)(=O)[O-])cc5)c5ccc([nH]5)c(-c5ccc(S(=O)(=O)[O-])cc5)c5nc(c(-c6ccc(S(=O)(=O)[O-])cc6)c6ccc3[nH]6)C=C5)C=C4)cc2)n1
REMARK SMILES IDX 19 1 18 2 17 3 16 4 14 5 15 6 13 8 9 9 10 10 11 11 12 12
REMARK SMILES IDX 8 13 7 14 6 17 5 18 1 19 2 20 3 21 86 22 4 23 20 24 21 25
REMARK SMILES IDX 22 26 23 27 24 28 25 30 26 31 27 32 85 33 28 34 84 35 29 36
REMARK SMILES IDX 30 37 31 38 78 39 32 40 83 41 77 42 79 43 33 44 82 45 76 46
REMARK SMILES IDX 75 47 34 49 64 50 45 51 63 52 46 53 49 54 62 55 80 56 47 57
REMARK SMILES IDX 48 58 61 60 81 61 50 62 35 63 36 64 44 65 37 66 43 67 38 68
REMARK SMILES IDX 39 69 40 70 41 71 42 72 65 73 66 74 74 75 67 76 73 77 68 78
REMARK SMILES IDX 69 79 70 80 71 81 72 82 51 83 52 84 60 85 53 86 59 87 54 88
REMARK SMILES IDX 55 89 56 90 57 91 58 92
REMARK H PARENT 16 7 7 15 7 16 23 29 79 48 49 59
REMARK Flexibility Score: inf
ROOT
ATOM      1  C   UNL A   1      34.591  21.517  24.982  1.00  0.00     0.002 C 
ENDROOT
BRANCH   1   2
ATOM      2  C   UNL A   1      33.609  20.480  24.436  1.00  0.00     0.021 C 
BRANCH   2   3
ATOM      3  C   UNL A   1      32.150  20.722  24.838  1.00  0.00     0.116 C 
BRANCH   3   4
ATOM      4  N   UNL A   1      32.085  21.457  26.088  1.00  0.00    -0.356 N 
ATOM      5  C   UNL A   1      31.580  22.665  26.436  1.00  0.00     0.223 C 
ATOM      6  O   UNL A   1      31.842  23.050  27.582  1.00  0.00    -0.275 OA
ATOM      7  H   UNL A   1      32.496  20.976  26.843  1.00  0.00     0.163 HD
BRANCH   5   8
ATOM      8  C   UNL A   1      30.726  23.556  25.536  1.00  0.00     0.087 C 
ATOM      9  C   UNL A   1      30.392  25.003  25.979  1.00  0.00     0.057 C 
ATOM     10  C   UNL A   1      29.838  25.586  24.671  1.00  0.00     0.010 C 
ATOM     11  C   UNL A   1      30.768  25.040  23.596  1.00  0.00     0.001 C 
ATOM     12  C   UNL A   1      31.101  23.619  24.048  1.00  0.00     0.014 C 
BRANCH   9  13
ATOM     13  C   UNL A   1      31.583  25.781  26.546  1.00  0.00     0.265 C 
BRANCH  13  14
ATOM     14  N   UNL A   1      31.400  27.183  26.855  1.00  0.00    -0.340 N 
ATOM     15  H   UNL A   1      30.540  27.492  26.403  1.00  0.00     0.346 HD
ATOM     16  H   UNL A   1      31.382  27.239  27.873  1.00  0.00     0.346 HD
BRANCH  14  17
ATOM     17  C   UNL A   1      32.471  28.079  26.433  1.00  0.00     0.329 C 
BRANCH  17  18
ATOM     18  C   UNL A   1      32.337  28.338  24.952  1.00  0.00     0.147 A 
ATOM     19  C   UNL A   1      30.278  29.436  22.213  1.00  0.00     0.067 C 
ATOM     20  C   UNL A   1      31.431  28.985  23.032  1.00  0.00     0.049 A 
ATOM     21  C   UNL A   1      32.751  28.906  22.637  1.00  0.00     0.090 A 
ATOM     22  N   UNL A   1      31.201  28.622  24.347  1.00  0.00    -0.241 NA
ATOM     23  S   UNL A   1      33.732  28.394  23.946  1.00  0.00    -0.121 S 
ENDBRANCH  17  18
ENDBRANCH  14  17
ENDBRANCH  13  14
ENDBRANCH   9  13
ENDBRANCH   5   8
ENDBRANCH   3   4
ENDBRANCH   2   3
ENDBRANCH   1   2
BRANCH   1  24
ATOM     24  C   UNL A   1      35.515  22.141  23.932  1.00  0.00     0.002 C 
BRANCH  24  25
ATOM     25  C   UNL A   1      35.850  23.618  24.154  1.00  0.00     0.021 C 
BRANCH  25  26
ATOM     26  C   UNL A   1      36.680  23.906  25.403  1.00  0.00     0.116 C 
BRANCH  26  27
ATOM     27  N   UNL A   1      37.702  22.894  25.615  1.00  0.00    -0.352 N 
ATOM     28  C   UNL A   1      38.964  23.031  26.139  1.00  0.00     0.251 C 
ATOM     29  H   UNL A   1      37.453  21.981  25.346  1.00  0.00     0.163 HD
ATOM     30  O   UNL A   1      39.779  22.121  26.025  1.00  0.00    -0.269 OA
BRANCH  28  31
ATOM     31  C   UNL A   1      39.336  24.282  26.833  1.00  0.00     0.039 A 
ATOM     32  C   UNL A   1      38.913  24.481  28.149  1.00  0.00     0.014 A 
ATOM     33  C   UNL A   1      40.086  25.263  26.178  1.00  0.00     0.014 A 
ATOM     34  C   UNL A   1      39.281  25.647  28.824  1.00  0.00     0.010 A 
ATOM     35  C   UNL A   1      40.511  26.390  26.874  1.00  0.00     0.010 A 
ATOM     36  C   UNL A   1      40.103  26.599  28.200  1.00  0.00    -0.014 A 
BRANCH  36  37
ATOM     37  C   UNL A   1      40.532  27.831  28.909  1.00  0.00     0.031 A 
ATOM     38  C   UNL A   1      41.898  27.902  29.537  1.00  0.00     0.074 A 
ATOM     39  C   UNL A   1      39.675  28.863  29.036  1.00  0.00     0.049 A 
ATOM     40  N   UNL A   1      42.434  28.865  30.241  1.00  0.00    -0.248 NA
ATOM     41  C   UNL A   1      42.765  26.724  29.373  1.00  0.00     0.031 C 
ATOM     42  C   UNL A   1      38.312  28.903  28.499  1.00  0.00     0.029 A 
ATOM     43  N   UNL A   1      39.821  30.076  29.660  1.00  0.00    -0.354 N 
ATOM     44  C   UNL A   1      43.691  28.405  30.616  1.00  0.00     0.074 A 
ATOM     45  C   UNL A   1      43.815  27.057  30.108  1.00  0.00     0.031 C 
ATOM     46  C   UNL A   1      37.760  30.092  28.792  1.00  0.00     0.029 A 
ATOM     47  C   UNL A   1      38.712  30.881  29.569  1.00  0.00     0.049 A 
ATOM     48  H   UNL A   1      40.645  30.344  30.129  1.00  0.00     0.167 HD
ATOM     49  C   UNL A   1      44.662  29.052  31.305  1.00  0.00     0.031 A 
ATOM     50  C   UNL A   1      38.483  32.115  30.059  1.00  0.00     0.031 A 
ATOM     51  C   UNL A   1      44.535  30.395  31.805  1.00  0.00     0.049 A 
ATOM     52  C   UNL A   1      39.569  32.810  30.834  1.00  0.00     0.074 A 
ATOM     53  C   UNL A   1      45.476  31.157  32.476  1.00  0.00     0.029 A 
ATOM     54  N   UNL A   1      43.395  31.177  31.689  1.00  0.00    -0.354 N 
ATOM     55  N   UNL A   1      40.772  32.378  31.134  1.00  0.00    -0.248 NA
ATOM     56  C   UNL A   1      39.272  34.162  31.324  1.00  0.00     0.031 C 
ATOM     57  C   UNL A   1      44.887  32.383  32.808  1.00  0.00     0.029 A 
ATOM     58  C   UNL A   1      43.601  32.406  32.294  1.00  0.00     0.049 A 
ATOM     59  H   UNL A   1      42.563  30.900  31.243  1.00  0.00     0.167 HD
ATOM     60  C   UNL A   1      41.385  33.419  31.822  1.00  0.00     0.074 A 
ATOM     61  C   UNL A   1      40.425  34.502  31.885  1.00  0.00     0.031 C 
ATOM     62  C   UNL A   1      42.634  33.473  32.349  1.00  0.00     0.031 A 
BRANCH  49  63
ATOM     63  C   UNL A   1      45.942  28.301  31.563  1.00  0.00    -0.014 A 
ATOM     64  C   UNL A   1      46.123  27.555  32.743  1.00  0.00     0.010 A 
ATOM     65  C   UNL A   1      46.977  28.329  30.610  1.00  0.00     0.010 A 
ATOM     66  C   UNL A   1      47.332  26.900  32.990  1.00  0.00     0.020 A 
ATOM     67  C   UNL A   1      48.178  27.650  30.839  1.00  0.00     0.020 A 
ATOM     68  C   UNL A   1      48.355  26.959  32.040  1.00  0.00     0.054 A 
BRANCH  68  69
ATOM     69  S   UNL A   1      49.916  26.102  32.386  1.00  0.00     0.124 S 
ATOM     70  O   UNL A   1      50.005  25.176  31.260  1.00  0.00    -0.237 OA
ATOM     71  O   UNL A   1      50.889  27.190  32.383  1.00  0.00    -0.237 OA
ATOM     72  O   UNL A   1      49.687  25.478  33.688  1.00  0.00    -0.744 OA
ENDBRANCH  68  69
ENDBRANCH  49  63
BRANCH  50  73
ATOM     73  C   UNL A   1      37.177  32.783  29.802  1.00  0.00    -0.014 A 
ATOM     74  C   UNL A   1      36.166  32.761  30.777  1.00  0.00     0.010 A 
ATOM     75  C   UNL A   1      36.949  33.467  28.594  1.00  0.00     0.010 A 
ATOM     76  C   UNL A   1      34.945  33.403  30.546  1.00  0.00     0.020 A 
ATOM     77  C   UNL A   1      35.739  34.132  28.370  1.00  0.00     0.020 A 
ATOM     78  C   UNL A   1      34.741  34.087  29.345  1.00  0.00     0.054 A 
BRANCH  78  79
ATOM     79  S   UNL A   1      33.173  34.965  29.094  1.00  0.00     0.124 S 
ATOM     80  O   UNL A   1      32.573  34.903  30.422  1.00  0.00    -0.237 OA
ATOM     81  O   UNL A   1      33.618  36.287  28.659  1.00  0.00    -0.237 OA
ATOM     82  O   UNL A   1      32.501  34.174  28.064  1.00  0.00    -0.744 OA
ENDBRANCH  78  79
ENDBRANCH  50  73
BRANCH  62  83
ATOM     83  C   UNL A   1      43.050  34.761  33.009  1.00  0.00    -0.014 A 
ATOM     84  C   UNL A   1      42.823  34.989  34.377  1.00  0.00     0.010 A 
ATOM     85  C   UNL A   1      43.731  35.734  32.255  1.00  0.00     0.010 A 
ATOM     86  C   UNL A   1      43.242  36.181  34.973  1.00  0.00     0.020 A 
ATOM     87  C   UNL A   1      44.176  36.916  32.853  1.00  0.00     0.020 A 
ATOM     88  C   UNL A   1      43.915  37.137  34.206  1.00  0.00     0.054 A 
BRANCH  88  89
ATOM     89  S   UNL A   1      44.489  38.658  35.013  1.00  0.00     0.124 S 
ATOM     90  O   UNL A   1      43.664  39.675  34.366  1.00  0.00    -0.237 OA
ATOM     91  O   UNL A   1      44.188  38.408  36.421  1.00  0.00    -0.237 OA
ATOM     92  O   UNL A   1      45.912  38.708  34.687  1.00  0.00    -0.744 OA
ENDBRANCH  88  89
ENDBRANCH  62  83
ENDBRANCH  36  37
ENDBRANCH  28  31
ENDBRANCH  26  27
ENDBRANCH  25  26
ENDBRANCH  24  25
ENDBRANCH   1  24
TORSDOF 20
ENDMDL
MODEL 3
REMARK VINA RESULT:      -9.5      4.561      6.347
REMARK SMILES Cc1csc(C[NH2+]C[C@H]2CCC[C@H]2C(=O)NCCCCCCNC(=O)c2ccc(-c3c4nc(c(-c5ccc(S(=O)(=O)[O-])cc5)c5ccc([nH]5)c(-c5ccc(S(=O)(=O)[O-])cc5)c5nc(c(-c6ccc(S(=O)(=O)[O-])cc6)c6ccc3[nH]6)C=C5)C=C4)cc2)n1
REMARK SMILES IDX 19 1 18 2 17 3 16 4 14 5 15 6 13 8 9 9 10 10 11 11 12 12
REMARK SMILES IDX 8 13 7 14 6 17 5 18 1 19 2 20 3 21 86 22 4 23 20 24 21 25
REMARK SMILES IDX 22 26 23 27 24 28 25 30 26 31 27 32 85 33 28 34 84 35 29 36
REMARK SMILES IDX 30 37 31 38 78 39 32 40 83 41 77 42 79 43 33 44 82 45 76 46
REMARK SMILES IDX 75 47 34 49 64 50 45 51 63 52 46 53 49 54 62 55 80 56 47 57
REMARK SMILES IDX 48 58 61 60 81 61 50 62 35 63 36 64 44 65 37 66 43 67 38 68
REMARK SMILES IDX 39 69 40 70 41 71 42 72 65 73 66 74 74 75 67 76 73 77 68 78
REMARK SMILES IDX 69 79 70 80 71 81 72 82 51 83 52 84 60 85 53 86 59 87 54 88
REMARK SMILES IDX 55 89 56 90 57 91 58 92
REMARK H PARENT 16 7 7 15 7 16 23 29 79 48 49 59
REMARK Flexibility Score: inf
ROOT
ATOM      1  C   UNL A   1      38.798  21.496  25.687  1.00  0.00     0.002 C 
ENDROOT
BRANCH   1   2
ATOM      2  C   UNL A   1      38.188  22.835  26.104  1.00  0.00     0.021 C 
BRANCH   2   3
ATOM      3  C   UNL A   1      36.729  23.023  25.674  1.00  0.00     0.116 C 
BRANCH   3   4
ATOM      4  N   UNL A   1      35.860  22.143  26.435  1.00  0.00    -0.356 N 
ATOM      5  C   UNL A   1      34.549  22.190  26.773  1.00  0.00     0.223 C 
ATOM      6  O   UNL A   1      34.167  21.329  27.576  1.00  0.00    -0.275 OA
ATOM      7  H   UNL A   1      36.321  21.344  26.777  1.00  0.00     0.163 HD
BRANCH   5   8
ATOM      8  C   UNL A   1      33.536  23.200  26.238  1.00  0.00     0.087 C 
ATOM      9  C   UNL A   1      33.336  23.355  24.709  1.00  0.00     0.057 C 
ATOM     10  C   UNL A   1      32.047  24.188  24.669  1.00  0.00     0.010 C 
ATOM     11  C   UNL A   1      31.172  23.573  25.751  1.00  0.00     0.001 C 
ATOM     12  C   UNL A   1      32.138  23.199  26.874  1.00  0.00     0.014 C 
BRANCH   9  13
ATOM     13  C   UNL A   1      33.240  22.030  23.948  1.00  0.00     0.265 C 
BRANCH  13  14
ATOM     14  N   UNL A   1      33.042  20.816  24.711  1.00  0.00    -0.340 N 
ATOM     15  H   UNL A   1      33.954  20.505  25.043  1.00  0.00     0.346 HD
ATOM     16  H   UNL A   1      32.386  21.062  25.452  1.00  0.00     0.346 HD
BRANCH  14  17
ATOM     17  C   UNL A   1      32.425  19.702  23.998  1.00  0.00     0.329 C 
BRANCH  17  18
ATOM     18  C   UNL A   1      32.938  18.406  24.578  1.00  0.00     0.147 A 
ATOM     19  C   UNL A   1      32.196  15.152  25.922  1.00  0.00     0.067 C 
ATOM     20  C   UNL A   1      32.908  16.342  25.393  1.00  0.00     0.049 A 
ATOM     21  C   UNL A   1      34.253  16.444  25.100  1.00  0.00     0.090 A 
ATOM     22  N   UNL A   1      32.172  17.483  25.125  1.00  0.00    -0.241 NA
ATOM     23  S   UNL A   1      34.603  17.991  24.449  1.00  0.00    -0.121 S 
ENDBRANCH  17  18
ENDBRANCH  14  17
ENDBRANCH  13  14
ENDBRANCH   9  13
ENDBRANCH   5   8
ENDBRANCH   3   4
ENDBRANCH   2   3
ENDBRANCH   1   2
BRANCH   1  24
ATOM     24  C   UNL A   1      40.025  21.070  26.498  1.00  0.00     0.002 C 
BRANCH  24  25
ATOM     25  C   UNL A   1      40.734  19.810  25.994  1.00  0.00     0.021 C 
BRANCH  25  26
ATOM     26  C   UNL A   1      42.183  19.663  26.454  1.00  0.00     0.116 C 
BRANCH  26  27
ATOM     27  N   UNL A   1      43.054  19.253  25.365  1.00  0.00    -0.352 N 
ATOM     28  C   UNL A   1      43.938  20.003  24.630  1.00  0.00     0.251 C 
ATOM     29  H   UNL A   1      43.003  18.301  25.120  1.00  0.00     0.163 HD
ATOM     30  O   UNL A   1      44.415  19.552  23.594  1.00  0.00    -0.269 OA
BRANCH  28  31
ATOM     31  C   UNL A   1      44.305  21.359  25.089  1.00  0.00     0.039 A 
ATOM     32  C   UNL A   1      43.705  22.467  24.485  1.00  0.00     0.014 A 
ATOM     33  C   UNL A   1      45.252  21.536  26.102  1.00  0.00     0.014 A 
ATOM     34  C   UNL A   1      44.023  23.753  24.929  1.00  0.00     0.010 A 
ATOM     35  C   UNL A   1      45.515  22.812  26.590  1.00  0.00     0.010 A 
ATOM     36  C   UNL A   1      44.912  23.934  26.001  1.00  0.00    -0.014 A 
BRANCH  36  37
ATOM     37  C   UNL A   1      45.241  25.289  26.510  1.00  0.00     0.031 A 
ATOM     38  C   UNL A   1      46.587  25.896  26.218  1.00  0.00     0.074 A 
ATOM     39  C   UNL A   1      44.354  25.950  27.278  1.00  0.00     0.049 A 
ATOM     40  N   UNL A   1      47.080  27.040  26.617  1.00  0.00    -0.248 NA
ATOM     41  C   UNL A   1      47.508  25.100  25.390  1.00  0.00     0.031 C 
ATOM     42  C   UNL A   1      43.028  25.455  27.658  1.00  0.00     0.029 A 
ATOM     43  N   UNL A   1      44.433  27.179  27.882  1.00  0.00    -0.354 N 
ATOM     44  C   UNL A   1      48.371  27.095  26.103  1.00  0.00     0.074 A 
ATOM     45  C   UNL A   1      48.602  25.846  25.411  1.00  0.00     0.031 C 
ATOM     46  C   UNL A   1      42.409  26.384  28.404  1.00  0.00     0.029 A 
ATOM     47  C   UNL A   1      43.306  27.521  28.590  1.00  0.00     0.049 A 
ATOM     48  H   UNL A   1      45.225  27.763  27.814  1.00  0.00     0.167 HD
ATOM     49  C   UNL A   1      49.276  28.100  26.183  1.00  0.00     0.031 A 
ATOM     50  C   UNL A   1      43.026  28.625  29.310  1.00  0.00     0.031 A 
ATOM     51  C   UNL A   1      49.039  29.342  26.870  1.00  0.00     0.049 A 
ATOM     52  C   UNL A   1      44.050  29.722  29.400  1.00  0.00     0.074 A 
ATOM     53  C   UNL A   1      49.873  30.442  26.972  1.00  0.00     0.029 A 
ATOM     54  N   UNL A   1      47.883  29.649  27.572  1.00  0.00    -0.354 N 
ATOM     55  N   UNL A   1      45.247  29.778  28.863  1.00  0.00    -0.248 NA
ATOM     56  C   UNL A   1      43.682  30.911  30.180  1.00  0.00     0.031 C 
ATOM     57  C   UNL A   1      49.240  31.395  27.777  1.00  0.00     0.029 A 
ATOM     58  C   UNL A   1      47.990  30.913  28.127  1.00  0.00     0.049 A 
ATOM     59  H   UNL A   1      47.103  29.057  27.662  1.00  0.00     0.167 HD
ATOM     60  C   UNL A   1      45.762  31.020  29.215  1.00  0.00     0.074 A 
ATOM     61  C   UNL A   1      44.743  31.686  30.002  1.00  0.00     0.031 C 
ATOM     62  C   UNL A   1      46.967  31.562  28.910  1.00  0.00     0.031 A 
BRANCH  49  63
ATOM     63  C   UNL A   1      50.610  27.883  25.517  1.00  0.00    -0.014 A 
ATOM     64  C   UNL A   1      50.798  28.173  24.152  1.00  0.00     0.010 A 
ATOM     65  C   UNL A   1      51.697  27.394  26.265  1.00  0.00     0.010 A 
ATOM     66  C   UNL A   1      52.027  27.925  23.537  1.00  0.00     0.020 A 
ATOM     67  C   UNL A   1      52.938  27.173  25.660  1.00  0.00     0.020 A 
ATOM     68  C   UNL A   1      53.087  27.418  24.294  1.00  0.00     0.054 A 
BRANCH  68  69
ATOM     69  S   UNL A   1      54.672  27.103  23.469  1.00  0.00     0.124 S 
ATOM     70  O   UNL A   1      54.239  26.525  22.200  1.00  0.00    -0.237 OA
ATOM     71  O   UNL A   1      55.261  28.437  23.383  1.00  0.00    -0.237 OA
ATOM     72  O   UNL A   1      55.356  26.181  24.373  1.00  0.00    -0.744 OA
ENDBRANCH  68  69
ENDBRANCH  49  63
BRANCH  50  73
ATOM     73  C   UNL A   1      41.702  28.755  29.979  1.00  0.00    -0.014 A 
ATOM     74  C   UNL A   1      41.525  28.297  31.296  1.00  0.00     0.010 A 
ATOM     75  C   UNL A   1      40.622  29.362  29.314  1.00  0.00     0.010 A 
ATOM     76  C   UNL A   1      40.288  28.435  31.934  1.00  0.00     0.020 A 
ATOM     77  C   UNL A   1      39.390  29.524  29.958  1.00  0.00     0.020 A 
ATOM     78  C   UNL A   1      39.230  29.051  31.261  1.00  0.00     0.054 A 
BRANCH  78  79
ATOM     79  S   UNL A   1      37.653  29.275  32.131  1.00  0.00     0.124 S 
ATOM     80  O   UNL A   1      37.827  30.586  32.745  1.00  0.00    -0.237 OA
ATOM     81  O   UNL A   1      36.681  29.207  31.042  1.00  0.00    -0.237 OA
ATOM     82  O   UNL A   1      37.613  28.147  33.060  1.00  0.00    -0.744 OA
ENDBRANCH  78  79
ENDBRANCH  50  73
BRANCH  62  83
ATOM     83  C   UNL A   1      47.240  32.961  29.396  1.00  0.00    -0.014 A 
ATOM     84  C   UNL A   1      46.860  34.084  28.642  1.00  0.00     0.010 A 
ATOM     85  C   UNL A   1      47.836  33.149  30.657  1.00  0.00     0.010 A 
ATOM     86  C   UNL A   1      47.100  35.373  29.127  1.00  0.00     0.020 A 
ATOM     87  C   UNL A   1      48.053  34.436  31.156  1.00  0.00     0.020 A 
ATOM     88  C   UNL A   1      47.696  35.540  30.381  1.00  0.00     0.054 A 
BRANCH  88  89
ATOM     89  S   UNL A   1      47.956  37.222  31.008  1.00  0.00     0.124 S 
ATOM     90  O   UNL A   1      47.327  37.156  32.324  1.00  0.00    -0.237 OA
ATOM     91  O   UNL A   1      49.412  37.341  31.013  1.00  0.00    -0.237 OA
ATOM     92  O   UNL A   1      47.272  38.066  30.031  1.00  0.00    -0.744 OA
ENDBRANCH  88  89
ENDBRANCH  62  83
ENDBRANCH  36  37
ENDBRANCH  28  31
ENDBRANCH  26  27
ENDBRANCH  25  26
ENDBRANCH  24  25
ENDBRANCH   1  24
TORSDOF 20
ENDMDL
