MODEL 1
REMARK VINA RESULT:      -8.9      0.000      0.000
REMARK SMILES Nc1c(Nc2ccc(I)cc2)ncnc1Nc1ccc(C(=O)NCCCCCCNC(=O)c2ccc(-c3c4nc(c(-c5ccc(S(=O)(=O)[O-])cc5)c5ccc([nH]5)c(-c5ccc(S(=O)(=O)[O-])cc5)c5nc(c(-c6ccc(S(=O)(=O)[O-])cc6)c6ccc3[nH]6)C=C5)C=C4)cc2)cc1
REMARK SMILES IDX 26 1 25 2 24 3 23 4 21 5 22 6 20 8 17 9 18 10 94 11 19 12
REMARK SMILES IDX 93 13 16 14 15 16 2 17 3 18 12 19 14 20 13 21 1 22 4 25 5 27
REMARK SMILES IDX 6 28 11 29 7 30 10 31 8 32 9 33 27 34 28 35 29 36 30 37
REMARK SMILES IDX 31 38 32 40 33 41 34 42 92 43 35 44 91 45 36 46 37 47 38 48
REMARK SMILES IDX 85 49 39 50 90 51 84 52 86 53 40 54 89 55 83 56 82 57 41 59
REMARK SMILES IDX 71 60 52 61 70 62 53 63 56 64 69 65 87 66 54 67 55 68 68 70
REMARK SMILES IDX 88 71 57 72 42 73 43 74 51 75 44 76 50 77 45 78 46 79 47 80
REMARK SMILES IDX 48 81 49 82 72 83 73 84 81 85 74 86 80 87 75 88 76 89 77 90
REMARK SMILES IDX 78 91 79 92 58 93 59 94 67 95 60 96 66 97 61 98 62 99 63 100
REMARK SMILES IDX 64 101 65 102
REMARK H PARENT 23 7 16 15 1 23 1 24 4 26 30 39 86 58 56 69
REMARK Flexibility Score: inf
ROOT
ATOM      1  C   UNL A   1      37.575  32.948  31.114  1.00  0.00     0.002 C 
ENDROOT
BRANCH   1   2
ATOM      2  C   UNL A   1      36.490  33.461  32.074  1.00  0.00     0.021 C 
BRANCH   2   3
ATOM      3  C   UNL A   1      36.986  34.568  33.007  1.00  0.00     0.116 C 
BRANCH   3   4
ATOM      4  N   UNL A   1      36.522  34.315  34.358  1.00  0.00    -0.352 N 
ATOM      5  C   UNL A   1      36.975  33.518  35.375  1.00  0.00     0.251 C 
ATOM      6  O   UNL A   1      36.301  33.493  36.408  1.00  0.00    -0.269 OA
ATOM      7  H   UNL A   1      35.712  34.822  34.593  1.00  0.00     0.163 HD
BRANCH   5   8
ATOM      8  C   UNL A   1      38.251  32.745  35.335  1.00  0.00     0.039 A 
ATOM      9  C   UNL A   1      40.550  31.094  35.475  1.00  0.00     0.040 A 
ATOM     10  C   UNL A   1      39.273  30.538  35.561  1.00  0.00     0.027 A 
ATOM     11  C   UNL A   1      40.662  32.473  35.263  1.00  0.00     0.027 A 
ATOM     12  C   UNL A   1      38.140  31.355  35.501  1.00  0.00     0.016 A 
ATOM     13  C   UNL A   1      39.524  33.285  35.149  1.00  0.00     0.016 A 
BRANCH   9  14
ATOM     14  N   UNL A   1      41.680  30.299  35.722  1.00  0.00    -0.338 N 
ATOM     15  H   UNL A   1      42.244  30.540  36.492  1.00  0.00     0.168 HD
BRANCH  14  16
ATOM     16  C   UNL A   1      42.077  29.174  34.951  1.00  0.00     0.159 A 
ATOM     17  C   UNL A   1      41.842  27.893  35.471  1.00  0.00     0.118 A 
ATOM     18  C   UNL A   1      42.316  26.833  34.685  1.00  0.00     0.159 A 
ATOM     19  N   UNL A   1      42.978  27.030  33.531  1.00  0.00    -0.217 NA
ATOM     20  N   UNL A   1      42.680  29.377  33.764  1.00  0.00    -0.217 NA
ATOM     21  C   UNL A   1      43.113  28.292  33.120  1.00  0.00     0.226 A 
BRANCH  17  22
ATOM     22  N   UNL A   1      41.232  27.701  36.717  1.00  0.00    -0.393 N 
ATOM     23  H   UNL A   1      41.775  27.716  37.538  1.00  0.00     0.156 HD
ATOM     24  H   UNL A   1      40.261  27.551  36.772  1.00  0.00     0.156 HD
ENDBRANCH  17  22
BRANCH  18  25
ATOM     25  N   UNL A   1      42.049  25.503  35.104  1.00  0.00    -0.338 N 
ATOM     26  H   UNL A   1      41.104  25.267  35.252  1.00  0.00     0.168 HD
BRANCH  25  27
ATOM     27  C   UNL A   1      42.996  24.488  35.328  1.00  0.00     0.040 A 
ATOM     28  C   UNL A   1      43.069  23.399  34.450  1.00  0.00     0.027 A 
ATOM     29  C   UNL A   1      43.937  24.575  36.362  1.00  0.00     0.027 A 
ATOM     30  C   UNL A   1      44.067  22.429  34.591  1.00  0.00     0.017 A 
ATOM     31  C   UNL A   1      44.929  23.602  36.519  1.00  0.00     0.017 A 
ATOM     32  C   UNL A   1      44.994  22.536  35.626  1.00  0.00     0.013 A 
ATOM     33  I   UNL A   1      46.495  21.112  35.822  1.00  0.00    -0.044 I 
ENDBRANCH  25  27
ENDBRANCH  18  25
ENDBRANCH  14  16
ENDBRANCH   9  14
ENDBRANCH   5   8
ENDBRANCH   3   4
ENDBRANCH   2   3
ENDBRANCH   1   2
BRANCH   1  34
ATOM     34  C   UNL A   1      37.206  33.012  29.625  1.00  0.00     0.002 C 
BRANCH  34  35
ATOM     35  C   UNL A   1      35.709  33.114  29.332  1.00  0.00     0.021 C 
BRANCH  35  36
ATOM     36  C   UNL A   1      35.326  32.781  27.894  1.00  0.00     0.116 C 
BRANCH  36  37
ATOM     37  N   UNL A   1      34.422  31.643  27.824  1.00  0.00    -0.352 N 
ATOM     38  C   UNL A   1      34.724  30.302  27.814  1.00  0.00     0.251 C 
ATOM     39  H   UNL A   1      33.463  31.864  27.777  1.00  0.00     0.163 HD
ATOM     40  O   UNL A   1      33.866  29.475  27.539  1.00  0.00    -0.269 OA
BRANCH  38  41
ATOM     41  C   UNL A   1      36.105  29.873  28.124  1.00  0.00     0.039 A 
ATOM     42  C   UNL A   1      37.072  29.929  27.119  1.00  0.00     0.014 A 
ATOM     43  C   UNL A   1      36.441  29.441  29.410  1.00  0.00     0.014 A 
ATOM     44  C   UNL A   1      38.396  29.605  27.424  1.00  0.00     0.010 A 
ATOM     45  C   UNL A   1      37.772  29.186  29.728  1.00  0.00     0.010 A 
ATOM     46  C   UNL A   1      38.762  29.262  28.738  1.00  0.00    -0.014 A 
BRANCH  46  47
ATOM     47  C   UNL A   1      40.179  28.985  29.077  1.00  0.00     0.031 A 
ATOM     48  C   UNL A   1      40.787  27.647  28.759  1.00  0.00     0.074 A 
ATOM     49  C   UNL A   1      40.912  29.936  29.689  1.00  0.00     0.049 A 
ATOM     50  N   UNL A   1      42.020  27.246  28.932  1.00  0.00    -0.248 NA
ATOM     51  C   UNL A   1      39.896  26.622  28.191  1.00  0.00     0.031 C 
ATOM     52  C   UNL A   1      40.419  31.255  30.093  1.00  0.00     0.029 A 
ATOM     53  N   UNL A   1      42.233  29.949  30.065  1.00  0.00    -0.354 N 
ATOM     54  C   UNL A   1      42.054  25.929  28.490  1.00  0.00     0.074 A 
ATOM     55  C   UNL A   1      40.706  25.577  28.102  1.00  0.00     0.031 C 
ATOM     56  C   UNL A   1      41.434  31.966  30.610  1.00  0.00     0.029 A 
ATOM     57  C   UNL A   1      42.643  31.146  30.603  1.00  0.00     0.049 A 
ATOM     58  H   UNL A   1      42.830  29.173  29.959  1.00  0.00     0.167 HD
ATOM     59  C   UNL A   1      43.116  25.097  28.387  1.00  0.00     0.031 A 
ATOM     60  C   UNL A   1      43.858  31.548  31.024  1.00  0.00     0.031 A 
ATOM     61  C   UNL A   1      44.456  25.454  28.764  1.00  0.00     0.049 A 
ATOM     62  C   UNL A   1      45.022  30.604  30.911  1.00  0.00     0.074 A 
ATOM     63  C   UNL A   1      45.609  24.698  28.656  1.00  0.00     0.029 A 
ATOM     64  N   UNL A   1      44.823  26.671  29.318  1.00  0.00    -0.354 N 
ATOM     65  N   UNL A   1      45.046  29.386  30.425  1.00  0.00    -0.248 NA
ATOM     66  C   UNL A   1      46.324  31.088  31.392  1.00  0.00     0.031 C 
ATOM     67  C   UNL A   1      46.668  25.441  29.185  1.00  0.00     0.029 A 
ATOM     68  C   UNL A   1      46.181  26.679  29.577  1.00  0.00     0.049 A 
ATOM     69  H   UNL A   1      44.208  27.418  29.501  1.00  0.00     0.167 HD
ATOM     70  C   UNL A   1      46.368  28.967  30.518  1.00  0.00     0.074 A 
ATOM     71  C   UNL A   1      47.115  30.061  31.102  1.00  0.00     0.031 C 
ATOM     72  C   UNL A   1      46.911  27.782  30.150  1.00  0.00     0.031 A 
BRANCH  59  73
ATOM     73  C   UNL A   1      42.874  23.722  27.824  1.00  0.00    -0.014 A 
ATOM     74  C   UNL A   1      42.482  22.664  28.664  1.00  0.00     0.010 A 
ATOM     75  C   UNL A   1      42.989  23.494  26.442  1.00  0.00     0.010 A 
ATOM     76  C   UNL A   1      42.243  21.394  28.136  1.00  0.00     0.020 A 
ATOM     77  C   UNL A   1      42.726  22.230  25.906  1.00  0.00     0.020 A 
ATOM     78  C   UNL A   1      42.369  21.184  26.760  1.00  0.00     0.054 A 
BRANCH  78  79
ATOM     79  S   UNL A   1      42.026  19.530  26.102  1.00  0.00     0.124 S 
ATOM     80  O   UNL A   1      40.572  19.554  25.970  1.00  0.00    -0.237 OA
ATOM     81  O   UNL A   1      42.772  19.523  24.846  1.00  0.00    -0.237 OA
ATOM     82  O   UNL A   1      42.540  18.631  27.134  1.00  0.00    -0.744 OA
ENDBRANCH  78  79
ENDBRANCH  59  73
BRANCH  60  83
ATOM     83  C   UNL A   1      44.040  32.932  31.539  1.00  0.00    -0.014 A 
ATOM     84  C   UNL A   1      44.408  33.970  30.666  1.00  0.00     0.010 A 
ATOM     85  C   UNL A   1      43.807  33.228  32.895  1.00  0.00     0.010 A 
ATOM     86  C   UNL A   1      44.546  35.278  31.138  1.00  0.00     0.020 A 
ATOM     87  C   UNL A   1      43.924  34.539  33.367  1.00  0.00     0.020 A 
ATOM     88  C   UNL A   1      44.298  35.556  32.486  1.00  0.00     0.054 A 
BRANCH  88  89
ATOM     89  S   UNL A   1      44.422  37.273  33.060  1.00  0.00     0.124 S 
ATOM     90  O   UNL A   1      44.244  38.022  31.821  1.00  0.00    -0.237 OA
ATOM     91  O   UNL A   1      43.323  37.363  34.019  1.00  0.00    -0.237 OA
ATOM     92  O   UNL A   1      45.758  37.340  33.648  1.00  0.00    -0.744 OA
ENDBRANCH  88  89
ENDBRANCH  60  83
BRANCH  72  93
ATOM     93  C   UNL A   1      48.390  27.592  30.343  1.00  0.00    -0.014 A 
ATOM     94  C   UNL A   1      49.308  28.105  29.411  1.00  0.00     0.010 A 
ATOM     95  C   UNL A   1      48.866  27.020  31.538  1.00  0.00     0.010 A 
ATOM     96  C   UNL A   1      50.678  28.057  29.675  1.00  0.00     0.020 A 
ATOM     97  C   UNL A   1      50.234  26.989  31.814  1.00  0.00     0.020 A 
ATOM     98  C   UNL A   1      51.132  27.510  30.880  1.00  0.00     0.054 A 
BRANCH  98  99
ATOM     99  S   UNL A   1      52.909  27.565  31.245  1.00  0.00     0.124 S 
ATOM    100  O   UNL A   1      53.479  27.878  29.937  1.00  0.00    -0.237 OA
ATOM    101  O   UNL A   1      52.997  28.631  32.240  1.00  0.00    -0.237 OA
ATOM    102  O   UNL A   1      53.202  26.225  31.748  1.00  0.00    -0.744 OA
ENDBRANCH  98  99
ENDBRANCH  72  93
ENDBRANCH  46  47
ENDBRANCH  38  41
ENDBRANCH  36  37
ENDBRANCH  35  36
ENDBRANCH  34  35
ENDBRANCH   1  34
TORSDOF 21
ENDMDL
MODEL 2
REMARK VINA RESULT:      -8.0      5.737     11.750
REMARK SMILES Nc1c(Nc2ccc(I)cc2)ncnc1Nc1ccc(C(=O)NCCCCCCNC(=O)c2ccc(-c3c4nc(c(-c5ccc(S(=O)(=O)[O-])cc5)c5ccc([nH]5)c(-c5ccc(S(=O)(=O)[O-])cc5)c5nc(c(-c6ccc(S(=O)(=O)[O-])cc6)c6ccc3[nH]6)C=C5)C=C4)cc2)cc1
REMARK SMILES IDX 26 1 25 2 24 3 23 4 21 5 22 6 20 8 17 9 18 10 94 11 19 12
REMARK SMILES IDX 93 13 16 14 15 16 2 17 3 18 12 19 14 20 13 21 1 22 4 25 5 27
REMARK SMILES IDX 6 28 11 29 7 30 10 31 8 32 9 33 27 34 28 35 29 36 30 37
REMARK SMILES IDX 31 38 32 40 33 41 34 42 92 43 35 44 91 45 36 46 37 47 38 48
REMARK SMILES IDX 85 49 39 50 90 51 84 52 86 53 40 54 89 55 83 56 82 57 41 59
REMARK SMILES IDX 71 60 52 61 70 62 53 63 56 64 69 65 87 66 54 67 55 68 68 70
REMARK SMILES IDX 88 71 57 72 42 73 43 74 51 75 44 76 50 77 45 78 46 79 47 80
REMARK SMILES IDX 48 81 49 82 72 83 73 84 81 85 74 86 80 87 75 88 76 89 77 90
REMARK SMILES IDX 78 91 79 92 58 93 59 94 67 95 60 96 66 97 61 98 62 99 63 100
REMARK SMILES IDX 64 101 65 102
REMARK H PARENT 23 7 16 15 1 23 1 24 4 26 30 39 86 58 56 69
REMARK Flexibility Score: inf
ROOT
ATOM      1  C   UNL A   1      37.053  33.705  29.855  1.00  0.00     0.002 C 
ENDROOT
BRANCH   1   2
ATOM      2  C   UNL A   1      38.223  34.247  30.693  1.00  0.00     0.021 C 
BRANCH   2   3
ATOM      3  C   UNL A   1      39.359  34.818  29.842  1.00  0.00     0.116 C 
BRANCH   3   4
ATOM      4  N   UNL A   1      40.503  33.928  29.889  1.00  0.00    -0.352 N 
ATOM      5  C   UNL A   1      41.855  34.128  29.816  1.00  0.00     0.251 C 
ATOM      6  O   UNL A   1      42.571  33.123  29.835  1.00  0.00    -0.269 OA
ATOM      7  H   UNL A   1      40.256  32.981  29.995  1.00  0.00     0.163 HD
BRANCH   5   8
ATOM      8  C   UNL A   1      42.507  35.470  29.784  1.00  0.00     0.039 A 
ATOM      9  C   UNL A   1      43.780  37.975  29.418  1.00  0.00     0.040 A 
ATOM     10  C   UNL A   1      42.880  37.494  28.467  1.00  0.00     0.027 A 
ATOM     11  C   UNL A   1      43.993  37.218  30.576  1.00  0.00     0.027 A 
ATOM     12  C   UNL A   1      42.260  36.253  28.644  1.00  0.00     0.016 A 
ATOM     13  C   UNL A   1      43.330  35.999  30.779  1.00  0.00     0.016 A 
BRANCH   9  14
ATOM     14  N   UNL A   1      44.537  39.126  29.149  1.00  0.00    -0.338 N 
ATOM     15  H   UNL A   1      44.956  39.582  29.915  1.00  0.00     0.168 HD
BRANCH  14  16
ATOM     16  C   UNL A   1      44.748  39.688  27.862  1.00  0.00     0.159 A 
ATOM     17  C   UNL A   1      43.961  40.782  27.474  1.00  0.00     0.118 A 
ATOM     18  C   UNL A   1      44.181  41.244  26.169  1.00  0.00     0.159 A 
ATOM     19  N   UNL A   1      45.060  40.659  25.335  1.00  0.00    -0.217 NA
ATOM     20  N   UNL A   1      45.678  39.140  27.056  1.00  0.00    -0.217 NA
ATOM     21  C   UNL A   1      45.776  39.646  25.826  1.00  0.00     0.226 A 
BRANCH  17  22
ATOM     22  N   UNL A   1      42.985  41.326  28.318  1.00  0.00    -0.393 N 
ATOM     23  H   UNL A   1      42.750  42.280  28.248  1.00  0.00     0.156 HD
ATOM     24  H   UNL A   1      42.534  40.757  28.982  1.00  0.00     0.156 HD
ENDBRANCH  17  22
BRANCH  18  25
ATOM     25  N   UNL A   1      43.480  42.396  25.728  1.00  0.00    -0.338 N 
ATOM     26  H   UNL A   1      42.611  42.576  26.155  1.00  0.00     0.168 HD
BRANCH  25  27
ATOM     27  C   UNL A   1      43.901  43.308  24.742  1.00  0.00     0.040 A 
ATOM     28  C   UNL A   1      44.854  44.283  25.060  1.00  0.00     0.027 A 
ATOM     29  C   UNL A   1      43.456  43.215  23.417  1.00  0.00     0.027 A 
ATOM     30  C   UNL A   1      45.364  45.135  24.074  1.00  0.00     0.017 A 
ATOM     31  C   UNL A   1      43.950  44.073  22.429  1.00  0.00     0.017 A 
ATOM     32  C   UNL A   1      44.910  45.025  22.762  1.00  0.00     0.013 A 
ATOM     33  I   UNL A   1      45.685  46.270  21.290  1.00  0.00    -0.044 I 
ENDBRANCH  25  27
ENDBRANCH  18  25
ENDBRANCH  14  16
ENDBRANCH   9  14
ENDBRANCH   5   8
ENDBRANCH   3   4
ENDBRANCH   2   3
ENDBRANCH   1   2
BRANCH   1  34
ATOM     34  C   UNL A   1      35.686  33.743  30.550  1.00  0.00     0.002 C 
BRANCH  34  35
ATOM     35  C   UNL A   1      34.552  33.054  29.789  1.00  0.00     0.021 C 
BRANCH  35  36
ATOM     36  C   UNL A   1      34.744  33.017  28.276  1.00  0.00     0.116 C 
BRANCH  36  37
ATOM     37  N   UNL A   1      34.029  31.905  27.668  1.00  0.00    -0.352 N 
ATOM     38  C   UNL A   1      34.464  30.621  27.441  1.00  0.00     0.251 C 
ATOM     39  H   UNL A   1      33.107  32.100  27.378  1.00  0.00     0.163 HD
ATOM     40  O   UNL A   1      33.819  29.864  26.728  1.00  0.00    -0.269 OA
BRANCH  38  41
ATOM     41  C   UNL A   1      35.732  30.173  28.054  1.00  0.00     0.039 A 
ATOM     42  C   UNL A   1      36.931  30.403  27.377  1.00  0.00     0.014 A 
ATOM     43  C   UNL A   1      35.733  29.550  29.306  1.00  0.00     0.014 A 
ATOM     44  C   UNL A   1      38.139  30.058  27.986  1.00  0.00     0.010 A 
ATOM     45  C   UNL A   1      36.941  29.271  29.939  1.00  0.00     0.010 A 
ATOM     46  C   UNL A   1      38.155  29.519  29.284  1.00  0.00    -0.014 A 
BRANCH  46  47
ATOM     47  C   UNL A   1      39.442  29.217  29.959  1.00  0.00     0.031 A 
ATOM     48  C   UNL A   1      39.843  29.970  31.197  1.00  0.00     0.074 A 
ATOM     49  C   UNL A   1      40.256  28.275  29.443  1.00  0.00     0.049 A 
ATOM     50  N   UNL A   1      40.900  29.806  31.950  1.00  0.00    -0.248 NA
ATOM     51  C   UNL A   1      38.955  31.058  31.639  1.00  0.00     0.031 C 
ATOM     52  C   UNL A   1      39.998  27.512  28.219  1.00  0.00     0.029 A 
ATOM     53  N   UNL A   1      41.458  27.785  29.890  1.00  0.00    -0.354 N 
ATOM     54  C   UNL A   1      40.802  30.762  32.953  1.00  0.00     0.074 A 
ATOM     55  C   UNL A   1      39.618  31.545  32.678  1.00  0.00     0.031 C 
ATOM     56  C   UNL A   1      40.983  26.617  28.043  1.00  0.00     0.029 A 
ATOM     57  C   UNL A   1      41.956  26.759  29.122  1.00  0.00     0.049 A 
ATOM     58  H   UNL A   1      41.920  28.135  30.686  1.00  0.00     0.167 HD
ATOM     59  C   UNL A   1      41.607  30.951  34.024  1.00  0.00     0.031 A 
ATOM     60  C   UNL A   1      43.061  26.003  29.278  1.00  0.00     0.031 A 
ATOM     61  C   UNL A   1      42.777  30.164  34.299  1.00  0.00     0.049 A 
ATOM     62  C   UNL A   1      43.948  26.239  30.469  1.00  0.00     0.074 A 
ATOM     63  C   UNL A   1      43.634  30.248  35.381  1.00  0.00     0.029 A 
ATOM     64  N   UNL A   1      43.253  29.146  33.487  1.00  0.00    -0.354 N 
ATOM     65  N   UNL A   1      43.799  27.103  31.444  1.00  0.00    -0.248 NA
ATOM     66  C   UNL A   1      45.144  25.393  30.589  1.00  0.00     0.031 C 
ATOM     67  C   UNL A   1      44.653  29.309  35.203  1.00  0.00     0.029 A 
ATOM     68  C   UNL A   1      44.403  28.607  34.034  1.00  0.00     0.049 A 
ATOM     69  H   UNL A   1      42.835  28.851  32.646  1.00  0.00     0.167 HD
ATOM     70  C   UNL A   1      44.868  26.889  32.306  1.00  0.00     0.074 A 
ATOM     71  C   UNL A   1      45.654  25.811  31.741  1.00  0.00     0.031 C 
ATOM     72  C   UNL A   1      45.168  27.528  33.463  1.00  0.00     0.031 A 
BRANCH  59  73
ATOM     73  C   UNL A   1      41.236  32.043  34.991  1.00  0.00    -0.014 A 
ATOM     74  C   UNL A   1      41.696  33.358  34.796  1.00  0.00     0.010 A 
ATOM     75  C   UNL A   1      40.383  31.769  36.074  1.00  0.00     0.010 A 
ATOM     76  C   UNL A   1      41.337  34.372  35.686  1.00  0.00     0.020 A 
ATOM     77  C   UNL A   1      40.001  32.786  36.953  1.00  0.00     0.020 A 
ATOM     78  C   UNL A   1      40.494  34.079  36.761  1.00  0.00     0.054 A 
BRANCH  78  79
ATOM     79  S   UNL A   1      40.025  35.423  37.885  1.00  0.00     0.124 S 
ATOM     80  O   UNL A   1      39.867  36.544  36.962  1.00  0.00    -0.237 OA
ATOM     81  O   UNL A   1      38.790  34.924  38.484  1.00  0.00    -0.237 OA
ATOM     82  O   UNL A   1      41.161  35.525  38.798  1.00  0.00    -0.744 OA
ENDBRANCH  78  79
ENDBRANCH  59  73
BRANCH  60  83
ATOM     83  C   UNL A   1      43.355  24.916  28.305  1.00  0.00    -0.014 A 
ATOM     84  C   UNL A   1      44.218  25.149  27.221  1.00  0.00     0.010 A 
ATOM     85  C   UNL A   1      42.806  23.633  28.480  1.00  0.00     0.010 A 
ATOM     86  C   UNL A   1      44.526  24.122  26.325  1.00  0.00     0.020 A 
ATOM     87  C   UNL A   1      43.127  22.596  27.597  1.00  0.00     0.020 A 
ATOM     88  C   UNL A   1      43.981  22.849  26.521  1.00  0.00     0.054 A 
BRANCH  88  89
ATOM     89  S   UNL A   1      44.446  21.516  25.381  1.00  0.00     0.124 S 
ATOM     90  O   UNL A   1      43.649  20.400  25.877  1.00  0.00    -0.237 OA
ATOM     91  O   UNL A   1      44.044  22.057  24.085  1.00  0.00    -0.237 OA
ATOM     92  O   UNL A   1      45.889  21.391  25.573  1.00  0.00    -0.744 OA
ENDBRANCH  88  89
ENDBRANCH  60  83
BRANCH  72  93
ATOM     93  C   UNL A   1      46.387  27.081  34.221  1.00  0.00    -0.014 A 
ATOM     94  C   UNL A   1      47.626  27.715  34.028  1.00  0.00     0.010 A 
ATOM     95  C   UNL A   1      46.257  26.113  35.234  1.00  0.00     0.010 A 
ATOM     96  C   UNL A   1      48.713  27.396  34.844  1.00  0.00     0.020 A 
ATOM     97  C   UNL A   1      47.336  25.806  36.065  1.00  0.00     0.020 A 
ATOM     98  C   UNL A   1      48.558  26.452  35.866  1.00  0.00     0.054 A 
BRANCH  98  99
ATOM     99  S   UNL A   1      49.955  26.141  36.981  1.00  0.00     0.124 S 
ATOM    100  O   UNL A   1      50.248  27.481  37.483  1.00  0.00    -0.237 OA
ATOM    101  O   UNL A   1      49.383  25.216  37.957  1.00  0.00    -0.237 OA
ATOM    102  O   UNL A   1      50.975  25.566  36.108  1.00  0.00    -0.744 OA
ENDBRANCH  98  99
ENDBRANCH  72  93
ENDBRANCH  46  47
ENDBRANCH  38  41
ENDBRANCH  36  37
ENDBRANCH  35  36
ENDBRANCH  34  35
ENDBRANCH   1  34
TORSDOF 21
ENDMDL
MODEL 3
REMARK VINA RESULT:      -7.8      4.386     10.660
REMARK SMILES Nc1c(Nc2ccc(I)cc2)ncnc1Nc1ccc(C(=O)NCCCCCCNC(=O)c2ccc(-c3c4nc(c(-c5ccc(S(=O)(=O)[O-])cc5)c5ccc([nH]5)c(-c5ccc(S(=O)(=O)[O-])cc5)c5nc(c(-c6ccc(S(=O)(=O)[O-])cc6)c6ccc3[nH]6)C=C5)C=C4)cc2)cc1
REMARK SMILES IDX 26 1 25 2 24 3 23 4 21 5 22 6 20 8 17 9 18 10 94 11 19 12
REMARK SMILES IDX 93 13 16 14 15 16 2 17 3 18 12 19 14 20 13 21 1 22 4 25 5 27
REMARK SMILES IDX 6 28 11 29 7 30 10 31 8 32 9 33 27 34 28 35 29 36 30 37
REMARK SMILES IDX 31 38 32 40 33 41 34 42 92 43 35 44 91 45 36 46 37 47 38 48
REMARK SMILES IDX 85 49 39 50 90 51 84 52 86 53 40 54 89 55 83 56 82 57 41 59
REMARK SMILES IDX 71 60 52 61 70 62 53 63 56 64 69 65 87 66 54 67 55 68 68 70
REMARK SMILES IDX 88 71 57 72 42 73 43 74 51 75 44 76 50 77 45 78 46 79 47 80
REMARK SMILES IDX 48 81 49 82 72 83 73 84 81 85 74 86 80 87 75 88 76 89 77 90
REMARK SMILES IDX 78 91 79 92 58 93 59 94 67 95 60 96 66 97 61 98 62 99 63 100
REMARK SMILES IDX 64 101 65 102
REMARK H PARENT 23 7 16 15 1 23 1 24 4 26 30 39 86 58 56 69
REMARK Flexibility Score: inf
ROOT
ATOM      1  C   UNL A   1      43.397  23.358  28.448  1.00  0.00     0.002 C 
ENDROOT
BRANCH   1   2
ATOM      2  C   UNL A   1      44.370  24.410  27.893  1.00  0.00     0.021 C 
BRANCH   2   3
ATOM      3  C   UNL A   1      45.670  24.510  28.693  1.00  0.00     0.116 C 
BRANCH   3   4
ATOM      4  N   UNL A   1      46.301  25.792  28.447  1.00  0.00    -0.352 N 
ATOM      5  C   UNL A   1      47.189  26.556  29.157  1.00  0.00     0.251 C 
ATOM      6  O   UNL A   1      47.493  27.651  28.676  1.00  0.00    -0.269 OA
ATOM      7  H   UNL A   1      46.035  26.200  27.592  1.00  0.00     0.163 HD
BRANCH   5   8
ATOM      8  C   UNL A   1      47.852  26.120  30.420  1.00  0.00     0.039 A 
ATOM      9  C   UNL A   1      49.251  25.073  32.651  1.00  0.00     0.040 A 
ATOM     10  C   UNL A   1      49.869  25.151  31.403  1.00  0.00     0.027 A 
ATOM     11  C   UNL A   1      47.951  25.574  32.783  1.00  0.00     0.027 A 
ATOM     12  C   UNL A   1      49.173  25.659  30.300  1.00  0.00     0.016 A 
ATOM     13  C   UNL A   1      47.273  26.133  31.690  1.00  0.00     0.016 A 
BRANCH   9  14
ATOM     14  N   UNL A   1      49.882  24.395  33.705  1.00  0.00    -0.338 N 
ATOM     15  H   UNL A   1      50.275  24.940  34.425  1.00  0.00     0.168 HD
BRANCH  14  16
ATOM     16  C   UNL A   1      50.002  22.984  33.819  1.00  0.00     0.159 A 
ATOM     17  C   UNL A   1      49.092  22.302  34.640  1.00  0.00     0.118 A 
ATOM     18  C   UNL A   1      49.308  20.922  34.754  1.00  0.00     0.159 A 
ATOM     19  N   UNL A   1      50.334  20.299  34.147  1.00  0.00    -0.217 NA
ATOM     20  N   UNL A   1      50.990  22.358  33.154  1.00  0.00    -0.217 NA
ATOM     21  C   UNL A   1      51.115  21.046  33.363  1.00  0.00     0.226 A 
BRANCH  17  22
ATOM     22  N   UNL A   1      48.081  22.973  35.341  1.00  0.00    -0.393 N 
ATOM     23  H   UNL A   1      47.906  23.925  35.159  1.00  0.00     0.156 HD
ATOM     24  H   UNL A   1      47.547  22.495  36.014  1.00  0.00     0.156 HD
ENDBRANCH  17  22
BRANCH  18  25
ATOM     25  N   UNL A   1      48.384  20.148  35.504  1.00  0.00    -0.338 N 
ATOM     26  H   UNL A   1      47.627  19.760  35.009  1.00  0.00     0.168 HD
BRANCH  25  27
ATOM     27  C   UNL A   1      48.441  19.878  36.884  1.00  0.00     0.040 A 
ATOM     28  C   UNL A   1      47.258  19.639  37.595  1.00  0.00     0.027 A 
ATOM     29  C   UNL A   1      49.662  19.753  37.559  1.00  0.00     0.027 A 
ATOM     30  C   UNL A   1      47.294  19.270  38.943  1.00  0.00     0.017 A 
ATOM     31  C   UNL A   1      49.706  19.398  38.911  1.00  0.00     0.017 A 
ATOM     32  C   UNL A   1      48.519  19.150  39.596  1.00  0.00     0.013 A 
ATOM     33  I   UNL A   1      48.578  18.573  41.591  1.00  0.00    -0.044 I 
ENDBRANCH  25  27
ENDBRANCH  18  25
ENDBRANCH  14  16
ENDBRANCH   9  14
ENDBRANCH   5   8
ENDBRANCH   3   4
ENDBRANCH   2   3
ENDBRANCH   1   2
BRANCH   1  34
ATOM     34  C   UNL A   1      42.466  22.722  27.406  1.00  0.00     0.002 C 
BRANCH  34  35
ATOM     35  C   UNL A   1      40.988  22.686  27.794  1.00  0.00     0.021 C 
BRANCH  35  36
ATOM     36  C   UNL A   1      40.135  23.756  27.121  1.00  0.00     0.116 C 
BRANCH  36  37
ATOM     37  N   UNL A   1      40.858  24.433  26.055  1.00  0.00    -0.352 N 
ATOM     38  C   UNL A   1      41.142  25.771  25.921  1.00  0.00     0.251 C 
ATOM     39  H   UNL A   1      41.190  23.852  25.331  1.00  0.00     0.163 HD
ATOM     40  O   UNL A   1      41.574  26.211  24.864  1.00  0.00    -0.269 OA
BRANCH  38  41
ATOM     41  C   UNL A   1      40.899  26.676  27.064  1.00  0.00     0.039 A 
ATOM     42  C   UNL A   1      39.784  26.459  27.875  1.00  0.00     0.014 A 
ATOM     43  C   UNL A   1      41.788  27.719  27.344  1.00  0.00     0.014 A 
ATOM     44  C   UNL A   1      39.593  27.257  29.005  1.00  0.00     0.010 A 
ATOM     45  C   UNL A   1      41.633  28.466  28.508  1.00  0.00     0.010 A 
ATOM     46  C   UNL A   1      40.532  28.246  29.348  1.00  0.00    -0.014 A 
BRANCH  46  47
ATOM     47  C   UNL A   1      40.366  29.046  30.585  1.00  0.00     0.031 A 
ATOM     48  C   UNL A   1      41.293  28.839  31.751  1.00  0.00     0.074 A 
ATOM     49  C   UNL A   1      39.367  29.948  30.663  1.00  0.00     0.049 A 
ATOM     50  N   UNL A   1      41.334  29.483  32.890  1.00  0.00    -0.248 NA
ATOM     51  C   UNL A   1      42.290  27.763  31.635  1.00  0.00     0.031 C 
ATOM     52  C   UNL A   1      38.375  30.202  29.616  1.00  0.00     0.029 A 
ATOM     53  N   UNL A   1      39.029  30.829  31.660  1.00  0.00    -0.354 N 
ATOM     54  C   UNL A   1      42.359  28.894  33.620  1.00  0.00     0.074 A 
ATOM     55  C   UNL A   1      42.874  27.802  32.824  1.00  0.00     0.031 C 
ATOM     56  C   UNL A   1      37.575  31.209  30.004  1.00  0.00     0.029 A 
ATOM     57  C   UNL A   1      37.976  31.652  31.336  1.00  0.00     0.049 A 
ATOM     58  H   UNL A   1      39.497  30.869  32.526  1.00  0.00     0.167 HD
ATOM     59  C   UNL A   1      42.851  29.251  34.829  1.00  0.00     0.031 A 
ATOM     60  C   UNL A   1      37.409  32.663  32.023  1.00  0.00     0.031 A 
ATOM     61  C   UNL A   1      42.344  30.345  35.612  1.00  0.00     0.049 A 
ATOM     62  C   UNL A   1      37.964  33.035  33.370  1.00  0.00     0.074 A 
ATOM     63  C   UNL A   1      42.802  30.814  36.829  1.00  0.00     0.029 A 
ATOM     64  N   UNL A   1      41.267  31.141  35.252  1.00  0.00    -0.354 N 
ATOM     65  N   UNL A   1      38.980  32.510  34.012  1.00  0.00    -0.248 NA
ATOM     66  C   UNL A   1      37.305  34.139  34.082  1.00  0.00     0.031 C 
ATOM     67  C   UNL A   1      41.976  31.868  37.228  1.00  0.00     0.029 A 
ATOM     68  C   UNL A   1      41.033  32.086  36.234  1.00  0.00     0.049 A 
ATOM     69  H   UNL A   1      40.747  31.047  34.422  1.00  0.00     0.167 HD
ATOM     70  C   UNL A   1      39.099  33.236  35.191  1.00  0.00     0.074 A 
ATOM     71  C   UNL A   1      38.054  34.240  35.174  1.00  0.00     0.031 C 
ATOM     72  C   UNL A   1      39.994  33.084  36.196  1.00  0.00     0.031 A 
BRANCH  59  73
ATOM     73  C   UNL A   1      44.011  28.461  35.371  1.00  0.00    -0.014 A 
ATOM     74  C   UNL A   1      45.334  28.867  35.120  1.00  0.00     0.010 A 
ATOM     75  C   UNL A   1      43.781  27.334  36.180  1.00  0.00     0.010 A 
ATOM     76  C   UNL A   1      46.407  28.140  35.639  1.00  0.00     0.020 A 
ATOM     77  C   UNL A   1      44.853  26.618  36.721  1.00  0.00     0.020 A 
ATOM     78  C   UNL A   1      46.160  27.018  36.435  1.00  0.00     0.054 A 
BRANCH  78  79
ATOM     79  S   UNL A   1      47.575  26.111  37.114  1.00  0.00     0.124 S 
ATOM     80  O   UNL A   1      46.945  24.880  37.585  1.00  0.00    -0.237 OA
ATOM     81  O   UNL A   1      48.451  25.965  35.954  1.00  0.00    -0.237 OA
ATOM     82  O   UNL A   1      48.080  26.991  38.166  1.00  0.00    -0.744 OA
ENDBRANCH  78  79
ENDBRANCH  59  73
BRANCH  60  83
ATOM     83  C   UNL A   1      36.286  33.428  31.418  1.00  0.00    -0.014 A 
ATOM     84  C   UNL A   1      35.153  33.749  32.185  1.00  0.00     0.010 A 
ATOM     85  C   UNL A   1      36.360  33.874  30.086  1.00  0.00     0.010 A 
ATOM     86  C   UNL A   1      34.111  34.498  31.632  1.00  0.00     0.020 A 
ATOM     87  C   UNL A   1      35.329  34.642  29.534  1.00  0.00     0.020 A 
ATOM     88  C   UNL A   1      34.207  34.944  30.310  1.00  0.00     0.054 A 
BRANCH  88  89
ATOM     89  S   UNL A   1      32.870  35.969  29.635  1.00  0.00     0.124 S 
ATOM     90  O   UNL A   1      31.917  35.991  30.739  1.00  0.00    -0.237 OA
ATOM     91  O   UNL A   1      33.551  37.232  29.360  1.00  0.00    -0.237 OA
ATOM     92  O   UNL A   1      32.441  35.231  28.449  1.00  0.00    -0.744 OA
ENDBRANCH  88  89
ENDBRANCH  60  83
BRANCH  72  93
ATOM     93  C   UNL A   1      39.914  34.028  37.363  1.00  0.00    -0.014 A 
ATOM     94  C   UNL A   1      40.497  35.305  37.297  1.00  0.00     0.010 A 
ATOM     95  C   UNL A   1      39.128  33.685  38.479  1.00  0.00     0.010 A 
ATOM     96  C   UNL A   1      40.287  36.227  38.324  1.00  0.00     0.020 A 
ATOM     97  C   UNL A   1      38.899  34.612  39.498  1.00  0.00     0.020 A 
ATOM     98  C   UNL A   1      39.479  35.879  39.412  1.00  0.00     0.054 A 
BRANCH  98  99
ATOM     99  S   UNL A   1      39.133  37.136  40.674  1.00  0.00     0.124 S 
ATOM    100  O   UNL A   1      40.469  37.639  40.979  1.00  0.00    -0.237 OA
ATOM    101  O   UNL A   1      38.258  38.067  39.964  1.00  0.00    -0.237 OA
ATOM    102  O   UNL A   1      38.490  36.382  41.748  1.00  0.00    -0.744 OA
ENDBRANCH  98  99
ENDBRANCH  72  93
ENDBRANCH  46  47
ENDBRANCH  38  41
ENDBRANCH  36  37
ENDBRANCH  35  36
ENDBRANCH  34  35
ENDBRANCH   1  34
TORSDOF 21
ENDMDL
