MODEL 1
REMARK VINA RESULT:     -11.1      0.000      0.000
REMARK SMILES O=C(NCCCCCCNC(=O)c1cccnc1-c1ccccn1)c1ccc(-c2c3nc(c(-c4ccc(S(=O)(=O)[O-])cc4)c4ccc([nH]4)c(-c4ccc(S(=O)(=O)[O-])cc4)c4nc(c(-c5ccc(S(=O)(=O)[O-])cc5)c5ccc2[nH]5)C=C4)C=C3)cc1
REMARK SMILES IDX 5 1 4 2 3 3 1 4 2 5 25 7 26 8 84 9 27 10 83 11 28 12 29 13
REMARK SMILES IDX 30 14 77 15 31 16 82 17 76 18 78 19 32 20 81 21 75 22 74 23
REMARK SMILES IDX 33 25 63 26 44 27 62 28 45 29 48 30 61 31 79 32 46 33 47 34
REMARK SMILES IDX 60 36 80 37 49 38 34 39 35 40 43 41 36 42 42 43 37 44 38 45
REMARK SMILES IDX 39 46 40 47 41 48 64 49 65 50 73 51 66 52 72 53 67 54 68 55
REMARK SMILES IDX 69 56 70 57 71 58 50 59 51 60 59 61 52 62 58 63 53 64 54 65
REMARK SMILES IDX 55 66 56 67 57 68 6 69 7 70 8 71 9 72 10 73 11 74 12 76
REMARK SMILES IDX 13 77 14 78 18 79 15 80 17 81 16 82 19 83 20 84 24 85 21 86
REMARK SMILES IDX 23 87 22 88
REMARK H PARENT 3 6 78 24 48 35 10 75
REMARK Flexibility Score: inf
ROOT
ATOM      1  C   UNL A   1      40.574  22.123  27.630  1.00  0.00     0.021 C 
ENDROOT
BRANCH   1   2
ATOM      2  C   UNL A   1      41.762  23.077  27.631  1.00  0.00     0.116 C 
BRANCH   2   3
ATOM      3  N   UNL A   1      41.872  23.838  26.398  1.00  0.00    -0.352 N 
ATOM      4  O   UNL A   1      41.671  25.631  25.046  1.00  0.00    -0.269 OA
ATOM      5  C   UNL A   1      41.689  25.183  26.190  1.00  0.00     0.251 C 
ATOM      6  H   UNL A   1      42.113  23.315  25.599  1.00  0.00     0.163 HD
BRANCH   5   7
ATOM      7  C   UNL A   1      41.487  26.088  27.344  1.00  0.00     0.039 A 
ATOM      8  C   UNL A   1      42.389  27.122  27.608  1.00  0.00     0.014 A 
ATOM      9  C   UNL A   1      40.369  25.908  28.165  1.00  0.00     0.014 A 
ATOM     10  C   UNL A   1      42.245  27.889  28.760  1.00  0.00     0.010 A 
ATOM     11  C   UNL A   1      40.184  26.732  29.280  1.00  0.00     0.010 A 
ATOM     12  C   UNL A   1      41.134  27.714  29.600  1.00  0.00    -0.014 A 
BRANCH  12  13
ATOM     13  C   UNL A   1      40.948  28.617  30.765  1.00  0.00     0.031 A 
ATOM     14  C   UNL A   1      41.848  28.539  31.968  1.00  0.00     0.074 A 
ATOM     15  C   UNL A   1      39.964  29.537  30.715  1.00  0.00     0.049 A 
ATOM     16  N   UNL A   1      41.832  29.271  33.053  1.00  0.00    -0.248 NA
ATOM     17  C   UNL A   1      42.899  27.508  31.955  1.00  0.00     0.031 C 
ATOM     18  C   UNL A   1      39.026  29.708  29.602  1.00  0.00     0.029 A 
ATOM     19  N   UNL A   1      39.600  30.513  31.607  1.00  0.00    -0.354 N 
ATOM     20  C   UNL A   1      42.855  28.784  33.859  1.00  0.00     0.074 A 
ATOM     21  C   UNL A   1      43.458  27.677  33.147  1.00  0.00     0.031 C 
ATOM     22  C   UNL A   1      38.229  30.756  29.855  1.00  0.00     0.029 A 
ATOM     23  C   UNL A   1      38.555  31.292  31.171  1.00  0.00     0.049 A 
ATOM     24  H   UNL A   1      40.044  30.643  32.476  1.00  0.00     0.167 HD
ATOM     25  C   UNL A   1      43.256  29.223  35.077  1.00  0.00     0.031 A 
ATOM     26  C   UNL A   1      37.915  32.316  31.767  1.00  0.00     0.031 A 
ATOM     27  C   UNL A   1      42.647  30.321  35.783  1.00  0.00     0.049 A 
ATOM     28  C   UNL A   1      38.354  32.755  33.132  1.00  0.00     0.074 A 
ATOM     29  C   UNL A   1      42.995  30.850  37.015  1.00  0.00     0.029 A 
ATOM     30  N   UNL A   1      41.563  31.055  35.328  1.00  0.00    -0.354 N 
ATOM     31  N   UNL A   1      39.339  32.294  33.866  1.00  0.00    -0.248 NA
ATOM     32  C   UNL A   1      37.598  33.852  33.749  1.00  0.00     0.031 C 
ATOM     33  C   UNL A   1      42.092  31.874  37.323  1.00  0.00     0.029 A 
ATOM     34  C   UNL A   1      41.215  32.017  36.261  1.00  0.00     0.049 A 
ATOM     35  H   UNL A   1      41.107  30.912  34.467  1.00  0.00     0.167 HD
ATOM     36  C   UNL A   1      39.329  33.055  35.028  1.00  0.00     0.074 A 
ATOM     37  C   UNL A   1      38.254  34.018  34.889  1.00  0.00     0.031 C 
ATOM     38  C   UNL A   1      40.138  32.963  36.112  1.00  0.00     0.031 A 
BRANCH  25  39
ATOM     39  C   UNL A   1      44.399  28.499  35.739  1.00  0.00    -0.014 A 
ATOM     40  C   UNL A   1      45.733  28.890  35.520  1.00  0.00     0.010 A 
ATOM     41  C   UNL A   1      44.134  27.446  36.635  1.00  0.00     0.010 A 
ATOM     42  C   UNL A   1      46.781  28.218  36.156  1.00  0.00     0.020 A 
ATOM     43  C   UNL A   1      45.179  26.788  37.291  1.00  0.00     0.020 A 
ATOM     44  C   UNL A   1      46.498  27.169  37.035  1.00  0.00     0.054 A 
BRANCH  44  45
ATOM     45  S   UNL A   1      47.878  26.327  37.860  1.00  0.00     0.124 S 
ATOM     46  O   UNL A   1      47.179  25.484  38.827  1.00  0.00    -0.237 OA
ATOM     47  O   UNL A   1      48.523  25.615  36.760  1.00  0.00    -0.237 OA
ATOM     48  O   UNL A   1      48.657  27.420  38.435  1.00  0.00    -0.744 OA
ENDBRANCH  44  45
ENDBRANCH  25  39
BRANCH  26  49
ATOM     49  C   UNL A   1      36.785  32.984  31.067  1.00  0.00    -0.014 A 
ATOM     50  C   UNL A   1      35.462  32.785  31.494  1.00  0.00     0.010 A 
ATOM     51  C   UNL A   1      37.035  33.852  29.987  1.00  0.00     0.010 A 
ATOM     52  C   UNL A   1      34.407  33.436  30.850  1.00  0.00     0.020 A 
ATOM     53  C   UNL A   1      35.985  34.526  29.359  1.00  0.00     0.020 A 
ATOM     54  C   UNL A   1      34.676  34.305  29.788  1.00  0.00     0.054 A 
BRANCH  54  55
ATOM     55  S   UNL A   1      33.298  35.189  29.008  1.00  0.00     0.124 S 
ATOM     56  O   UNL A   1      32.498  35.584  30.164  1.00  0.00    -0.237 OA
ATOM     57  O   UNL A   1      33.975  36.275  28.305  1.00  0.00    -0.237 OA
ATOM     58  O   UNL A   1      32.692  34.180  28.141  1.00  0.00    -0.744 OA
ENDBRANCH  54  55
ENDBRANCH  26  49
BRANCH  38  59
ATOM     59  C   UNL A   1      39.904  33.948  37.226  1.00  0.00    -0.014 A 
ATOM     60  C   UNL A   1      40.693  35.106  37.350  1.00  0.00     0.010 A 
ATOM     61  C   UNL A   1      38.855  33.729  38.136  1.00  0.00     0.010 A 
ATOM     62  C   UNL A   1      40.456  36.012  38.386  1.00  0.00     0.020 A 
ATOM     63  C   UNL A   1      38.599  34.646  39.159  1.00  0.00     0.020 A 
ATOM     64  C   UNL A   1      39.412  35.775  39.286  1.00  0.00     0.054 A 
BRANCH  64  65
ATOM     65  S   UNL A   1      39.098  36.984  40.601  1.00  0.00     0.124 S 
ATOM     66  O   UNL A   1      38.158  37.896  39.955  1.00  0.00    -0.237 OA
ATOM     67  O   UNL A   1      38.540  36.159  41.670  1.00  0.00    -0.237 OA
ATOM     68  O   UNL A   1      40.419  37.543  40.879  1.00  0.00    -0.744 OA
ENDBRANCH  64  65
ENDBRANCH  38  59
ENDBRANCH  12  13
ENDBRANCH   5   7
ENDBRANCH   2   3
ENDBRANCH   1   2
BRANCH   1  69
ATOM     69  C   UNL A   1      39.337  22.624  26.881  1.00  0.00     0.002 C 
BRANCH  69  70
ATOM     70  C   UNL A   1      38.830  21.718  25.756  1.00  0.00     0.002 C 
BRANCH  70  71
ATOM     71  C   UNL A   1      37.543  22.172  25.057  1.00  0.00     0.021 C 
BRANCH  71  72
ATOM     72  C   UNL A   1      36.496  21.083  24.836  1.00  0.00     0.116 C 
BRANCH  72  73
ATOM     73  N   UNL A   1      35.599  20.943  25.970  1.00  0.00    -0.352 N 
ATOM     74  C   UNL A   1      34.228  20.965  26.006  1.00  0.00     0.253 C 
ATOM     75  H   UNL A   1      36.040  20.813  26.841  1.00  0.00     0.163 HD
ATOM     76  O   UNL A   1      33.637  20.877  27.078  1.00  0.00    -0.269 OA
BRANCH  74  77
ATOM     77  C   UNL A   1      33.474  21.079  24.747  1.00  0.00     0.067 A 
ATOM     78  C   UNL A   1      33.226  22.352  24.217  1.00  0.00     0.018 A 
ATOM     79  C   UNL A   1      33.032  19.951  24.054  1.00  0.00     0.101 A 
ATOM     80  C   UNL A   1      32.499  22.471  23.040  1.00  0.00     0.021 A 
ATOM     81  N   UNL A   1      32.304  20.071  22.901  1.00  0.00    -0.254 NA
ATOM     82  C   UNL A   1      32.060  21.313  22.427  1.00  0.00     0.112 A 
BRANCH  79  83
ATOM     83  C   UNL A   1      33.264  18.566  24.504  1.00  0.00     0.089 A 
ATOM     84  C   UNL A   1      34.463  17.895  24.253  1.00  0.00     0.031 A 
ATOM     85  N   UNL A   1      32.249  17.983  25.198  1.00  0.00    -0.255 NA
ATOM     86  C   UNL A   1      34.617  16.587  24.708  1.00  0.00     0.004 A 
ATOM     87  C   UNL A   1      32.428  16.715  25.624  1.00  0.00     0.112 A 
ATOM     88  C   UNL A   1      33.580  15.982  25.405  1.00  0.00     0.020 A 
ENDBRANCH  79  83
ENDBRANCH  74  77
ENDBRANCH  72  73
ENDBRANCH  71  72
ENDBRANCH  70  71
ENDBRANCH  69  70
ENDBRANCH   1  69
TORSDOF 17
ENDMDL
MODEL 2
REMARK VINA RESULT:     -11.1      6.678     12.332
REMARK SMILES O=C(NCCCCCCNC(=O)c1cccnc1-c1ccccn1)c1ccc(-c2c3nc(c(-c4ccc(S(=O)(=O)[O-])cc4)c4ccc([nH]4)c(-c4ccc(S(=O)(=O)[O-])cc4)c4nc(c(-c5ccc(S(=O)(=O)[O-])cc5)c5ccc2[nH]5)C=C4)C=C3)cc1
REMARK SMILES IDX 5 1 4 2 3 3 1 4 2 5 25 7 26 8 84 9 27 10 83 11 28 12 29 13
REMARK SMILES IDX 30 14 77 15 31 16 82 17 76 18 78 19 32 20 81 21 75 22 74 23
REMARK SMILES IDX 33 25 63 26 44 27 62 28 45 29 48 30 61 31 79 32 46 33 47 34
REMARK SMILES IDX 60 36 80 37 49 38 34 39 35 40 43 41 36 42 42 43 37 44 38 45
REMARK SMILES IDX 39 46 40 47 41 48 64 49 65 50 73 51 66 52 72 53 67 54 68 55
REMARK SMILES IDX 69 56 70 57 71 58 50 59 51 60 59 61 52 62 58 63 53 64 54 65
REMARK SMILES IDX 55 66 56 67 57 68 6 69 7 70 8 71 9 72 10 73 11 74 12 76
REMARK SMILES IDX 13 77 14 78 18 79 15 80 17 81 16 82 19 83 20 84 24 85 21 86
REMARK SMILES IDX 23 87 22 88
REMARK H PARENT 3 6 78 24 48 35 10 75
REMARK Flexibility Score: inf
ROOT
ATOM      1  C   UNL A   1      35.977  33.039  28.363  1.00  0.00     0.021 C 
ENDROOT
BRANCH   1   2
ATOM      2  C   UNL A   1      36.739  33.040  29.682  1.00  0.00     0.116 C 
BRANCH   2   3
ATOM      3  N   UNL A   1      36.236  32.052  30.622  1.00  0.00    -0.352 N 
ATOM      4  O   UNL A   1      36.101  30.049  31.646  1.00  0.00    -0.269 OA
ATOM      5  C   UNL A   1      36.748  30.819  30.940  1.00  0.00     0.251 C 
ATOM      6  H   UNL A   1      35.412  32.305  31.098  1.00  0.00     0.163 HD
BRANCH   5   7
ATOM      7  C   UNL A   1      38.067  30.407  30.409  1.00  0.00     0.039 A 
ATOM      8  C   UNL A   1      39.166  30.260  31.260  1.00  0.00     0.014 A 
ATOM      9  C   UNL A   1      38.202  30.150  29.041  1.00  0.00     0.014 A 
ATOM     10  C   UNL A   1      40.421  29.984  30.728  1.00  0.00     0.010 A 
ATOM     11  C   UNL A   1      39.450  29.796  28.519  1.00  0.00     0.010 A 
ATOM     12  C   UNL A   1      40.576  29.733  29.355  1.00  0.00    -0.014 A 
BRANCH  12  13
ATOM     13  C   UNL A   1      41.908  29.336  28.830  1.00  0.00     0.031 A 
ATOM     14  C   UNL A   1      43.050  30.312  28.774  1.00  0.00     0.074 A 
ATOM     15  C   UNL A   1      42.085  28.063  28.423  1.00  0.00     0.049 A 
ATOM     16  N   UNL A   1      44.278  30.116  28.365  1.00  0.00    -0.248 NA
ATOM     17  C   UNL A   1      42.783  31.686  29.230  1.00  0.00     0.031 C 
ATOM     18  C   UNL A   1      41.051  27.025  28.429  1.00  0.00     0.029 A 
ATOM     19  N   UNL A   1      43.197  27.418  27.948  1.00  0.00    -0.354 N 
ATOM     20  C   UNL A   1      44.927  31.338  28.501  1.00  0.00     0.074 A 
ATOM     21  C   UNL A   1      43.950  32.278  29.006  1.00  0.00     0.031 C 
ATOM     22  C   UNL A   1      41.589  25.864  28.027  1.00  0.00     0.029 A 
ATOM     23  C   UNL A   1      42.986  26.088  27.675  1.00  0.00     0.049 A 
ATOM     24  H   UNL A   1      44.065  27.866  27.813  1.00  0.00     0.167 HD
ATOM     25  C   UNL A   1      46.220  31.645  28.231  1.00  0.00     0.031 A 
ATOM     26  C   UNL A   1      43.817  25.150  27.183  1.00  0.00     0.031 A 
ATOM     27  C   UNL A   1      47.186  30.706  27.720  1.00  0.00     0.049 A 
ATOM     28  C   UNL A   1      45.231  25.527  26.856  1.00  0.00     0.074 A 
ATOM     29  C   UNL A   1      48.524  30.919  27.432  1.00  0.00     0.029 A 
ATOM     30  N   UNL A   1      46.921  29.379  27.415  1.00  0.00    -0.354 N 
ATOM     31  N   UNL A   1      45.830  26.684  27.012  1.00  0.00    -0.248 NA
ATOM     32  C   UNL A   1      46.083  24.474  26.287  1.00  0.00     0.031 C 
ATOM     33  C   UNL A   1      49.055  29.733  26.910  1.00  0.00     0.029 A 
ATOM     34  C   UNL A   1      48.062  28.768  26.924  1.00  0.00     0.049 A 
ATOM     35  H   UNL A   1      46.049  28.937  27.532  1.00  0.00     0.167 HD
ATOM     36  C   UNL A   1      47.134  26.494  26.573  1.00  0.00     0.074 A 
ATOM     37  C   UNL A   1      47.241  25.107  26.165  1.00  0.00     0.031 C 
ATOM     38  C   UNL A   1      48.151  27.389  26.514  1.00  0.00     0.031 A 
BRANCH  25  39
ATOM     39  C   UNL A   1      46.664  33.065  28.462  1.00  0.00    -0.014 A 
ATOM     40  C   UNL A   1      46.413  34.070  27.510  1.00  0.00     0.010 A 
ATOM     41  C   UNL A   1      47.293  33.413  29.673  1.00  0.00     0.010 A 
ATOM     42  C   UNL A   1      46.815  35.388  27.748  1.00  0.00     0.020 A 
ATOM     43  C   UNL A   1      47.675  34.734  29.924  1.00  0.00     0.020 A 
ATOM     44  C   UNL A   1      47.448  35.711  28.953  1.00  0.00     0.054 A 
BRANCH  44  45
ATOM     45  S   UNL A   1      47.943  37.433  29.242  1.00  0.00     0.124 S 
ATOM     46  O   UNL A   1      47.631  38.054  27.957  1.00  0.00    -0.237 OA
ATOM     47  O   UNL A   1      47.084  37.831  30.354  1.00  0.00    -0.237 OA
ATOM     48  O   UNL A   1      49.365  37.336  29.559  1.00  0.00    -0.744 OA
ENDBRANCH  44  45
ENDBRANCH  25  39
BRANCH  26  49
ATOM     49  C   UNL A   1      43.317  23.766  26.966  1.00  0.00    -0.014 A 
ATOM     50  C   UNL A   1      43.194  23.247  25.667  1.00  0.00     0.010 A 
ATOM     51  C   UNL A   1      42.994  22.949  28.065  1.00  0.00     0.010 A 
ATOM     52  C   UNL A   1      42.749  21.937  25.469  1.00  0.00     0.020 A 
ATOM     53  C   UNL A   1      42.576  21.630  27.873  1.00  0.00     0.020 A 
ATOM     54  C   UNL A   1      42.446  21.136  26.574  1.00  0.00     0.054 A 
BRANCH  54  55
ATOM     55  S   UNL A   1      41.932  19.418  26.298  1.00  0.00     0.124 S 
ATOM     56  O   UNL A   1      42.417  18.759  27.507  1.00  0.00    -0.237 OA
ATOM     57  O   UNL A   1      40.481  19.537  26.179  1.00  0.00    -0.237 OA
ATOM     58  O   UNL A   1      42.622  19.050  25.064  1.00  0.00    -0.744 OA
ENDBRANCH  54  55
ENDBRANCH  26  49
BRANCH  38  59
ATOM     59  C   UNL A   1      49.476  26.886  26.009  1.00  0.00    -0.014 A 
ATOM     60  C   UNL A   1      49.857  27.060  24.666  1.00  0.00     0.010 A 
ATOM     61  C   UNL A   1      50.368  26.265  26.902  1.00  0.00     0.010 A 
ATOM     62  C   UNL A   1      51.094  26.592  24.218  1.00  0.00     0.020 A 
ATOM     63  C   UNL A   1      51.617  25.819  26.463  1.00  0.00     0.020 A 
ATOM     64  C   UNL A   1      51.966  25.972  25.119  1.00  0.00     0.054 A 
BRANCH  64  65
ATOM     65  S   UNL A   1      53.583  25.407  24.524  1.00  0.00     0.124 S 
ATOM     66  O   UNL A   1      53.515  23.971  24.780  1.00  0.00    -0.237 OA
ATOM     67  O   UNL A   1      53.561  25.796  23.115  1.00  0.00    -0.237 OA
ATOM     68  O   UNL A   1      54.534  26.144  25.352  1.00  0.00    -0.744 OA
ENDBRANCH  64  65
ENDBRANCH  38  59
ENDBRANCH  12  13
ENDBRANCH   5   7
ENDBRANCH   2   3
ENDBRANCH   1   2
BRANCH   1  69
ATOM     69  C   UNL A   1      34.484  32.725  28.473  1.00  0.00     0.002 C 
BRANCH  69  70
ATOM     70  C   UNL A   1      33.994  31.528  27.653  1.00  0.00     0.002 C 
BRANCH  70  71
ATOM     71  C   UNL A   1      34.925  30.311  27.620  1.00  0.00     0.021 C 
BRANCH  71  72
ATOM     72  C   UNL A   1      34.334  29.048  26.997  1.00  0.00     0.116 C 
BRANCH  72  73
ATOM     73  N   UNL A   1      33.170  28.570  27.723  1.00  0.00    -0.352 N 
ATOM     74  C   UNL A   1      31.946  28.175  27.246  1.00  0.00     0.253 C 
ATOM     75  H   UNL A   1      33.276  28.521  28.701  1.00  0.00     0.163 HD
ATOM     76  O   UNL A   1      31.059  27.842  28.025  1.00  0.00    -0.269 OA
BRANCH  74  77
ATOM     77  C   UNL A   1      31.715  28.139  25.793  1.00  0.00     0.067 A 
ATOM     78  C   UNL A   1      31.308  29.311  25.142  1.00  0.00     0.018 A 
ATOM     79  C   UNL A   1      31.922  26.978  25.046  1.00  0.00     0.101 A 
ATOM     80  C   UNL A   1      31.069  29.284  23.774  1.00  0.00     0.021 A 
ATOM     81  N   UNL A   1      31.672  26.950  23.701  1.00  0.00    -0.254 NA
ATOM     82  C   UNL A   1      31.259  28.090  23.104  1.00  0.00     0.112 A 
BRANCH  79  83
ATOM     83  C   UNL A   1      32.378  25.700  25.624  1.00  0.00     0.089 A 
ATOM     84  C   UNL A   1      33.720  25.312  25.601  1.00  0.00     0.031 A 
ATOM     85  N   UNL A   1      31.418  24.927  26.200  1.00  0.00    -0.255 NA
ATOM     86  C   UNL A   1      34.082  24.090  26.166  1.00  0.00     0.004 A 
ATOM     87  C   UNL A   1      31.801  23.749  26.738  1.00  0.00     0.112 A 
ATOM     88  C   UNL A   1      33.105  23.290  26.744  1.00  0.00     0.020 A 
ENDBRANCH  79  83
ENDBRANCH  74  77
ENDBRANCH  72  73
ENDBRANCH  71  72
ENDBRANCH  70  71
ENDBRANCH  69  70
ENDBRANCH   1  69
TORSDOF 17
ENDMDL
MODEL 3
REMARK VINA RESULT:     -11.0      4.401      6.178
REMARK SMILES O=C(NCCCCCCNC(=O)c1cccnc1-c1ccccn1)c1ccc(-c2c3nc(c(-c4ccc(S(=O)(=O)[O-])cc4)c4ccc([nH]4)c(-c4ccc(S(=O)(=O)[O-])cc4)c4nc(c(-c5ccc(S(=O)(=O)[O-])cc5)c5ccc2[nH]5)C=C4)C=C3)cc1
REMARK SMILES IDX 5 1 4 2 3 3 1 4 2 5 25 7 26 8 84 9 27 10 83 11 28 12 29 13
REMARK SMILES IDX 30 14 77 15 31 16 82 17 76 18 78 19 32 20 81 21 75 22 74 23
REMARK SMILES IDX 33 25 63 26 44 27 62 28 45 29 48 30 61 31 79 32 46 33 47 34
REMARK SMILES IDX 60 36 80 37 49 38 34 39 35 40 43 41 36 42 42 43 37 44 38 45
REMARK SMILES IDX 39 46 40 47 41 48 64 49 65 50 73 51 66 52 72 53 67 54 68 55
REMARK SMILES IDX 69 56 70 57 71 58 50 59 51 60 59 61 52 62 58 63 53 64 54 65
REMARK SMILES IDX 55 66 56 67 57 68 6 69 7 70 8 71 9 72 10 73 11 74 12 76
REMARK SMILES IDX 13 77 14 78 18 79 15 80 17 81 16 82 19 83 20 84 24 85 21 86
REMARK SMILES IDX 23 87 22 88
REMARK H PARENT 3 6 78 24 48 35 10 75
REMARK Flexibility Score: inf
ROOT
ATOM      1  C   UNL A   1      35.523  23.958  24.257  1.00  0.00     0.021 C 
ENDROOT
BRANCH   1   2
ATOM      2  C   UNL A   1      36.363  24.076  25.522  1.00  0.00     0.116 C 
BRANCH   2   3
ATOM      3  N   UNL A   1      37.340  23.007  25.649  1.00  0.00    -0.352 N 
ATOM      4  O   UNL A   1      39.355  22.080  26.047  1.00  0.00    -0.269 OA
ATOM      5  C   UNL A   1      38.612  23.052  26.163  1.00  0.00     0.251 C 
ATOM      6  H   UNL A   1      37.046  22.126  25.321  1.00  0.00     0.163 HD
BRANCH   5   7
ATOM      7  C   UNL A   1      39.097  24.280  26.831  1.00  0.00     0.039 A 
ATOM      8  C   UNL A   1      39.863  25.219  26.134  1.00  0.00     0.014 A 
ATOM      9  C   UNL A   1      38.766  24.504  28.171  1.00  0.00     0.014 A 
ATOM     10  C   UNL A   1      40.403  26.309  26.809  1.00  0.00     0.010 A 
ATOM     11  C   UNL A   1      39.247  25.642  28.827  1.00  0.00     0.010 A 
ATOM     12  C   UNL A   1      40.090  26.542  28.157  1.00  0.00    -0.014 A 
BRANCH  12  13
ATOM     13  C   UNL A   1      40.594  27.770  28.823  1.00  0.00     0.031 A 
ATOM     14  C   UNL A   1      42.016  27.875  29.301  1.00  0.00     0.074 A 
ATOM     15  C   UNL A   1      39.752  28.813  28.972  1.00  0.00     0.049 A 
ATOM     16  N   UNL A   1      42.615  28.885  29.879  1.00  0.00    -0.248 NA
ATOM     17  C   UNL A   1      42.877  26.696  29.109  1.00  0.00     0.031 C 
ATOM     18  C   UNL A   1      38.349  28.830  28.550  1.00  0.00     0.029 A 
ATOM     19  N   UNL A   1      39.954  30.063  29.496  1.00  0.00    -0.354 N 
ATOM     20  C   UNL A   1      43.916  28.464  30.134  1.00  0.00     0.074 A 
ATOM     21  C   UNL A   1      44.012  27.097  29.669  1.00  0.00     0.031 C 
ATOM     22  C   UNL A   1      37.832  30.044  28.786  1.00  0.00     0.029 A 
ATOM     23  C   UNL A   1      38.845  30.871  29.432  1.00  0.00     0.049 A 
ATOM     24  H   UNL A   1      40.812  30.354  29.883  1.00  0.00     0.167 HD
ATOM     25  C   UNL A   1      44.935  29.157  30.699  1.00  0.00     0.031 A 
ATOM     26  C   UNL A   1      38.652  32.135  29.857  1.00  0.00     0.031 A 
ATOM     27  C   UNL A   1      44.830  30.515  31.167  1.00  0.00     0.049 A 
ATOM     28  C   UNL A   1      39.786  32.863  30.515  1.00  0.00     0.074 A 
ATOM     29  C   UNL A   1      45.813  31.306  31.738  1.00  0.00     0.029 A 
ATOM     30  N   UNL A   1      43.677  31.283  31.124  1.00  0.00    -0.354 N 
ATOM     31  N   UNL A   1      41.013  32.453  30.726  1.00  0.00    -0.248 NA
ATOM     32  C   UNL A   1      39.509  34.224  30.992  1.00  0.00     0.031 C 
ATOM     33  C   UNL A   1      45.240  32.537  32.082  1.00  0.00     0.029 A 
ATOM     34  C   UNL A   1      43.916  32.531  31.676  1.00  0.00     0.049 A 
ATOM     35  H   UNL A   1      42.814  30.986  30.754  1.00  0.00     0.167 HD
ATOM     36  C   UNL A   1      41.661  33.512  31.349  1.00  0.00     0.074 A 
ATOM     37  C   UNL A   1      40.695  34.587  31.461  1.00  0.00     0.031 C 
ATOM     38  C   UNL A   1      42.942  33.587  31.789  1.00  0.00     0.031 A 
BRANCH  25  39
ATOM     39  C   UNL A   1      46.253  28.447  30.866  1.00  0.00    -0.014 A 
ATOM     40  C   UNL A   1      46.544  27.717  32.033  1.00  0.00     0.010 A 
ATOM     41  C   UNL A   1      47.195  28.466  29.820  1.00  0.00     0.010 A 
ATOM     42  C   UNL A   1      47.766  27.050  32.165  1.00  0.00     0.020 A 
ATOM     43  C   UNL A   1      48.407  27.780  29.938  1.00  0.00     0.020 A 
ATOM     44  C   UNL A   1      48.691  27.089  31.117  1.00  0.00     0.054 A 
BRANCH  44  45
ATOM     45  S   UNL A   1      50.261  26.198  31.309  1.00  0.00     0.124 S 
ATOM     46  O   UNL A   1      49.810  24.812  31.398  1.00  0.00    -0.237 OA
ATOM     47  O   UNL A   1      50.979  26.546  30.085  1.00  0.00    -0.237 OA
ATOM     48  O   UNL A   1      50.826  26.750  32.538  1.00  0.00    -0.744 OA
ENDBRANCH  44  45
ENDBRANCH  25  39
BRANCH  26  49
ATOM     49  C   UNL A   1      37.323  32.777  29.674  1.00  0.00    -0.014 A 
ATOM     50  C   UNL A   1      36.369  32.750  30.703  1.00  0.00     0.010 A 
ATOM     51  C   UNL A   1      37.021  33.451  28.475  1.00  0.00     0.010 A 
ATOM     52  C   UNL A   1      35.131  33.379  30.536  1.00  0.00     0.020 A 
ATOM     53  C   UNL A   1      35.797  34.104  28.315  1.00  0.00     0.020 A 
ATOM     54  C   UNL A   1      34.855  34.055  29.344  1.00  0.00     0.054 A 
BRANCH  54  55
ATOM     55  S   UNL A   1      33.269  34.918  29.172  1.00  0.00     0.124 S 
ATOM     56  O   UNL A   1      32.767  34.904  30.543  1.00  0.00    -0.237 OA
ATOM     57  O   UNL A   1      33.673  36.224  28.659  1.00  0.00    -0.237 OA
ATOM     58  O   UNL A   1      32.529  34.087  28.225  1.00  0.00    -0.744 OA
ENDBRANCH  54  55
ENDBRANCH  26  49
BRANCH  38  59
ATOM     59  C   UNL A   1      43.377  34.886  32.411  1.00  0.00    -0.014 A 
ATOM     60  C   UNL A   1      43.309  35.084  33.802  1.00  0.00     0.010 A 
ATOM     61  C   UNL A   1      43.897  35.906  31.595  1.00  0.00     0.010 A 
ATOM     62  C   UNL A   1      43.724  36.295  34.362  1.00  0.00     0.020 A 
ATOM     63  C   UNL A   1      44.336  37.108  32.155  1.00  0.00     0.020 A 
ATOM     64  C   UNL A   1      44.233  37.300  33.534  1.00  0.00     0.054 A 
BRANCH  64  65
ATOM     65  S   UNL A   1      44.801  38.850  34.287  1.00  0.00     0.124 S 
ATOM     66  O   UNL A   1      46.238  38.620  34.403  1.00  0.00    -0.237 OA
ATOM     67  O   UNL A   1      44.402  39.852  33.301  1.00  0.00    -0.237 OA
ATOM     68  O   UNL A   1      44.074  38.906  35.553  1.00  0.00    -0.744 OA
ENDBRANCH  64  65
ENDBRANCH  38  59
ENDBRANCH  12  13
ENDBRANCH   5   7
ENDBRANCH   2   3
ENDBRANCH   1   2
BRANCH   1  69
ATOM     69  C   UNL A   1      34.191  24.711  24.287  1.00  0.00     0.002 C 
BRANCH  69  70
ATOM     70  C   UNL A   1      33.445  24.794  22.953  1.00  0.00     0.002 C 
BRANCH  70  71
ATOM     71  C   UNL A   1      33.501  26.148  22.236  1.00  0.00     0.021 C 
BRANCH  71  72
ATOM     72  C   UNL A   1      33.826  27.349  23.122  1.00  0.00     0.116 C 
BRANCH  72  73
ATOM     73  N   UNL A   1      32.853  28.418  22.979  1.00  0.00    -0.352 N 
ATOM     74  C   UNL A   1      31.621  28.561  23.565  1.00  0.00     0.253 C 
ATOM     75  H   UNL A   1      33.117  29.148  22.373  1.00  0.00     0.163 HD
ATOM     76  O   UNL A   1      30.911  29.521  23.284  1.00  0.00    -0.269 OA
BRANCH  74  77
ATOM     77  C   UNL A   1      31.167  27.560  24.545  1.00  0.00     0.067 A 
ATOM     78  C   UNL A   1      30.305  26.540  24.123  1.00  0.00     0.018 A 
ATOM     79  C   UNL A   1      31.601  27.585  25.872  1.00  0.00     0.101 A 
ATOM     80  C   UNL A   1      29.855  25.603  25.044  1.00  0.00     0.021 A 
ATOM     81  N   UNL A   1      31.146  26.668  26.780  1.00  0.00    -0.254 NA
ATOM     82  C   UNL A   1      30.297  25.710  26.350  1.00  0.00     0.112 A 
BRANCH  79  83
ATOM     83  C   UNL A   1      32.531  28.594  26.413  1.00  0.00     0.089 A 
ATOM     84  C   UNL A   1      33.889  28.327  26.600  1.00  0.00     0.031 A 
ATOM     85  N   UNL A   1      31.993  29.810  26.703  1.00  0.00    -0.255 NA
ATOM     86  C   UNL A   1      34.712  29.326  27.115  1.00  0.00     0.004 A 
ATOM     87  C   UNL A   1      32.816  30.756  27.203  1.00  0.00     0.112 A 
ATOM     88  C   UNL A   1      34.168  30.565  27.426  1.00  0.00     0.020 A 
ENDBRANCH  79  83
ENDBRANCH  74  77
ENDBRANCH  72  73
ENDBRANCH  71  72
ENDBRANCH  70  71
ENDBRANCH  69  70
ENDBRANCH   1  69
TORSDOF 17
ENDMDL
