MODEL 1
REMARK VINA RESULT:      -9.7      0.000      0.000
REMARK SMILES O=C(CCCCc1nc(-c2ccccc2)no1)NCCCCCCNC(=O)c1ccc(-c2c3nc(c(-c4ccc(S(=O)(=O)[O-])cc4)c4ccc([nH]4)c(-c4ccc(S(=O)(=O)[O-])cc4)c4nc(c(-c5ccc(S(=O)(=O)[O-])cc5)c5ccc2[nH]5)C=C4)C=C3)cc1
REMARK SMILES IDX 20 1 19 2 18 3 1 4 2 5 3 7 4 8 5 9 6 10 7 11 8 12 17 13 9 14
REMARK SMILES IDX 16 15 10 16 11 17 15 18 12 19 14 20 13 21 21 22 22 23 23 24
REMARK SMILES IDX 24 25 25 26 26 27 27 29 28 30 29 31 87 32 30 33 86 34 31 35
REMARK SMILES IDX 32 36 33 37 80 38 34 39 85 40 79 41 81 42 35 43 84 44 78 45
REMARK SMILES IDX 77 46 36 48 66 49 47 50 65 51 48 52 51 53 64 54 82 55 49 56
REMARK SMILES IDX 50 57 63 59 83 60 52 61 37 62 38 63 46 64 39 65 45 66 40 67
REMARK SMILES IDX 41 68 42 69 43 70 44 71 67 72 68 73 76 74 69 75 75 76 70 77
REMARK SMILES IDX 71 78 72 79 73 80 74 81 53 82 54 83 62 84 55 85 61 86 56 87
REMARK SMILES IDX 57 88 58 89 59 90 60 91
REMARK H PARENT 18 6 25 28 81 47 51 58
REMARK Flexibility Score: inf
ROOT
ATOM      1  C   UNL A   1      36.933  21.996  25.034  1.00  0.00     0.021 C 
ENDROOT
BRANCH   1   2
ATOM      2  C   UNL A   1      36.274  22.564  23.777  1.00  0.00     0.116 C 
BRANCH   2   3
ATOM      3  N   UNL A   1      35.630  23.829  24.054  1.00  0.00    -0.356 N 
ATOM      4  O   UNL A   1      33.991  23.683  22.450  1.00  0.00    -0.275 OA
ATOM      5  C   UNL A   1      34.519  24.277  23.382  1.00  0.00     0.219 C 
ATOM      6  H   UNL A   1      36.008  24.401  24.761  1.00  0.00     0.163 HD
BRANCH   5   7
ATOM      7  C   UNL A   1      33.990  25.593  23.915  1.00  0.00     0.100 C 
BRANCH   7   8
ATOM      8  C   UNL A   1      33.315  25.446  25.280  1.00  0.00     0.010 C 
BRANCH   8   9
ATOM      9  C   UNL A   1      31.932  24.770  25.296  1.00  0.00     0.010 C 
BRANCH   9  10
ATOM     10  C   UNL A   1      31.756  23.626  26.302  1.00  0.00     0.100 C 
BRANCH  10  11
ATOM     11  C   UNL A   1      32.566  22.446  25.931  1.00  0.00     0.226 A 
ATOM     12  N   UNL A   1      32.393  21.596  24.947  1.00  0.00    -0.191 NA
ATOM     13  O   UNL A   1      33.586  22.110  26.769  1.00  0.00    -0.339 OA
ATOM     14  C   UNL A   1      33.324  20.625  25.236  1.00  0.00     0.202 A 
ATOM     15  N   UNL A   1      34.080  20.888  26.314  1.00  0.00    -0.057 NA
BRANCH  14  16
ATOM     16  C   UNL A   1      33.405  19.395  24.470  1.00  0.00     0.023 A 
ATOM     17  C   UNL A   1      32.426  19.090  23.515  1.00  0.00     0.012 A 
ATOM     18  C   UNL A   1      34.489  18.526  24.645  1.00  0.00     0.012 A 
ATOM     19  C   UNL A   1      32.533  17.932  22.742  1.00  0.00     0.001 A 
ATOM     20  C   UNL A   1      34.587  17.361  23.882  1.00  0.00     0.001 A 
ATOM     21  C   UNL A   1      33.611  17.068  22.928  1.00  0.00     0.000 A 
ENDBRANCH  14  16
ENDBRANCH  10  11
ENDBRANCH   9  10
ENDBRANCH   8   9
ENDBRANCH   7   8
ENDBRANCH   5   7
ENDBRANCH   2   3
ENDBRANCH   1   2
BRANCH   1  22
ATOM     22  C   UNL A   1      37.961  22.919  25.708  1.00  0.00     0.002 C 
BRANCH  22  23
ATOM     23  C   UNL A   1      39.240  22.237  26.198  1.00  0.00     0.002 C 
BRANCH  23  24
ATOM     24  C   UNL A   1      39.329  20.736  25.913  1.00  0.00     0.021 C 
BRANCH  24  25
ATOM     25  C   UNL A   1      40.217  19.947  26.870  1.00  0.00     0.116 C 
BRANCH  25  26
ATOM     26  N   UNL A   1      41.346  19.318  26.203  1.00  0.00    -0.352 N 
ATOM     27  C   UNL A   1      42.505  19.900  25.747  1.00  0.00     0.251 C 
ATOM     28  H   UNL A   1      41.271  18.347  26.059  1.00  0.00     0.163 HD
ATOM     29  O   UNL A   1      43.302  19.249  25.078  1.00  0.00    -0.269 OA
BRANCH  27  30
ATOM     30  C   UNL A   1      42.769  21.326  26.041  1.00  0.00     0.039 A 
ATOM     31  C   UNL A   1      43.108  21.700  27.344  1.00  0.00     0.014 A 
ATOM     32  C   UNL A   1      42.705  22.287  25.028  1.00  0.00     0.014 A 
ATOM     33  C   UNL A   1      43.449  23.028  27.618  1.00  0.00     0.010 A 
ATOM     34  C   UNL A   1      43.107  23.594  25.289  1.00  0.00     0.010 A 
ATOM     35  C   UNL A   1      43.486  23.979  26.585  1.00  0.00    -0.014 A 
BRANCH  35  36
ATOM     36  C   UNL A   1      43.913  25.382  26.829  1.00  0.00     0.031 A 
ATOM     37  C   UNL A   1      45.334  25.793  26.545  1.00  0.00     0.074 A 
ATOM     38  C   UNL A   1      43.054  26.261  27.385  1.00  0.00     0.049 A 
ATOM     39  N   UNL A   1      45.932  26.926  26.808  1.00  0.00    -0.248 NA
ATOM     40  C   UNL A   1      46.203  24.789  25.908  1.00  0.00     0.031 C 
ATOM     41  C   UNL A   1      41.660  25.980  27.738  1.00  0.00     0.029 A 
ATOM     42  N   UNL A   1      43.234  27.567  27.769  1.00  0.00    -0.354 N 
ATOM     43  C   UNL A   1      47.250  26.762  26.398  1.00  0.00     0.074 A 
ATOM     44  C   UNL A   1      47.374  25.410  25.898  1.00  0.00     0.031 C 
ATOM     45  C   UNL A   1      41.111  27.082  28.275  1.00  0.00     0.029 A 
ATOM     46  C   UNL A   1      42.120  28.134  28.346  1.00  0.00     0.049 A 
ATOM     47  H   UNL A   1      44.081  28.053  27.643  1.00  0.00     0.167 HD
ATOM     48  C   UNL A   1      48.264  27.659  26.425  1.00  0.00     0.031 A 
ATOM     49  C   UNL A   1      41.937  29.355  28.886  1.00  0.00     0.031 A 
ATOM     50  C   UNL A   1      48.131  29.014  26.888  1.00  0.00     0.049 A 
ATOM     51  C   UNL A   1      43.081  30.335  28.896  1.00  0.00     0.074 A 
ATOM     52  C   UNL A   1      49.084  30.018  26.887  1.00  0.00     0.029 A 
ATOM     53  N   UNL A   1      46.976  29.558  27.428  1.00  0.00    -0.354 N 
ATOM     54  N   UNL A   1      44.302  30.179  28.444  1.00  0.00    -0.248 NA
ATOM     55  C   UNL A   1      42.819  31.658  29.482  1.00  0.00     0.031 C 
ATOM     56  C   UNL A   1      48.518  31.157  27.467  1.00  0.00     0.029 A 
ATOM     57  C   UNL A   1      47.198  30.877  27.780  1.00  0.00     0.049 A 
ATOM     58  H   UNL A   1      46.125  29.076  27.545  1.00  0.00     0.167 HD
ATOM     59  C   UNL A   1      44.941  31.397  28.655  1.00  0.00     0.074 A 
ATOM     60  C   UNL A   1      43.971  32.280  29.269  1.00  0.00     0.031 C 
ATOM     61  C   UNL A   1      46.216  31.752  28.365  1.00  0.00     0.031 A 
BRANCH  48  62
ATOM     62  C   UNL A   1      49.616  27.213  25.938  1.00  0.00    -0.014 A 
ATOM     63  C   UNL A   1      50.492  26.503  26.778  1.00  0.00     0.010 A 
ATOM     64  C   UNL A   1      49.979  27.432  24.596  1.00  0.00     0.010 A 
ATOM     65  C   UNL A   1      51.717  26.039  26.290  1.00  0.00     0.020 A 
ATOM     66  C   UNL A   1      51.190  26.947  24.098  1.00  0.00     0.020 A 
ATOM     67  C   UNL A   1      52.056  26.261  24.952  1.00  0.00     0.054 A 
BRANCH  67  68
ATOM     68  S   UNL A   1      53.626  25.595  24.331  1.00  0.00     0.124 S 
ATOM     69  O   UNL A   1      53.567  25.958  22.917  1.00  0.00    -0.237 OA
ATOM     70  O   UNL A   1      54.617  26.318  25.124  1.00  0.00    -0.237 OA
ATOM     71  O   UNL A   1      53.531  24.164  24.611  1.00  0.00    -0.744 OA
ENDBRANCH  67  68
ENDBRANCH  48  62
BRANCH  49  72
ATOM     72  C   UNL A   1      40.620  29.732  29.469  1.00  0.00    -0.014 A 
ATOM     73  C   UNL A   1      39.580  30.196  28.642  1.00  0.00     0.010 A 
ATOM     74  C   UNL A   1      40.409  29.661  30.858  1.00  0.00     0.010 A 
ATOM     75  C   UNL A   1      38.369  30.620  29.198  1.00  0.00     0.020 A 
ATOM     76  C   UNL A   1      39.188  30.057  31.414  1.00  0.00     0.020 A 
ATOM     77  C   UNL A   1      38.183  30.554  30.581  1.00  0.00     0.054 A 
BRANCH  77  78
ATOM     78  S   UNL A   1      36.601  31.100  31.282  1.00  0.00     0.124 S 
ATOM     79  O   UNL A   1      36.271  29.997  32.179  1.00  0.00    -0.237 OA
ATOM     80  O   UNL A   1      36.959  32.359  31.931  1.00  0.00    -0.237 OA
ATOM     81  O   UNL A   1      35.739  31.235  30.110  1.00  0.00    -0.744 OA
ENDBRANCH  77  78
ENDBRANCH  49  72
BRANCH  61  82
ATOM     82  C   UNL A   1      46.629  33.171  28.646  1.00  0.00    -0.014 A 
ATOM     83  C   UNL A   1      47.078  33.566  29.918  1.00  0.00     0.010 A 
ATOM     84  C   UNL A   1      46.644  34.104  27.591  1.00  0.00     0.010 A 
ATOM     85  C   UNL A   1      47.514  34.875  30.136  1.00  0.00     0.020 A 
ATOM     86  C   UNL A   1      47.104  35.406  27.801  1.00  0.00     0.020 A 
ATOM     87  C   UNL A   1      47.528  35.786  29.075  1.00  0.00     0.054 A 
BRANCH  87  88
ATOM     88  S   UNL A   1      48.161  37.460  29.367  1.00  0.00     0.124 S 
ATOM     89  O   UNL A   1      46.936  38.204  29.646  1.00  0.00    -0.237 OA
ATOM     90  O   UNL A   1      49.055  37.272  30.507  1.00  0.00    -0.237 OA
ATOM     91  O   UNL A   1      48.827  37.803  28.112  1.00  0.00    -0.744 OA
ENDBRANCH  87  88
ENDBRANCH  61  82
ENDBRANCH  35  36
ENDBRANCH  27  30
ENDBRANCH  25  26
ENDBRANCH  24  25
ENDBRANCH  23  24
ENDBRANCH  22  23
ENDBRANCH   1  22
TORSDOF 21
ENDMDL
MODEL 2
REMARK VINA RESULT:      -9.5      1.684      8.685
REMARK SMILES O=C(CCCCc1nc(-c2ccccc2)no1)NCCCCCCNC(=O)c1ccc(-c2c3nc(c(-c4ccc(S(=O)(=O)[O-])cc4)c4ccc([nH]4)c(-c4ccc(S(=O)(=O)[O-])cc4)c4nc(c(-c5ccc(S(=O)(=O)[O-])cc5)c5ccc2[nH]5)C=C4)C=C3)cc1
REMARK SMILES IDX 20 1 19 2 18 3 1 4 2 5 3 7 4 8 5 9 6 10 7 11 8 12 17 13 9 14
REMARK SMILES IDX 16 15 10 16 11 17 15 18 12 19 14 20 13 21 21 22 22 23 23 24
REMARK SMILES IDX 24 25 25 26 26 27 27 29 28 30 29 31 87 32 30 33 86 34 31 35
REMARK SMILES IDX 32 36 33 37 80 38 34 39 85 40 79 41 81 42 35 43 84 44 78 45
REMARK SMILES IDX 77 46 36 48 66 49 47 50 65 51 48 52 51 53 64 54 82 55 49 56
REMARK SMILES IDX 50 57 63 59 83 60 52 61 37 62 38 63 46 64 39 65 45 66 40 67
REMARK SMILES IDX 41 68 42 69 43 70 44 71 67 72 68 73 76 74 69 75 75 76 70 77
REMARK SMILES IDX 71 78 72 79 73 80 74 81 53 82 54 83 62 84 55 85 61 86 56 87
REMARK SMILES IDX 57 88 58 89 59 90 60 91
REMARK H PARENT 18 6 25 28 81 47 51 58
REMARK Flexibility Score: inf
ROOT
ATOM      1  C   UNL A   1      39.745  23.749  27.238  1.00  0.00     0.021 C 
ENDROOT
BRANCH   1   2
ATOM      2  C   UNL A   1      38.389  24.050  26.599  1.00  0.00     0.116 C 
BRANCH   2   3
ATOM      3  N   UNL A   1      37.721  22.830  26.198  1.00  0.00    -0.356 N 
ATOM      4  O   UNL A   1      35.752  23.788  25.500  1.00  0.00    -0.275 OA
ATOM      5  C   UNL A   1      36.460  22.801  25.654  1.00  0.00     0.219 C 
ATOM      6  H   UNL A   1      38.195  21.976  26.322  1.00  0.00     0.163 HD
BRANCH   5   7
ATOM      7  C   UNL A   1      36.020  21.409  25.244  1.00  0.00     0.100 C 
BRANCH   7   8
ATOM      8  C   UNL A   1      34.553  21.134  25.578  1.00  0.00     0.010 C 
BRANCH   8   9
ATOM      9  C   UNL A   1      33.550  21.248  24.416  1.00  0.00     0.010 C 
BRANCH   9  10
ATOM     10  C   UNL A   1      32.078  21.421  24.813  1.00  0.00     0.100 C 
BRANCH  10  11
ATOM     11  C   UNL A   1      31.844  22.723  25.473  1.00  0.00     0.226 A 
ATOM     12  N   UNL A   1      32.269  23.916  25.130  1.00  0.00    -0.191 NA
ATOM     13  O   UNL A   1      31.182  22.702  26.664  1.00  0.00    -0.339 OA
ATOM     14  C   UNL A   1      31.908  24.676  26.218  1.00  0.00     0.202 A 
ATOM     15  N   UNL A   1      31.239  24.000  27.167  1.00  0.00    -0.057 NA
BRANCH  14  16
ATOM     16  C   UNL A   1      32.300  26.068  26.339  1.00  0.00     0.023 A 
ATOM     17  C   UNL A   1      33.574  26.483  25.929  1.00  0.00     0.012 A 
ATOM     18  C   UNL A   1      31.391  27.017  26.824  1.00  0.00     0.012 A 
ATOM     19  C   UNL A   1      33.931  27.831  25.997  1.00  0.00     0.001 A 
ATOM     20  C   UNL A   1      31.755  28.363  26.906  1.00  0.00     0.001 A 
ATOM     21  C   UNL A   1      33.023  28.769  26.488  1.00  0.00     0.000 A 
ENDBRANCH  14  16
ENDBRANCH  10  11
ENDBRANCH   9  10
ENDBRANCH   8   9
ENDBRANCH   7   8
ENDBRANCH   5   7
ENDBRANCH   2   3
ENDBRANCH   1   2
BRANCH   1  22
ATOM     22  C   UNL A   1      40.624  22.750  26.469  1.00  0.00     0.002 C 
BRANCH  22  23
ATOM     23  C   UNL A   1      40.831  21.394  27.148  1.00  0.00     0.002 C 
BRANCH  23  24
ATOM     24  C   UNL A   1      41.081  20.221  26.198  1.00  0.00     0.021 C 
BRANCH  24  25
ATOM     25  C   UNL A   1      42.346  19.417  26.480  1.00  0.00     0.116 C 
BRANCH  25  26
ATOM     26  N   UNL A   1      43.148  19.187  25.289  1.00  0.00    -0.352 N 
ATOM     27  C   UNL A   1      43.943  20.077  24.605  1.00  0.00     0.251 C 
ATOM     28  H   UNL A   1      43.117  18.274  24.922  1.00  0.00     0.163 HD
ATOM     29  O   UNL A   1      44.446  19.758  23.531  1.00  0.00    -0.269 OA
BRANCH  27  30
ATOM     30  C   UNL A   1      44.161  21.432  25.158  1.00  0.00     0.039 A 
ATOM     31  C   UNL A   1      44.739  21.565  26.423  1.00  0.00     0.014 A 
ATOM     32  C   UNL A   1      43.819  22.567  24.418  1.00  0.00     0.014 A 
ATOM     33  C   UNL A   1      45.036  22.838  26.919  1.00  0.00     0.010 A 
ATOM     34  C   UNL A   1      44.173  23.830  24.886  1.00  0.00     0.010 A 
ATOM     35  C   UNL A   1      44.788  23.980  26.140  1.00  0.00    -0.014 A 
BRANCH  35  36
ATOM     36  C   UNL A   1      45.157  25.341  26.608  1.00  0.00     0.031 A 
ATOM     37  C   UNL A   1      44.100  26.246  27.184  1.00  0.00     0.074 A 
ATOM     38  C   UNL A   1      46.415  25.796  26.436  1.00  0.00     0.049 A 
ATOM     39  N   UNL A   1      44.191  27.505  27.528  1.00  0.00    -0.248 NA
ATOM     40  C   UNL A   1      42.758  25.669  27.371  1.00  0.00     0.031 C 
ATOM     41  C   UNL A   1      47.524  25.031  25.861  1.00  0.00     0.029 A 
ATOM     42  N   UNL A   1      46.969  27.022  26.712  1.00  0.00    -0.354 N 
ATOM     43  C   UNL A   1      42.917  27.878  27.942  1.00  0.00     0.074 A 
ATOM     44  C   UNL A   1      42.063  26.722  27.777  1.00  0.00     0.031 C 
ATOM     45  C   UNL A   1      48.625  25.801  25.838  1.00  0.00     0.029 A 
ATOM     46  C   UNL A   1      48.294  27.125  26.354  1.00  0.00     0.049 A 
ATOM     47  H   UNL A   1      46.464  27.759  27.128  1.00  0.00     0.167 HD
ATOM     48  C   UNL A   1      42.499  29.071  28.427  1.00  0.00     0.031 A 
ATOM     49  C   UNL A   1      49.141  28.172  26.419  1.00  0.00     0.031 A 
ATOM     50  C   UNL A   1      43.357  30.207  28.625  1.00  0.00     0.049 A 
ATOM     51  C   UNL A   1      48.649  29.485  26.968  1.00  0.00     0.074 A 
ATOM     52  C   UNL A   1      43.038  31.436  29.178  1.00  0.00     0.029 A 
ATOM     53  N   UNL A   1      44.699  30.257  28.286  1.00  0.00    -0.354 N 
ATOM     54  N   UNL A   1      47.456  29.795  27.414  1.00  0.00    -0.248 NA
ATOM     55  C   UNL A   1      49.622  30.586  27.032  1.00  0.00     0.031 C 
ATOM     56  C   UNL A   1      44.178  32.243  29.132  1.00  0.00     0.029 A 
ATOM     57  C   UNL A   1      45.219  31.500  28.600  1.00  0.00     0.049 A 
ATOM     58  H   UNL A   1      45.208  29.517  27.880  1.00  0.00     0.167 HD
ATOM     59  C   UNL A   1      47.546  31.114  27.847  1.00  0.00     0.074 A 
ATOM     60  C   UNL A   1      48.910  31.541  27.615  1.00  0.00     0.031 C 
ATOM     61  C   UNL A   1      46.585  31.901  28.389  1.00  0.00     0.031 A 
BRANCH  48  62
ATOM     62  C   UNL A   1      41.044  29.218  28.784  1.00  0.00    -0.014 A 
ATOM     63  C   UNL A   1      40.621  29.210  30.125  1.00  0.00     0.010 A 
ATOM     64  C   UNL A   1      40.099  29.453  27.767  1.00  0.00     0.010 A 
ATOM     65  C   UNL A   1      39.275  29.413  30.441  1.00  0.00     0.020 A 
ATOM     66  C   UNL A   1      38.758  29.682  28.082  1.00  0.00     0.020 A 
ATOM     67  C   UNL A   1      38.353  29.651  29.418  1.00  0.00     0.054 A 
BRANCH  67  68
ATOM     68  S   UNL A   1      36.623  29.971  29.863  1.00  0.00     0.124 S 
ATOM     69  O   UNL A   1      35.909  29.385  28.731  1.00  0.00    -0.237 OA
ATOM     70  O   UNL A   1      36.482  29.259  31.131  1.00  0.00    -0.237 OA
ATOM     71  O   UNL A   1      36.552  31.427  29.958  1.00  0.00    -0.744 OA
ENDBRANCH  67  68
ENDBRANCH  48  62
BRANCH  49  72
ATOM     72  C   UNL A   1      50.547  28.033  25.948  1.00  0.00    -0.014 A 
ATOM     73  C   UNL A   1      51.584  27.776  26.865  1.00  0.00     0.010 A 
ATOM     74  C   UNL A   1      50.863  28.191  24.587  1.00  0.00     0.010 A 
ATOM     75  C   UNL A   1      52.913  27.720  26.434  1.00  0.00     0.020 A 
ATOM     76  C   UNL A   1      52.188  28.107  24.148  1.00  0.00     0.020 A 
ATOM     77  C   UNL A   1      53.206  27.892  25.079  1.00  0.00     0.054 A 
BRANCH  77  78
ATOM     78  S   UNL A   1      54.936  27.807  24.538  1.00  0.00     0.124 S 
ATOM     79  O   UNL A   1      55.172  29.166  24.064  1.00  0.00    -0.237 OA
ATOM     80  O   UNL A   1      55.635  27.433  25.765  1.00  0.00    -0.237 OA
ATOM     81  O   UNL A   1      54.918  26.775  23.502  1.00  0.00    -0.744 OA
ENDBRANCH  77  78
ENDBRANCH  49  72
BRANCH  61  82
ATOM     82  C   UNL A   1      46.978  33.284  28.830  1.00  0.00    -0.014 A 
ATOM     83  C   UNL A   1      47.513  33.522  30.108  1.00  0.00     0.010 A 
ATOM     84  C   UNL A   1      46.883  34.350  27.915  1.00  0.00     0.010 A 
ATOM     85  C   UNL A   1      47.928  34.806  30.470  1.00  0.00     0.020 A 
ATOM     86  C   UNL A   1      47.320  35.630  28.267  1.00  0.00     0.020 A 
ATOM     87  C   UNL A   1      47.831  35.852  29.546  1.00  0.00     0.054 A 
BRANCH  87  88
ATOM     88  S   UNL A   1      48.437  37.495  30.018  1.00  0.00     0.124 S 
ATOM     89  O   UNL A   1      49.232  37.872  28.853  1.00  0.00    -0.237 OA
ATOM     90  O   UNL A   1      47.202  38.251  30.208  1.00  0.00    -0.237 OA
ATOM     91  O   UNL A   1      49.200  37.245  31.239  1.00  0.00    -0.744 OA
ENDBRANCH  87  88
ENDBRANCH  61  82
ENDBRANCH  35  36
ENDBRANCH  27  30
ENDBRANCH  25  26
ENDBRANCH  24  25
ENDBRANCH  23  24
ENDBRANCH  22  23
ENDBRANCH   1  22
TORSDOF 21
ENDMDL
MODEL 3
REMARK VINA RESULT:      -9.4      1.899      3.509
REMARK SMILES O=C(CCCCc1nc(-c2ccccc2)no1)NCCCCCCNC(=O)c1ccc(-c2c3nc(c(-c4ccc(S(=O)(=O)[O-])cc4)c4ccc([nH]4)c(-c4ccc(S(=O)(=O)[O-])cc4)c4nc(c(-c5ccc(S(=O)(=O)[O-])cc5)c5ccc2[nH]5)C=C4)C=C3)cc1
REMARK SMILES IDX 20 1 19 2 18 3 1 4 2 5 3 7 4 8 5 9 6 10 7 11 8 12 17 13 9 14
REMARK SMILES IDX 16 15 10 16 11 17 15 18 12 19 14 20 13 21 21 22 22 23 23 24
REMARK SMILES IDX 24 25 25 26 26 27 27 29 28 30 29 31 87 32 30 33 86 34 31 35
REMARK SMILES IDX 32 36 33 37 80 38 34 39 85 40 79 41 81 42 35 43 84 44 78 45
REMARK SMILES IDX 77 46 36 48 66 49 47 50 65 51 48 52 51 53 64 54 82 55 49 56
REMARK SMILES IDX 50 57 63 59 83 60 52 61 37 62 38 63 46 64 39 65 45 66 40 67
REMARK SMILES IDX 41 68 42 69 43 70 44 71 67 72 68 73 76 74 69 75 75 76 70 77
REMARK SMILES IDX 71 78 72 79 73 80 74 81 53 82 54 83 62 84 55 85 61 86 56 87
REMARK SMILES IDX 57 88 58 89 59 90 60 91
REMARK H PARENT 18 6 25 28 81 47 51 58
REMARK Flexibility Score: inf
ROOT
ATOM      1  C   UNL A   1      39.705  23.778  27.236  1.00  0.00     0.021 C 
ENDROOT
BRANCH   1   2
ATOM      2  C   UNL A   1      38.364  24.237  26.666  1.00  0.00     0.116 C 
BRANCH   2   3
ATOM      3  N   UNL A   1      37.534  23.106  26.310  1.00  0.00    -0.356 N 
ATOM      4  O   UNL A   1      35.682  24.294  25.647  1.00  0.00    -0.275 OA
ATOM      5  C   UNL A   1      36.264  23.228  25.803  1.00  0.00     0.219 C 
ATOM      6  H   UNL A   1      37.899  22.201  26.439  1.00  0.00     0.163 HD
BRANCH   5   7
ATOM      7  C   UNL A   1      35.638  21.896  25.436  1.00  0.00     0.100 C 
BRANCH   7   8
ATOM      8  C   UNL A   1      34.265  21.694  26.080  1.00  0.00     0.010 C 
BRANCH   8   9
ATOM      9  C   UNL A   1      33.040  21.995  25.198  1.00  0.00     0.010 C 
BRANCH   9  10
ATOM     10  C   UNL A   1      31.711  22.188  25.938  1.00  0.00     0.100 C 
BRANCH  10  11
ATOM     11  C   UNL A   1      31.309  23.611  25.968  1.00  0.00     0.226 A 
ATOM     12  N   UNL A   1      30.927  24.387  24.982  1.00  0.00    -0.191 NA
ATOM     13  O   UNL A   1      31.440  24.264  27.156  1.00  0.00    -0.339 OA
ATOM     14  C   UNL A   1      30.888  25.623  25.584  1.00  0.00     0.202 A 
ATOM     15  N   UNL A   1      31.175  25.607  26.897  1.00  0.00    -0.057 NA
BRANCH  14  16
ATOM     16  C   UNL A   1      30.633  26.833  24.825  1.00  0.00     0.023 A 
ATOM     17  C   UNL A   1      29.700  26.830  23.780  1.00  0.00     0.012 A 
ATOM     18  C   UNL A   1      31.284  28.027  25.162  1.00  0.00     0.012 A 
ATOM     19  C   UNL A   1      29.417  28.007  23.084  1.00  0.00     0.001 A 
ATOM     20  C   UNL A   1      31.011  29.200  24.455  1.00  0.00     0.001 A 
ATOM     21  C   UNL A   1      30.075  29.189  23.420  1.00  0.00     0.000 A 
ENDBRANCH  14  16
ENDBRANCH  10  11
ENDBRANCH   9  10
ENDBRANCH   8   9
ENDBRANCH   7   8
ENDBRANCH   5   7
ENDBRANCH   2   3
ENDBRANCH   1   2
BRANCH   1  22
ATOM     22  C   UNL A   1      40.381  22.627  26.473  1.00  0.00     0.002 C 
BRANCH  22  23
ATOM     23  C   UNL A   1      40.553  21.325  27.260  1.00  0.00     0.002 C 
BRANCH  23  24
ATOM     24  C   UNL A   1      40.921  20.100  26.421  1.00  0.00     0.021 C 
BRANCH  24  25
ATOM     25  C   UNL A   1      42.279  19.482  26.738  1.00  0.00     0.116 C 
BRANCH  25  26
ATOM     26  N   UNL A   1      43.082  19.239  25.550  1.00  0.00    -0.352 N 
ATOM     27  C   UNL A   1      43.860  20.128  24.845  1.00  0.00     0.251 C 
ATOM     28  H   UNL A   1      43.067  18.318  25.204  1.00  0.00     0.163 HD
ATOM     29  O   UNL A   1      44.366  19.794  23.778  1.00  0.00    -0.269 OA
BRANCH  27  30
ATOM     30  C   UNL A   1      44.055  21.499  25.367  1.00  0.00     0.039 A 
ATOM     31  C   UNL A   1      44.807  21.682  26.531  1.00  0.00     0.014 A 
ATOM     32  C   UNL A   1      43.518  22.600  24.696  1.00  0.00     0.014 A 
ATOM     33  C   UNL A   1      45.077  22.977  26.984  1.00  0.00     0.010 A 
ATOM     34  C   UNL A   1      43.841  23.889  25.113  1.00  0.00     0.010 A 
ATOM     35  C   UNL A   1      44.627  24.092  26.259  1.00  0.00    -0.014 A 
BRANCH  35  36
ATOM     36  C   UNL A   1      44.956  25.481  26.675  1.00  0.00     0.031 A 
ATOM     37  C   UNL A   1      46.317  26.050  26.372  1.00  0.00     0.074 A 
ATOM     38  C   UNL A   1      44.070  26.196  27.398  1.00  0.00     0.049 A 
ATOM     39  N   UNL A   1      46.840  27.185  26.759  1.00  0.00    -0.248 NA
ATOM     40  C   UNL A   1      47.218  25.223  25.551  1.00  0.00     0.031 C 
ATOM     41  C   UNL A   1      42.730  25.748  27.786  1.00  0.00     0.029 A 
ATOM     42  N   UNL A   1      44.172  27.448  27.953  1.00  0.00    -0.354 N 
ATOM     43  C   UNL A   1      48.136  27.195  26.256  1.00  0.00     0.074 A 
ATOM     44  C   UNL A   1      48.332  25.941  25.563  1.00  0.00     0.031 C 
ATOM     45  C   UNL A   1      42.133  26.713  28.505  1.00  0.00     0.029 A 
ATOM     46  C   UNL A   1      43.059  27.830  28.666  1.00  0.00     0.049 A 
ATOM     47  H   UNL A   1      44.968  28.020  27.849  1.00  0.00     0.167 HD
ATOM     48  C   UNL A   1      49.075  28.166  26.353  1.00  0.00     0.031 A 
ATOM     49  C   UNL A   1      42.817  28.946  29.384  1.00  0.00     0.031 A 
ATOM     50  C   UNL A   1      48.867  29.428  27.010  1.00  0.00     0.049 A 
ATOM     51  C   UNL A   1      43.877  30.012  29.468  1.00  0.00     0.074 A 
ATOM     52  C   UNL A   1      49.735  30.503  27.097  1.00  0.00     0.029 A 
ATOM     53  N   UNL A   1      47.713  29.789  27.686  1.00  0.00    -0.354 N 
ATOM     54  N   UNL A   1      45.073  30.027  28.930  1.00  0.00    -0.248 NA
ATOM     55  C   UNL A   1      43.552  31.214  30.249  1.00  0.00     0.031 C 
ATOM     56  C   UNL A   1      49.122  31.497  27.865  1.00  0.00     0.029 A 
ATOM     57  C   UNL A   1      47.852  31.062  28.209  1.00  0.00     0.049 A 
ATOM     58  H   UNL A   1      46.912  29.223  27.781  1.00  0.00     0.167 HD
ATOM     59  C   UNL A   1      45.626  31.257  29.276  1.00  0.00     0.074 A 
ATOM     60  C   UNL A   1      44.634  31.958  30.062  1.00  0.00     0.031 C 
ATOM     61  C   UNL A   1      46.846  31.759  28.967  1.00  0.00     0.031 A 
BRANCH  48  62
ATOM     62  C   UNL A   1      50.422  27.911  25.731  1.00  0.00    -0.014 A 
ATOM     63  C   UNL A   1      50.643  28.137  24.361  1.00  0.00     0.010 A 
ATOM     64  C   UNL A   1      51.502  27.524  26.546  1.00  0.00     0.010 A 
ATOM     65  C   UNL A   1      51.916  27.958  23.813  1.00  0.00     0.020 A 
ATOM     66  C   UNL A   1      52.781  27.369  26.007  1.00  0.00     0.020 A 
ATOM     67  C   UNL A   1      52.978  27.578  24.641  1.00  0.00     0.054 A 
BRANCH  67  68
ATOM     68  S   UNL A   1      54.631  27.412  23.913  1.00  0.00     0.124 S 
ATOM     69  O   UNL A   1      55.385  28.427  24.645  1.00  0.00    -0.237 OA
ATOM     70  O   UNL A   1      54.980  26.027  24.222  1.00  0.00    -0.237 OA
ATOM     71  O   UNL A   1      54.417  27.696  22.496  1.00  0.00    -0.744 OA
ENDBRANCH  67  68
ENDBRANCH  48  62
BRANCH  49  72
ATOM     72  C   UNL A   1      41.517  29.122  30.088  1.00  0.00    -0.014 A 
ATOM     73  C   UNL A   1      41.363  28.692  31.420  1.00  0.00     0.010 A 
ATOM     74  C   UNL A   1      40.416  29.688  29.422  1.00  0.00     0.010 A 
ATOM     75  C   UNL A   1      40.121  28.788  32.056  1.00  0.00     0.020 A 
ATOM     76  C   UNL A   1      39.181  29.814  30.066  1.00  0.00     0.020 A 
ATOM     77  C   UNL A   1      39.037  29.344  31.373  1.00  0.00     0.054 A 
BRANCH  77  78
ATOM     78  S   UNL A   1      37.437  29.469  32.220  1.00  0.00     0.124 S 
ATOM     79  O   UNL A   1      37.482  28.323  33.122  1.00  0.00    -0.237 OA
ATOM     80  O   UNL A   1      37.517  30.781  32.857  1.00  0.00    -0.237 OA
ATOM     81  O   UNL A   1      36.467  29.372  31.130  1.00  0.00    -0.744 OA
ENDBRANCH  77  78
ENDBRANCH  49  72
BRANCH  61  82
ATOM     82  C   UNL A   1      47.164  33.157  29.422  1.00  0.00    -0.014 A 
ATOM     83  C   UNL A   1      47.820  33.399  30.641  1.00  0.00     0.010 A 
ATOM     84  C   UNL A   1      46.870  34.240  28.572  1.00  0.00     0.010 A 
ATOM     85  C   UNL A   1      48.159  34.703  31.012  1.00  0.00     0.020 A 
ATOM     86  C   UNL A   1      47.231  35.541  28.928  1.00  0.00     0.020 A 
ATOM     87  C   UNL A   1      47.865  35.766  30.151  1.00  0.00     0.054 A 
BRANCH  87  88
ATOM     88  S   UNL A   1      48.373  37.441  30.625  1.00  0.00     0.124 S 
ATOM     89  O   UNL A   1      49.527  37.178  31.480  1.00  0.00    -0.237 OA
ATOM     90  O   UNL A   1      48.674  38.063  29.337  1.00  0.00    -0.237 OA
ATOM     91  O   UNL A   1      47.200  37.979  31.309  1.00  0.00    -0.744 OA
ENDBRANCH  87  88
ENDBRANCH  61  82
ENDBRANCH  35  36
ENDBRANCH  27  30
ENDBRANCH  25  26
ENDBRANCH  24  25
ENDBRANCH  23  24
ENDBRANCH  22  23
ENDBRANCH   1  22
TORSDOF 21
ENDMDL
