MODEL 1
REMARK VINA RESULT:     -10.1      0.000      0.000
REMARK SMILES C[C@H]1CCCN1c1cccc(OCC(=O)NCCCCCCNC(=O)c2ccc(-c3c4nc(c(-c5ccc(S(=O)(=O)[O-])cc5)c5ccc([nH]5)c(-c5ccc(S(=O)(=O)[O-])cc5)c5nc(c(-c6ccc(S(=O)(=O)[O-])cc6)c6ccc3[nH]6)C=C5)C=C4)cc2)c1
REMARK SMILES IDX 19 1 18 2 17 3 16 4 14 5 15 6 13 8 12 9 11 10 7 11 8 12
REMARK SMILES IDX 86 13 9 14 10 15 6 16 1 17 2 18 3 19 4 20 5 21 20 22 21 23
REMARK SMILES IDX 22 24 23 25 24 26 25 28 26 29 27 30 85 31 28 32 84 33 29 34
REMARK SMILES IDX 30 35 31 36 78 37 32 38 83 39 77 40 79 41 33 42 82 43 76 44
REMARK SMILES IDX 75 45 34 47 64 48 45 49 63 50 46 51 49 52 62 53 80 54 47 55
REMARK SMILES IDX 48 56 61 58 81 59 50 60 35 61 36 62 44 63 37 64 43 65 38 66
REMARK SMILES IDX 39 67 40 68 41 69 42 70 65 71 66 72 74 73 67 74 73 75 68 76
REMARK SMILES IDX 69 77 70 78 71 79 72 80 51 81 52 82 60 83 53 84 59 85 54 86
REMARK SMILES IDX 55 87 56 88 57 89 58 90
REMARK H PARENT 16 7 23 27 79 46 49 57
REMARK Flexibility Score: inf
ROOT
ATOM      1  C   UNL A   1      33.629  22.652  23.444  1.00  0.00     0.002 C 
ENDROOT
BRANCH   1   2
ATOM      2  C   UNL A   1      33.805  21.298  24.144  1.00  0.00     0.021 C 
BRANCH   2   3
ATOM      3  C   UNL A   1      32.680  20.934  25.112  1.00  0.00     0.116 C 
BRANCH   3   4
ATOM      4  N   UNL A   1      32.987  21.344  26.470  1.00  0.00    -0.353 N 
ATOM      5  C   UNL A   1      32.354  22.278  27.237  1.00  0.00     0.257 C 
ATOM      6  O   UNL A   1      32.772  22.498  28.376  1.00  0.00    -0.271 OA
ATOM      7  H   UNL A   1      33.753  20.890  26.892  1.00  0.00     0.163 HD
BRANCH   5   8
ATOM      8  C   UNL A   1      31.105  22.981  26.692  1.00  0.00     0.329 C 
BRANCH   8   9
ATOM      9  O   UNL A   1      30.908  24.327  27.091  1.00  0.00    -0.484 OA
BRANCH   9  10
ATOM     10  C   UNL A   1      31.256  25.319  26.218  1.00  0.00     0.122 A 
ATOM     11  C   UNL A   1      32.027  27.544  25.572  1.00  0.00     0.041 A 
ATOM     12  C   UNL A   1      31.855  27.181  24.232  1.00  0.00     0.026 A 
ATOM     13  C   UNL A   1      31.715  26.594  26.556  1.00  0.00     0.072 A 
ATOM     14  C   UNL A   1      31.416  25.905  23.878  1.00  0.00     0.006 A 
ATOM     15  C   UNL A   1      31.117  24.978  24.873  1.00  0.00     0.046 A 
BRANCH  11  16
ATOM     16  N   UNL A   1      32.465  28.811  25.891  1.00  0.00    -0.369 N 
ATOM     17  C   UNL A   1      34.666  28.772  26.975  1.00  0.00     0.031 C 
ATOM     18  C   UNL A   1      33.194  29.139  27.119  1.00  0.00     0.079 C 
ATOM     19  C   UNL A   1      33.009  30.659  27.259  1.00  0.00     0.026 C 
ATOM     20  C   UNL A   1      31.718  30.941  26.504  1.00  0.00     0.023 C 
ATOM     21  C   UNL A   1      31.774  29.965  25.332  1.00  0.00     0.117 C 
ENDBRANCH  11  16
ENDBRANCH   9  10
ENDBRANCH   8   9
ENDBRANCH   5   8
ENDBRANCH   3   4
ENDBRANCH   2   3
ENDBRANCH   1   2
BRANCH   1  22
ATOM     22  C   UNL A   1      34.519  23.782  23.970  1.00  0.00     0.002 C 
BRANCH  22  23
ATOM     23  C   UNL A   1      36.023  23.507  23.916  1.00  0.00     0.021 C 
BRANCH  23  24
ATOM     24  C   UNL A   1      36.776  23.815  25.206  1.00  0.00     0.116 C 
BRANCH  24  25
ATOM     25  N   UNL A   1      37.784  22.811  25.508  1.00  0.00    -0.352 N 
ATOM     26  C   UNL A   1      38.998  22.953  26.130  1.00  0.00     0.251 C 
ATOM     27  H   UNL A   1      37.562  21.894  25.224  1.00  0.00     0.163 HD
ATOM     28  O   UNL A   1      39.801  22.020  26.123  1.00  0.00    -0.269 OA
BRANCH  26  29
ATOM     29  C   UNL A   1      39.353  24.230  26.788  1.00  0.00     0.039 A 
ATOM     30  C   UNL A   1      38.890  24.472  28.084  1.00  0.00     0.014 A 
ATOM     31  C   UNL A   1      40.127  25.190  26.131  1.00  0.00     0.014 A 
ATOM     32  C   UNL A   1      39.253  25.652  28.740  1.00  0.00     0.010 A 
ATOM     33  C   UNL A   1      40.552  26.328  26.813  1.00  0.00     0.010 A 
ATOM     34  C   UNL A   1      40.116  26.575  28.124  1.00  0.00    -0.014 A 
BRANCH  34  35
ATOM     35  C   UNL A   1      40.569  27.796  28.841  1.00  0.00     0.031 A 
ATOM     36  C   UNL A   1      41.936  27.843  29.474  1.00  0.00     0.074 A 
ATOM     37  C   UNL A   1      39.733  28.846  28.962  1.00  0.00     0.049 A 
ATOM     38  N   UNL A   1      42.488  28.806  30.167  1.00  0.00    -0.248 NA
ATOM     39  C   UNL A   1      42.784  26.649  29.326  1.00  0.00     0.031 C 
ATOM     40  C   UNL A   1      38.369  28.909  28.431  1.00  0.00     0.029 A 
ATOM     41  N   UNL A   1      39.905  30.064  29.573  1.00  0.00    -0.354 N 
ATOM     42  C   UNL A   1      43.741  28.332  30.542  1.00  0.00     0.074 A 
ATOM     43  C   UNL A   1      43.845  26.977  30.049  1.00  0.00     0.031 C 
ATOM     44  C   UNL A   1      37.840  30.111  28.715  1.00  0.00     0.029 A 
ATOM     45  C   UNL A   1      38.807  30.887  29.484  1.00  0.00     0.049 A 
ATOM     46  H   UNL A   1      40.736  30.323  30.032  1.00  0.00     0.167 HD
ATOM     47  C   UNL A   1      44.725  28.976  31.215  1.00  0.00     0.031 A 
ATOM     48  C   UNL A   1      38.595  32.126  29.972  1.00  0.00     0.031 A 
ATOM     49  C   UNL A   1      44.621  30.327  31.700  1.00  0.00     0.049 A 
ATOM     50  C   UNL A   1      39.697  32.810  30.736  1.00  0.00     0.074 A 
ATOM     51  C   UNL A   1      45.579  31.081  32.356  1.00  0.00     0.029 A 
ATOM     52  N   UNL A   1      43.495  31.128  31.583  1.00  0.00    -0.354 N 
ATOM     53  N   UNL A   1      40.897  32.368  31.024  1.00  0.00    -0.248 NA
ATOM     54  C   UNL A   1      39.421  34.167  31.229  1.00  0.00     0.031 C 
ATOM     55  C   UNL A   1      45.014  32.315  32.686  1.00  0.00     0.029 A 
ATOM     56  C   UNL A   1      43.727  32.358  32.176  1.00  0.00     0.049 A 
ATOM     57  H   UNL A   1      42.655  30.861  31.146  1.00  0.00     0.167 HD
ATOM     58  C   UNL A   1      41.529  33.404  31.704  1.00  0.00     0.074 A 
ATOM     59  C   UNL A   1      40.586  34.499  31.768  1.00  0.00     0.031 C 
ATOM     60  C   UNL A   1      42.780  33.443  32.228  1.00  0.00     0.031 A 
BRANCH  47  61
ATOM     61  C   UNL A   1      46.008  28.227  31.465  1.00  0.00    -0.014 A 
ATOM     62  C   UNL A   1      47.079  28.301  30.556  1.00  0.00     0.010 A 
ATOM     63  C   UNL A   1      46.173  27.493  32.655  1.00  0.00     0.010 A 
ATOM     64  C   UNL A   1      48.277  27.630  30.815  1.00  0.00     0.020 A 
ATOM     65  C   UNL A   1      47.380  26.845  32.931  1.00  0.00     0.020 A 
ATOM     66  C   UNL A   1      48.420  26.908  32.003  1.00  0.00     0.054 A 
BRANCH  66  67
ATOM     67  S   UNL A   1      50.002  26.083  32.330  1.00  0.00     0.124 S 
ATOM     68  O   UNL A   1      49.846  25.669  33.721  1.00  0.00    -0.237 OA
ATOM     69  O   UNL A   1      50.005  24.999  31.350  1.00  0.00    -0.237 OA
ATOM     70  O   UNL A   1      50.995  27.130  32.099  1.00  0.00    -0.744 OA
ENDBRANCH  66  67
ENDBRANCH  47  61
BRANCH  48  71
ATOM     71  C   UNL A   1      37.285  32.801  29.756  1.00  0.00    -0.014 A 
ATOM     72  C   UNL A   1      36.179  32.507  30.574  1.00  0.00     0.010 A 
ATOM     73  C   UNL A   1      37.135  33.742  28.721  1.00  0.00     0.010 A 
ATOM     74  C   UNL A   1      34.942  33.116  30.340  1.00  0.00     0.020 A 
ATOM     75  C   UNL A   1      35.909  34.377  28.505  1.00  0.00     0.020 A 
ATOM     76  C   UNL A   1      34.816  34.048  29.306  1.00  0.00     0.054 A 
BRANCH  76  77
ATOM     77  S   UNL A   1      33.209  34.847  29.038  1.00  0.00     0.124 S 
ATOM     78  O   UNL A   1      33.602  36.138  28.479  1.00  0.00    -0.237 OA
ATOM     79  O   UNL A   1      32.551  33.929  28.112  1.00  0.00    -0.237 OA
ATOM     80  O   UNL A   1      32.624  34.896  30.376  1.00  0.00    -0.744 OA
ENDBRANCH  76  77
ENDBRANCH  48  71
BRANCH  60  81
ATOM     81  C   UNL A   1      43.220  34.727  32.881  1.00  0.00    -0.014 A 
ATOM     82  C   UNL A   1      43.859  35.742  32.147  1.00  0.00     0.010 A 
ATOM     83  C   UNL A   1      42.937  34.943  34.243  1.00  0.00     0.010 A 
ATOM     84  C   UNL A   1      44.235  36.935  32.770  1.00  0.00     0.020 A 
ATOM     85  C   UNL A   1      43.283  36.146  34.862  1.00  0.00     0.020 A 
ATOM     86  C   UNL A   1      43.943  37.129  34.124  1.00  0.00     0.054 A 
BRANCH  86  87
ATOM     87  S   UNL A   1      44.403  38.704  34.898  1.00  0.00     0.124 S 
ATOM     88  O   UNL A   1      43.361  39.600  34.403  1.00  0.00    -0.237 OA
ATOM     89  O   UNL A   1      44.338  38.391  36.323  1.00  0.00    -0.237 OA
ATOM     90  O   UNL A   1      45.745  38.966  34.383  1.00  0.00    -0.744 OA
ENDBRANCH  86  87
ENDBRANCH  60  81
ENDBRANCH  34  35
ENDBRANCH  26  29
ENDBRANCH  24  25
ENDBRANCH  23  24
ENDBRANCH  22  23
ENDBRANCH   1  22
TORSDOF 19
ENDMDL
MODEL 2
REMARK VINA RESULT:      -9.7      4.375     10.337
REMARK SMILES C[C@H]1CCCN1c1cccc(OCC(=O)NCCCCCCNC(=O)c2ccc(-c3c4nc(c(-c5ccc(S(=O)(=O)[O-])cc5)c5ccc([nH]5)c(-c5ccc(S(=O)(=O)[O-])cc5)c5nc(c(-c6ccc(S(=O)(=O)[O-])cc6)c6ccc3[nH]6)C=C5)C=C4)cc2)c1
REMARK SMILES IDX 19 1 18 2 17 3 16 4 14 5 15 6 13 8 12 9 11 10 7 11 8 12
REMARK SMILES IDX 86 13 9 14 10 15 6 16 1 17 2 18 3 19 4 20 5 21 20 22 21 23
REMARK SMILES IDX 22 24 23 25 24 26 25 28 26 29 27 30 85 31 28 32 84 33 29 34
REMARK SMILES IDX 30 35 31 36 78 37 32 38 83 39 77 40 79 41 33 42 82 43 76 44
REMARK SMILES IDX 75 45 34 47 64 48 45 49 63 50 46 51 49 52 62 53 80 54 47 55
REMARK SMILES IDX 48 56 61 58 81 59 50 60 35 61 36 62 44 63 37 64 43 65 38 66
REMARK SMILES IDX 39 67 40 68 41 69 42 70 65 71 66 72 74 73 67 74 73 75 68 76
REMARK SMILES IDX 69 77 70 78 71 79 72 80 51 81 52 82 60 83 53 84 59 85 54 86
REMARK SMILES IDX 55 87 56 88 57 89 58 90
REMARK H PARENT 16 7 23 27 79 46 49 57
REMARK Flexibility Score: inf
ROOT
ATOM      1  C   UNL A   1      33.748  28.943  25.992  1.00  0.00     0.002 C 
ENDROOT
BRANCH   1   2
ATOM      2  C   UNL A   1      32.666  29.977  25.650  1.00  0.00     0.021 C 
BRANCH   2   3
ATOM      3  C   UNL A   1      31.334  29.376  25.205  1.00  0.00     0.116 C 
BRANCH   3   4
ATOM      4  N   UNL A   1      30.648  30.233  24.255  1.00  0.00    -0.353 N 
ATOM      5  C   UNL A   1      29.825  29.872  23.228  1.00  0.00     0.257 C 
ATOM      6  O   UNL A   1      29.340  30.752  22.515  1.00  0.00    -0.271 OA
ATOM      7  H   UNL A   1      30.798  31.200  24.365  1.00  0.00     0.163 HD
BRANCH   5   8
ATOM      8  C   UNL A   1      29.475  28.393  23.027  1.00  0.00     0.329 C 
BRANCH   8   9
ATOM      9  O   UNL A   1      30.310  27.655  22.151  1.00  0.00    -0.484 OA
BRANCH   9  10
ATOM     10  C   UNL A   1      31.341  26.937  22.690  1.00  0.00     0.122 A 
ATOM     11  C   UNL A   1      32.358  25.138  23.991  1.00  0.00     0.041 A 
ATOM     12  C   UNL A   1      33.614  25.687  23.711  1.00  0.00     0.026 A 
ATOM     13  C   UNL A   1      31.226  25.786  23.472  1.00  0.00     0.072 A 
ATOM     14  C   UNL A   1      33.745  26.825  22.914  1.00  0.00     0.006 A 
ATOM     15  C   UNL A   1      32.608  27.447  22.407  1.00  0.00     0.046 A 
BRANCH  11  16
ATOM     16  N   UNL A   1      32.259  24.011  24.778  1.00  0.00    -0.369 N 
ATOM     17  C   UNL A   1      33.594  22.156  23.889  1.00  0.00     0.031 C 
ATOM     18  C   UNL A   1      32.197  22.647  24.249  1.00  0.00     0.079 C 
ATOM     19  C   UNL A   1      31.600  21.832  25.406  1.00  0.00     0.026 C 
ATOM     20  C   UNL A   1      30.810  22.857  26.206  1.00  0.00     0.023 C 
ATOM     21  C   UNL A   1      31.663  24.119  26.104  1.00  0.00     0.117 C 
ENDBRANCH  11  16
ENDBRANCH   9  10
ENDBRANCH   8   9
ENDBRANCH   5   8
ENDBRANCH   3   4
ENDBRANCH   2   3
ENDBRANCH   1   2
BRANCH   1  22
ATOM     22  C   UNL A   1      34.609  29.276  27.215  1.00  0.00     0.002 C 
BRANCH  22  23
ATOM     23  C   UNL A   1      34.613  30.748  27.629  1.00  0.00     0.021 C 
BRANCH  23  24
ATOM     24  C   UNL A   1      35.853  31.194  28.396  1.00  0.00     0.116 C 
BRANCH  24  25
ATOM     25  N   UNL A   1      35.729  30.959  29.826  1.00  0.00    -0.352 N 
ATOM     26  C   UNL A   1      36.552  30.256  30.669  1.00  0.00     0.251 C 
ATOM     27  H   UNL A   1      34.938  31.363  30.251  1.00  0.00     0.163 HD
ATOM     28  O   UNL A   1      36.180  30.004  31.815  1.00  0.00    -0.269 OA
BRANCH  26  29
ATOM     29  C   UNL A   1      37.872  29.784  30.199  1.00  0.00     0.039 A 
ATOM     30  C   UNL A   1      38.128  29.753  28.826  1.00  0.00     0.014 A 
ATOM     31  C   UNL A   1      38.851  29.361  31.103  1.00  0.00     0.014 A 
ATOM     32  C   UNL A   1      39.386  29.354  28.364  1.00  0.00     0.010 A 
ATOM     33  C   UNL A   1      40.128  29.038  30.645  1.00  0.00     0.010 A 
ATOM     34  C   UNL A   1      40.408  29.027  29.271  1.00  0.00    -0.014 A 
BRANCH  34  35
ATOM     35  C   UNL A   1      41.772  28.674  28.793  1.00  0.00     0.031 A 
ATOM     36  C   UNL A   1      42.838  29.733  28.687  1.00  0.00     0.074 A 
ATOM     37  C   UNL A   1      42.037  27.409  28.411  1.00  0.00     0.049 A 
ATOM     38  N   UNL A   1      44.070  29.620  28.260  1.00  0.00    -0.248 NA
ATOM     39  C   UNL A   1      42.468  31.099  29.093  1.00  0.00     0.031 C 
ATOM     40  C   UNL A   1      41.079  26.300  28.426  1.00  0.00     0.029 A 
ATOM     41  N   UNL A   1      43.192  26.840  27.933  1.00  0.00    -0.354 N 
ATOM     42  C   UNL A   1      44.617  30.895  28.340  1.00  0.00     0.074 A 
ATOM     43  C   UNL A   1      43.569  31.778  28.802  1.00  0.00     0.031 C 
ATOM     44  C   UNL A   1      41.692  25.182  28.005  1.00  0.00     0.029 A 
ATOM     45  C   UNL A   1      43.071  25.499  27.649  1.00  0.00     0.049 A 
ATOM     46  H   UNL A   1      44.027  27.344  27.804  1.00  0.00     0.167 HD
ATOM     47  C   UNL A   1      45.886  31.293  28.077  1.00  0.00     0.031 A 
ATOM     48  C   UNL A   1      43.965  24.622  27.150  1.00  0.00     0.031 A 
ATOM     49  C   UNL A   1      46.929  30.413  27.621  1.00  0.00     0.049 A 
ATOM     50  C   UNL A   1      45.361  25.095  26.844  1.00  0.00     0.074 A 
ATOM     51  C   UNL A   1      48.257  30.713  27.368  1.00  0.00     0.029 A 
ATOM     52  N   UNL A   1      46.768  29.062  27.353  1.00  0.00    -0.354 N 
ATOM     53  N   UNL A   1      45.876  26.292  26.988  1.00  0.00    -0.248 NA
ATOM     54  C   UNL A   1      46.302  24.094  26.321  1.00  0.00     0.031 C 
ATOM     55  C   UNL A   1      48.883  29.558  26.891  1.00  0.00     0.029 A 
ATOM     56  C   UNL A   1      47.964  28.521  26.914  1.00  0.00     0.049 A 
ATOM     57  H   UNL A   1      45.926  28.561  27.457  1.00  0.00     0.167 HD
ATOM     58  C   UNL A   1      47.208  26.180  26.604  1.00  0.00     0.074 A 
ATOM     59  C   UNL A   1      47.423  24.797  26.238  1.00  0.00     0.031 C 
ATOM     60  C   UNL A   1      48.167  27.139  26.557  1.00  0.00     0.031 A 
BRANCH  47  61
ATOM     61  C   UNL A   1      46.220  32.749  28.277  1.00  0.00    -0.014 A 
ATOM     62  C   UNL A   1      46.710  33.215  29.511  1.00  0.00     0.010 A 
ATOM     63  C   UNL A   1      46.106  33.650  27.203  1.00  0.00     0.010 A 
ATOM     64  C   UNL A   1      47.049  34.560  29.675  1.00  0.00     0.020 A 
ATOM     65  C   UNL A   1      46.473  34.990  27.355  1.00  0.00     0.020 A 
ATOM     66  C   UNL A   1      46.931  35.440  28.595  1.00  0.00     0.054 A 
BRANCH  66  67
ATOM     67  S   UNL A   1      47.419  37.171  28.828  1.00  0.00     0.124 S 
ATOM     68  O   UNL A   1      48.784  37.172  28.311  1.00  0.00    -0.237 OA
ATOM     69  O   UNL A   1      46.440  37.891  28.017  1.00  0.00    -0.237 OA
ATOM     70  O   UNL A   1      47.300  37.374  30.270  1.00  0.00    -0.744 OA
ENDBRANCH  66  67
ENDBRANCH  47  61
BRANCH  48  71
ATOM     71  C   UNL A   1      43.569  23.207  26.905  1.00  0.00    -0.014 A 
ATOM     72  C   UNL A   1      43.594  22.666  25.607  1.00  0.00     0.010 A 
ATOM     73  C   UNL A   1      43.156  22.392  27.975  1.00  0.00     0.010 A 
ATOM     74  C   UNL A   1      43.183  21.349  25.380  1.00  0.00     0.020 A 
ATOM     75  C   UNL A   1      42.776  21.066  27.756  1.00  0.00     0.020 A 
ATOM     76  C   UNL A   1      42.777  20.557  26.457  1.00  0.00     0.054 A 
BRANCH  76  77
ATOM     77  S   UNL A   1      42.275  18.841  26.144  1.00  0.00     0.124 S 
ATOM     78  O   UNL A   1      42.432  18.234  27.462  1.00  0.00    -0.237 OA
ATOM     79  O   UNL A   1      40.900  18.996  25.676  1.00  0.00    -0.237 OA
ATOM     80  O   UNL A   1      43.223  18.388  25.129  1.00  0.00    -0.744 OA
ENDBRANCH  76  77
ENDBRANCH  48  71
BRANCH  60  81
ATOM     81  C   UNL A   1      49.550  26.719  26.136  1.00  0.00    -0.014 A 
ATOM     82  C   UNL A   1      50.001  26.896  24.816  1.00  0.00     0.010 A 
ATOM     83  C   UNL A   1      50.435  26.191  27.095  1.00  0.00     0.010 A 
ATOM     84  C   UNL A   1      51.298  26.521  24.456  1.00  0.00     0.020 A 
ATOM     85  C   UNL A   1      51.742  25.845  26.748  1.00  0.00     0.020 A 
ATOM     86  C   UNL A   1      52.161  25.999  25.425  1.00  0.00     0.054 A 
BRANCH  86  87
ATOM     87  S   UNL A   1      53.853  25.562  24.941  1.00  0.00     0.124 S 
ATOM     88  O   UNL A   1      54.642  26.184  26.001  1.00  0.00    -0.237 OA
ATOM     89  O   UNL A   1      53.823  24.102  24.955  1.00  0.00    -0.237 OA
ATOM     90  O   UNL A   1      54.003  26.164  23.618  1.00  0.00    -0.744 OA
ENDBRANCH  86  87
ENDBRANCH  60  81
ENDBRANCH  34  35
ENDBRANCH  26  29
ENDBRANCH  24  25
ENDBRANCH  23  24
ENDBRANCH  22  23
ENDBRANCH   1  22
TORSDOF 19
ENDMDL
MODEL 3
REMARK VINA RESULT:      -9.7      3.335      4.199
REMARK SMILES C[C@H]1CCCN1c1cccc(OCC(=O)NCCCCCCNC(=O)c2ccc(-c3c4nc(c(-c5ccc(S(=O)(=O)[O-])cc5)c5ccc([nH]5)c(-c5ccc(S(=O)(=O)[O-])cc5)c5nc(c(-c6ccc(S(=O)(=O)[O-])cc6)c6ccc3[nH]6)C=C5)C=C4)cc2)c1
REMARK SMILES IDX 19 1 18 2 17 3 16 4 14 5 15 6 13 8 12 9 11 10 7 11 8 12
REMARK SMILES IDX 86 13 9 14 10 15 6 16 1 17 2 18 3 19 4 20 5 21 20 22 21 23
REMARK SMILES IDX 22 24 23 25 24 26 25 28 26 29 27 30 85 31 28 32 84 33 29 34
REMARK SMILES IDX 30 35 31 36 78 37 32 38 83 39 77 40 79 41 33 42 82 43 76 44
REMARK SMILES IDX 75 45 34 47 64 48 45 49 63 50 46 51 49 52 62 53 80 54 47 55
REMARK SMILES IDX 48 56 61 58 81 59 50 60 35 61 36 62 44 63 37 64 43 65 38 66
REMARK SMILES IDX 39 67 40 68 41 69 42 70 65 71 66 72 74 73 67 74 73 75 68 76
REMARK SMILES IDX 69 77 70 78 71 79 72 80 51 81 52 82 60 83 53 84 59 85 54 86
REMARK SMILES IDX 55 87 56 88 57 89 58 90
REMARK H PARENT 16 7 23 27 79 46 49 57
REMARK Flexibility Score: inf
ROOT
ATOM      1  C   UNL A   1      35.398  23.316  26.129  1.00  0.00     0.002 C 
ENDROOT
BRANCH   1   2
ATOM      2  C   UNL A   1      35.096  21.842  26.431  1.00  0.00     0.021 C 
BRANCH   2   3
ATOM      3  C   UNL A   1      33.719  21.591  27.046  1.00  0.00     0.116 C 
BRANCH   3   4
ATOM      4  N   UNL A   1      33.258  20.238  26.796  1.00  0.00    -0.353 N 
ATOM      5  C   UNL A   1      32.864  19.682  25.615  1.00  0.00     0.257 C 
ATOM      6  O   UNL A   1      32.490  18.507  25.603  1.00  0.00    -0.271 OA
ATOM      7  H   UNL A   1      33.225  19.645  27.582  1.00  0.00     0.163 HD
BRANCH   5   8
ATOM      8  C   UNL A   1      32.954  20.507  24.326  1.00  0.00     0.329 C 
BRANCH   8   9
ATOM      9  O   UNL A   1      31.945  21.483  24.123  1.00  0.00    -0.484 OA
BRANCH   9  10
ATOM     10  C   UNL A   1      32.322  22.725  23.695  1.00  0.00     0.122 A 
ATOM     11  C   UNL A   1      32.604  25.145  23.863  1.00  0.00     0.041 A 
ATOM     12  C   UNL A   1      33.131  25.142  22.567  1.00  0.00     0.026 A 
ATOM     13  C   UNL A   1      32.198  23.918  24.410  1.00  0.00     0.072 A 
ATOM     14  C   UNL A   1      33.280  23.956  21.848  1.00  0.00     0.006 A 
ATOM     15  C   UNL A   1      32.874  22.750  22.414  1.00  0.00     0.046 A 
BRANCH  11  16
ATOM     16  N   UNL A   1      32.472  26.332  24.550  1.00  0.00    -0.369 N 
ATOM     17  C   UNL A   1      30.613  26.260  26.151  1.00  0.00     0.031 C 
ATOM     18  C   UNL A   1      31.183  26.931  24.906  1.00  0.00     0.079 C 
ATOM     19  C   UNL A   1      31.527  28.405  25.175  1.00  0.00     0.026 C 
ATOM     20  C   UNL A   1      32.788  28.641  24.357  1.00  0.00     0.023 C 
ATOM     21  C   UNL A   1      33.541  27.319  24.478  1.00  0.00     0.117 C 
ENDBRANCH  11  16
ENDBRANCH   9  10
ENDBRANCH   8   9
ENDBRANCH   5   8
ENDBRANCH   3   4
ENDBRANCH   2   3
ENDBRANCH   1   2
BRANCH   1  22
ATOM     22  C   UNL A   1      36.653  23.568  25.287  1.00  0.00     0.002 C 
BRANCH  22  23
ATOM     23  C   UNL A   1      37.976  23.201  25.963  1.00  0.00     0.021 C 
BRANCH  23  24
ATOM     24  C   UNL A   1      38.754  24.383  26.531  1.00  0.00     0.116 C 
BRANCH  24  25
ATOM     25  N   UNL A   1      39.981  24.640  25.794  1.00  0.00    -0.352 N 
ATOM     26  C   UNL A   1      40.925  25.616  25.983  1.00  0.00     0.251 C 
ATOM     27  H   UNL A   1      40.160  24.022  25.048  1.00  0.00     0.163 HD
ATOM     28  O   UNL A   1      41.799  25.794  25.136  1.00  0.00    -0.269 OA
BRANCH  26  29
ATOM     29  C   UNL A   1      40.881  26.469  27.191  1.00  0.00     0.039 A 
ATOM     30  C   UNL A   1      41.489  27.727  27.152  1.00  0.00     0.014 A 
ATOM     31  C   UNL A   1      40.256  26.031  28.363  1.00  0.00     0.014 A 
ATOM     32  C   UNL A   1      41.417  28.566  28.267  1.00  0.00     0.010 A 
ATOM     33  C   UNL A   1      40.119  26.898  29.445  1.00  0.00     0.010 A 
ATOM     34  C   UNL A   1      40.702  28.174  29.412  1.00  0.00    -0.014 A 
BRANCH  34  35
ATOM     35  C   UNL A   1      40.556  29.088  30.575  1.00  0.00     0.031 A 
ATOM     36  C   UNL A   1      41.423  28.915  31.794  1.00  0.00     0.074 A 
ATOM     37  C   UNL A   1      39.610  30.049  30.551  1.00  0.00     0.049 A 
ATOM     38  N   UNL A   1      41.415  29.593  32.913  1.00  0.00    -0.248 NA
ATOM     39  C   UNL A   1      42.415  27.826  31.760  1.00  0.00     0.031 C 
ATOM     40  C   UNL A   1      38.678  30.294  29.448  1.00  0.00     0.029 A 
ATOM     41  N   UNL A   1      39.272  30.997  31.485  1.00  0.00    -0.354 N 
ATOM     42  C   UNL A   1      42.390  29.011  33.716  1.00  0.00     0.074 A 
ATOM     43  C   UNL A   1      42.932  27.891  32.979  1.00  0.00     0.031 C 
ATOM     44  C   UNL A   1      37.895  31.341  29.756  1.00  0.00     0.029 A 
ATOM     45  C   UNL A   1      38.237  31.815  31.093  1.00  0.00     0.049 A 
ATOM     46  H   UNL A   1      39.727  31.085  32.353  1.00  0.00     0.167 HD
ATOM     47  C   UNL A   1      42.814  29.390  34.945  1.00  0.00     0.031 A 
ATOM     48  C   UNL A   1      37.623  32.826  31.738  1.00  0.00     0.031 A 
ATOM     49  C   UNL A   1      42.278  30.508  35.675  1.00  0.00     0.049 A 
ATOM     50  C   UNL A   1      38.099  33.213  33.113  1.00  0.00     0.074 A 
ATOM     51  C   UNL A   1      42.670  30.998  36.909  1.00  0.00     0.029 A 
ATOM     52  N   UNL A   1      41.236  31.313  35.241  1.00  0.00    -0.354 N 
ATOM     53  N   UNL A   1      39.066  32.690  33.828  1.00  0.00    -0.248 NA
ATOM     54  C   UNL A   1      37.409  34.336  33.764  1.00  0.00     0.031 C 
ATOM     55  C   UNL A   1      41.828  32.061  37.246  1.00  0.00     0.029 A 
ATOM     56  C   UNL A   1      40.957  32.279  36.193  1.00  0.00     0.049 A 
ATOM     57  H   UNL A   1      40.763  31.212  34.383  1.00  0.00     0.167 HD
ATOM     58  C   UNL A   1      39.121  33.441  34.997  1.00  0.00     0.074 A 
ATOM     59  C   UNL A   1      38.102  34.464  34.887  1.00  0.00     0.031 C 
ATOM     60  C   UNL A   1      39.942  33.296  36.068  1.00  0.00     0.031 A 
BRANCH  47  61
ATOM     61  C   UNL A   1      43.920  28.589  35.583  1.00  0.00    -0.014 A 
ATOM     62  C   UNL A   1      45.266  28.971  35.440  1.00  0.00     0.010 A 
ATOM     63  C   UNL A   1      43.608  27.479  36.390  1.00  0.00     0.010 A 
ATOM     64  C   UNL A   1      46.281  28.241  36.064  1.00  0.00     0.020 A 
ATOM     65  C   UNL A   1      44.618  26.765  37.041  1.00  0.00     0.020 A 
ATOM     66  C   UNL A   1      45.950  27.143  36.863  1.00  0.00     0.054 A 
BRANCH  66  67
ATOM     67  S   UNL A   1      47.286  26.241  37.694  1.00  0.00     0.124 S 
ATOM     68  O   UNL A   1      48.420  27.142  37.508  1.00  0.00    -0.237 OA
ATOM     69  O   UNL A   1      46.792  26.130  39.064  1.00  0.00    -0.237 OA
ATOM     70  O   UNL A   1      47.365  24.981  36.959  1.00  0.00    -0.744 OA
ENDBRANCH  66  67
ENDBRANCH  47  61
BRANCH  48  71
ATOM     71  C   UNL A   1      36.490  33.547  31.094  1.00  0.00    -0.014 A 
ATOM     72  C   UNL A   1      35.326  33.856  31.822  1.00  0.00     0.010 A 
ATOM     73  C   UNL A   1      36.566  33.922  29.740  1.00  0.00     0.010 A 
ATOM     74  C   UNL A   1      34.250  34.498  31.199  1.00  0.00     0.020 A 
ATOM     75  C   UNL A   1      35.506  34.592  29.124  1.00  0.00     0.020 A 
ATOM     76  C   UNL A   1      34.348  34.861  29.853  1.00  0.00     0.054 A 
BRANCH  76  77
ATOM     77  S   UNL A   1      32.952  35.718  29.073  1.00  0.00     0.124 S 
ATOM     78  O   UNL A   1      32.404  34.679  28.206  1.00  0.00    -0.237 OA
ATOM     79  O   UNL A   1      32.127  36.086  30.222  1.00  0.00    -0.237 OA
ATOM     80  O   UNL A   1      33.582  36.841  28.384  1.00  0.00    -0.744 OA
ENDBRANCH  76  77
ENDBRANCH  48  71
BRANCH  60  81
ATOM     81  C   UNL A   1      39.805  34.291  37.190  1.00  0.00    -0.014 A 
ATOM     82  C   UNL A   1      40.380  35.572  37.109  1.00  0.00     0.010 A 
ATOM     83  C   UNL A   1      39.037  33.957  38.321  1.00  0.00     0.010 A 
ATOM     84  C   UNL A   1      40.218  36.486  38.153  1.00  0.00     0.020 A 
ATOM     85  C   UNL A   1      38.845  34.879  39.351  1.00  0.00     0.020 A 
ATOM     86  C   UNL A   1      39.450  36.134  39.267  1.00  0.00     0.054 A 
BRANCH  86  87
ATOM     87  S   UNL A   1      39.217  37.356  40.587  1.00  0.00     0.124 S 
ATOM     88  O   UNL A   1      38.704  36.531  41.678  1.00  0.00    -0.237 OA
ATOM     89  O   UNL A   1      40.567  37.881  40.778  1.00  0.00    -0.237 OA
ATOM     90  O   UNL A   1      38.261  38.304  40.020  1.00  0.00    -0.744 OA
ENDBRANCH  86  87
ENDBRANCH  60  81
ENDBRANCH  34  35
ENDBRANCH  26  29
ENDBRANCH  24  25
ENDBRANCH  23  24
ENDBRANCH  22  23
ENDBRANCH   1  22
TORSDOF 19
ENDMDL
