MODEL 1
REMARK VINA RESULT:     -10.4      0.000      0.000
REMARK SMILES Cc1ccc([C@@H](C)Nc2ccccc2C(=O)NCCCCCCNC(=O)c2ccc(-c3c4nc(c(-c5ccc(S(=O)(=O)[O-])cc5)c5ccc([nH]5)c(-c5ccc(S(=O)(=O)[O-])cc5)c5nc(c(-c6ccc(S(=O)(=O)[O-])cc6)c6ccc3[nH]6)C=C5)C=C4)cc2)cc1F
REMARK SMILES IDX 20 1 19 2 18 3 17 4 15 5 16 6 14 8 9 9 10 10 11 11 13 12
REMARK SMILES IDX 12 13 8 14 6 16 7 17 5 18 1 19 2 20 3 21 88 22 4 23 87 24
REMARK SMILES IDX 89 25 21 26 22 27 23 28 24 29 25 30 26 32 27 33 28 34 86 35
REMARK SMILES IDX 29 36 85 37 30 38 31 39 32 40 79 41 33 42 84 43 78 44 80 45
REMARK SMILES IDX 34 46 83 47 77 48 76 49 35 51 65 52 46 53 64 54 47 55 50 56
REMARK SMILES IDX 63 57 81 58 48 59 49 60 62 62 82 63 51 64 36 65 37 66 45 67
REMARK SMILES IDX 38 68 44 69 39 70 40 71 41 72 42 73 43 74 66 75 67 76 75 77
REMARK SMILES IDX 68 78 74 79 69 80 70 81 71 82 72 83 73 84 52 85 53 86 61 87
REMARK SMILES IDX 54 88 60 89 55 90 56 91 57 92 58 93 59 94
REMARK H PARENT 17 7 8 15 24 31 80 50 50 61
REMARK Flexibility Score: inf
ROOT
ATOM      1  C   UNL A   1      32.857  23.619  26.611  1.00  0.00     0.002 C 
ENDROOT
BRANCH   1   2
ATOM      2  C   UNL A   1      31.369  24.010  26.626  1.00  0.00     0.021 C 
BRANCH   2   3
ATOM      3  C   UNL A   1      30.943  25.473  26.431  1.00  0.00     0.116 C 
BRANCH   3   4
ATOM      4  N   UNL A   1      29.841  25.686  25.513  1.00  0.00    -0.352 N 
ATOM      5  C   UNL A   1      29.823  25.690  24.134  1.00  0.00     0.253 C 
ATOM      6  O   UNL A   1      28.745  25.911  23.575  1.00  0.00    -0.269 OA
ATOM      7  H   UNL A   1      28.971  25.853  25.940  1.00  0.00     0.163 HD
BRANCH   5   8
ATOM      8  C   UNL A   1      31.039  25.529  23.284  1.00  0.00     0.062 A 
ATOM      9  C   UNL A   1      31.766  26.545  22.639  1.00  0.00     0.047 A 
ATOM     10  C   UNL A   1      32.794  26.149  21.748  1.00  0.00     0.026 A 
ATOM     11  C   UNL A   1      33.153  24.814  21.563  1.00  0.00     0.002 A 
ATOM     12  C   UNL A   1      31.453  24.184  23.133  1.00  0.00     0.016 A 
ATOM     13  C   UNL A   1      32.504  23.829  22.287  1.00  0.00     0.001 A 
BRANCH   9  14
ATOM     14  N   UNL A   1      31.647  27.919  22.836  1.00  0.00    -0.378 N 
ATOM     15  H   UNL A   1      32.158  28.521  22.247  1.00  0.00     0.161 HD
BRANCH  14  16
ATOM     16  C   UNL A   1      30.799  28.517  23.879  1.00  0.00     0.106 C 
ATOM     17  C   UNL A   1      29.999  29.716  23.390  1.00  0.00     0.036 C 
BRANCH  16  18
ATOM     18  C   UNL A   1      31.684  29.042  25.010  1.00  0.00    -0.023 A 
ATOM     19  C   UNL A   1      34.314  30.740  27.994  1.00  0.00     0.047 C 
ATOM     20  C   UNL A   1      33.391  30.164  26.965  1.00  0.00    -0.015 A 
ATOM     21  C   UNL A   1      32.250  30.853  26.539  1.00  0.00     0.007 A 
ATOM     22  C   UNL A   1      33.675  28.925  26.395  1.00  0.00     0.126 A 
ATOM     23  C   UNL A   1      31.403  30.296  25.577  1.00  0.00     0.006 A 
ATOM     24  C   UNL A   1      32.848  28.373  25.424  1.00  0.00     0.045 A 
ATOM     25  F   UNL A   1      34.776  28.253  26.759  1.00  0.00    -0.207 F 
ENDBRANCH  16  18
ENDBRANCH  14  16
ENDBRANCH   9  14
ENDBRANCH   5   8
ENDBRANCH   3   4
ENDBRANCH   2   3
ENDBRANCH   1   2
BRANCH   1  26
ATOM     26  C   UNL A   1      33.881  24.392  25.770  1.00  0.00     0.002 C 
BRANCH  26  27
ATOM     27  C   UNL A   1      35.030  23.613  25.137  1.00  0.00     0.021 C 
BRANCH  27  28
ATOM     28  C   UNL A   1      36.433  24.125  25.446  1.00  0.00     0.116 C 
BRANCH  28  29
ATOM     29  N   UNL A   1      37.412  23.058  25.592  1.00  0.00    -0.352 N 
ATOM     30  C   UNL A   1      38.672  23.078  26.146  1.00  0.00     0.251 C 
ATOM     31  H   UNL A   1      37.129  22.185  25.240  1.00  0.00     0.163 HD
ATOM     32  O   UNL A   1      39.387  22.087  26.046  1.00  0.00    -0.269 OA
BRANCH  30  33
ATOM     33  C   UNL A   1      39.179  24.286  26.841  1.00  0.00     0.039 A 
ATOM     34  C   UNL A   1      39.990  25.179  26.131  1.00  0.00     0.014 A 
ATOM     35  C   UNL A   1      38.896  24.532  28.186  1.00  0.00     0.014 A 
ATOM     36  C   UNL A   1      40.467  26.337  26.753  1.00  0.00     0.010 A 
ATOM     37  C   UNL A   1      39.301  25.725  28.780  1.00  0.00     0.010 A 
ATOM     38  C   UNL A   1      40.100  26.637  28.075  1.00  0.00    -0.014 A 
BRANCH  38  39
ATOM     39  C   UNL A   1      40.554  27.886  28.742  1.00  0.00     0.031 A 
ATOM     40  C   UNL A   1      41.940  27.966  29.327  1.00  0.00     0.074 A 
ATOM     41  C   UNL A   1      39.705  28.926  28.866  1.00  0.00     0.049 A 
ATOM     42  N   UNL A   1      42.496  28.941  30.001  1.00  0.00    -0.248 NA
ATOM     43  C   UNL A   1      42.806  26.788  29.157  1.00  0.00     0.031 C 
ATOM     44  C   UNL A   1      38.325  28.957  28.375  1.00  0.00     0.029 A 
ATOM     45  N   UNL A   1      39.875  30.157  29.450  1.00  0.00    -0.354 N 
ATOM     46  C   UNL A   1      43.767  28.491  30.341  1.00  0.00     0.074 A 
ATOM     47  C   UNL A   1      43.879  27.134  29.854  1.00  0.00     0.031 C 
ATOM     48  C   UNL A   1      37.787  30.155  28.652  1.00  0.00     0.029 A 
ATOM     49  C   UNL A   1      38.762  30.960  29.380  1.00  0.00     0.049 A 
ATOM     50  H   UNL A   1      40.716  30.438  29.878  1.00  0.00     0.167 HD
ATOM     51  C   UNL A   1      44.764  29.155  30.976  1.00  0.00     0.031 A 
ATOM     52  C   UNL A   1      38.545  32.202  29.857  1.00  0.00     0.031 A 
ATOM     53  C   UNL A   1      44.651  30.507  31.455  1.00  0.00     0.049 A 
ATOM     54  C   UNL A   1      39.658  32.908  30.586  1.00  0.00     0.074 A 
ATOM     55  C   UNL A   1      45.611  31.283  32.081  1.00  0.00     0.029 A 
ATOM     56  N   UNL A   1      43.507  31.287  31.358  1.00  0.00    -0.354 N 
ATOM     57  N   UNL A   1      40.871  32.484  30.847  1.00  0.00    -0.248 NA
ATOM     58  C   UNL A   1      39.375  34.266  31.072  1.00  0.00     0.031 C 
ATOM     59  C   UNL A   1      45.033  32.513  32.409  1.00  0.00     0.029 A 
ATOM     60  C   UNL A   1      43.733  32.528  31.930  1.00  0.00     0.049 A 
ATOM     61  H   UNL A   1      42.661  31.001  30.944  1.00  0.00     0.167 HD
ATOM     62  C   UNL A   1      41.507  33.536  31.500  1.00  0.00     0.074 A 
ATOM     63  C   UNL A   1      40.549  34.619  31.577  1.00  0.00     0.031 C 
ATOM     64  C   UNL A   1      42.769  33.598  31.993  1.00  0.00     0.031 A 
BRANCH  51  65
ATOM     65  C   UNL A   1      46.067  28.424  31.185  1.00  0.00    -0.014 A 
ATOM     66  C   UNL A   1      47.144  28.600  30.298  1.00  0.00     0.010 A 
ATOM     67  C   UNL A   1      46.232  27.585  32.300  1.00  0.00     0.010 A 
ATOM     68  C   UNL A   1      48.348  27.918  30.497  1.00  0.00     0.020 A 
ATOM     69  C   UNL A   1      47.446  26.925  32.523  1.00  0.00     0.020 A 
ATOM     70  C   UNL A   1      48.490  27.083  31.609  1.00  0.00     0.054 A 
BRANCH  70  71
ATOM     71  S   UNL A   1      50.071  26.231  31.856  1.00  0.00     0.124 S 
ATOM     72  O   UNL A   1      49.684  24.830  31.712  1.00  0.00    -0.237 OA
ATOM     73  O   UNL A   1      50.895  26.767  30.775  1.00  0.00    -0.237 OA
ATOM     74  O   UNL A   1      50.477  26.631  33.201  1.00  0.00    -0.744 OA
ENDBRANCH  70  71
ENDBRANCH  51  65
BRANCH  52  75
ATOM     75  C   UNL A   1      37.222  32.862  29.661  1.00  0.00    -0.014 A 
ATOM     76  C   UNL A   1      36.883  33.434  28.423  1.00  0.00     0.010 A 
ATOM     77  C   UNL A   1      36.296  32.926  30.718  1.00  0.00     0.010 A 
ATOM     78  C   UNL A   1      35.657  34.086  28.254  1.00  0.00     0.020 A 
ATOM     79  C   UNL A   1      35.056  33.548  30.544  1.00  0.00     0.020 A 
ATOM     80  C   UNL A   1      34.751  34.138  29.317  1.00  0.00     0.054 A 
BRANCH  80  81
ATOM     81  S   UNL A   1      33.153  34.961  29.066  1.00  0.00     0.124 S 
ATOM     82  O   UNL A   1      32.512  34.088  28.088  1.00  0.00    -0.237 OA
ATOM     83  O   UNL A   1      32.576  34.946  30.407  1.00  0.00    -0.237 OA
ATOM     84  O   UNL A   1      33.526  36.286  28.572  1.00  0.00    -0.744 OA
ENDBRANCH  80  81
ENDBRANCH  52  75
BRANCH  64  85
ATOM     85  C   UNL A   1      43.205  34.896  32.621  1.00  0.00    -0.014 A 
ATOM     86  C   UNL A   1      43.743  35.939  31.847  1.00  0.00     0.010 A 
ATOM     87  C   UNL A   1      43.020  35.092  34.002  1.00  0.00     0.010 A 
ATOM     88  C   UNL A   1      44.121  37.142  32.449  1.00  0.00     0.020 A 
ATOM     89  C   UNL A   1      43.366  36.305  34.602  1.00  0.00     0.020 A 
ATOM     90  C   UNL A   1      43.928  37.318  33.823  1.00  0.00     0.054 A 
BRANCH  90  91
ATOM     91  S   UNL A   1      44.383  38.906  34.571  1.00  0.00     0.124 S 
ATOM     92  O   UNL A   1      44.103  38.667  35.985  1.00  0.00    -0.237 OA
ATOM     93  O   UNL A   1      45.797  39.029  34.223  1.00  0.00    -0.237 OA
ATOM     94  O   UNL A   1      43.499  39.866  33.916  1.00  0.00    -0.744 OA
ENDBRANCH  90  91
ENDBRANCH  64  85
ENDBRANCH  38  39
ENDBRANCH  30  33
ENDBRANCH  28  29
ENDBRANCH  27  28
ENDBRANCH  26  27
ENDBRANCH   1  26
TORSDOF 19
ENDMDL
MODEL 2
REMARK VINA RESULT:     -10.3      3.283      9.063
REMARK SMILES Cc1ccc([C@@H](C)Nc2ccccc2C(=O)NCCCCCCNC(=O)c2ccc(-c3c4nc(c(-c5ccc(S(=O)(=O)[O-])cc5)c5ccc([nH]5)c(-c5ccc(S(=O)(=O)[O-])cc5)c5nc(c(-c6ccc(S(=O)(=O)[O-])cc6)c6ccc3[nH]6)C=C5)C=C4)cc2)cc1F
REMARK SMILES IDX 20 1 19 2 18 3 17 4 15 5 16 6 14 8 9 9 10 10 11 11 13 12
REMARK SMILES IDX 12 13 8 14 6 16 7 17 5 18 1 19 2 20 3 21 88 22 4 23 87 24
REMARK SMILES IDX 89 25 21 26 22 27 23 28 24 29 25 30 26 32 27 33 28 34 86 35
REMARK SMILES IDX 29 36 85 37 30 38 31 39 32 40 79 41 33 42 84 43 78 44 80 45
REMARK SMILES IDX 34 46 83 47 77 48 76 49 35 51 65 52 46 53 64 54 47 55 50 56
REMARK SMILES IDX 63 57 81 58 48 59 49 60 62 62 82 63 51 64 36 65 37 66 45 67
REMARK SMILES IDX 38 68 44 69 39 70 40 71 41 72 42 73 43 74 66 75 67 76 75 77
REMARK SMILES IDX 68 78 74 79 69 80 70 81 71 82 72 83 73 84 52 85 53 86 61 87
REMARK SMILES IDX 54 88 60 89 55 90 56 91 57 92 58 93 59 94
REMARK H PARENT 17 7 8 15 24 31 80 50 50 61
REMARK Flexibility Score: inf
ROOT
ATOM      1  C   UNL A   1      32.535  25.972  26.092  1.00  0.00     0.002 C 
ENDROOT
BRANCH   1   2
ATOM      2  C   UNL A   1      33.819  25.583  25.339  1.00  0.00     0.021 C 
BRANCH   2   3
ATOM      3  C   UNL A   1      34.565  24.285  25.683  1.00  0.00     0.116 C 
BRANCH   3   4
ATOM      4  N   UNL A   1      34.038  23.539  26.809  1.00  0.00    -0.352 N 
ATOM      5  C   UNL A   1      33.489  22.275  26.858  1.00  0.00     0.253 C 
ATOM      6  O   UNL A   1      33.097  21.862  27.952  1.00  0.00    -0.269 OA
ATOM      7  H   UNL A   1      34.078  24.009  27.672  1.00  0.00     0.163 HD
BRANCH   5   8
ATOM      8  C   UNL A   1      33.267  21.417  25.657  1.00  0.00     0.062 A 
ATOM      9  C   UNL A   1      32.446  21.698  24.551  1.00  0.00     0.047 A 
ATOM     10  C   UNL A   1      32.255  20.667  23.599  1.00  0.00     0.026 A 
ATOM     11  C   UNL A   1      32.911  19.439  23.681  1.00  0.00     0.002 A 
ATOM     12  C   UNL A   1      33.972  20.190  25.697  1.00  0.00     0.016 A 
ATOM     13  C   UNL A   1      33.803  19.212  24.716  1.00  0.00     0.001 A 
BRANCH   9  14
ATOM     14  N   UNL A   1      31.853  22.918  24.233  1.00  0.00    -0.378 N 
ATOM     15  H   UNL A   1      31.427  23.433  24.957  1.00  0.00     0.161 HD
BRANCH  14  16
ATOM     16  C   UNL A   1      31.831  23.478  22.873  1.00  0.00     0.106 C 
ATOM     17  C   UNL A   1      33.218  23.727  22.301  1.00  0.00     0.036 C 
BRANCH  16  18
ATOM     18  C   UNL A   1      31.143  24.844  22.901  1.00  0.00    -0.023 A 
ATOM     19  C   UNL A   1      29.433  28.805  23.187  1.00  0.00     0.047 C 
ATOM     20  C   UNL A   1      30.035  27.440  23.074  1.00  0.00    -0.015 A 
ATOM     21  C   UNL A   1      31.195  27.212  22.326  1.00  0.00     0.007 A 
ATOM     22  C   UNL A   1      29.449  26.367  23.743  1.00  0.00     0.126 A 
ATOM     23  C   UNL A   1      31.740  25.927  22.236  1.00  0.00     0.006 A 
ATOM     24  C   UNL A   1      29.995  25.091  23.673  1.00  0.00     0.045 A 
ATOM     25  F   UNL A   1      28.354  26.556  24.491  1.00  0.00    -0.207 F 
ENDBRANCH  16  18
ENDBRANCH  14  16
ENDBRANCH   9  14
ENDBRANCH   5   8
ENDBRANCH   3   4
ENDBRANCH   2   3
ENDBRANCH   1   2
BRANCH   1  26
ATOM     26  C   UNL A   1      32.109  27.438  26.245  1.00  0.00     0.002 C 
BRANCH  26  27
ATOM     27  C   UNL A   1      32.840  28.491  25.415  1.00  0.00     0.021 C 
BRANCH  27  28
ATOM     28  C   UNL A   1      34.027  29.167  26.094  1.00  0.00     0.116 C 
BRANCH  28  29
ATOM     29  N   UNL A   1      33.712  30.488  26.616  1.00  0.00    -0.352 N 
ATOM     30  C   UNL A   1      34.316  31.217  27.615  1.00  0.00     0.251 C 
ATOM     31  H   UNL A   1      32.946  30.932  26.186  1.00  0.00     0.163 HD
ATOM     32  O   UNL A   1      33.802  32.265  27.987  1.00  0.00    -0.269 OA
BRANCH  30  33
ATOM     33  C   UNL A   1      35.563  30.738  28.259  1.00  0.00     0.039 A 
ATOM     34  C   UNL A   1      36.782  31.299  27.862  1.00  0.00     0.014 A 
ATOM     35  C   UNL A   1      35.550  29.723  29.218  1.00  0.00     0.014 A 
ATOM     36  C   UNL A   1      37.973  30.883  28.465  1.00  0.00     0.010 A 
ATOM     37  C   UNL A   1      36.725  29.368  29.876  1.00  0.00     0.010 A 
ATOM     38  C   UNL A   1      37.952  29.935  29.501  1.00  0.00    -0.014 A 
BRANCH  38  39
ATOM     39  C   UNL A   1      39.200  29.511  30.190  1.00  0.00     0.031 A 
ATOM     40  C   UNL A   1      39.660  30.234  31.429  1.00  0.00     0.074 A 
ATOM     41  C   UNL A   1      39.944  28.513  29.673  1.00  0.00     0.049 A 
ATOM     42  N   UNL A   1      40.750  30.056  32.133  1.00  0.00    -0.248 NA
ATOM     43  C   UNL A   1      38.797  31.317  31.929  1.00  0.00     0.031 C 
ATOM     44  C   UNL A   1      39.626  27.760  28.457  1.00  0.00     0.029 A 
ATOM     45  N   UNL A   1      41.127  27.963  30.101  1.00  0.00    -0.354 N 
ATOM     46  C   UNL A   1      40.707  31.005  33.147  1.00  0.00     0.074 A 
ATOM     47  C   UNL A   1      39.516  31.798  32.933  1.00  0.00     0.031 C 
ATOM     48  C   UNL A   1      40.572  26.829  28.255  1.00  0.00     0.029 A 
ATOM     49  C   UNL A   1      41.588  26.948  29.296  1.00  0.00     0.049 A 
ATOM     50  H   UNL A   1      41.601  28.266  30.909  1.00  0.00     0.167 HD
ATOM     51  C   UNL A   1      41.563  31.186  34.182  1.00  0.00     0.031 A 
ATOM     52  C   UNL A   1      42.708  26.202  29.379  1.00  0.00     0.031 A 
ATOM     53  C   UNL A   1      42.744  30.391  34.394  1.00  0.00     0.049 A 
ATOM     54  C   UNL A   1      43.660  26.441  30.520  1.00  0.00     0.074 A 
ATOM     55  C   UNL A   1      43.661  30.470  35.428  1.00  0.00     0.029 A 
ATOM     56  N   UNL A   1      43.172  29.369  33.558  1.00  0.00    -0.354 N 
ATOM     57  N   UNL A   1      43.571  27.308  31.501  1.00  0.00    -0.248 NA
ATOM     58  C   UNL A   1      44.858  25.591  30.574  1.00  0.00     0.031 C 
ATOM     59  C   UNL A   1      44.669  29.531  35.190  1.00  0.00     0.029 A 
ATOM     60  C   UNL A   1      44.348  28.823  34.043  1.00  0.00     0.049 A 
ATOM     61  H   UNL A   1      42.706  29.077  32.742  1.00  0.00     0.167 HD
ATOM     62  C   UNL A   1      44.685  27.086  32.305  1.00  0.00     0.074 A 
ATOM     63  C   UNL A   1      45.421  25.992  31.705  1.00  0.00     0.031 C 
ATOM     64  C   UNL A   1      45.065  27.730  33.436  1.00  0.00     0.031 A 
BRANCH  51  65
ATOM     65  C   UNL A   1      41.250  32.285  35.165  1.00  0.00    -0.014 A 
ATOM     66  C   UNL A   1      40.444  32.039  36.291  1.00  0.00     0.010 A 
ATOM     67  C   UNL A   1      41.796  33.568  34.986  1.00  0.00     0.010 A 
ATOM     68  C   UNL A   1      40.156  33.064  37.197  1.00  0.00     0.020 A 
ATOM     69  C   UNL A   1      41.538  34.590  35.906  1.00  0.00     0.020 A 
ATOM     70  C   UNL A   1      40.705  34.334  36.997  1.00  0.00     0.054 A 
BRANCH  70  71
ATOM     71  S   UNL A   1      40.334  35.637  38.203  1.00  0.00     0.124 S 
ATOM     72  O   UNL A   1      39.824  36.704  37.345  1.00  0.00    -0.237 OA
ATOM     73  O   UNL A   1      39.344  35.000  39.067  1.00  0.00    -0.237 OA
ATOM     74  O   UNL A   1      41.624  35.907  38.832  1.00  0.00    -0.744 OA
ENDBRANCH  70  71
ENDBRANCH  51  65
BRANCH  52  75
ATOM     75  C   UNL A   1      42.992  25.157  28.354  1.00  0.00    -0.014 A 
ATOM     76  C   UNL A   1      42.572  23.829  28.548  1.00  0.00     0.010 A 
ATOM     77  C   UNL A   1      43.692  25.485  27.179  1.00  0.00     0.010 A 
ATOM     78  C   UNL A   1      42.874  22.844  27.603  1.00  0.00     0.020 A 
ATOM     79  C   UNL A   1      43.967  24.510  26.216  1.00  0.00     0.020 A 
ATOM     80  C   UNL A   1      43.570  23.191  26.442  1.00  0.00     0.054 A 
BRANCH  80  81
ATOM     81  S   UNL A   1      43.924  21.902  25.214  1.00  0.00     0.124 S 
ATOM     82  O   UNL A   1      42.887  20.917  25.502  1.00  0.00    -0.237 OA
ATOM     83  O   UNL A   1      43.783  22.622  23.952  1.00  0.00    -0.237 OA
ATOM     84  O   UNL A   1      45.288  21.488  25.538  1.00  0.00    -0.744 OA
ENDBRANCH  80  81
ENDBRANCH  52  75
BRANCH  64  85
ATOM     85  C   UNL A   1      46.310  27.241  34.128  1.00  0.00    -0.014 A 
ATOM     86  C   UNL A   1      46.269  26.174  35.042  1.00  0.00     0.010 A 
ATOM     87  C   UNL A   1      47.551  27.826  33.813  1.00  0.00     0.010 A 
ATOM     88  C   UNL A   1      47.441  25.723  35.655  1.00  0.00     0.020 A 
ATOM     89  C   UNL A   1      48.729  27.358  34.399  1.00  0.00     0.020 A 
ATOM     90  C   UNL A   1      48.664  26.317  35.328  1.00  0.00     0.054 A 
BRANCH  90  91
ATOM     91  S   UNL A   1      50.176  25.683  36.103  1.00  0.00     0.124 S 
ATOM     92  O   UNL A   1      49.943  25.983  37.513  1.00  0.00    -0.237 OA
ATOM     93  O   UNL A   1      50.147  24.266  35.748  1.00  0.00    -0.237 OA
ATOM     94  O   UNL A   1      51.242  26.457  35.471  1.00  0.00    -0.744 OA
ENDBRANCH  90  91
ENDBRANCH  64  85
ENDBRANCH  38  39
ENDBRANCH  30  33
ENDBRANCH  28  29
ENDBRANCH  27  28
ENDBRANCH  26  27
ENDBRANCH   1  26
TORSDOF 19
ENDMDL
MODEL 3
REMARK VINA RESULT:     -10.3      3.328      9.289
REMARK SMILES Cc1ccc([C@@H](C)Nc2ccccc2C(=O)NCCCCCCNC(=O)c2ccc(-c3c4nc(c(-c5ccc(S(=O)(=O)[O-])cc5)c5ccc([nH]5)c(-c5ccc(S(=O)(=O)[O-])cc5)c5nc(c(-c6ccc(S(=O)(=O)[O-])cc6)c6ccc3[nH]6)C=C5)C=C4)cc2)cc1F
REMARK SMILES IDX 20 1 19 2 18 3 17 4 15 5 16 6 14 8 9 9 10 10 11 11 13 12
REMARK SMILES IDX 12 13 8 14 6 16 7 17 5 18 1 19 2 20 3 21 88 22 4 23 87 24
REMARK SMILES IDX 89 25 21 26 22 27 23 28 24 29 25 30 26 32 27 33 28 34 86 35
REMARK SMILES IDX 29 36 85 37 30 38 31 39 32 40 79 41 33 42 84 43 78 44 80 45
REMARK SMILES IDX 34 46 83 47 77 48 76 49 35 51 65 52 46 53 64 54 47 55 50 56
REMARK SMILES IDX 63 57 81 58 48 59 49 60 62 62 82 63 51 64 36 65 37 66 45 67
REMARK SMILES IDX 38 68 44 69 39 70 40 71 41 72 42 73 43 74 66 75 67 76 75 77
REMARK SMILES IDX 68 78 74 79 69 80 70 81 71 82 72 83 73 84 52 85 53 86 61 87
REMARK SMILES IDX 54 88 60 89 55 90 56 91 57 92 58 93 59 94
REMARK H PARENT 17 7 8 15 24 31 80 50 50 61
REMARK Flexibility Score: inf
ROOT
ATOM      1  C   UNL A   1      33.222  25.446  26.092  1.00  0.00     0.002 C 
ENDROOT
BRANCH   1   2
ATOM      2  C   UNL A   1      31.981  24.542  26.194  1.00  0.00     0.021 C 
BRANCH   2   3
ATOM      3  C   UNL A   1      31.205  24.132  24.933  1.00  0.00     0.116 C 
BRANCH   3   4
ATOM      4  N   UNL A   1      31.945  24.216  23.689  1.00  0.00    -0.352 N 
ATOM      5  C   UNL A   1      32.824  23.320  23.117  1.00  0.00     0.253 C 
ATOM      6  O   UNL A   1      33.341  23.632  22.040  1.00  0.00    -0.269 OA
ATOM      7  H   UNL A   1      31.796  25.039  23.172  1.00  0.00     0.163 HD
BRANCH   5   8
ATOM      8  C   UNL A   1      33.249  22.043  23.761  1.00  0.00     0.062 A 
ATOM      9  C   UNL A   1      34.366  21.840  24.591  1.00  0.00     0.047 A 
ATOM     10  C   UNL A   1      34.672  20.507  24.961  1.00  0.00     0.026 A 
ATOM     11  C   UNL A   1      33.866  19.425  24.605  1.00  0.00     0.002 A 
ATOM     12  C   UNL A   1      32.409  20.946  23.457  1.00  0.00     0.016 A 
ATOM     13  C   UNL A   1      32.709  19.650  23.880  1.00  0.00     0.001 A 
BRANCH   9  14
ATOM     14  N   UNL A   1      35.173  22.818  25.168  1.00  0.00    -0.378 N 
ATOM     15  H   UNL A   1      34.922  23.166  26.055  1.00  0.00     0.161 HD
BRANCH  14  16
ATOM     16  C   UNL A   1      36.381  23.356  24.523  1.00  0.00     0.106 C 
ATOM     17  C   UNL A   1      36.574  22.861  23.098  1.00  0.00     0.036 C 
BRANCH  16  18
ATOM     18  C   UNL A   1      37.616  22.887  25.296  1.00  0.00    -0.023 A 
ATOM     19  C   UNL A   1      40.905  21.395  27.674  1.00  0.00     0.047 C 
ATOM     20  C   UNL A   1      39.767  21.897  26.840  1.00  0.00    -0.015 A 
ATOM     21  C   UNL A   1      39.106  21.066  25.930  1.00  0.00     0.007 A 
ATOM     22  C   UNL A   1      39.334  23.214  26.980  1.00  0.00     0.126 A 
ATOM     23  C   UNL A   1      38.046  21.557  25.162  1.00  0.00     0.006 A 
ATOM     24  C   UNL A   1      38.269  23.704  26.234  1.00  0.00     0.045 A 
ATOM     25  F   UNL A   1      39.927  24.028  27.864  1.00  0.00    -0.207 F 
ENDBRANCH  16  18
ENDBRANCH  14  16
ENDBRANCH   9  14
ENDBRANCH   5   8
ENDBRANCH   3   4
ENDBRANCH   2   3
ENDBRANCH   1   2
BRANCH   1  26
ATOM     26  C   UNL A   1      33.116  26.902  25.624  1.00  0.00     0.002 C 
BRANCH  26  27
ATOM     27  C   UNL A   1      33.330  28.008  26.654  1.00  0.00     0.021 C 
BRANCH  27  28
ATOM     28  C   UNL A   1      34.297  29.117  26.250  1.00  0.00     0.116 C 
BRANCH  28  29
ATOM     29  N   UNL A   1      33.927  30.420  26.781  1.00  0.00    -0.352 N 
ATOM     30  C   UNL A   1      34.496  31.163  27.790  1.00  0.00     0.251 C 
ATOM     31  H   UNL A   1      33.147  30.837  26.350  1.00  0.00     0.163 HD
ATOM     32  O   UNL A   1      33.939  32.188  28.168  1.00  0.00    -0.269 OA
BRANCH  30  33
ATOM     33  C   UNL A   1      35.758  30.729  28.436  1.00  0.00     0.039 A 
ATOM     34  C   UNL A   1      36.938  31.422  28.142  1.00  0.00     0.014 A 
ATOM     35  C   UNL A   1      35.800  29.630  29.297  1.00  0.00     0.014 A 
ATOM     36  C   UNL A   1      38.140  31.048  28.751  1.00  0.00     0.010 A 
ATOM     37  C   UNL A   1      36.979  29.310  29.966  1.00  0.00     0.010 A 
ATOM     38  C   UNL A   1      38.165  30.008  29.694  1.00  0.00    -0.014 A 
BRANCH  38  39
ATOM     39  C   UNL A   1      39.421  29.624  30.391  1.00  0.00     0.031 A 
ATOM     40  C   UNL A   1      39.835  30.340  31.650  1.00  0.00     0.074 A 
ATOM     41  C   UNL A   1      40.214  28.668  29.864  1.00  0.00     0.049 A 
ATOM     42  N   UNL A   1      40.923  30.194  32.364  1.00  0.00    -0.248 NA
ATOM     43  C   UNL A   1      38.921  31.375  32.160  1.00  0.00     0.031 C 
ATOM     44  C   UNL A   1      39.942  27.927  28.629  1.00  0.00     0.029 A 
ATOM     45  N   UNL A   1      41.414  28.160  30.296  1.00  0.00    -0.354 N 
ATOM     46  C   UNL A   1      40.827  31.120  33.396  1.00  0.00     0.074 A 
ATOM     47  C   UNL A   1      39.607  31.866  33.182  1.00  0.00     0.031 C 
ATOM     48  C   UNL A   1      40.930  27.042  28.421  1.00  0.00     0.029 A 
ATOM     49  C   UNL A   1      41.927  27.182  29.477  1.00  0.00     0.049 A 
ATOM     50  H   UNL A   1      41.864  28.467  31.116  1.00  0.00     0.167 HD
ATOM     51  C   UNL A   1      41.663  31.315  34.445  1.00  0.00     0.031 A 
ATOM     52  C   UNL A   1      43.077  26.483  29.560  1.00  0.00     0.031 A 
ATOM     53  C   UNL A   1      42.874  30.567  34.657  1.00  0.00     0.049 A 
ATOM     54  C   UNL A   1      44.004  26.739  30.718  1.00  0.00     0.074 A 
ATOM     55  C   UNL A   1      43.774  30.664  35.704  1.00  0.00     0.029 A 
ATOM     56  N   UNL A   1      43.354  29.582  33.807  1.00  0.00    -0.354 N 
ATOM     57  N   UNL A   1      43.866  27.581  31.714  1.00  0.00    -0.248 NA
ATOM     58  C   UNL A   1      45.236  25.939  30.770  1.00  0.00     0.031 C 
ATOM     59  C   UNL A   1      44.824  29.773  35.461  1.00  0.00     0.029 A 
ATOM     60  C   UNL A   1      44.547  29.076  34.296  1.00  0.00     0.049 A 
ATOM     61  H   UNL A   1      42.912  29.286  32.978  1.00  0.00     0.167 HD
ATOM     62  C   UNL A   1      44.979  27.390  32.528  1.00  0.00     0.074 A 
ATOM     63  C   UNL A   1      45.768  26.341  31.916  1.00  0.00     0.031 C 
ATOM     64  C   UNL A   1      45.317  28.026  33.677  1.00  0.00     0.031 A 
BRANCH  51  65
ATOM     65  C   UNL A   1      41.291  32.380  35.446  1.00  0.00    -0.014 A 
ATOM     66  C   UNL A   1      41.715  33.711  35.277  1.00  0.00     0.010 A 
ATOM     67  C   UNL A   1      40.476  32.060  36.546  1.00  0.00     0.010 A 
ATOM     68  C   UNL A   1      41.366  34.692  36.209  1.00  0.00     0.020 A 
ATOM     69  C   UNL A   1      40.097  33.044  37.465  1.00  0.00     0.020 A 
ATOM     70  C   UNL A   1      40.561  34.351  37.299  1.00  0.00     0.054 A 
BRANCH  70  71
ATOM     71  S   UNL A   1      40.105  35.650  38.479  1.00  0.00     0.124 S 
ATOM     72  O   UNL A   1      41.321  35.770  39.280  1.00  0.00    -0.237 OA
ATOM     73  O   UNL A   1      39.813  36.785  37.608  1.00  0.00    -0.237 OA
ATOM     74  O   UNL A   1      38.950  35.094  39.180  1.00  0.00    -0.744 OA
ENDBRANCH  70  71
ENDBRANCH  51  65
BRANCH  52  75
ATOM     75  C   UNL A   1      43.417  25.472  28.518  1.00  0.00    -0.014 A 
ATOM     76  C   UNL A   1      43.918  25.872  27.267  1.00  0.00     0.010 A 
ATOM     77  C   UNL A   1      43.235  24.100  28.772  1.00  0.00     0.010 A 
ATOM     78  C   UNL A   1      44.200  24.923  26.279  1.00  0.00     0.020 A 
ATOM     79  C   UNL A   1      43.547  23.147  27.798  1.00  0.00     0.020 A 
ATOM     80  C   UNL A   1      44.012  23.566  26.552  1.00  0.00     0.054 A 
BRANCH  80  81
ATOM     81  S   UNL A   1      44.414  22.350  25.265  1.00  0.00     0.124 S 
ATOM     82  O   UNL A   1      43.850  21.124  25.820  1.00  0.00    -0.237 OA
ATOM     83  O   UNL A   1      43.729  22.892  24.095  1.00  0.00    -0.237 OA
ATOM     84  O   UNL A   1      45.874  22.394  25.199  1.00  0.00    -0.744 OA
ENDBRANCH  80  81
ENDBRANCH  52  75
BRANCH  64  85
ATOM     85  C   UNL A   1      46.574  27.577  34.375  1.00  0.00    -0.014 A 
ATOM     86  C   UNL A   1      47.807  28.208  34.141  1.00  0.00     0.010 A 
ATOM     87  C   UNL A   1      46.504  26.539  35.323  1.00  0.00     0.010 A 
ATOM     88  C   UNL A   1      48.956  27.787  34.817  1.00  0.00     0.020 A 
ATOM     89  C   UNL A   1      47.643  26.137  36.025  1.00  0.00     0.020 A 
ATOM     90  C   UNL A   1      48.865  26.755  35.757  1.00  0.00     0.054 A 
BRANCH  90  91
ATOM     91  S   UNL A   1      50.361  26.259  36.654  1.00  0.00     0.124 S 
ATOM     92  O   UNL A   1      50.818  25.113  35.872  1.00  0.00    -0.237 OA
ATOM     93  O   UNL A   1      51.197  27.454  36.566  1.00  0.00    -0.237 OA
ATOM     94  O   UNL A   1      49.873  25.943  37.994  1.00  0.00    -0.744 OA
ENDBRANCH  90  91
ENDBRANCH  64  85
ENDBRANCH  38  39
ENDBRANCH  30  33
ENDBRANCH  28  29
ENDBRANCH  27  28
ENDBRANCH  26  27
ENDBRANCH   1  26
TORSDOF 19
ENDMDL
