MODEL 1
REMARK VINA RESULT:     -11.6      0.000      0.000
REMARK SMILES Cc1ccccc1NC(=O)C[NH+]1CCC(CC(=O)NCCCCCCNC(=O)c2ccc(-c3c4nc(c(-c5ccc(S(=O)(=O)[O-])cc5)c5ccc([nH]5)c(-c5ccc(S(=O)(=O)[O-])cc5)c5nc(c(-c6ccc(S(=O)(=O)[O-])cc6)c6ccc3[nH]6)C=C5)C=C4)cc2)CC1
REMARK SMILES IDX 22 1 21 2 20 3 19 4 17 5 18 6 16 8 15 9 12 10 13 11 90 12
REMARK SMILES IDX 14 14 89 15 11 16 9 17 8 18 10 20 7 21 1 22 2 23 3 24 4 25
REMARK SMILES IDX 6 26 5 27 23 28 24 29 25 30 26 31 27 32 28 34 29 35 30 36
REMARK SMILES IDX 88 37 31 38 87 39 32 40 33 41 34 42 81 43 35 44 86 45 80 46
REMARK SMILES IDX 82 47 36 48 85 49 79 50 78 51 37 53 67 54 48 55 66 56 49 57
REMARK SMILES IDX 52 58 65 59 83 60 50 61 51 62 64 64 84 65 53 66 38 67 39 68
REMARK SMILES IDX 47 69 40 70 46 71 41 72 42 73 43 74 44 75 45 76 68 77 69 78
REMARK SMILES IDX 77 79 70 80 76 81 71 82 72 83 73 84 74 85 75 86 54 87 55 88
REMARK SMILES IDX 63 89 56 90 62 91 57 92 58 93 59 94 60 95 61 96
REMARK H PARENT 19 7 12 13 8 19 26 33 82 52 52 63
REMARK Flexibility Score: inf
ROOT
ATOM      1  C   UNL A   1      41.021  21.916  26.649  1.00  0.00     0.002 C 
ENDROOT
BRANCH   1   2
ATOM      2  C   UNL A   1      39.641  21.457  26.175  1.00  0.00     0.021 C 
BRANCH   2   3
ATOM      3  C   UNL A   1      38.537  22.519  26.228  1.00  0.00     0.116 C 
BRANCH   3   4
ATOM      4  N   UNL A   1      37.956  22.769  24.916  1.00  0.00    -0.356 N 
ATOM      5  C   UNL A   1      36.943  22.125  24.267  1.00  0.00     0.220 C 
ATOM      6  O   UNL A   1      36.630  22.494  23.134  1.00  0.00    -0.275 OA
ATOM      7  H   UNL A   1      38.357  23.519  24.420  1.00  0.00     0.163 HD
BRANCH   5   8
ATOM      8  C   UNL A   1      36.211  20.977  24.937  1.00  0.00     0.104 C 
BRANCH   8   9
ATOM      9  C   UNL A   1      34.792  21.329  25.411  1.00  0.00     0.009 C 
ATOM     10  N   UNL A   1      32.215  22.657  24.917  1.00  0.00    -0.327 N 
ATOM     11  C   UNL A   1      33.124  23.200  25.927  1.00  0.00     0.262 C 
ATOM     12  C   UNL A   1      32.350  21.209  24.794  1.00  0.00     0.262 C 
ATOM     13  H   UNL A   1      32.497  23.038  24.014  1.00  0.00     0.348 HD
ATOM     14  C   UNL A   1      34.569  22.831  25.603  1.00  0.00     0.066 C 
ATOM     15  C   UNL A   1      33.767  20.798  24.402  1.00  0.00     0.066 C 
BRANCH  10  16
ATOM     16  C   UNL A   1      30.815  23.122  25.099  1.00  0.00     0.363 C 
BRANCH  16  17
ATOM     17  C   UNL A   1      30.521  23.888  26.399  1.00  0.00     0.279 C 
ATOM     18  N   UNL A   1      30.383  25.246  26.467  1.00  0.00    -0.321 N 
ATOM     19  H   UNL A   1      30.200  25.595  27.370  1.00  0.00     0.170 HD
ATOM     20  O   UNL A   1      30.297  23.261  27.443  1.00  0.00    -0.268 OA
BRANCH  18  21
ATOM     21  C   UNL A   1      30.460  26.222  25.468  1.00  0.00     0.044 A 
ATOM     22  C   UNL A   1      32.605  27.164  26.534  1.00  0.00     0.046 C 
ATOM     23  C   UNL A   1      31.484  27.190  25.530  1.00  0.00    -0.027 A 
ATOM     24  C   UNL A   1      31.442  28.275  24.635  1.00  0.00     0.005 A 
ATOM     25  C   UNL A   1      30.429  28.384  23.683  1.00  0.00     0.000 A 
ATOM     26  C   UNL A   1      29.507  26.291  24.446  1.00  0.00     0.026 A 
ATOM     27  C   UNL A   1      29.479  27.376  23.570  1.00  0.00     0.002 A 
ENDBRANCH  18  21
ENDBRANCH  16  17
ENDBRANCH  10  16
ENDBRANCH   8   9
ENDBRANCH   5   8
ENDBRANCH   3   4
ENDBRANCH   2   3
ENDBRANCH   1   2
BRANCH   1  28
ATOM     28  C   UNL A   1      41.128  23.357  27.170  1.00  0.00     0.002 C 
BRANCH  28  29
ATOM     29  C   UNL A   1      42.095  24.285  26.431  1.00  0.00     0.021 C 
BRANCH  29  30
ATOM     30  C   UNL A   1      41.780  25.764  26.559  1.00  0.00     0.116 C 
BRANCH  30  31
ATOM     31  N   UNL A   1      42.882  26.668  26.262  1.00  0.00    -0.352 N 
ATOM     32  C   UNL A   1      42.559  27.907  25.710  1.00  0.00     0.251 C 
ATOM     33  H   UNL A   1      43.816  26.414  26.442  1.00  0.00     0.163 HD
ATOM     34  O   UNL A   1      42.453  28.145  24.520  1.00  0.00    -0.269 OA
BRANCH  32  35
ATOM     35  C   UNL A   1      42.030  28.844  26.724  1.00  0.00     0.039 A 
ATOM     36  C   UNL A   1      42.869  29.646  27.494  1.00  0.00     0.014 A 
ATOM     37  C   UNL A   1      40.684  28.666  27.056  1.00  0.00     0.014 A 
ATOM     38  C   UNL A   1      42.383  30.173  28.692  1.00  0.00     0.010 A 
ATOM     39  C   UNL A   1      40.243  29.095  28.284  1.00  0.00     0.010 A 
ATOM     40  C   UNL A   1      41.101  29.821  29.118  1.00  0.00    -0.014 A 
BRANCH  40  41
ATOM     41  C   UNL A   1      40.537  30.124  30.426  1.00  0.00     0.031 A 
ATOM     42  C   UNL A   1      39.830  31.406  30.633  1.00  0.00     0.074 A 
ATOM     43  C   UNL A   1      40.465  29.145  31.355  1.00  0.00     0.049 A 
ATOM     44  N   UNL A   1      39.508  31.893  31.784  1.00  0.00    -0.248 NA
ATOM     45  C   UNL A   1      39.469  32.282  29.522  1.00  0.00     0.031 C 
ATOM     46  C   UNL A   1      39.589  29.105  32.522  1.00  0.00     0.029 A 
ATOM     47  N   UNL A   1      41.340  28.076  31.555  1.00  0.00    -0.354 N 
ATOM     48  C   UNL A   1      38.619  32.921  31.557  1.00  0.00     0.074 A 
ATOM     49  C   UNL A   1      38.725  33.199  30.144  1.00  0.00     0.031 C 
ATOM     50  C   UNL A   1      40.142  28.299  33.442  1.00  0.00     0.029 A 
ATOM     51  C   UNL A   1      41.462  27.944  32.947  1.00  0.00     0.049 A 
ATOM     52  H   UNL A   1      41.779  27.529  30.864  1.00  0.00     0.167 HD
ATOM     53  C   UNL A   1      37.774  33.309  32.556  1.00  0.00     0.031 A 
ATOM     54  C   UNL A   1      42.629  28.147  33.627  1.00  0.00     0.031 A 
ATOM     55  C   UNL A   1      38.102  32.646  33.820  1.00  0.00     0.049 A 
ATOM     56  C   UNL A   1      42.512  29.217  34.693  1.00  0.00     0.074 A 
ATOM     57  C   UNL A   1      37.525  31.602  34.525  1.00  0.00     0.029 A 
ATOM     58  N   UNL A   1      39.353  32.859  34.391  1.00  0.00    -0.354 N 
ATOM     59  N   UNL A   1      41.558  30.106  34.742  1.00  0.00    -0.248 NA
ATOM     60  C   UNL A   1      43.474  29.379  35.777  1.00  0.00     0.031 C 
ATOM     61  C   UNL A   1      38.473  31.141  35.480  1.00  0.00     0.029 A 
ATOM     62  C   UNL A   1      39.611  31.922  35.374  1.00  0.00     0.049 A 
ATOM     63  H   UNL A   1      39.971  33.580  34.130  1.00  0.00     0.167 HD
ATOM     64  C   UNL A   1      41.739  30.929  35.824  1.00  0.00     0.074 A 
ATOM     65  C   UNL A   1      42.953  30.425  36.445  1.00  0.00     0.031 C 
ATOM     66  C   UNL A   1      40.874  31.951  36.108  1.00  0.00     0.031 A 
BRANCH  53  67
ATOM     67  C   UNL A   1      36.475  34.062  32.315  1.00  0.00    -0.014 A 
ATOM     68  C   UNL A   1      36.168  35.197  33.096  1.00  0.00     0.010 A 
ATOM     69  C   UNL A   1      35.481  33.672  31.398  1.00  0.00     0.010 A 
ATOM     70  C   UNL A   1      34.917  35.839  33.033  1.00  0.00     0.020 A 
ATOM     71  C   UNL A   1      34.217  34.282  31.339  1.00  0.00     0.020 A 
ATOM     72  C   UNL A   1      33.936  35.357  32.170  1.00  0.00     0.054 A 
BRANCH  72  73
ATOM     73  S   UNL A   1      32.303  36.142  32.141  1.00  0.00     0.124 S 
ATOM     74  O   UNL A   1      32.207  36.623  30.764  1.00  0.00    -0.237 OA
ATOM     75  O   UNL A   1      31.415  35.037  32.486  1.00  0.00    -0.237 OA
ATOM     76  O   UNL A   1      32.405  37.193  33.152  1.00  0.00    -0.744 OA
ENDBRANCH  72  73
ENDBRANCH  53  67
BRANCH  54  77
ATOM     77  C   UNL A   1      43.859  27.849  32.838  1.00  0.00    -0.014 A 
ATOM     78  C   UNL A   1      44.247  26.495  32.747  1.00  0.00     0.010 A 
ATOM     79  C   UNL A   1      44.294  28.749  31.849  1.00  0.00     0.010 A 
ATOM     80  C   UNL A   1      44.858  26.009  31.587  1.00  0.00     0.020 A 
ATOM     81  C   UNL A   1      44.919  28.265  30.690  1.00  0.00     0.020 A 
ATOM     82  C   UNL A   1      45.106  26.888  30.532  1.00  0.00     0.054 A 
BRANCH  82  83
ATOM     83  S   UNL A   1      45.465  26.182  28.892  1.00  0.00     0.124 S 
ATOM     84  O   UNL A   1      46.800  25.624  29.071  1.00  0.00    -0.237 OA
ATOM     85  O   UNL A   1      44.384  25.206  28.736  1.00  0.00    -0.237 OA
ATOM     86  O   UNL A   1      45.381  27.337  28.003  1.00  0.00    -0.744 OA
ENDBRANCH  82  83
ENDBRANCH  54  77
BRANCH  66  87
ATOM     87  C   UNL A   1      41.063  33.050  37.141  1.00  0.00    -0.014 A 
ATOM     88  C   UNL A   1      42.107  33.985  37.141  1.00  0.00     0.010 A 
ATOM     89  C   UNL A   1      40.068  33.226  38.138  1.00  0.00     0.010 A 
ATOM     90  C   UNL A   1      42.188  35.001  38.106  1.00  0.00     0.020 A 
ATOM     91  C   UNL A   1      40.110  34.262  39.077  1.00  0.00     0.020 A 
ATOM     92  C   UNL A   1      41.190  35.132  39.071  1.00  0.00     0.054 A 
BRANCH  92  93
ATOM     93  S   UNL A   1      41.279  36.488  40.266  1.00  0.00     0.124 S 
ATOM     94  O   UNL A   1      42.175  35.938  41.280  1.00  0.00    -0.237 OA
ATOM     95  O   UNL A   1      41.832  37.584  39.472  1.00  0.00    -0.237 OA
ATOM     96  O   UNL A   1      39.892  36.672  40.685  1.00  0.00    -0.744 OA
ENDBRANCH  92  93
ENDBRANCH  66  87
ENDBRANCH  40  41
ENDBRANCH  32  35
ENDBRANCH  30  31
ENDBRANCH  29  30
ENDBRANCH  28  29
ENDBRANCH   1  28
TORSDOF 20
ENDMDL
MODEL 2
REMARK VINA RESULT:     -11.6      3.500      9.983
REMARK SMILES Cc1ccccc1NC(=O)C[NH+]1CCC(CC(=O)NCCCCCCNC(=O)c2ccc(-c3c4nc(c(-c5ccc(S(=O)(=O)[O-])cc5)c5ccc([nH]5)c(-c5ccc(S(=O)(=O)[O-])cc5)c5nc(c(-c6ccc(S(=O)(=O)[O-])cc6)c6ccc3[nH]6)C=C5)C=C4)cc2)CC1
REMARK SMILES IDX 22 1 21 2 20 3 19 4 17 5 18 6 16 8 15 9 12 10 13 11 90 12
REMARK SMILES IDX 14 14 89 15 11 16 9 17 8 18 10 20 7 21 1 22 2 23 3 24 4 25
REMARK SMILES IDX 6 26 5 27 23 28 24 29 25 30 26 31 27 32 28 34 29 35 30 36
REMARK SMILES IDX 88 37 31 38 87 39 32 40 33 41 34 42 81 43 35 44 86 45 80 46
REMARK SMILES IDX 82 47 36 48 85 49 79 50 78 51 37 53 67 54 48 55 66 56 49 57
REMARK SMILES IDX 52 58 65 59 83 60 50 61 51 62 64 64 84 65 53 66 38 67 39 68
REMARK SMILES IDX 47 69 40 70 46 71 41 72 42 73 43 74 44 75 45 76 68 77 69 78
REMARK SMILES IDX 77 79 70 80 76 81 71 82 72 83 73 84 74 85 75 86 54 87 55 88
REMARK SMILES IDX 63 89 56 90 62 91 57 92 58 93 59 94 60 95 61 96
REMARK H PARENT 19 7 12 13 8 19 26 33 82 52 52 63
REMARK Flexibility Score: inf
ROOT
ATOM      1  C   UNL A   1      32.657  27.523  25.927  1.00  0.00     0.002 C 
ENDROOT
BRANCH   1   2
ATOM      2  C   UNL A   1      31.377  28.287  25.583  1.00  0.00     0.021 C 
BRANCH   2   3
ATOM      3  C   UNL A   1      31.283  28.805  24.143  1.00  0.00     0.116 C 
BRANCH   3   4
ATOM      4  N   UNL A   1      32.545  28.671  23.431  1.00  0.00    -0.356 N 
ATOM      5  C   UNL A   1      32.871  27.891  22.359  1.00  0.00     0.220 C 
ATOM      6  O   UNL A   1      34.026  27.917  21.931  1.00  0.00    -0.275 OA
ATOM      7  H   UNL A   1      33.279  29.229  23.777  1.00  0.00     0.163 HD
BRANCH   5   8
ATOM      8  C   UNL A   1      31.821  27.014  21.703  1.00  0.00     0.104 C 
BRANCH   8   9
ATOM      9  C   UNL A   1      31.793  25.569  22.228  1.00  0.00     0.009 C 
ATOM     10  N   UNL A   1      31.967  23.694  24.487  1.00  0.00    -0.327 N 
ATOM     11  C   UNL A   1      33.054  23.746  23.509  1.00  0.00     0.262 C 
ATOM     12  C   UNL A   1      30.681  24.025  23.882  1.00  0.00     0.262 C 
ATOM     13  H   UNL A   1      32.142  24.422  25.179  1.00  0.00     0.348 HD
ATOM     14  C   UNL A   1      33.118  25.122  22.851  1.00  0.00     0.066 C 
ATOM     15  C   UNL A   1      30.679  25.423  23.272  1.00  0.00     0.066 C 
BRANCH  10  16
ATOM     16  C   UNL A   1      31.962  22.429  25.268  1.00  0.00     0.363 C 
BRANCH  16  17
ATOM     17  C   UNL A   1      32.552  22.507  26.685  1.00  0.00     0.279 C 
ATOM     18  N   UNL A   1      33.893  22.534  26.950  1.00  0.00    -0.321 N 
ATOM     19  H   UNL A   1      34.121  22.581  27.907  1.00  0.00     0.170 HD
ATOM     20  O   UNL A   1      31.798  22.649  27.656  1.00  0.00    -0.268 OA
BRANCH  18  21
ATOM     21  C   UNL A   1      34.995  22.505  26.088  1.00  0.00     0.044 A 
ATOM     22  C   UNL A   1      34.393  20.107  25.375  1.00  0.00     0.046 C 
ATOM     23  C   UNL A   1      35.283  21.321  25.379  1.00  0.00    -0.027 A 
ATOM     24  C   UNL A   1      36.493  21.238  24.666  1.00  0.00     0.005 A 
ATOM     25  C   UNL A   1      37.382  22.312  24.631  1.00  0.00     0.000 A 
ATOM     26  C   UNL A   1      35.847  23.608  25.964  1.00  0.00     0.026 A 
ATOM     27  C   UNL A   1      37.045  23.506  25.255  1.00  0.00     0.002 A 
ENDBRANCH  18  21
ENDBRANCH  16  17
ENDBRANCH  10  16
ENDBRANCH   8   9
ENDBRANCH   5   8
ENDBRANCH   3   4
ENDBRANCH   2   3
ENDBRANCH   1   2
BRANCH   1  28
ATOM     28  C   UNL A   1      33.692  28.263  26.787  1.00  0.00     0.002 C 
BRANCH  28  29
ATOM     29  C   UNL A   1      34.045  29.689  26.363  1.00  0.00     0.021 C 
BRANCH  29  30
ATOM     30  C   UNL A   1      33.646  30.766  27.356  1.00  0.00     0.116 C 
BRANCH  30  31
ATOM     31  N   UNL A   1      34.677  31.746  27.666  1.00  0.00    -0.352 N 
ATOM     32  C   UNL A   1      35.264  31.676  28.929  1.00  0.00     0.251 C 
ATOM     33  H   UNL A   1      34.947  32.429  27.012  1.00  0.00     0.163 HD
ATOM     34  O   UNL A   1      34.861  32.245  29.928  1.00  0.00    -0.269 OA
BRANCH  32  35
ATOM     35  C   UNL A   1      36.245  30.575  29.024  1.00  0.00     0.039 A 
ATOM     36  C   UNL A   1      36.283  29.716  30.121  1.00  0.00     0.014 A 
ATOM     37  C   UNL A   1      37.294  30.629  28.103  1.00  0.00     0.014 A 
ATOM     38  C   UNL A   1      37.452  28.995  30.371  1.00  0.00     0.010 A 
ATOM     39  C   UNL A   1      38.478  30.002  28.410  1.00  0.00     0.010 A 
ATOM     40  C   UNL A   1      38.568  29.210  29.561  1.00  0.00    -0.014 A 
BRANCH  40  41
ATOM     41  C   UNL A   1      39.905  28.690  29.816  1.00  0.00     0.031 A 
ATOM     42  C   UNL A   1      40.283  27.365  29.280  1.00  0.00     0.074 A 
ATOM     43  C   UNL A   1      40.844  29.512  30.334  1.00  0.00     0.049 A 
ATOM     44  N   UNL A   1      41.328  26.696  29.636  1.00  0.00    -0.248 NA
ATOM     45  C   UNL A   1      39.455  26.655  28.309  1.00  0.00     0.031 C 
ATOM     46  C   UNL A   1      42.292  29.340  30.271  1.00  0.00     0.029 A 
ATOM     47  N   UNL A   1      40.670  30.571  31.226  1.00  0.00    -0.354 N 
ATOM     48  C   UNL A   1      41.493  25.681  28.719  1.00  0.00     0.074 A 
ATOM     49  C   UNL A   1      40.245  25.626  27.996  1.00  0.00     0.031 C 
ATOM     50  C   UNL A   1      42.846  30.017  31.289  1.00  0.00     0.029 A 
ATOM     51  C   UNL A   1      41.752  30.494  32.119  1.00  0.00     0.049 A 
ATOM     52  H   UNL A   1      39.942  31.234  31.229  1.00  0.00     0.167 HD
ATOM     53  C   UNL A   1      42.724  25.113  28.563  1.00  0.00     0.031 A 
ATOM     54  C   UNL A   1      41.615  30.235  33.453  1.00  0.00     0.031 A 
ATOM     55  C   UNL A   1      43.664  25.587  29.582  1.00  0.00     0.049 A 
ATOM     56  C   UNL A   1      42.389  29.011  33.898  1.00  0.00     0.074 A 
ATOM     57  C   UNL A   1      44.716  26.489  29.561  1.00  0.00     0.029 A 
ATOM     58  N   UNL A   1      43.390  25.338  30.924  1.00  0.00    -0.354 N 
ATOM     59  N   UNL A   1      42.836  28.089  33.091  1.00  0.00    -0.248 NA
ATOM     60  C   UNL A   1      42.702  28.723  35.293  1.00  0.00     0.031 C 
ATOM     61  C   UNL A   1      45.024  26.835  30.905  1.00  0.00     0.029 A 
ATOM     62  C   UNL A   1      44.181  26.123  31.741  1.00  0.00     0.049 A 
ATOM     63  H   UNL A   1      42.722  24.690  31.247  1.00  0.00     0.167 HD
ATOM     64  C   UNL A   1      43.491  27.118  33.804  1.00  0.00     0.074 A 
ATOM     65  C   UNL A   1      43.384  27.568  35.182  1.00  0.00     0.031 C 
ATOM     66  C   UNL A   1      44.060  26.031  33.195  1.00  0.00     0.031 A 
BRANCH  53  67
ATOM     67  C   UNL A   1      43.151  24.356  27.315  1.00  0.00    -0.014 A 
ATOM     68  C   UNL A   1      42.791  22.999  27.161  1.00  0.00     0.010 A 
ATOM     69  C   UNL A   1      43.964  24.886  26.295  1.00  0.00     0.010 A 
ATOM     70  C   UNL A   1      43.288  22.204  26.113  1.00  0.00     0.020 A 
ATOM     71  C   UNL A   1      44.492  24.101  25.257  1.00  0.00     0.020 A 
ATOM     72  C   UNL A   1      44.161  22.756  25.180  1.00  0.00     0.054 A 
BRANCH  72  73
ATOM     73  S   UNL A   1      44.854  21.711  23.871  1.00  0.00     0.124 S 
ATOM     74  O   UNL A   1      44.167  22.200  22.677  1.00  0.00    -0.237 OA
ATOM     75  O   UNL A   1      46.280  22.013  23.947  1.00  0.00    -0.237 OA
ATOM     76  O   UNL A   1      44.486  20.356  24.277  1.00  0.00    -0.744 OA
ENDBRANCH  72  73
ENDBRANCH  53  67
BRANCH  54  77
ATOM     77  C   UNL A   1      40.324  30.697  34.038  1.00  0.00    -0.014 A 
ATOM     78  C   UNL A   1      40.287  32.014  34.544  1.00  0.00     0.010 A 
ATOM     79  C   UNL A   1      39.118  30.081  33.656  1.00  0.00     0.010 A 
ATOM     80  C   UNL A   1      39.116  32.774  34.456  1.00  0.00     0.020 A 
ATOM     81  C   UNL A   1      37.940  30.839  33.581  1.00  0.00     0.020 A 
ATOM     82  C   UNL A   1      37.977  32.202  33.891  1.00  0.00     0.054 A 
BRANCH  82  83
ATOM     83  S   UNL A   1      36.628  33.309  33.368  1.00  0.00     0.124 S 
ATOM     84  O   UNL A   1      36.664  34.356  34.382  1.00  0.00    -0.237 OA
ATOM     85  O   UNL A   1      37.063  33.708  32.026  1.00  0.00    -0.237 OA
ATOM     86  O   UNL A   1      35.452  32.444  33.399  1.00  0.00    -0.744 OA
ENDBRANCH  82  83
ENDBRANCH  54  77
BRANCH  66  87
ATOM     87  C   UNL A   1      44.629  24.796  33.872  1.00  0.00    -0.014 A 
ATOM     88  C   UNL A   1      45.874  24.730  34.513  1.00  0.00     0.010 A 
ATOM     89  C   UNL A   1      43.820  23.634  33.960  1.00  0.00     0.010 A 
ATOM     90  C   UNL A   1      46.311  23.561  35.156  1.00  0.00     0.020 A 
ATOM     91  C   UNL A   1      44.222  22.478  34.638  1.00  0.00     0.020 A 
ATOM     92  C   UNL A   1      45.484  22.441  35.213  1.00  0.00     0.054 A 
BRANCH  92  93
ATOM     93  S   UNL A   1      46.040  20.967  36.104  1.00  0.00     0.124 S 
ATOM     94  O   UNL A   1      45.291  19.909  35.432  1.00  0.00    -0.237 OA
ATOM     95  O   UNL A   1      47.481  20.965  35.859  1.00  0.00    -0.237 OA
ATOM     96  O   UNL A   1      45.651  21.231  37.486  1.00  0.00    -0.744 OA
ENDBRANCH  92  93
ENDBRANCH  66  87
ENDBRANCH  40  41
ENDBRANCH  32  35
ENDBRANCH  30  31
ENDBRANCH  29  30
ENDBRANCH  28  29
ENDBRANCH   1  28
TORSDOF 20
ENDMDL
MODEL 3
REMARK VINA RESULT:     -11.4      3.431      9.895
REMARK SMILES Cc1ccccc1NC(=O)C[NH+]1CCC(CC(=O)NCCCCCCNC(=O)c2ccc(-c3c4nc(c(-c5ccc(S(=O)(=O)[O-])cc5)c5ccc([nH]5)c(-c5ccc(S(=O)(=O)[O-])cc5)c5nc(c(-c6ccc(S(=O)(=O)[O-])cc6)c6ccc3[nH]6)C=C5)C=C4)cc2)CC1
REMARK SMILES IDX 22 1 21 2 20 3 19 4 17 5 18 6 16 8 15 9 12 10 13 11 90 12
REMARK SMILES IDX 14 14 89 15 11 16 9 17 8 18 10 20 7 21 1 22 2 23 3 24 4 25
REMARK SMILES IDX 6 26 5 27 23 28 24 29 25 30 26 31 27 32 28 34 29 35 30 36
REMARK SMILES IDX 88 37 31 38 87 39 32 40 33 41 34 42 81 43 35 44 86 45 80 46
REMARK SMILES IDX 82 47 36 48 85 49 79 50 78 51 37 53 67 54 48 55 66 56 49 57
REMARK SMILES IDX 52 58 65 59 83 60 50 61 51 62 64 64 84 65 53 66 38 67 39 68
REMARK SMILES IDX 47 69 40 70 46 71 41 72 42 73 43 74 44 75 45 76 68 77 69 78
REMARK SMILES IDX 77 79 70 80 76 81 71 82 72 83 73 84 74 85 75 86 54 87 55 88
REMARK SMILES IDX 63 89 56 90 62 91 57 92 58 93 59 94 60 95 61 96
REMARK H PARENT 19 7 12 13 8 19 26 33 82 52 52 63
REMARK Flexibility Score: inf
ROOT
ATOM      1  C   UNL A   1      33.386  28.362  26.217  1.00  0.00     0.002 C 
ENDROOT
BRANCH   1   2
ATOM      2  C   UNL A   1      31.930  28.788  26.018  1.00  0.00     0.021 C 
BRANCH   2   3
ATOM      3  C   UNL A   1      31.313  28.419  24.664  1.00  0.00     0.116 C 
BRANCH   3   4
ATOM      4  N   UNL A   1      32.278  28.520  23.578  1.00  0.00    -0.356 N 
ATOM      5  C   UNL A   1      32.952  27.540  22.910  1.00  0.00     0.220 C 
ATOM      6  O   UNL A   1      33.754  27.860  22.030  1.00  0.00    -0.275 OA
ATOM      7  H   UNL A   1      32.474  29.437  23.280  1.00  0.00     0.163 HD
BRANCH   5   8
ATOM      8  C   UNL A   1      32.711  26.079  23.242  1.00  0.00     0.104 C 
BRANCH   8   9
ATOM      9  C   UNL A   1      33.996  25.263  23.454  1.00  0.00     0.009 C 
ATOM     10  N   UNL A   1      35.317  22.848  24.488  1.00  0.00    -0.327 N 
ATOM     11  C   UNL A   1      35.543  24.132  25.151  1.00  0.00     0.262 C 
ATOM     12  C   UNL A   1      35.068  23.015  23.060  1.00  0.00     0.262 C 
ATOM     13  H   UNL A   1      34.461  22.450  24.873  1.00  0.00     0.348 HD
ATOM     14  C   UNL A   1      34.356  25.067  24.929  1.00  0.00     0.066 C 
ATOM     15  C   UNL A   1      33.846  23.888  22.791  1.00  0.00     0.066 C 
BRANCH  10  16
ATOM     16  C   UNL A   1      36.371  21.849  24.807  1.00  0.00     0.363 C 
BRANCH  16  17
ATOM     17  C   UNL A   1      35.879  20.434  25.150  1.00  0.00     0.279 C 
ATOM     18  N   UNL A   1      34.659  20.167  25.706  1.00  0.00    -0.321 N 
ATOM     19  H   UNL A   1      34.485  19.212  25.873  1.00  0.00     0.170 HD
ATOM     20  O   UNL A   1      36.563  19.452  24.831  1.00  0.00    -0.268 OA
BRANCH  18  21
ATOM     21  C   UNL A   1      33.618  21.024  26.078  1.00  0.00     0.044 A 
ATOM     22  C   UNL A   1      32.370  20.478  23.894  1.00  0.00     0.046 C 
ATOM     23  C   UNL A   1      32.547  21.233  25.184  1.00  0.00    -0.027 A 
ATOM     24  C   UNL A   1      31.606  22.235  25.482  1.00  0.00     0.005 A 
ATOM     25  C   UNL A   1      31.705  22.991  26.649  1.00  0.00     0.000 A 
ATOM     26  C   UNL A   1      33.650  21.720  27.291  1.00  0.00     0.026 A 
ATOM     27  C   UNL A   1      32.710  22.713  27.567  1.00  0.00     0.002 A 
ENDBRANCH  18  21
ENDBRANCH  16  17
ENDBRANCH  10  16
ENDBRANCH   8   9
ENDBRANCH   5   8
ENDBRANCH   3   4
ENDBRANCH   2   3
ENDBRANCH   1   2
BRANCH   1  28
ATOM     28  C   UNL A   1      34.148  29.027  27.372  1.00  0.00     0.002 C 
BRANCH  28  29
ATOM     29  C   UNL A   1      34.783  30.388  27.084  1.00  0.00     0.021 C 
BRANCH  29  30
ATOM     30  C   UNL A   1      34.113  31.562  27.773  1.00  0.00     0.116 C 
BRANCH  30  31
ATOM     31  N   UNL A   1      35.000  32.441  28.521  1.00  0.00    -0.352 N 
ATOM     32  C   UNL A   1      35.429  32.001  29.772  1.00  0.00     0.251 C 
ATOM     33  H   UNL A   1      35.285  33.311  28.158  1.00  0.00     0.163 HD
ATOM     34  O   UNL A   1      34.852  32.199  30.827  1.00  0.00    -0.269 OA
BRANCH  32  35
ATOM     35  C   UNL A   1      36.489  30.976  29.666  1.00  0.00     0.039 A 
ATOM     36  C   UNL A   1      36.501  29.842  30.476  1.00  0.00     0.014 A 
ATOM     37  C   UNL A   1      37.610  31.353  28.922  1.00  0.00     0.014 A 
ATOM     38  C   UNL A   1      37.700  29.148  30.645  1.00  0.00     0.010 A 
ATOM     39  C   UNL A   1      38.810  30.733  29.173  1.00  0.00     0.010 A 
ATOM     40  C   UNL A   1      38.863  29.651  30.059  1.00  0.00    -0.014 A 
BRANCH  40  41
ATOM     41  C   UNL A   1      40.211  29.157  30.308  1.00  0.00     0.031 A 
ATOM     42  C   UNL A   1      40.636  27.873  29.711  1.00  0.00     0.074 A 
ATOM     43  C   UNL A   1      41.118  29.978  30.882  1.00  0.00     0.049 A 
ATOM     44  N   UNL A   1      41.694  27.217  30.049  1.00  0.00    -0.248 NA
ATOM     45  C   UNL A   1      39.843  27.190  28.692  1.00  0.00     0.031 C 
ATOM     46  C   UNL A   1      42.571  29.851  30.833  1.00  0.00     0.029 A 
ATOM     47  N   UNL A   1      40.900  30.985  31.824  1.00  0.00    -0.354 N 
ATOM     48  C   UNL A   1      41.903  26.256  29.083  1.00  0.00     0.074 A 
ATOM     49  C   UNL A   1      40.668  26.202  28.339  1.00  0.00     0.031 C 
ATOM     50  C   UNL A   1      43.090  30.491  31.892  1.00  0.00     0.029 A 
ATOM     51  C   UNL A   1      41.971  30.893  32.728  1.00  0.00     0.049 A 
ATOM     52  H   UNL A   1      40.153  31.625  31.849  1.00  0.00     0.167 HD
ATOM     53  C   UNL A   1      43.153  25.733  28.918  1.00  0.00     0.031 A 
ATOM     54  C   UNL A   1      41.823  30.561  34.045  1.00  0.00     0.031 A 
ATOM     55  C   UNL A   1      44.063  26.180  29.975  1.00  0.00     0.049 A 
ATOM     56  C   UNL A   1      42.627  29.339  34.439  1.00  0.00     0.074 A 
ATOM     57  C   UNL A   1      45.088  27.112  30.015  1.00  0.00     0.029 A 
ATOM     58  N   UNL A   1      43.778  25.855  31.297  1.00  0.00    -0.354 N 
ATOM     59  N   UNL A   1      43.112  28.473  33.593  1.00  0.00    -0.248 NA
ATOM     60  C   UNL A   1      42.928  28.988  35.822  1.00  0.00     0.031 C 
ATOM     61  C   UNL A   1      45.367  27.397  31.380  1.00  0.00     0.029 A 
ATOM     62  C   UNL A   1      44.533  26.620  32.165  1.00  0.00     0.049 A 
ATOM     63  H   UNL A   1      43.125  25.172  31.576  1.00  0.00     0.167 HD
ATOM     64  C   UNL A   1      43.786  27.486  34.266  1.00  0.00     0.074 A 
ATOM     65  C   UNL A   1      43.646  27.861  35.663  1.00  0.00     0.031 C 
ATOM     66  C   UNL A   1      44.395  26.449  33.610  1.00  0.00     0.031 A 
BRANCH  53  67
ATOM     67  C   UNL A   1      43.619  25.053  27.640  1.00  0.00    -0.014 A 
ATOM     68  C   UNL A   1      43.254  23.713  27.385  1.00  0.00     0.010 A 
ATOM     69  C   UNL A   1      44.473  25.639  26.687  1.00  0.00     0.010 A 
ATOM     70  C   UNL A   1      43.783  22.982  26.306  1.00  0.00     0.020 A 
ATOM     71  C   UNL A   1      45.033  24.918  25.620  1.00  0.00     0.020 A 
ATOM     72  C   UNL A   1      44.694  23.584  25.443  1.00  0.00     0.054 A 
BRANCH  72  73
ATOM     73  S   UNL A   1      45.427  22.619  24.095  1.00  0.00     0.124 S 
ATOM     74  O   UNL A   1      45.623  21.309  24.714  1.00  0.00    -0.237 OA
ATOM     75  O   UNL A   1      44.394  22.681  23.065  1.00  0.00    -0.237 OA
ATOM     76  O   UNL A   1      46.658  23.339  23.781  1.00  0.00    -0.744 OA
ENDBRANCH  72  73
ENDBRANCH  53  67
BRANCH  54  77
ATOM     77  C   UNL A   1      40.511  30.955  34.633  1.00  0.00    -0.014 A 
ATOM     78  C   UNL A   1      40.474  32.163  35.363  1.00  0.00     0.010 A 
ATOM     79  C   UNL A   1      39.316  30.457  34.083  1.00  0.00     0.010 A 
ATOM     80  C   UNL A   1      39.328  32.965  35.349  1.00  0.00     0.020 A 
ATOM     81  C   UNL A   1      38.162  31.254  34.080  1.00  0.00     0.020 A 
ATOM     82  C   UNL A   1      38.212  32.540  34.630  1.00  0.00     0.054 A 
BRANCH  82  83
ATOM     83  S   UNL A   1      36.922  33.766  34.241  1.00  0.00     0.124 S 
ATOM     84  O   UNL A   1      35.835  33.379  35.133  1.00  0.00    -0.237 OA
ATOM     85  O   UNL A   1      37.592  35.028  34.566  1.00  0.00    -0.237 OA
ATOM     86  O   UNL A   1      36.674  33.552  32.818  1.00  0.00    -0.744 OA
ENDBRANCH  82  83
ENDBRANCH  54  77
BRANCH  66  87
ATOM     87  C   UNL A   1      44.991  25.198  34.232  1.00  0.00    -0.014 A 
ATOM     88  C   UNL A   1      44.254  24.151  34.802  1.00  0.00     0.010 A 
ATOM     89  C   UNL A   1      46.395  25.004  34.159  1.00  0.00     0.010 A 
ATOM     90  C   UNL A   1      44.878  23.004  35.318  1.00  0.00     0.020 A 
ATOM     91  C   UNL A   1      47.027  23.845  34.625  1.00  0.00     0.020 A 
ATOM     92  C   UNL A   1      46.261  22.859  35.228  1.00  0.00     0.054 A 
BRANCH  92  93
ATOM     93  S   UNL A   1      47.040  21.343  35.839  1.00  0.00     0.124 S 
ATOM     94  O   UNL A   1      48.333  21.836  36.306  1.00  0.00    -0.237 OA
ATOM     95  O   UNL A   1      46.120  20.908  36.890  1.00  0.00    -0.237 OA
ATOM     96  O   UNL A   1      47.083  20.478  34.664  1.00  0.00    -0.744 OA
ENDBRANCH  92  93
ENDBRANCH  66  87
ENDBRANCH  40  41
ENDBRANCH  32  35
ENDBRANCH  30  31
ENDBRANCH  29  30
ENDBRANCH  28  29
ENDBRANCH   1  28
TORSDOF 20
ENDMDL
