MODEL 1
REMARK VINA RESULT:      -9.4      0.000      0.000
REMARK SMILES Cc1ccc(C(=O)N[C@@H]2C=C[C@H](C(=O)NCCCCCCNC(=O)c3ccc(-c4c5nc(c(-c6ccc(S(=O)(=O)[O-])cc6)c6ccc([nH]6)c(-c6ccc(S(=O)(=O)[O-])cc6)c6nc(c(-c7ccc(S(=O)(=O)[O-])cc7)c7ccc4[nH]7)C=C6)C=C5)cc3)C2)c(F)c1
REMARK SMILES IDX 19 1 18 2 17 3 16 4 15 5 13 6 14 7 12 9 9 10 10 11 85 12
REMARK SMILES IDX 11 13 8 14 6 15 7 16 5 18 1 19 2 20 3 21 88 22 4 23 86 24
REMARK SMILES IDX 87 25 20 26 21 27 22 28 23 29 24 31 25 32 26 33 84 34 27 35
REMARK SMILES IDX 83 36 28 37 29 38 30 39 77 40 31 41 82 42 76 43 78 44 32 45
REMARK SMILES IDX 81 46 75 47 74 48 33 50 63 51 44 52 62 53 45 54 48 55 61 56
REMARK SMILES IDX 79 57 46 58 47 59 60 61 80 62 49 63 34 64 35 65 43 66 36 67
REMARK SMILES IDX 42 68 37 69 38 70 39 71 40 72 41 73 64 74 65 75 73 76 66 77
REMARK SMILES IDX 72 78 67 79 68 80 69 81 70 82 71 83 50 84 51 85 59 86 52 87
REMARK SMILES IDX 58 88 53 89 54 90 55 91 56 92 57 93
REMARK H PARENT 15 8 8 17 22 30 78 49 48 60
REMARK Flexibility Score: inf
ROOT
ATOM      1  C   UNL A   1      34.851  32.904  31.253  1.00  0.00     0.002 C 
ENDROOT
BRANCH   1   2
ATOM      2  C   UNL A   1      36.349  32.851  31.566  1.00  0.00     0.002 C 
BRANCH   2   3
ATOM      3  C   UNL A   1      36.715  32.396  32.984  1.00  0.00     0.021 C 
BRANCH   3   4
ATOM      4  C   UNL A   1      37.424  31.045  33.082  1.00  0.00     0.116 C 
BRANCH   4   5
ATOM      5  N   UNL A   1      37.735  30.671  34.451  1.00  0.00    -0.356 N 
ATOM      6  C   UNL A   1      38.951  30.395  35.014  1.00  0.00     0.227 C 
ATOM      7  O   UNL A   1      39.004  30.228  36.232  1.00  0.00    -0.274 OA
ATOM      8  H   UNL A   1      36.963  30.608  35.058  1.00  0.00     0.163 HD
BRANCH   6   9
ATOM      9  C   UNL A   1      40.163  30.247  34.092  1.00  0.00     0.103 C 
ATOM     10  C   UNL A   1      41.664  28.351  34.635  1.00  0.00     0.106 C 
ATOM     11  C   UNL A   1      42.270  29.680  34.974  1.00  0.00    -0.006 C 
ATOM     12  C   UNL A   1      40.416  28.760  33.835  1.00  0.00     0.047 C 
ATOM     13  C   UNL A   1      41.452  30.701  34.696  1.00  0.00    -0.016 C 
BRANCH  10  14
ATOM     14  N   UNL A   1      41.494  27.620  35.880  1.00  0.00    -0.346 N 
ATOM     15  C   UNL A   1      42.131  26.525  36.414  1.00  0.00     0.254 C 
ATOM     16  O   UNL A   1      42.039  26.302  37.618  1.00  0.00    -0.269 OA
ATOM     17  H   UNL A   1      40.780  27.980  36.454  1.00  0.00     0.164 HD
BRANCH  15  18
ATOM     18  C   UNL A   1      42.832  25.565  35.547  1.00  0.00     0.075 A 
ATOM     19  C   UNL A   1      45.429  22.536  33.967  1.00  0.00     0.044 C 
ATOM     20  C   UNL A   1      44.489  23.616  34.414  1.00  0.00    -0.048 A 
ATOM     21  C   UNL A   1      43.145  23.328  34.692  1.00  0.00     0.004 A 
ATOM     22  C   UNL A   1      44.949  24.928  34.563  1.00  0.00     0.043 A 
ATOM     23  C   UNL A   1      42.307  24.308  35.235  1.00  0.00     0.017 A 
ATOM     24  C   UNL A   1      44.126  25.893  35.137  1.00  0.00     0.136 A 
ATOM     25  F   UNL A   1      44.637  27.113  35.350  1.00  0.00    -0.206 F 
ENDBRANCH  15  18
ENDBRANCH  10  14
ENDBRANCH   6   9
ENDBRANCH   4   5
ENDBRANCH   3   4
ENDBRANCH   2   3
ENDBRANCH   1   2
BRANCH   1  26
ATOM     26  C   UNL A   1      34.467  33.721  30.019  1.00  0.00     0.021 C 
BRANCH  26  27
ATOM     27  C   UNL A   1      34.961  33.157  28.689  1.00  0.00     0.116 C 
BRANCH  27  28
ATOM     28  N   UNL A   1      34.091  32.113  28.169  1.00  0.00    -0.352 N 
ATOM     29  C   UNL A   1      34.378  30.805  27.859  1.00  0.00     0.251 C 
ATOM     30  H   UNL A   1      33.156  32.384  28.018  1.00  0.00     0.163 HD
ATOM     31  O   UNL A   1      33.554  30.123  27.262  1.00  0.00    -0.269 OA
BRANCH  29  32
ATOM     32  C   UNL A   1      35.694  30.232  28.221  1.00  0.00     0.039 A 
ATOM     33  C   UNL A   1      36.701  30.190  27.253  1.00  0.00     0.014 A 
ATOM     34  C   UNL A   1      35.939  29.742  29.507  1.00  0.00     0.014 A 
ATOM     35  C   UNL A   1      37.974  29.732  27.596  1.00  0.00     0.010 A 
ATOM     36  C   UNL A   1      37.228  29.351  29.868  1.00  0.00     0.010 A 
ATOM     37  C   UNL A   1      38.262  29.353  28.919  1.00  0.00    -0.014 A 
BRANCH  37  38
ATOM     38  C   UNL A   1      39.649  29.011  29.333  1.00  0.00     0.031 A 
ATOM     39  C   UNL A   1      40.512  30.019  30.041  1.00  0.00     0.074 A 
ATOM     40  C   UNL A   1      40.153  27.804  29.007  1.00  0.00     0.049 A 
ATOM     41  N   UNL A   1      41.755  29.906  30.433  1.00  0.00    -0.248 NA
ATOM     42  C   UNL A   1      39.909  31.331  30.331  1.00  0.00     0.031 C 
ATOM     43  C   UNL A   1      39.432  26.754  28.281  1.00  0.00     0.029 A 
ATOM     44  N   UNL A   1      41.391  27.255  29.235  1.00  0.00    -0.354 N 
ATOM     45  C   UNL A   1      42.088  31.130  31.002  1.00  0.00     0.074 A 
ATOM     46  C   UNL A   1      40.930  31.986  30.865  1.00  0.00     0.031 C 
ATOM     47  C   UNL A   1      40.230  25.683  28.146  1.00  0.00     0.029 A 
ATOM     48  C   UNL A   1      41.533  25.982  28.731  1.00  0.00     0.049 A 
ATOM     49  H   UNL A   1      42.110  27.727  29.714  1.00  0.00     0.167 HD
ATOM     50  C   UNL A   1      43.247  31.501  31.597  1.00  0.00     0.031 A 
ATOM     51  C   UNL A   1      42.595  25.153  28.722  1.00  0.00     0.031 A 
ATOM     52  C   UNL A   1      44.398  30.644  31.731  1.00  0.00     0.049 A 
ATOM     53  C   UNL A   1      43.878  25.599  29.367  1.00  0.00     0.074 A 
ATOM     54  C   UNL A   1      45.594  30.908  32.376  1.00  0.00     0.029 A 
ATOM     55  N   UNL A   1      44.503  29.364  31.206  1.00  0.00    -0.354 N 
ATOM     56  N   UNL A   1      44.142  26.730  29.975  1.00  0.00    -0.248 NA
ATOM     57  C   UNL A   1      45.003  24.655  29.330  1.00  0.00     0.031 C 
ATOM     58  C   UNL A   1      46.447  29.817  32.180  1.00  0.00     0.029 A 
ATOM     59  C   UNL A   1      45.757  28.844  31.475  1.00  0.00     0.049 A 
ATOM     60  H   UNL A   1      43.789  28.896  30.715  1.00  0.00     0.167 HD
ATOM     61  C   UNL A   1      45.460  26.626  30.409  1.00  0.00     0.074 A 
ATOM     62  C   UNL A   1      45.927  25.313  30.017  1.00  0.00     0.031 C 
ATOM     63  C   UNL A   1      46.216  27.539  31.069  1.00  0.00     0.031 A 
BRANCH  50  64
ATOM     64  C   UNL A   1      43.343  32.904  32.139  1.00  0.00    -0.014 A 
ATOM     65  C   UNL A   1      43.218  33.166  33.515  1.00  0.00     0.010 A 
ATOM     66  C   UNL A   1      43.628  33.971  31.265  1.00  0.00     0.010 A 
ATOM     67  C   UNL A   1      43.343  34.470  34.003  1.00  0.00     0.020 A 
ATOM     68  C   UNL A   1      43.783  35.272  31.752  1.00  0.00     0.020 A 
ATOM     69  C   UNL A   1      43.626  35.515  33.118  1.00  0.00     0.054 A 
BRANCH  69  70
ATOM     70  S   UNL A   1      43.818  37.190  33.787  1.00  0.00     0.124 S 
ATOM     71  O   UNL A   1      42.445  37.526  34.155  1.00  0.00    -0.237 OA
ATOM     72  O   UNL A   1      44.736  36.985  34.903  1.00  0.00    -0.237 OA
ATOM     73  O   UNL A   1      44.365  37.951  32.666  1.00  0.00    -0.744 OA
ENDBRANCH  69  70
ENDBRANCH  50  64
BRANCH  51  74
ATOM     74  C   UNL A   1      42.492  23.819  28.068  1.00  0.00    -0.014 A 
ATOM     75  C   UNL A   1      42.749  23.669  26.694  1.00  0.00     0.010 A 
ATOM     76  C   UNL A   1      42.139  22.684  28.823  1.00  0.00     0.010 A 
ATOM     77  C   UNL A   1      42.636  22.415  26.084  1.00  0.00     0.020 A 
ATOM     78  C   UNL A   1      42.056  21.425  28.225  1.00  0.00     0.020 A 
ATOM     79  C   UNL A   1      42.292  21.301  26.856  1.00  0.00     0.054 A 
BRANCH  79  80
ATOM     80  S   UNL A   1      42.195  19.676  26.053  1.00  0.00     0.124 S 
ATOM     81  O   UNL A   1      42.607  18.781  27.129  1.00  0.00    -0.237 OA
ATOM     82  O   UNL A   1      40.788  19.601  25.667  1.00  0.00    -0.237 OA
ATOM     83  O   UNL A   1      43.133  19.790  24.938  1.00  0.00    -0.744 OA
ENDBRANCH  79  80
ENDBRANCH  51  74
BRANCH  63  84
ATOM     84  C   UNL A   1      47.627  27.146  31.421  1.00  0.00    -0.014 A 
ATOM     85  C   UNL A   1      48.705  27.471  30.580  1.00  0.00     0.010 A 
ATOM     86  C   UNL A   1      47.883  26.486  32.638  1.00  0.00     0.010 A 
ATOM     87  C   UNL A   1      50.010  27.117  30.932  1.00  0.00     0.020 A 
ATOM     88  C   UNL A   1      49.190  26.158  33.009  1.00  0.00     0.020 A 
ATOM     89  C   UNL A   1      50.244  26.465  32.147  1.00  0.00     0.054 A 
BRANCH  89  90
ATOM     90  S   UNL A   1      51.953  26.058  32.600  1.00  0.00     0.124 S 
ATOM     91  O   UNL A   1      51.879  24.613  32.798  1.00  0.00    -0.237 OA
ATOM     92  O   UNL A   1      52.706  26.494  31.427  1.00  0.00    -0.237 OA
ATOM     93  O   UNL A   1      52.186  26.841  33.811  1.00  0.00    -0.744 OA
ENDBRANCH  89  90
ENDBRANCH  63  84
ENDBRANCH  37  38
ENDBRANCH  29  32
ENDBRANCH  27  28
ENDBRANCH  26  27
ENDBRANCH   1  26
TORSDOF 18
ENDMDL
MODEL 2
REMARK VINA RESULT:      -9.3      4.096      7.128
REMARK SMILES Cc1ccc(C(=O)N[C@@H]2C=C[C@H](C(=O)NCCCCCCNC(=O)c3ccc(-c4c5nc(c(-c6ccc(S(=O)(=O)[O-])cc6)c6ccc([nH]6)c(-c6ccc(S(=O)(=O)[O-])cc6)c6nc(c(-c7ccc(S(=O)(=O)[O-])cc7)c7ccc4[nH]7)C=C6)C=C5)cc3)C2)c(F)c1
REMARK SMILES IDX 19 1 18 2 17 3 16 4 15 5 13 6 14 7 12 9 9 10 10 11 85 12
REMARK SMILES IDX 11 13 8 14 6 15 7 16 5 18 1 19 2 20 3 21 88 22 4 23 86 24
REMARK SMILES IDX 87 25 20 26 21 27 22 28 23 29 24 31 25 32 26 33 84 34 27 35
REMARK SMILES IDX 83 36 28 37 29 38 30 39 77 40 31 41 82 42 76 43 78 44 32 45
REMARK SMILES IDX 81 46 75 47 74 48 33 50 63 51 44 52 62 53 45 54 48 55 61 56
REMARK SMILES IDX 79 57 46 58 47 59 60 61 80 62 49 63 34 64 35 65 43 66 36 67
REMARK SMILES IDX 42 68 37 69 38 70 39 71 40 72 41 73 64 74 65 75 73 76 66 77
REMARK SMILES IDX 72 78 67 79 68 80 69 81 70 82 71 83 50 84 51 85 59 86 52 87
REMARK SMILES IDX 58 88 53 89 54 90 55 91 56 92 57 93
REMARK H PARENT 15 8 8 17 22 30 78 49 48 60
REMARK Flexibility Score: inf
ROOT
ATOM      1  C   UNL A   1      32.997  29.297  24.869  1.00  0.00     0.002 C 
ENDROOT
BRANCH   1   2
ATOM      2  C   UNL A   1      31.513  29.249  24.493  1.00  0.00     0.002 C 
BRANCH   2   3
ATOM      3  C   UNL A   1      31.211  29.187  22.991  1.00  0.00     0.021 C 
BRANCH   3   4
ATOM      4  C   UNL A   1      30.012  28.325  22.594  1.00  0.00     0.116 C 
BRANCH   4   5
ATOM      5  N   UNL A   1      29.508  27.523  23.696  1.00  0.00    -0.356 N 
ATOM      6  C   UNL A   1      29.901  26.280  24.108  1.00  0.00     0.227 C 
ATOM      7  O   UNL A   1      29.427  25.836  25.154  1.00  0.00    -0.274 OA
ATOM      8  H   UNL A   1      28.781  27.933  24.219  1.00  0.00     0.163 HD
BRANCH   6   9
ATOM      9  C   UNL A   1      30.856  25.486  23.215  1.00  0.00     0.103 C 
ATOM     10  C   UNL A   1      31.746  23.404  24.225  1.00  0.00     0.106 C 
ATOM     11  C   UNL A   1      32.782  24.483  24.124  1.00  0.00    -0.006 C 
ATOM     12  C   UNL A   1      30.588  23.990  23.401  1.00  0.00     0.047 C 
ATOM     13  C   UNL A   1      32.296  25.611  23.594  1.00  0.00    -0.016 C 
BRANCH  10  14
ATOM     14  N   UNL A   1      31.537  23.133  25.638  1.00  0.00    -0.346 N 
ATOM     15  C   UNL A   1      32.399  22.865  26.675  1.00  0.00     0.254 C 
ATOM     16  O   UNL A   1      32.013  23.005  27.832  1.00  0.00    -0.269 OA
ATOM     17  H   UNL A   1      30.589  23.142  25.905  1.00  0.00     0.164 HD
BRANCH  15  18
ATOM     18  C   UNL A   1      33.741  22.317  26.416  1.00  0.00     0.075 A 
ATOM     19  C   UNL A   1      37.403  21.008  24.604  1.00  0.00     0.044 C 
ATOM     20  C   UNL A   1      36.157  21.415  25.333  1.00  0.00    -0.048 A 
ATOM     21  C   UNL A   1      36.111  22.613  26.060  1.00  0.00     0.004 A 
ATOM     22  C   UNL A   1      35.020  20.602  25.287  1.00  0.00     0.043 A 
ATOM     23  C   UNL A   1      34.909  23.055  26.625  1.00  0.00     0.017 A 
ATOM     24  C   UNL A   1      33.817  21.058  25.818  1.00  0.00     0.136 A 
ATOM     25  F   UNL A   1      32.730  20.289  25.669  1.00  0.00    -0.206 F 
ENDBRANCH  15  18
ENDBRANCH  10  14
ENDBRANCH   6   9
ENDBRANCH   4   5
ENDBRANCH   3   4
ENDBRANCH   2   3
ENDBRANCH   1   2
BRANCH   1  26
ATOM     26  C   UNL A   1      33.480  28.167  25.780  1.00  0.00     0.021 C 
BRANCH  26  27
ATOM     27  C   UNL A   1      33.426  28.474  27.275  1.00  0.00     0.116 C 
BRANCH  27  28
ATOM     28  N   UNL A   1      33.421  29.902  27.550  1.00  0.00    -0.352 N 
ATOM     29  C   UNL A   1      34.397  30.690  28.113  1.00  0.00     0.251 C 
ATOM     30  H   UNL A   1      32.597  30.375  27.294  1.00  0.00     0.163 HD
ATOM     31  O   UNL A   1      34.142  31.846  28.429  1.00  0.00    -0.269 OA
BRANCH  29  32
ATOM     32  C   UNL A   1      35.746  30.132  28.362  1.00  0.00     0.039 A 
ATOM     33  C   UNL A   1      36.672  30.118  27.316  1.00  0.00     0.014 A 
ATOM     34  C   UNL A   1      36.099  29.630  29.617  1.00  0.00     0.014 A 
ATOM     35  C   UNL A   1      37.976  29.675  27.551  1.00  0.00     0.010 A 
ATOM     36  C   UNL A   1      37.417  29.254  29.869  1.00  0.00     0.010 A 
ATOM     37  C   UNL A   1      38.373  29.284  28.842  1.00  0.00    -0.014 A 
BRANCH  37  38
ATOM     38  C   UNL A   1      39.793  28.958  29.140  1.00  0.00     0.031 A 
ATOM     39  C   UNL A   1      40.716  29.995  29.718  1.00  0.00     0.074 A 
ATOM     40  C   UNL A   1      40.267  27.736  28.823  1.00  0.00     0.049 A 
ATOM     41  N   UNL A   1      41.991  29.896  29.997  1.00  0.00    -0.248 NA
ATOM     42  C   UNL A   1      40.140  31.319  30.003  1.00  0.00     0.031 C 
ATOM     43  C   UNL A   1      39.483  26.656  28.215  1.00  0.00     0.029 A 
ATOM     44  N   UNL A   1      41.522  27.194  28.959  1.00  0.00    -0.354 N 
ATOM     45  C   UNL A   1      42.373  31.144  30.477  1.00  0.00     0.074 A 
ATOM     46  C   UNL A   1      41.206  31.995  30.410  1.00  0.00     0.031 C 
ATOM     47  C   UNL A   1      40.267  25.578  28.055  1.00  0.00     0.029 A 
ATOM     48  C   UNL A   1      41.618  25.900  28.502  1.00  0.00     0.049 A 
ATOM     49  H   UNL A   1      42.281  27.686  29.347  1.00  0.00     0.167 HD
ATOM     50  C   UNL A   1      43.582  31.539  30.944  1.00  0.00     0.031 A 
ATOM     51  C   UNL A   1      42.676  25.069  28.431  1.00  0.00     0.031 A 
ATOM     52  C   UNL A   1      44.741  30.685  31.009  1.00  0.00     0.049 A 
ATOM     53  C   UNL A   1      44.013  25.540  28.934  1.00  0.00     0.074 A 
ATOM     54  C   UNL A   1      45.992  30.976  31.527  1.00  0.00     0.029 A 
ATOM     55  N   UNL A   1      44.799  29.384  30.535  1.00  0.00    -0.354 N 
ATOM     56  N   UNL A   1      44.331  26.697  29.463  1.00  0.00    -0.248 NA
ATOM     57  C   UNL A   1      45.132  24.593  28.835  1.00  0.00     0.031 C 
ATOM     58  C   UNL A   1      46.824  29.875  31.302  1.00  0.00     0.029 A 
ATOM     59  C   UNL A   1      46.075  28.873  30.709  1.00  0.00     0.049 A 
ATOM     60  H   UNL A   1      44.044  28.895  30.134  1.00  0.00     0.167 HD
ATOM     61  C   UNL A   1      45.683  26.610  29.776  1.00  0.00     0.074 A 
ATOM     62  C   UNL A   1      46.114  25.279  29.402  1.00  0.00     0.031 C 
ATOM     63  C   UNL A   1      46.496  27.550  30.321  1.00  0.00     0.031 A 
BRANCH  50  64
ATOM     64  C   UNL A   1      43.725  32.965  31.411  1.00  0.00    -0.014 A 
ATOM     65  C   UNL A   1      43.194  33.387  32.643  1.00  0.00     0.010 A 
ATOM     66  C   UNL A   1      44.460  33.881  30.635  1.00  0.00     0.010 A 
ATOM     67  C   UNL A   1      43.365  34.705  33.075  1.00  0.00     0.020 A 
ATOM     68  C   UNL A   1      44.659  35.193  31.076  1.00  0.00     0.020 A 
ATOM     69  C   UNL A   1      44.098  35.600  32.288  1.00  0.00     0.054 A 
BRANCH  69  70
ATOM     70  S   UNL A   1      44.334  37.293  32.893  1.00  0.00     0.124 S 
ATOM     71  O   UNL A   1      43.352  37.367  33.971  1.00  0.00    -0.237 OA
ATOM     72  O   UNL A   1      45.732  37.290  33.314  1.00  0.00    -0.237 OA
ATOM     73  O   UNL A   1      44.040  38.123  31.727  1.00  0.00    -0.744 OA
ENDBRANCH  69  70
ENDBRANCH  50  64
BRANCH  51  74
ATOM     74  C   UNL A   1      42.515  23.707  27.850  1.00  0.00    -0.014 A 
ATOM     75  C   UNL A   1      42.544  23.510  26.458  1.00  0.00     0.010 A 
ATOM     76  C   UNL A   1      42.337  22.593  28.693  1.00  0.00     0.010 A 
ATOM     77  C   UNL A   1      42.378  22.229  25.921  1.00  0.00     0.020 A 
ATOM     78  C   UNL A   1      42.203  21.308  28.162  1.00  0.00     0.020 A 
ATOM     79  C   UNL A   1      42.210  21.137  26.777  1.00  0.00     0.054 A 
BRANCH  79  80
ATOM     80  S   UNL A   1      42.041  19.479  26.059  1.00  0.00     0.124 S 
ATOM     81  O   UNL A   1      42.484  18.626  27.156  1.00  0.00    -0.237 OA
ATOM     82  O   UNL A   1      40.616  19.419  25.742  1.00  0.00    -0.237 OA
ATOM     83  O   UNL A   1      42.928  19.518  24.898  1.00  0.00    -0.744 OA
ENDBRANCH  79  80
ENDBRANCH  51  74
BRANCH  63  84
ATOM     84  C   UNL A   1      47.934  27.169  30.558  1.00  0.00    -0.014 A 
ATOM     85  C   UNL A   1      48.915  27.385  29.575  1.00  0.00     0.010 A 
ATOM     86  C   UNL A   1      48.318  26.635  31.802  1.00  0.00     0.010 A 
ATOM     87  C   UNL A   1      50.249  27.046  29.819  1.00  0.00     0.020 A 
ATOM     88  C   UNL A   1      49.656  26.324  32.062  1.00  0.00     0.020 A 
ATOM     89  C   UNL A   1      50.611  26.520  31.063  1.00  0.00     0.054 A 
BRANCH  89  90
ATOM     90  S   UNL A   1      52.355  26.132  31.369  1.00  0.00     0.124 S 
ATOM     91  O   UNL A   1      52.916  26.167  30.021  1.00  0.00    -0.237 OA
ATOM     92  O   UNL A   1      52.774  27.218  32.252  1.00  0.00    -0.237 OA
ATOM     93  O   UNL A   1      52.313  24.810  31.991  1.00  0.00    -0.744 OA
ENDBRANCH  89  90
ENDBRANCH  63  84
ENDBRANCH  37  38
ENDBRANCH  29  32
ENDBRANCH  27  28
ENDBRANCH  26  27
ENDBRANCH   1  26
TORSDOF 18
ENDMDL
MODEL 3
REMARK VINA RESULT:      -9.3      4.745     11.780
REMARK SMILES Cc1ccc(C(=O)N[C@@H]2C=C[C@H](C(=O)NCCCCCCNC(=O)c3ccc(-c4c5nc(c(-c6ccc(S(=O)(=O)[O-])cc6)c6ccc([nH]6)c(-c6ccc(S(=O)(=O)[O-])cc6)c6nc(c(-c7ccc(S(=O)(=O)[O-])cc7)c7ccc4[nH]7)C=C6)C=C5)cc3)C2)c(F)c1
REMARK SMILES IDX 19 1 18 2 17 3 16 4 15 5 13 6 14 7 12 9 9 10 10 11 85 12
REMARK SMILES IDX 11 13 8 14 6 15 7 16 5 18 1 19 2 20 3 21 88 22 4 23 86 24
REMARK SMILES IDX 87 25 20 26 21 27 22 28 23 29 24 31 25 32 26 33 84 34 27 35
REMARK SMILES IDX 83 36 28 37 29 38 30 39 77 40 31 41 82 42 76 43 78 44 32 45
REMARK SMILES IDX 81 46 75 47 74 48 33 50 63 51 44 52 62 53 45 54 48 55 61 56
REMARK SMILES IDX 79 57 46 58 47 59 60 61 80 62 49 63 34 64 35 65 43 66 36 67
REMARK SMILES IDX 42 68 37 69 38 70 39 71 40 72 41 73 64 74 65 75 73 76 66 77
REMARK SMILES IDX 72 78 67 79 68 80 69 81 70 82 71 83 50 84 51 85 59 86 52 87
REMARK SMILES IDX 58 88 53 89 54 90 55 91 56 92 57 93
REMARK H PARENT 15 8 8 17 22 30 78 49 48 60
REMARK Flexibility Score: inf
ROOT
ATOM      1  C   UNL A   1      35.262  22.005  26.376  1.00  0.00     0.002 C 
ENDROOT
BRANCH   1   2
ATOM      2  C   UNL A   1      35.228  21.064  25.169  1.00  0.00     0.002 C 
BRANCH   2   3
ATOM      3  C   UNL A   1      33.977  20.185  25.049  1.00  0.00     0.021 C 
BRANCH   3   4
ATOM      4  C   UNL A   1      32.974  20.607  23.974  1.00  0.00     0.116 C 
BRANCH   4   5
ATOM      5  N   UNL A   1      32.100  21.682  24.412  1.00  0.00    -0.356 N 
ATOM      6  C   UNL A   1      32.126  23.006  24.073  1.00  0.00     0.227 C 
ATOM      7  O   UNL A   1      31.204  23.725  24.459  1.00  0.00    -0.274 OA
ATOM      8  H   UNL A   1      31.390  21.419  25.042  1.00  0.00     0.163 HD
BRANCH   6   9
ATOM      9  C   UNL A   1      33.329  23.533  23.289  1.00  0.00     0.103 C 
ATOM     10  C   UNL A   1      32.978  25.721  22.178  1.00  0.00     0.106 C 
ATOM     11  C   UNL A   1      33.028  24.583  21.204  1.00  0.00    -0.006 C 
ATOM     12  C   UNL A   1      33.430  25.048  23.484  1.00  0.00     0.047 C 
ATOM     13  C   UNL A   1      33.200  23.401  21.806  1.00  0.00    -0.016 C 
BRANCH  10  14
ATOM     14  N   UNL A   1      31.645  26.297  22.107  1.00  0.00    -0.346 N 
ATOM     15  C   UNL A   1      31.085  27.426  22.657  1.00  0.00     0.254 C 
ATOM     16  O   UNL A   1      30.046  27.876  22.182  1.00  0.00    -0.269 OA
ATOM     17  H   UNL A   1      31.019  25.773  21.557  1.00  0.00     0.164 HD
BRANCH  15  18
ATOM     18  C   UNL A   1      31.658  28.037  23.867  1.00  0.00     0.075 A 
ATOM     19  C   UNL A   1      33.917  28.865  27.420  1.00  0.00     0.044 C 
ATOM     20  C   UNL A   1      33.066  28.667  26.200  1.00  0.00    -0.048 A 
ATOM     21  C   UNL A   1      33.406  29.275  24.983  1.00  0.00     0.004 A 
ATOM     22  C   UNL A   1      31.922  27.865  26.266  1.00  0.00     0.043 A 
ATOM     23  C   UNL A   1      32.687  28.981  23.819  1.00  0.00     0.017 A 
ATOM     24  C   UNL A   1      31.231  27.545  25.101  1.00  0.00     0.136 A 
ATOM     25  F   UNL A   1      30.197  26.697  25.195  1.00  0.00    -0.206 F 
ENDBRANCH  15  18
ENDBRANCH  10  14
ENDBRANCH   6   9
ENDBRANCH   4   5
ENDBRANCH   3   4
ENDBRANCH   2   3
ENDBRANCH   1   2
BRANCH   1  26
ATOM     26  C   UNL A   1      35.669  23.448  26.072  1.00  0.00     0.021 C 
BRANCH  26  27
ATOM     27  C   UNL A   1      36.920  23.600  25.210  1.00  0.00     0.116 C 
BRANCH  27  28
ATOM     28  N   UNL A   1      37.970  22.665  25.584  1.00  0.00    -0.352 N 
ATOM     29  C   UNL A   1      39.155  22.895  26.243  1.00  0.00     0.251 C 
ATOM     30  H   UNL A   1      37.808  21.729  25.328  1.00  0.00     0.163 HD
ATOM     31  O   UNL A   1      39.998  22.009  26.312  1.00  0.00    -0.269 OA
BRANCH  29  32
ATOM     32  C   UNL A   1      39.421  24.221  26.844  1.00  0.00     0.039 A 
ATOM     33  C   UNL A   1      38.968  24.476  28.142  1.00  0.00     0.014 A 
ATOM     34  C   UNL A   1      40.115  25.208  26.139  1.00  0.00     0.014 A 
ATOM     35  C   UNL A   1      39.281  25.689  28.759  1.00  0.00     0.010 A 
ATOM     36  C   UNL A   1      40.487  26.389  26.780  1.00  0.00     0.010 A 
ATOM     37  C   UNL A   1      40.085  26.637  28.101  1.00  0.00    -0.014 A 
BRANCH  37  38
ATOM     38  C   UNL A   1      40.553  27.862  28.802  1.00  0.00     0.031 A 
ATOM     39  C   UNL A   1      41.912  27.909  29.445  1.00  0.00     0.074 A 
ATOM     40  C   UNL A   1      39.718  28.914  28.915  1.00  0.00     0.049 A 
ATOM     41  N   UNL A   1      42.463  28.876  30.133  1.00  0.00    -0.248 NA
ATOM     42  C   UNL A   1      42.756  26.709  29.315  1.00  0.00     0.031 C 
ATOM     43  C   UNL A   1      38.357  28.976  28.375  1.00  0.00     0.029 A 
ATOM     44  N   UNL A   1      39.883  30.132  29.527  1.00  0.00    -0.354 N 
ATOM     45  C   UNL A   1      43.708  28.401  30.528  1.00  0.00     0.074 A 
ATOM     46  C   UNL A   1      43.814  27.043  30.041  1.00  0.00     0.031 C 
ATOM     47  C   UNL A   1      37.823  30.175  28.657  1.00  0.00     0.029 A 
ATOM     48  C   UNL A   1      38.781  30.950  29.438  1.00  0.00     0.049 A 
ATOM     49  H   UNL A   1      40.713  30.395  29.987  1.00  0.00     0.167 HD
ATOM     50  C   UNL A   1      44.679  29.042  31.222  1.00  0.00     0.031 A 
ATOM     51  C   UNL A   1      38.555  32.180  29.942  1.00  0.00     0.031 A 
ATOM     52  C   UNL A   1      44.568  30.395  31.705  1.00  0.00     0.049 A 
ATOM     53  C   UNL A   1      39.640  32.860  30.729  1.00  0.00     0.074 A 
ATOM     54  C   UNL A   1      45.523  31.153  32.360  1.00  0.00     0.029 A 
ATOM     55  N   UNL A   1      43.436  31.189  31.596  1.00  0.00    -0.354 N 
ATOM     56  N   UNL A   1      40.843  32.424  31.018  1.00  0.00    -0.248 NA
ATOM     57  C   UNL A   1      39.341  34.199  31.254  1.00  0.00     0.031 C 
ATOM     58  C   UNL A   1      44.945  32.378  32.710  1.00  0.00     0.029 A 
ATOM     59  C   UNL A   1      43.654  32.411  32.210  1.00  0.00     0.049 A 
ATOM     60  H   UNL A   1      42.600  30.922  31.149  1.00  0.00     0.167 HD
ATOM     61  C   UNL A   1      41.450  33.444  31.743  1.00  0.00     0.074 A 
ATOM     62  C   UNL A   1      40.491  34.526  31.825  1.00  0.00     0.031 C 
ATOM     63  C   UNL A   1      42.688  33.478  32.296  1.00  0.00     0.031 A 
BRANCH  50  64
ATOM     64  C   UNL A   1      45.949  28.286  31.519  1.00  0.00    -0.014 A 
ATOM     65  C   UNL A   1      47.056  28.350  30.653  1.00  0.00     0.010 A 
ATOM     66  C   UNL A   1      46.060  27.553  32.716  1.00  0.00     0.010 A 
ATOM     67  C   UNL A   1      48.237  27.669  30.962  1.00  0.00     0.020 A 
ATOM     68  C   UNL A   1      47.249  26.895  33.042  1.00  0.00     0.020 A 
ATOM     69  C   UNL A   1      48.326  26.946  32.156  1.00  0.00     0.054 A 
BRANCH  69  70
ATOM     70  S   UNL A   1      49.884  26.103  32.545  1.00  0.00     0.124 S 
ATOM     71  O   UNL A   1      49.747  25.866  33.980  1.00  0.00    -0.237 OA
ATOM     72  O   UNL A   1      49.822  24.913  31.702  1.00  0.00    -0.237 OA
ATOM     73  O   UNL A   1      50.908  27.075  32.171  1.00  0.00    -0.744 OA
ENDBRANCH  69  70
ENDBRANCH  50  64
BRANCH  51  74
ATOM     74  C   UNL A   1      37.238  32.842  29.726  1.00  0.00    -0.014 A 
ATOM     75  C   UNL A   1      36.344  33.032  30.794  1.00  0.00     0.010 A 
ATOM     76  C   UNL A   1      36.874  33.292  28.442  1.00  0.00     0.010 A 
ATOM     77  C   UNL A   1      35.103  33.642  30.579  1.00  0.00     0.020 A 
ATOM     78  C   UNL A   1      35.649  33.931  28.230  1.00  0.00     0.020 A 
ATOM     79  C   UNL A   1      34.766  34.089  29.298  1.00  0.00     0.054 A 
BRANCH  79  80
ATOM     80  S   UNL A   1      33.170  34.917  29.052  1.00  0.00     0.124 S 
ATOM     81  O   UNL A   1      32.568  34.816  30.377  1.00  0.00    -0.237 OA
ATOM     82  O   UNL A   1      33.574  36.259  28.639  1.00  0.00    -0.237 OA
ATOM     83  O   UNL A   1      32.529  34.119  28.009  1.00  0.00    -0.744 OA
ENDBRANCH  79  80
ENDBRANCH  51  74
BRANCH  63  84
ATOM     84  C   UNL A   1      43.086  34.732  33.029  1.00  0.00    -0.014 A 
ATOM     85  C   UNL A   1      42.894  34.856  34.416  1.00  0.00     0.010 A 
ATOM     86  C   UNL A   1      43.707  35.782  32.328  1.00  0.00     0.010 A 
ATOM     87  C   UNL A   1      43.288  36.019  35.084  1.00  0.00     0.020 A 
ATOM     88  C   UNL A   1      44.132  36.934  32.997  1.00  0.00     0.020 A 
ATOM     89  C   UNL A   1      43.907  37.049  34.370  1.00  0.00     0.054 A 
BRANCH  89  90
ATOM     90  S   UNL A   1      44.449  38.527  35.270  1.00  0.00     0.124 S 
ATOM     91  O   UNL A   1      45.898  38.478  35.090  1.00  0.00    -0.237 OA
ATOM     92  O   UNL A   1      43.764  39.603  34.558  1.00  0.00    -0.237 OA
ATOM     93  O   UNL A   1      43.983  38.293  36.635  1.00  0.00    -0.744 OA
ENDBRANCH  89  90
ENDBRANCH  63  84
ENDBRANCH  37  38
ENDBRANCH  29  32
ENDBRANCH  27  28
ENDBRANCH  26  27
ENDBRANCH   1  26
TORSDOF 18
ENDMDL
