MODEL 1
REMARK VINA RESULT:     -12.7      0.000      0.000
REMARK SMILES NC(=O)c1cc(NC(=O)/C=C\C(=O)NCCCCCCNC(=O)c2ccc(-c3c4nc(c(-c5ccc(S(=O)(=O)[O-])cc5)c5ccc([nH]5)c(-c5ccc(S(=O)(=O)[O-])cc5)c5nc(c(-c6ccc(S(=O)(=O)[O-])cc6)c6ccc3[nH]6)C=C5)C=C4)cc2)ccc1N1CCOCC1
REMARK SMILES IDX 17 1 16 2 15 3 14 4 12 5 13 6 11 8 10 9 8 10 7 11 9 13 6 14
REMARK SMILES IDX 4 15 5 16 86 17 85 18 84 19 2 20 1 21 3 24 87 25 88 26 92 27
REMARK SMILES IDX 89 28 91 29 90 30 18 31 19 32 20 33 21 34 22 35 23 37 24 38
REMARK SMILES IDX 25 39 83 40 26 41 82 42 27 43 28 44 29 45 76 46 30 47 81 48
REMARK SMILES IDX 75 49 77 50 31 51 80 52 74 53 73 54 32 56 62 57 43 58 61 59
REMARK SMILES IDX 44 60 47 61 60 62 78 63 45 64 46 65 59 67 79 68 48 69 33 70
REMARK SMILES IDX 34 71 42 72 35 73 41 74 36 75 37 76 38 77 39 78 40 79 63 80
REMARK SMILES IDX 64 81 72 82 65 83 71 84 66 85 67 86 68 87 69 88 70 89 49 90
REMARK SMILES IDX 50 91 58 92 51 93 57 94 52 95 53 96 54 97 55 98 56 99
REMARK H PARENT 14 7 7 12 1 22 1 23 21 36 77 55 47 66
REMARK Flexibility Score: inf
ROOT
ATOM      1  C   UNL A   1      38.863  23.721  26.201  1.00  0.00     0.002 C 
ENDROOT
BRANCH   1   2
ATOM      2  C   UNL A   1      37.343  23.683  26.125  1.00  0.00     0.021 C 
BRANCH   2   3
ATOM      3  C   UNL A   1      36.767  23.177  24.770  1.00  0.00     0.116 C 
BRANCH   3   4
ATOM      4  N   UNL A   1      35.659  21.886  24.795  1.00  0.00    -0.353 N 
ATOM      5  C   UNL A   1      33.747  21.462  24.549  1.00  0.00     0.244 C 
ATOM      6  O   UNL A   1      33.103  20.400  24.780  1.00  0.00    -0.270 OA
ATOM      7  H   UNL A   1      36.143  21.055  25.007  1.00  0.00     0.163 HD
BRANCH   5   8
ATOM      8  C   UNL A   1      32.503  22.407  23.775  1.00  0.00     0.077 C 
ATOM      9  C   UNL A   1      31.401  23.116  24.108  1.00  0.00     0.077 C 
BRANCH   9  10
ATOM     10  C   UNL A   1      30.788  23.214  25.461  1.00  0.00     0.248 C 
ATOM     11  N   UNL A   1      30.631  24.486  25.902  1.00  0.00    -0.322 N 
ATOM     12  H   UNL A   1      30.585  24.687  26.865  1.00  0.00     0.170 HD
ATOM     13  O   UNL A   1      30.592  22.225  26.152  1.00  0.00    -0.270 OA
BRANCH  11  14
ATOM     14  C   UNL A   1      30.535  25.491  24.960  1.00  0.00     0.042 A 
ATOM     15  C   UNL A   1      31.677  28.266  23.930  1.00  0.00     0.064 A 
ATOM     16  C   UNL A   1      31.977  26.645  24.710  1.00  0.00     0.042 A 
ATOM     17  C   UNL A   1      30.018  28.723  23.318  1.00  0.00     0.050 A 
ATOM     18  C   UNL A   1      28.637  27.518  23.487  1.00  0.00     0.029 A 
ATOM     19  C   UNL A   1      28.881  25.932  24.332  1.00  0.00     0.028 A 
BRANCH  15  20
ATOM     20  C   UNL A   1      32.535  29.296  24.545  1.00  0.00     0.250 C 
ATOM     21  N   UNL A   1      33.628  29.601  23.784  1.00  0.00    -0.366 N 
ATOM     22  H   UNL A   1      34.272  30.277  24.097  1.00  0.00     0.159 HD
ATOM     23  H   UNL A   1      33.771  29.145  22.923  1.00  0.00     0.159 HD
ATOM     24  O   UNL A   1      32.214  29.920  25.542  1.00  0.00    -0.269 OA
ENDBRANCH  15  20
BRANCH  17  25
ATOM     25  N   UNL A   1      29.686  30.035  22.944  1.00  0.00    -0.366 N 
ATOM     26  C   UNL A   1      29.186  31.104  23.833  1.00  0.00     0.145 C 
ATOM     27  C   UNL A   1      29.626  30.398  21.517  1.00  0.00     0.145 C 
ATOM     28  C   UNL A   1      27.831  31.674  23.332  1.00  0.00     0.181 C 
ATOM     29  C   UNL A   1      28.215  30.878  21.155  1.00  0.00     0.181 C 
ATOM     30  O   UNL A   1      27.856  32.026  21.938  1.00  0.00    -0.378 OA
ENDBRANCH  17  25
ENDBRANCH  11  14
ENDBRANCH   9  10
ENDBRANCH   5   8
ENDBRANCH   3   4
ENDBRANCH   2   3
ENDBRANCH   1   2
BRANCH   1  31
ATOM     31  C   UNL A   1      39.430  22.358  26.578  1.00  0.00     0.002 C 
BRANCH  31  32
ATOM     32  C   UNL A   1      40.956  22.262  26.447  1.00  0.00     0.021 C 
BRANCH  32  33
ATOM     33  C   UNL A   1      41.698  23.433  27.079  1.00  0.00     0.116 C 
BRANCH  33  34
ATOM     34  N   UNL A   1      42.298  24.257  26.041  1.00  0.00    -0.352 N 
ATOM     35  C   UNL A   1      42.146  25.611  25.887  1.00  0.00     0.251 C 
ATOM     36  H   UNL A   1      42.870  23.797  25.387  1.00  0.00     0.163 HD
ATOM     37  O   UNL A   1      42.279  26.139  24.790  1.00  0.00    -0.269 OA
BRANCH  35  38
ATOM     38  C   UNL A   1      41.838  26.404  27.090  1.00  0.00     0.039 A 
ATOM     39  C   UNL A   1      40.789  26.024  27.922  1.00  0.00     0.014 A 
ATOM     40  C   UNL A   1      42.625  27.525  27.384  1.00  0.00     0.014 A 
ATOM     41  C   UNL A   1      40.527  26.782  29.061  1.00  0.00     0.010 A 
ATOM     42  C   UNL A   1      42.430  28.209  28.573  1.00  0.00     0.010 A 
ATOM     43  C   UNL A   1      41.349  27.875  29.396  1.00  0.00    -0.014 A 
BRANCH  43  44
ATOM     44  C   UNL A   1      41.038  28.723  30.570  1.00  0.00     0.031 A 
ATOM     45  C   UNL A   1      41.865  28.592  31.821  1.00  0.00     0.074 A 
ATOM     46  C   UNL A   1      40.018  29.598  30.506  1.00  0.00     0.049 A 
ATOM     47  N   UNL A   1      41.781  29.270  32.936  1.00  0.00    -0.248 NA
ATOM     48  C   UNL A   1      42.909  27.551  31.836  1.00  0.00     0.031 C 
ATOM     49  C   UNL A   1      39.125  29.776  29.357  1.00  0.00     0.029 A 
ATOM     50  N   UNL A   1      39.571  30.514  31.421  1.00  0.00    -0.354 N 
ATOM     51  C   UNL A   1      42.748  28.733  33.778  1.00  0.00     0.074 A 
ATOM     52  C   UNL A   1      43.358  27.628  33.078  1.00  0.00     0.031 C 
ATOM     53  C   UNL A   1      38.273  30.780  29.617  1.00  0.00     0.029 A 
ATOM     54  C   UNL A   1      38.525  31.281  30.964  1.00  0.00     0.049 A 
ATOM     55  H   UNL A   1      39.961  30.615  32.319  1.00  0.00     0.167 HD
ATOM     56  C   UNL A   1      43.118  29.145  35.013  1.00  0.00     0.031 A 
ATOM     57  C   UNL A   1      37.847  32.276  31.566  1.00  0.00     0.031 A 
ATOM     58  C   UNL A   1      42.503  30.247  35.701  1.00  0.00     0.049 A 
ATOM     59  C   UNL A   1      38.259  32.696  32.951  1.00  0.00     0.074 A 
ATOM     60  C   UNL A   1      42.826  30.777  36.936  1.00  0.00     0.029 A 
ATOM     61  N   UNL A   1      41.433  30.984  35.215  1.00  0.00    -0.354 N 
ATOM     62  N   UNL A   1      39.222  32.223  33.706  1.00  0.00    -0.248 NA
ATOM     63  C   UNL A   1      37.504  33.800  33.556  1.00  0.00     0.031 C 
ATOM     64  C   UNL A   1      41.902  31.782  37.231  1.00  0.00     0.029 A 
ATOM     65  C   UNL A   1      41.062  31.944  36.140  1.00  0.00     0.049 A 
ATOM     66  H   UNL A   1      41.000  30.845  34.341  1.00  0.00     0.167 HD
ATOM     67  C   UNL A   1      39.214  32.998  34.860  1.00  0.00     0.074 A 
ATOM     68  C   UNL A   1      38.162  33.981  34.692  1.00  0.00     0.031 C 
ATOM     69  C   UNL A   1      40.008  32.912  35.957  1.00  0.00     0.031 A 
BRANCH  56  70
ATOM     70  C   UNL A   1      44.225  28.386  35.701  1.00  0.00    -0.014 A 
ATOM     71  C   UNL A   1      45.579  28.612  35.383  1.00  0.00     0.010 A 
ATOM     72  C   UNL A   1      43.909  27.459  36.711  1.00  0.00     0.010 A 
ATOM     73  C   UNL A   1      46.589  27.898  36.032  1.00  0.00     0.020 A 
ATOM     74  C   UNL A   1      44.918  26.770  37.389  1.00  0.00     0.020 A 
ATOM     75  C   UNL A   1      46.251  26.983  37.035  1.00  0.00     0.054 A 
BRANCH  75  76
ATOM     76  S   UNL A   1      47.586  26.099  37.885  1.00  0.00     0.124 S 
ATOM     77  O   UNL A   1      48.550  25.895  36.806  1.00  0.00    -0.237 OA
ATOM     78  O   UNL A   1      47.991  27.051  38.916  1.00  0.00    -0.237 OA
ATOM     79  O   UNL A   1      46.941  24.885  38.378  1.00  0.00    -0.744 OA
ENDBRANCH  75  76
ENDBRANCH  56  70
BRANCH  57  80
ATOM     80  C   UNL A   1      36.724  32.949  30.857  1.00  0.00    -0.014 A 
ATOM     81  C   UNL A   1      36.957  33.739  29.717  1.00  0.00     0.010 A 
ATOM     82  C   UNL A   1      35.405  32.798  31.322  1.00  0.00     0.010 A 
ATOM     83  C   UNL A   1      35.897  34.386  29.073  1.00  0.00     0.020 A 
ATOM     84  C   UNL A   1      34.338  33.411  30.659  1.00  0.00     0.020 A 
ATOM     85  C   UNL A   1      34.594  34.213  29.547  1.00  0.00     0.054 A 
BRANCH  85  86
ATOM     86  S   UNL A   1      33.230  35.027  28.671  1.00  0.00     0.124 S 
ATOM     87  O   UNL A   1      32.409  35.517  29.773  1.00  0.00    -0.237 OA
ATOM     88  O   UNL A   1      33.925  36.050  27.895  1.00  0.00    -0.237 OA
ATOM     89  O   UNL A   1      32.639  33.950  27.880  1.00  0.00    -0.744 OA
ENDBRANCH  85  86
ENDBRANCH  57  80
BRANCH  69  90
ATOM     90  C   UNL A   1      39.811  33.945  37.037  1.00  0.00    -0.014 A 
ATOM     91  C   UNL A   1      40.335  35.245  36.927  1.00  0.00     0.010 A 
ATOM     92  C   UNL A   1      39.057  33.606  38.177  1.00  0.00     0.010 A 
ATOM     93  C   UNL A   1      40.156  36.168  37.961  1.00  0.00     0.020 A 
ATOM     94  C   UNL A   1      38.840  34.538  39.192  1.00  0.00     0.020 A 
ATOM     95  C   UNL A   1      39.410  35.807  39.089  1.00  0.00     0.054 A 
BRANCH  95  96
ATOM     96  S   UNL A   1      39.183  37.026  40.410  1.00  0.00     0.124 S 
ATOM     97  O   UNL A   1      40.516  37.082  41.004  1.00  0.00    -0.237 OA
ATOM     98  O   UNL A   1      38.770  38.219  39.675  1.00  0.00    -0.237 OA
ATOM     99  O   UNL A   1      38.148  36.433  41.256  1.00  0.00    -0.744 OA
ENDBRANCH  95  96
ENDBRANCH  69  90
ENDBRANCH  43  44
ENDBRANCH  35  38
ENDBRANCH  33  34
ENDBRANCH  32  33
ENDBRANCH  31  32
ENDBRANCH   1  31
TORSDOF 20
ENDMDL
MODEL 2
REMARK VINA RESULT:     -12.3      6.160      8.381
REMARK SMILES NC(=O)c1cc(NC(=O)/C=C\C(=O)NCCCCCCNC(=O)c2ccc(-c3c4nc(c(-c5ccc(S(=O)(=O)[O-])cc5)c5ccc([nH]5)c(-c5ccc(S(=O)(=O)[O-])cc5)c5nc(c(-c6ccc(S(=O)(=O)[O-])cc6)c6ccc3[nH]6)C=C5)C=C4)cc2)ccc1N1CCOCC1
REMARK SMILES IDX 17 1 16 2 15 3 14 4 12 5 13 6 11 8 10 9 8 10 7 11 9 13 6 14
REMARK SMILES IDX 4 15 5 16 86 17 85 18 84 19 2 20 1 21 3 24 87 25 88 26 92 27
REMARK SMILES IDX 89 28 91 29 90 30 18 31 19 32 20 33 21 34 22 35 23 37 24 38
REMARK SMILES IDX 25 39 83 40 26 41 82 42 27 43 28 44 29 45 76 46 30 47 81 48
REMARK SMILES IDX 75 49 77 50 31 51 80 52 74 53 73 54 32 56 62 57 43 58 61 59
REMARK SMILES IDX 44 60 47 61 60 62 78 63 45 64 46 65 59 67 79 68 48 69 33 70
REMARK SMILES IDX 34 71 42 72 35 73 41 74 36 75 37 76 38 77 39 78 40 79 63 80
REMARK SMILES IDX 64 81 72 82 65 83 71 84 66 85 67 86 68 87 69 88 70 89 49 90
REMARK SMILES IDX 50 91 58 92 51 93 57 94 52 95 53 96 54 97 55 98 56 99
REMARK H PARENT 14 7 7 12 1 22 1 23 21 36 77 55 47 66
REMARK Flexibility Score: inf
ROOT
ATOM      1  C   UNL A   1      40.782  22.593  28.074  1.00  0.00     0.002 C 
ENDROOT
BRANCH   1   2
ATOM      2  C   UNL A   1      40.516  23.386  26.801  1.00  0.00     0.021 C 
BRANCH   2   3
ATOM      3  C   UNL A   1      39.136  24.104  26.753  1.00  0.00     0.116 C 
BRANCH   3   4
ATOM      4  N   UNL A   1      38.088  23.757  25.459  1.00  0.00    -0.353 N 
ATOM      5  C   UNL A   1      36.190  23.435  25.028  1.00  0.00     0.244 C 
ATOM      6  O   UNL A   1      35.645  23.026  23.964  1.00  0.00    -0.270 OA
ATOM      7  H   UNL A   1      38.616  23.695  24.630  1.00  0.00     0.163 HD
BRANCH   5   8
ATOM      8  C   UNL A   1      34.770  23.813  25.967  1.00  0.00     0.077 C 
ATOM      9  C   UNL A   1      33.678  23.192  26.465  1.00  0.00     0.077 C 
BRANCH   9  10
ATOM     10  C   UNL A   1      33.271  21.781  26.215  1.00  0.00     0.248 C 
ATOM     11  N   UNL A   1      31.959  21.634  25.912  1.00  0.00    -0.322 N 
ATOM     12  H   UNL A   1      31.494  20.782  26.074  1.00  0.00     0.170 HD
ATOM     13  O   UNL A   1      34.032  20.846  26.418  1.00  0.00    -0.270 OA
BRANCH  11  14
ATOM     14  C   UNL A   1      31.295  22.715  25.365  1.00  0.00     0.042 A 
ATOM     15  C   UNL A   1      31.273  24.930  23.093  1.00  0.00     0.064 A 
ATOM     16  C   UNL A   1      31.683  23.231  23.616  1.00  0.00     0.042 A 
ATOM     17  C   UNL A   1      30.417  26.081  24.223  1.00  0.00     0.050 A 
ATOM     18  C   UNL A   1      29.956  25.506  25.909  1.00  0.00     0.029 A 
ATOM     19  C   UNL A   1      30.422  23.852  26.490  1.00  0.00     0.028 A 
BRANCH  15  20
ATOM     20  C   UNL A   1      32.305  25.444  22.174  1.00  0.00     0.250 C 
ATOM     21  N   UNL A   1      31.816  25.730  20.931  1.00  0.00    -0.366 N 
ATOM     22  H   UNL A   1      32.417  26.081  20.234  1.00  0.00     0.159 HD
ATOM     23  H   UNL A   1      30.862  25.586  20.733  1.00  0.00     0.159 HD
ATOM     24  O   UNL A   1      33.433  25.735  22.536  1.00  0.00    -0.269 OA
ENDBRANCH  15  20
BRANCH  17  25
ATOM     25  N   UNL A   1      30.306  27.455  23.958  1.00  0.00    -0.366 N 
ATOM     26  C   UNL A   1      29.237  28.119  23.183  1.00  0.00     0.145 C 
ATOM     27  C   UNL A   1      31.422  28.358  24.291  1.00  0.00     0.145 C 
ATOM     28  C   UNL A   1      29.818  28.947  22.004  1.00  0.00     0.181 C 
ATOM     29  C   UNL A   1      31.933  29.053  23.023  1.00  0.00     0.181 C 
ATOM     30  O   UNL A   1      30.886  29.821  22.410  1.00  0.00    -0.378 OA
ENDBRANCH  17  25
ENDBRANCH  11  14
ENDBRANCH   9  10
ENDBRANCH   5   8
ENDBRANCH   3   4
ENDBRANCH   2   3
ENDBRANCH   1   2
BRANCH   1  31
ATOM     31  C   UNL A   1      42.087  21.812  27.975  1.00  0.00     0.002 C 
BRANCH  31  32
ATOM     32  C   UNL A   1      41.909  20.359  27.517  1.00  0.00     0.021 C 
BRANCH  32  33
ATOM     33  C   UNL A   1      41.734  20.210  26.011  1.00  0.00     0.116 C 
BRANCH  33  34
ATOM     34  N   UNL A   1      42.902  19.557  25.441  1.00  0.00    -0.352 N 
ATOM     35  C   UNL A   1      43.985  20.177  24.872  1.00  0.00     0.251 C 
ATOM     36  H   UNL A   1      42.917  18.574  25.467  1.00  0.00     0.163 HD
ATOM     37  O   UNL A   1      44.672  19.604  24.036  1.00  0.00    -0.269 OA
BRANCH  35  38
ATOM     38  C   UNL A   1      44.301  21.544  25.319  1.00  0.00     0.039 A 
ATOM     39  C   UNL A   1      45.145  21.740  26.409  1.00  0.00     0.014 A 
ATOM     40  C   UNL A   1      43.757  22.631  24.623  1.00  0.00     0.014 A 
ATOM     41  C   UNL A   1      45.441  23.043  26.804  1.00  0.00     0.010 A 
ATOM     42  C   UNL A   1      44.141  23.921  24.951  1.00  0.00     0.010 A 
ATOM     43  C   UNL A   1      44.945  24.140  26.074  1.00  0.00    -0.014 A 
BRANCH  43  44
ATOM     44  C   UNL A   1      45.204  25.526  26.526  1.00  0.00     0.031 A 
ATOM     45  C   UNL A   1      46.583  26.112  26.377  1.00  0.00     0.074 A 
ATOM     46  C   UNL A   1      44.204  26.246  27.066  1.00  0.00     0.049 A 
ATOM     47  N   UNL A   1      47.000  27.316  26.671  1.00  0.00    -0.248 NA
ATOM     48  C   UNL A   1      47.640  25.227  25.853  1.00  0.00     0.031 C 
ATOM     49  C   UNL A   1      42.839  25.763  27.296  1.00  0.00     0.029 A 
ATOM     50  N   UNL A   1      44.175  27.544  27.505  1.00  0.00    -0.354 N 
ATOM     51  C   UNL A   1      48.359  27.327  26.376  1.00  0.00     0.074 A 
ATOM     52  C   UNL A   1      48.715  25.994  25.952  1.00  0.00     0.031 C 
ATOM     53  C   UNL A   1      42.094  26.768  27.781  1.00  0.00     0.029 A 
ATOM     54  C   UNL A   1      42.937  27.948  27.944  1.00  0.00     0.049 A 
ATOM     55  H   UNL A   1      44.965  28.131  27.505  1.00  0.00     0.167 HD
ATOM     56  C   UNL A   1      49.227  28.363  26.424  1.00  0.00     0.031 A 
ATOM     57  C   UNL A   1      42.528  29.137  28.424  1.00  0.00     0.031 A 
ATOM     58  C   UNL A   1      48.862  29.687  26.848  1.00  0.00     0.049 A 
ATOM     59  C   UNL A   1      43.521  30.267  28.495  1.00  0.00     0.074 A 
ATOM     60  C   UNL A   1      49.650  30.822  26.896  1.00  0.00     0.029 A 
ATOM     61  N   UNL A   1      47.604  30.051  27.307  1.00  0.00    -0.354 N 
ATOM     62  N   UNL A   1      44.786  30.279  28.146  1.00  0.00    -0.248 NA
ATOM     63  C   UNL A   1      43.022  31.550  29.004  1.00  0.00     0.031 C 
ATOM     64  C   UNL A   1      48.890  31.853  27.457  1.00  0.00     0.029 A 
ATOM     65  C   UNL A   1      47.602  31.387  27.670  1.00  0.00     0.049 A 
ATOM     66  H   UNL A   1      46.827  29.449  27.366  1.00  0.00     0.167 HD
ATOM     67  C   UNL A   1      45.224  31.581  28.358  1.00  0.00     0.074 A 
ATOM     68  C   UNL A   1      44.083  32.329  28.846  1.00  0.00     0.031 C 
ATOM     69  C   UNL A   1      46.457  32.113  28.159  1.00  0.00     0.031 A 
BRANCH  56  70
ATOM     70  C   UNL A   1      50.657  28.098  26.023  1.00  0.00    -0.014 A 
ATOM     71  C   UNL A   1      51.068  28.167  24.678  1.00  0.00     0.010 A 
ATOM     72  C   UNL A   1      51.614  27.813  27.013  1.00  0.00     0.010 A 
ATOM     73  C   UNL A   1      52.397  27.917  24.329  1.00  0.00     0.020 A 
ATOM     74  C   UNL A   1      52.953  27.599  26.672  1.00  0.00     0.020 A 
ATOM     75  C   UNL A   1      53.333  27.638  25.330  1.00  0.00     0.054 A 
BRANCH  75  76
ATOM     76  S   UNL A   1      55.057  27.355  24.850  1.00  0.00     0.124 S 
ATOM     77  O   UNL A   1      54.919  26.333  23.814  1.00  0.00    -0.237 OA
ATOM     78  O   UNL A   1      55.476  28.673  24.379  1.00  0.00    -0.237 OA
ATOM     79  O   UNL A   1      55.694  26.905  26.084  1.00  0.00    -0.744 OA
ENDBRANCH  75  76
ENDBRANCH  56  70
BRANCH  57  80
ATOM     80  C   UNL A   1      41.116  29.321  28.859  1.00  0.00    -0.014 A 
ATOM     81  C   UNL A   1      40.088  29.513  27.918  1.00  0.00     0.010 A 
ATOM     82  C   UNL A   1      40.792  29.304  30.228  1.00  0.00     0.010 A 
ATOM     83  C   UNL A   1      38.769  29.709  28.339  1.00  0.00     0.020 A 
ATOM     84  C   UNL A   1      39.470  29.461  30.651  1.00  0.00     0.020 A 
ATOM     85  C   UNL A   1      38.469  29.677  29.704  1.00  0.00     0.054 A 
BRANCH  85  86
ATOM     86  S   UNL A   1      36.745  29.892  30.224  1.00  0.00     0.124 S 
ATOM     87  O   UNL A   1      36.662  31.336  30.418  1.00  0.00    -0.237 OA
ATOM     88  O   UNL A   1      36.006  29.362  29.082  1.00  0.00    -0.237 OA
ATOM     89  O   UNL A   1      36.652  29.090  31.443  1.00  0.00    -0.744 OA
ENDBRANCH  85  86
ENDBRANCH  57  80
BRANCH  69  90
ATOM     90  C   UNL A   1      46.621  33.591  28.413  1.00  0.00    -0.014 A 
ATOM     91  C   UNL A   1      47.022  34.090  29.665  1.00  0.00     0.010 A 
ATOM     92  C   UNL A   1      46.393  34.495  27.357  1.00  0.00     0.010 A 
ATOM     93  C   UNL A   1      47.136  35.468  29.871  1.00  0.00     0.020 A 
ATOM     94  C   UNL A   1      46.549  35.868  27.548  1.00  0.00     0.020 A 
ATOM     95  C   UNL A   1      46.897  36.348  28.810  1.00  0.00     0.054 A 
BRANCH  95  96
ATOM     96  S   UNL A   1      47.065  38.129  29.101  1.00  0.00     0.124 S 
ATOM     97  O   UNL A   1      48.358  38.417  28.488  1.00  0.00    -0.237 OA
ATOM     98  O   UNL A   1      45.902  38.675  28.406  1.00  0.00    -0.237 OA
ATOM     99  O   UNL A   1      47.026  38.248  30.558  1.00  0.00    -0.744 OA
ENDBRANCH  95  96
ENDBRANCH  69  90
ENDBRANCH  43  44
ENDBRANCH  35  38
ENDBRANCH  33  34
ENDBRANCH  32  33
ENDBRANCH  31  32
ENDBRANCH   1  31
TORSDOF 20
ENDMDL
MODEL 3
REMARK VINA RESULT:     -10.7      6.593      7.807
REMARK SMILES NC(=O)c1cc(NC(=O)/C=C\C(=O)NCCCCCCNC(=O)c2ccc(-c3c4nc(c(-c5ccc(S(=O)(=O)[O-])cc5)c5ccc([nH]5)c(-c5ccc(S(=O)(=O)[O-])cc5)c5nc(c(-c6ccc(S(=O)(=O)[O-])cc6)c6ccc3[nH]6)C=C5)C=C4)cc2)ccc1N1CCOCC1
REMARK SMILES IDX 17 1 16 2 15 3 14 4 12 5 13 6 11 8 10 9 8 10 7 11 9 13 6 14
REMARK SMILES IDX 4 15 5 16 86 17 85 18 84 19 2 20 1 21 3 24 87 25 88 26 92 27
REMARK SMILES IDX 89 28 91 29 90 30 18 31 19 32 20 33 21 34 22 35 23 37 24 38
REMARK SMILES IDX 25 39 83 40 26 41 82 42 27 43 28 44 29 45 76 46 30 47 81 48
REMARK SMILES IDX 75 49 77 50 31 51 80 52 74 53 73 54 32 56 62 57 43 58 61 59
REMARK SMILES IDX 44 60 47 61 60 62 78 63 45 64 46 65 59 67 79 68 48 69 33 70
REMARK SMILES IDX 34 71 42 72 35 73 41 74 36 75 37 76 38 77 39 78 40 79 63 80
REMARK SMILES IDX 64 81 72 82 65 83 71 84 66 85 67 86 68 87 69 88 70 89 49 90
REMARK SMILES IDX 50 91 58 92 51 93 57 94 52 95 53 96 54 97 55 98 56 99
REMARK H PARENT 14 7 7 12 1 22 1 23 21 36 77 55 47 66
REMARK Flexibility Score: inf
ROOT
ATOM      1  C   UNL A   1      41.949  23.548  26.555  1.00  0.00     0.002 C 
ENDROOT
BRANCH   1   2
ATOM      2  C   UNL A   1      41.153  24.077  27.742  1.00  0.00     0.021 C 
BRANCH   2   3
ATOM      3  C   UNL A   1      39.633  24.279  27.473  1.00  0.00     0.116 C 
BRANCH   3   4
ATOM      4  N   UNL A   1      38.969  23.622  26.051  1.00  0.00    -0.353 N 
ATOM      5  C   UNL A   1      37.251  23.250  25.155  1.00  0.00     0.244 C 
ATOM      6  O   UNL A   1      36.993  22.583  24.113  1.00  0.00    -0.270 OA
ATOM      7  H   UNL A   1      39.703  23.323  25.466  1.00  0.00     0.163 HD
BRANCH   5   8
ATOM      8  C   UNL A   1      35.672  23.910  25.489  1.00  0.00     0.077 C 
ATOM      9  C   UNL A   1      34.412  23.479  25.722  1.00  0.00     0.077 C 
BRANCH   9  10
ATOM     10  C   UNL A   1      33.928  22.073  25.643  1.00  0.00     0.248 C 
ATOM     11  N   UNL A   1      32.587  21.961  25.488  1.00  0.00    -0.322 N 
ATOM     12  H   UNL A   1      32.110  21.149  25.772  1.00  0.00     0.170 HD
ATOM     13  O   UNL A   1      34.671  21.124  25.852  1.00  0.00    -0.270 OA
BRANCH  11  14
ATOM     14  C   UNL A   1      31.911  23.020  24.915  1.00  0.00     0.042 A 
ATOM     15  C   UNL A   1      31.824  25.132  22.549  1.00  0.00     0.064 A 
ATOM     16  C   UNL A   1      32.243  23.456  23.133  1.00  0.00     0.042 A 
ATOM     17  C   UNL A   1      31.010  26.337  23.653  1.00  0.00     0.050 A 
ATOM     18  C   UNL A   1      30.602  25.841  25.377  1.00  0.00     0.029 A 
ATOM     19  C   UNL A   1      31.080  24.212  26.016  1.00  0.00     0.028 A 
BRANCH  15  20
ATOM     20  C   UNL A   1      32.829  25.600  21.575  1.00  0.00     0.250 C 
ATOM     21  N   UNL A   1      32.342  25.667  20.300  1.00  0.00    -0.366 N 
ATOM     22  H   UNL A   1      32.925  25.967  19.566  1.00  0.00     0.159 HD
ATOM     23  H   UNL A   1      31.407  25.417  20.116  1.00  0.00     0.159 HD
ATOM     24  O   UNL A   1      33.921  26.032  21.902  1.00  0.00    -0.269 OA
ENDBRANCH  15  20
BRANCH  17  25
ATOM     25  N   UNL A   1      30.897  27.700  23.331  1.00  0.00    -0.366 N 
ATOM     26  C   UNL A   1      31.766  28.793  23.814  1.00  0.00     0.145 C 
ATOM     27  C   UNL A   1      29.714  28.185  22.600  1.00  0.00     0.145 C 
ATOM     28  C   UNL A   1      30.942  29.907  24.515  1.00  0.00     0.181 C 
ATOM     29  C   UNL A   1      28.967  29.228  23.441  1.00  0.00     0.181 C 
ATOM     30  O   UNL A   1      29.818  30.345  23.732  1.00  0.00    -0.378 OA
ENDBRANCH  17  25
ENDBRANCH  11  14
ENDBRANCH   9  10
ENDBRANCH   5   8
ENDBRANCH   3   4
ENDBRANCH   2   3
ENDBRANCH   1   2
BRANCH   1  31
ATOM     31  C   UNL A   1      42.947  22.483  26.992  1.00  0.00     0.002 C 
BRANCH  31  32
ATOM     32  C   UNL A   1      44.414  22.899  26.820  1.00  0.00     0.021 C 
BRANCH  32  33
ATOM     33  C   UNL A   1      44.647  23.843  25.647  1.00  0.00     0.116 C 
BRANCH  33  34
ATOM     34  N   UNL A   1      46.035  23.765  25.218  1.00  0.00    -0.352 N 
ATOM     35  C   UNL A   1      46.851  24.820  24.904  1.00  0.00     0.251 C 
ATOM     36  H   UNL A   1      46.426  22.865  25.147  1.00  0.00     0.163 HD
ATOM     37  O   UNL A   1      47.799  24.680  24.142  1.00  0.00    -0.269 OA
BRANCH  35  38
ATOM     38  C   UNL A   1      46.558  26.120  25.534  1.00  0.00     0.039 A 
ATOM     39  C   UNL A   1      45.882  27.102  24.816  1.00  0.00     0.014 A 
ATOM     40  C   UNL A   1      46.953  26.337  26.860  1.00  0.00     0.014 A 
ATOM     41  C   UNL A   1      45.604  28.317  25.438  1.00  0.00     0.010 A 
ATOM     42  C   UNL A   1      46.578  27.503  27.507  1.00  0.00     0.010 A 
ATOM     43  C   UNL A   1      45.945  28.523  26.788  1.00  0.00    -0.014 A 
BRANCH  43  44
ATOM     44  C   UNL A   1      45.710  29.833  27.436  1.00  0.00     0.031 A 
ATOM     45  C   UNL A   1      46.741  30.923  27.304  1.00  0.00     0.074 A 
ATOM     46  C   UNL A   1      44.580  30.034  28.137  1.00  0.00     0.049 A 
ATOM     47  N   UNL A   1      46.703  32.149  27.759  1.00  0.00    -0.248 NA
ATOM     48  C   UNL A   1      47.987  30.593  26.590  1.00  0.00     0.031 C 
ATOM     49  C   UNL A   1      43.534  29.033  28.364  1.00  0.00     0.029 A 
ATOM     50  N   UNL A   1      44.113  31.154  28.775  1.00  0.00    -0.354 N 
ATOM     51  C   UNL A   1      47.914  32.725  27.395  1.00  0.00     0.074 A 
ATOM     52  C   UNL A   1      48.697  31.699  26.747  1.00  0.00     0.031 C 
ATOM     53  C   UNL A   1      42.524  29.600  29.042  1.00  0.00     0.029 A 
ATOM     54  C   UNL A   1      42.871  30.986  29.340  1.00  0.00     0.049 A 
ATOM     55  H   UNL A   1      44.617  31.997  28.823  1.00  0.00     0.167 HD
ATOM     56  C   UNL A   1      48.326  34.003  27.556  1.00  0.00     0.031 A 
ATOM     57  C   UNL A   1      42.101  31.853  30.023  1.00  0.00     0.031 A 
ATOM     58  C   UNL A   1      47.539  35.017  28.202  1.00  0.00     0.049 A 
ATOM     59  C   UNL A   1      42.595  33.262  30.214  1.00  0.00     0.074 A 
ATOM     60  C   UNL A   1      47.840  36.354  28.383  1.00  0.00     0.029 A 
ATOM     61  N   UNL A   1      46.297  34.802  28.782  1.00  0.00    -0.354 N 
ATOM     62  N   UNL A   1      43.714  33.809  29.802  1.00  0.00    -0.248 NA
ATOM     63  C   UNL A   1      41.709  34.177  30.946  1.00  0.00     0.031 C 
ATOM     64  C   UNL A   1      46.816  36.930  29.140  1.00  0.00     0.029 A 
ATOM     65  C   UNL A   1      45.832  35.976  29.349  1.00  0.00     0.049 A 
ATOM     66  H   UNL A   1      45.817  33.942  28.789  1.00  0.00     0.167 HD
ATOM     67  C   UNL A   1      43.649  35.142  30.190  1.00  0.00     0.074 A 
ATOM     68  C   UNL A   1      42.372  35.320  30.852  1.00  0.00     0.031 C 
ATOM     69  C   UNL A   1      44.559  36.133  30.009  1.00  0.00     0.031 A 
BRANCH  56  70
ATOM     70  C   UNL A   1      49.696  34.367  27.039  1.00  0.00    -0.014 A 
ATOM     71  C   UNL A   1      50.837  34.285  27.860  1.00  0.00     0.010 A 
ATOM     72  C   UNL A   1      49.850  34.763  25.698  1.00  0.00     0.010 A 
ATOM     73  C   UNL A   1      52.096  34.628  27.361  1.00  0.00     0.020 A 
ATOM     74  C   UNL A   1      51.113  35.070  25.184  1.00  0.00     0.020 A 
ATOM     75  C   UNL A   1      52.226  35.015  26.024  1.00  0.00     0.054 A 
BRANCH  75  76
ATOM     76  S   UNL A   1      53.878  35.418  25.395  1.00  0.00     0.124 S 
ATOM     77  O   UNL A   1      53.951  36.858  25.637  1.00  0.00    -0.237 OA
ATOM     78  O   UNL A   1      54.746  34.596  26.235  1.00  0.00    -0.237 OA
ATOM     79  O   UNL A   1      53.821  35.027  23.990  1.00  0.00    -0.744 OA
ENDBRANCH  75  76
ENDBRANCH  56  70
BRANCH  57  80
ATOM     80  C   UNL A   1      40.782  31.417  30.559  1.00  0.00    -0.014 A 
ATOM     81  C   UNL A   1      40.668  30.892  31.859  1.00  0.00     0.010 A 
ATOM     82  C   UNL A   1      39.625  31.529  29.766  1.00  0.00     0.010 A 
ATOM     83  C   UNL A   1      39.428  30.462  32.344  1.00  0.00     0.020 A 
ATOM     84  C   UNL A   1      38.379  31.137  30.260  1.00  0.00     0.020 A 
ATOM     85  C   UNL A   1      38.291  30.593  31.542  1.00  0.00     0.054 A 
BRANCH  85  86
ATOM     86  S   UNL A   1      36.687  30.068  32.208  1.00  0.00     0.124 S 
ATOM     87  O   UNL A   1      36.236  31.272  32.898  1.00  0.00    -0.237 OA
ATOM     88  O   UNL A   1      35.949  29.716  30.999  1.00  0.00    -0.237 OA
ATOM     89  O   UNL A   1      37.028  28.940  33.073  1.00  0.00    -0.744 OA
ENDBRANCH  85  86
ENDBRANCH  57  80
BRANCH  69  90
ATOM     90  C   UNL A   1      44.181  37.514  30.482  1.00  0.00    -0.014 A 
ATOM     91  C   UNL A   1      43.606  38.464  29.619  1.00  0.00     0.010 A 
ATOM     92  C   UNL A   1      44.385  37.853  31.834  1.00  0.00     0.010 A 
ATOM     93  C   UNL A   1      43.295  39.743  30.086  1.00  0.00     0.020 A 
ATOM     94  C   UNL A   1      44.035  39.115  32.313  1.00  0.00     0.020 A 
ATOM     95  C   UNL A   1      43.512  40.061  31.431  1.00  0.00     0.054 A 
BRANCH  95  96
ATOM     96  S   UNL A   1      43.088  41.724  32.013  1.00  0.00     0.124 S 
ATOM     97  O   UNL A   1      43.968  41.875  33.169  1.00  0.00    -0.237 OA
ATOM     98  O   UNL A   1      43.414  42.558  30.859  1.00  0.00    -0.237 OA
ATOM     99  O   UNL A   1      41.663  41.630  32.324  1.00  0.00    -0.744 OA
ENDBRANCH  95  96
ENDBRANCH  69  90
ENDBRANCH  43  44
ENDBRANCH  35  38
ENDBRANCH  33  34
ENDBRANCH  32  33
ENDBRANCH  31  32
ENDBRANCH   1  31
TORSDOF 20
ENDMDL
