MODEL 1
REMARK VINA RESULT:     -12.0      0.000      0.000
REMARK SMILES O=C(NCCCCCCNC(=O)[C@]12CCC[NH2+][C@@H]1CCN(C(=O)Cc1c(F)cccc1Cl)C2)c1ccc(-c2c3nc(c(-c4ccc(S(=O)(=O)[O-])cc4)c4ccc([nH]4)c(-c4ccc(S(=O)(=O)[O-])cc4)c4nc(c(-c5ccc(S(=O)(=O)[O-])cc5)c5ccc2[nH]5)C=C4)C=C3)cc1
REMARK SMILES IDX 6 1 5 2 4 3 3 4 1 5 2 6 34 8 35 9 93 10 36 11 92 12 37 13
REMARK SMILES IDX 38 14 39 15 86 16 40 17 91 18 85 19 87 20 41 21 90 22 84 23
REMARK SMILES IDX 83 24 42 26 72 27 53 28 71 29 54 30 57 31 70 32 88 33 55 34
REMARK SMILES IDX 56 35 69 37 89 38 58 39 43 40 44 41 52 42 45 43 51 44 46 45
REMARK SMILES IDX 47 46 48 47 49 48 50 49 73 50 74 51 82 52 75 53 81 54 76 55
REMARK SMILES IDX 77 56 78 57 79 58 80 59 59 60 60 61 68 62 61 63 67 64 62 65
REMARK SMILES IDX 63 66 64 67 65 68 66 69 7 70 8 71 9 72 10 73 11 74 12 76
REMARK SMILES IDX 13 77 14 78 18 79 33 80 15 81 17 82 19 83 21 84 16 85 20 88
REMARK SMILES IDX 22 89 23 90 24 91 25 92 26 93 31 94 27 95 28 96 30 97 32 98
REMARK SMILES IDX 29 99
REMARK H PARENT 3 7 87 25 57 36 10 75 17 86 17 87
REMARK Flexibility Score: inf
ROOT
ATOM      1  C   UNL A   1      37.806  22.644  25.828  1.00  0.00     0.002 C 
ENDROOT
BRANCH   1   2
ATOM      2  C   UNL A   1      39.247  22.380  26.271  1.00  0.00     0.021 C 
BRANCH   2   3
ATOM      3  C   UNL A   1      39.954  23.565  26.921  1.00  0.00     0.116 C 
BRANCH   3   4
ATOM      4  N   UNL A   1      40.916  24.196  26.024  1.00  0.00    -0.352 N 
ATOM      5  O   UNL A   1      42.019  25.902  25.039  1.00  0.00    -0.269 OA
ATOM      6  C   UNL A   1      41.375  25.486  26.004  1.00  0.00     0.251 C 
ATOM      7  H   UNL A   1      41.292  23.606  25.330  1.00  0.00     0.163 HD
BRANCH   6   8
ATOM      8  C   UNL A   1      41.080  26.374  27.143  1.00  0.00     0.039 A 
ATOM      9  C   UNL A   1      41.766  27.583  27.267  1.00  0.00     0.014 A 
ATOM     10  C   UNL A   1      40.138  25.990  28.099  1.00  0.00     0.014 A 
ATOM     11  C   UNL A   1      41.633  28.327  28.430  1.00  0.00     0.010 A 
ATOM     12  C   UNL A   1      39.930  26.796  29.221  1.00  0.00     0.010 A 
ATOM     13  C   UNL A   1      40.703  27.951  29.414  1.00  0.00    -0.014 A 
BRANCH  13  14
ATOM     14  C   UNL A   1      40.534  28.816  30.609  1.00  0.00     0.031 A 
ATOM     15  C   UNL A   1      41.449  28.692  31.797  1.00  0.00     0.074 A 
ATOM     16  C   UNL A   1      39.567  29.755  30.590  1.00  0.00     0.049 A 
ATOM     17  N   UNL A   1      41.466  29.402  32.897  1.00  0.00    -0.248 NA
ATOM     18  C   UNL A   1      42.469  27.633  31.755  1.00  0.00     0.031 C 
ATOM     19  C   UNL A   1      38.620  29.966  29.489  1.00  0.00     0.029 A 
ATOM     20  N   UNL A   1      39.234  30.723  31.500  1.00  0.00    -0.354 N 
ATOM     21  C   UNL A   1      42.473  28.861  33.688  1.00  0.00     0.074 A 
ATOM     22  C   UNL A   1      43.031  27.747  32.952  1.00  0.00     0.031 C 
ATOM     23  C   UNL A   1      37.862  31.037  29.758  1.00  0.00     0.029 A 
ATOM     24  C   UNL A   1      38.212  31.541  31.080  1.00  0.00     0.049 A 
ATOM     25  H   UNL A   1      39.684  30.824  32.370  1.00  0.00     0.167 HD
ATOM     26  C   UNL A   1      42.893  29.257  34.914  1.00  0.00     0.031 A 
ATOM     27  C   UNL A   1      37.608  32.575  31.694  1.00  0.00     0.031 A 
ATOM     28  C   UNL A   1      42.329  30.371  35.637  1.00  0.00     0.049 A 
ATOM     29  C   UNL A   1      38.077  32.976  33.062  1.00  0.00     0.074 A 
ATOM     30  C   UNL A   1      42.706  30.876  36.869  1.00  0.00     0.029 A 
ATOM     31  N   UNL A   1      41.266  31.146  35.197  1.00  0.00    -0.354 N 
ATOM     32  N   UNL A   1      39.053  32.470  33.780  1.00  0.00    -0.248 NA
ATOM     33  C   UNL A   1      37.369  34.091  33.701  1.00  0.00     0.031 C 
ATOM     34  C   UNL A   1      41.831  31.915  37.202  1.00  0.00     0.029 A 
ATOM     35  C   UNL A   1      40.957  32.108  36.145  1.00  0.00     0.049 A 
ATOM     36  H   UNL A   1      40.800  31.031  34.338  1.00  0.00     0.167 HD
ATOM     37  C   UNL A   1      39.095  33.226  34.944  1.00  0.00     0.074 A 
ATOM     38  C   UNL A   1      38.059  34.233  34.824  1.00  0.00     0.031 C 
ATOM     39  C   UNL A   1      39.919  33.102  36.013  1.00  0.00     0.031 A 
BRANCH  26  40
ATOM     40  C   UNL A   1      43.990  28.460  35.575  1.00  0.00    -0.014 A 
ATOM     41  C   UNL A   1      43.708  27.335  36.372  1.00  0.00     0.010 A 
ATOM     42  C   UNL A   1      45.334  28.818  35.356  1.00  0.00     0.010 A 
ATOM     43  C   UNL A   1      44.745  26.613  36.971  1.00  0.00     0.020 A 
ATOM     44  C   UNL A   1      46.374  28.079  35.927  1.00  0.00     0.020 A 
ATOM     45  C   UNL A   1      46.072  26.991  36.747  1.00  0.00     0.054 A 
BRANCH  45  46
ATOM     46  S   UNL A   1      47.397  26.027  37.525  1.00  0.00     0.124 S 
ATOM     47  O   UNL A   1      48.246  27.077  38.083  1.00  0.00    -0.237 OA
ATOM     48  O   UNL A   1      46.672  25.221  38.504  1.00  0.00    -0.237 OA
ATOM     49  O   UNL A   1      47.981  25.278  36.415  1.00  0.00    -0.744 OA
ENDBRANCH  45  46
ENDBRANCH  26  40
BRANCH  27  50
ATOM     50  C   UNL A   1      36.495  33.293  31.016  1.00  0.00    -0.014 A 
ATOM     51  C   UNL A   1      35.192  33.254  31.540  1.00  0.00     0.010 A 
ATOM     52  C   UNL A   1      36.741  34.041  29.848  1.00  0.00     0.010 A 
ATOM     53  C   UNL A   1      34.151  33.932  30.898  1.00  0.00     0.020 A 
ATOM     54  C   UNL A   1      35.711  34.748  29.224  1.00  0.00     0.020 A 
ATOM     55  C   UNL A   1      34.419  34.677  29.746  1.00  0.00     0.054 A 
BRANCH  55  56
ATOM     56  S   UNL A   1      33.062  35.585  28.956  1.00  0.00     0.124 S 
ATOM     57  O   UNL A   1      32.401  34.534  28.190  1.00  0.00    -0.237 OA
ATOM     58  O   UNL A   1      32.318  36.098  30.103  1.00  0.00    -0.237 OA
ATOM     59  O   UNL A   1      33.747  36.603  28.163  1.00  0.00    -0.744 OA
ENDBRANCH  55  56
ENDBRANCH  27  50
BRANCH  39  60
ATOM     60  C   UNL A   1      39.769  34.116  37.116  1.00  0.00    -0.014 A 
ATOM     61  C   UNL A   1      40.462  35.340  37.092  1.00  0.00     0.010 A 
ATOM     62  C   UNL A   1      38.898  33.843  38.186  1.00  0.00     0.010 A 
ATOM     63  C   UNL A   1      40.322  36.250  38.143  1.00  0.00     0.020 A 
ATOM     64  C   UNL A   1      38.729  34.764  39.221  1.00  0.00     0.020 A 
ATOM     65  C   UNL A   1      39.458  35.954  39.203  1.00  0.00     0.054 A 
BRANCH  65  66
ATOM     66  S   UNL A   1      39.277  37.160  40.545  1.00  0.00     0.124 S 
ATOM     67  O   UNL A   1      38.847  36.314  41.656  1.00  0.00    -0.237 OA
ATOM     68  O   UNL A   1      40.624  37.714  40.661  1.00  0.00    -0.237 OA
ATOM     69  O   UNL A   1      38.268  38.090  40.042  1.00  0.00    -0.744 OA
ENDBRANCH  65  66
ENDBRANCH  39  60
ENDBRANCH  13  14
ENDBRANCH   6   8
ENDBRANCH   3   4
ENDBRANCH   2   3
ENDBRANCH   1   2
BRANCH   1  70
ATOM     70  C   UNL A   1      37.247  21.711  24.744  1.00  0.00     0.002 C 
BRANCH  70  71
ATOM     71  C   UNL A   1      35.882  22.100  24.175  1.00  0.00     0.021 C 
BRANCH  71  72
ATOM     72  C   UNL A   1      35.620  23.610  24.224  1.00  0.00     0.116 C 
BRANCH  72  73
ATOM     73  N   UNL A   1      34.535  23.977  25.167  1.00  0.00    -0.355 N 
ATOM     74  C   UNL A   1      33.246  24.414  25.234  1.00  0.00     0.234 C 
ATOM     75  H   UNL A   1      34.872  23.863  26.085  1.00  0.00     0.163 HD
ATOM     76  O   UNL A   1      32.856  24.549  26.408  1.00  0.00    -0.274 OA
BRANCH  74  77
ATOM     77  C   UNL A   1      32.213  24.678  24.089  1.00  0.00     0.118 C 
ATOM     78  C   UNL A   1      31.163  23.527  24.115  1.00  0.00     0.031 C 
ATOM     79  C   UNL A   1      32.760  24.744  22.668  1.00  0.00     0.201 C 
ATOM     80  C   UNL A   1      31.388  25.954  24.379  1.00  0.00     0.142 C 
ATOM     81  C   UNL A   1      31.789  22.194  23.750  1.00  0.00     0.063 C 
ATOM     82  N   UNL A   1      33.439  23.477  22.309  1.00  0.00    -0.343 N 
ATOM     83  C   UNL A   1      33.582  26.043  22.519  1.00  0.00     0.087 C 
ATOM     84  N   UNL A   1      32.056  27.214  24.089  1.00  0.00    -0.341 N 
ATOM     85  C   UNL A   1      32.592  22.281  22.452  1.00  0.00     0.260 C 
ATOM     86  H   UNL A   1      33.742  23.540  21.336  1.00  0.00     0.346 HD
ATOM     87  H   UNL A   1      34.219  23.366  22.956  1.00  0.00     0.346 HD
ATOM     88  C   UNL A   1      32.770  27.303  22.817  1.00  0.00     0.125 C 
BRANCH  84  89
ATOM     89  C   UNL A   1      31.521  28.340  24.725  1.00  0.00     0.227 C 
ATOM     90  O   UNL A   1      30.905  29.207  24.099  1.00  0.00    -0.275 OA
BRANCH  89  91
ATOM     91  C   UNL A   1      31.652  28.447  26.231  1.00  0.00     0.140 C 
BRANCH  91  92
ATOM     92  C   UNL A   1      32.769  29.326  26.761  1.00  0.00     0.016 A 
ATOM     93  C   UNL A   1      34.021  28.710  26.920  1.00  0.00     0.128 A 
ATOM     94  C   UNL A   1      32.711  30.702  27.035  1.00  0.00     0.047 A 
ATOM     95  F   UNL A   1      34.171  27.423  26.572  1.00  0.00    -0.207 F 
ATOM     96  C   UNL A   1      35.137  29.388  27.408  1.00  0.00     0.039 A 
ATOM     97  C   UNL A   1      33.814  31.376  27.581  1.00  0.00     0.021 A 
ATOM     98  Cl  UNL A   1      31.369  31.715  26.651  1.00  0.00    -0.084 Cl
ATOM     99  C   UNL A   1      35.026  30.721  27.774  1.00  0.00     0.005 A 
ENDBRANCH  91  92
ENDBRANCH  89  91
ENDBRANCH  84  89
ENDBRANCH  74  77
ENDBRANCH  72  73
ENDBRANCH  71  72
ENDBRANCH  70  71
ENDBRANCH   1  70
TORSDOF 19
ENDMDL
MODEL 2
REMARK VINA RESULT:     -11.9      2.747      8.115
REMARK SMILES O=C(NCCCCCCNC(=O)[C@]12CCC[NH2+][C@@H]1CCN(C(=O)Cc1c(F)cccc1Cl)C2)c1ccc(-c2c3nc(c(-c4ccc(S(=O)(=O)[O-])cc4)c4ccc([nH]4)c(-c4ccc(S(=O)(=O)[O-])cc4)c4nc(c(-c5ccc(S(=O)(=O)[O-])cc5)c5ccc2[nH]5)C=C4)C=C3)cc1
REMARK SMILES IDX 6 1 5 2 4 3 3 4 1 5 2 6 34 8 35 9 93 10 36 11 92 12 37 13
REMARK SMILES IDX 38 14 39 15 86 16 40 17 91 18 85 19 87 20 41 21 90 22 84 23
REMARK SMILES IDX 83 24 42 26 72 27 53 28 71 29 54 30 57 31 70 32 88 33 55 34
REMARK SMILES IDX 56 35 69 37 89 38 58 39 43 40 44 41 52 42 45 43 51 44 46 45
REMARK SMILES IDX 47 46 48 47 49 48 50 49 73 50 74 51 82 52 75 53 81 54 76 55
REMARK SMILES IDX 77 56 78 57 79 58 80 59 59 60 60 61 68 62 61 63 67 64 62 65
REMARK SMILES IDX 63 66 64 67 65 68 66 69 7 70 8 71 9 72 10 73 11 74 12 76
REMARK SMILES IDX 13 77 14 78 18 79 33 80 15 81 17 82 19 83 21 84 16 85 20 88
REMARK SMILES IDX 22 89 23 90 24 91 25 92 26 93 31 94 27 95 28 96 30 97 32 98
REMARK SMILES IDX 29 99
REMARK H PARENT 3 7 87 25 57 36 10 75 17 86 17 87
REMARK Flexibility Score: inf
ROOT
ATOM      1  C   UNL A   1      31.781  27.969  26.457  1.00  0.00     0.002 C 
ENDROOT
BRANCH   1   2
ATOM      2  C   UNL A   1      33.279  28.018  26.766  1.00  0.00     0.021 C 
BRANCH   2   3
ATOM      3  C   UNL A   1      34.049  29.137  26.072  1.00  0.00     0.116 C 
BRANCH   3   4
ATOM      4  N   UNL A   1      33.663  30.458  26.557  1.00  0.00    -0.352 N 
ATOM      5  O   UNL A   1      33.591  32.196  27.996  1.00  0.00    -0.269 OA
ATOM      6  C   UNL A   1      34.184  31.197  27.586  1.00  0.00     0.251 C 
ATOM      7  H   UNL A   1      32.917  30.882  26.072  1.00  0.00     0.163 HD
BRANCH   6   8
ATOM      8  C   UNL A   1      35.455  30.778  28.203  1.00  0.00     0.039 A 
ATOM      9  C   UNL A   1      35.487  29.636  29.004  1.00  0.00     0.014 A 
ATOM     10  C   UNL A   1      36.610  31.536  28.001  1.00  0.00     0.014 A 
ATOM     11  C   UNL A   1      36.629  29.347  29.737  1.00  0.00     0.010 A 
ATOM     12  C   UNL A   1      37.789  31.181  28.660  1.00  0.00     0.010 A 
ATOM     13  C   UNL A   1      37.798  30.106  29.563  1.00  0.00    -0.014 A 
BRANCH  13  14
ATOM     14  C   UNL A   1      39.023  29.718  30.307  1.00  0.00     0.031 A 
ATOM     15  C   UNL A   1      39.947  28.651  29.785  1.00  0.00     0.074 A 
ATOM     16  C   UNL A   1      39.318  30.378  31.445  1.00  0.00     0.049 A 
ATOM     17  N   UNL A   1      41.079  28.230  30.289  1.00  0.00    -0.248 NA
ATOM     18  C   UNL A   1      39.551  27.961  28.548  1.00  0.00     0.031 C 
ATOM     19  C   UNL A   1      38.493  31.432  32.045  1.00  0.00     0.029 A 
ATOM     20  N   UNL A   1      40.398  30.287  32.284  1.00  0.00    -0.354 N 
ATOM     21  C   UNL A   1      41.516  27.209  29.452  1.00  0.00     0.074 A 
ATOM     22  C   UNL A   1      40.515  27.059  28.418  1.00  0.00     0.031 C 
ATOM     23  C   UNL A   1      39.128  31.935  33.113  1.00  0.00     0.029 A 
ATOM     24  C   UNL A   1      40.362  31.190  33.321  1.00  0.00     0.049 A 
ATOM     25  H   UNL A   1      41.128  29.640  32.156  1.00  0.00     0.167 HD
ATOM     26  C   UNL A   1      42.647  26.467  29.537  1.00  0.00     0.031 A 
ATOM     27  C   UNL A   1      41.220  31.389  34.338  1.00  0.00     0.031 A 
ATOM     28  C   UNL A   1      43.638  26.629  30.572  1.00  0.00     0.049 A 
ATOM     29  C   UNL A   1      42.452  30.536  34.421  1.00  0.00     0.074 A 
ATOM     30  C   UNL A   1      44.835  25.953  30.729  1.00  0.00     0.029 A 
ATOM     31  N   UNL A   1      43.545  27.523  31.629  1.00  0.00    -0.354 N 
ATOM     32  N   UNL A   1      42.861  29.597  33.601  1.00  0.00    -0.248 NA
ATOM     33  C   UNL A   1      43.341  30.773  35.565  1.00  0.00     0.031 C 
ATOM     34  C   UNL A   1      45.435  26.393  31.913  1.00  0.00     0.029 A 
ATOM     35  C   UNL A   1      44.650  27.397  32.455  1.00  0.00     0.049 A 
ATOM     36  H   UNL A   1      42.803  28.154  31.771  1.00  0.00     0.167 HD
ATOM     37  C   UNL A   1      44.073  29.152  34.113  1.00  0.00     0.074 A 
ATOM     38  C   UNL A   1      44.336  29.937  35.303  1.00  0.00     0.031 C 
ATOM     39  C   UNL A   1      44.896  28.184  33.639  1.00  0.00     0.031 A 
BRANCH  26  40
ATOM     40  C   UNL A   1      42.859  25.385  28.509  1.00  0.00    -0.014 A 
ATOM     41  C   UNL A   1      43.584  25.622  27.326  1.00  0.00     0.010 A 
ATOM     42  C   UNL A   1      42.360  24.091  28.752  1.00  0.00     0.010 A 
ATOM     43  C   UNL A   1      43.766  24.599  26.390  1.00  0.00     0.020 A 
ATOM     44  C   UNL A   1      42.568  23.058  27.833  1.00  0.00     0.020 A 
ATOM     45  C   UNL A   1      43.255  23.323  26.648  1.00  0.00     0.054 A 
BRANCH  45  46
ATOM     46  S   UNL A   1      43.520  22.013  25.423  1.00  0.00     0.124 S 
ATOM     47  O   UNL A   1      43.403  22.748  24.165  1.00  0.00    -0.237 OA
ATOM     48  O   UNL A   1      44.864  21.538  25.749  1.00  0.00    -0.237 OA
ATOM     49  O   UNL A   1      42.445  21.061  25.691  1.00  0.00    -0.744 OA
ENDBRANCH  45  46
ENDBRANCH  26  40
BRANCH  27  50
ATOM     50  C   UNL A   1      40.933  32.438  35.355  1.00  0.00    -0.014 A 
ATOM     51  C   UNL A   1      40.144  32.148  36.480  1.00  0.00     0.010 A 
ATOM     52  C   UNL A   1      41.472  33.731  35.210  1.00  0.00     0.010 A 
ATOM     53  C   UNL A   1      39.880  33.138  37.431  1.00  0.00     0.020 A 
ATOM     54  C   UNL A   1      41.239  34.712  36.177  1.00  0.00     0.020 A 
ATOM     55  C   UNL A   1      40.432  34.412  37.275  1.00  0.00     0.054 A 
BRANCH  55  56
ATOM     56  S   UNL A   1      40.112  35.667  38.545  1.00  0.00     0.124 S 
ATOM     57  O   UNL A   1      39.087  35.021  39.356  1.00  0.00    -0.237 OA
ATOM     58  O   UNL A   1      41.421  35.815  39.176  1.00  0.00    -0.237 OA
ATOM     59  O   UNL A   1      39.666  36.826  37.776  1.00  0.00    -0.744 OA
ENDBRANCH  55  56
ENDBRANCH  27  50
BRANCH  39  60
ATOM     60  C   UNL A   1      46.187  27.959  34.380  1.00  0.00    -0.014 A 
ATOM     61  C   UNL A   1      47.356  28.675  34.061  1.00  0.00     0.010 A 
ATOM     62  C   UNL A   1      46.222  27.026  35.432  1.00  0.00     0.010 A 
ATOM     63  C   UNL A   1      48.546  28.425  34.749  1.00  0.00     0.020 A 
ATOM     64  C   UNL A   1      47.400  26.798  36.145  1.00  0.00     0.020 A 
ATOM     65  C   UNL A   1      48.560  27.486  35.786  1.00  0.00     0.054 A 
BRANCH  65  66
ATOM     66  S   UNL A   1      50.111  27.194  36.678  1.00  0.00     0.124 S 
ATOM     67  O   UNL A   1      49.638  26.581  37.916  1.00  0.00    -0.237 OA
ATOM     68  O   UNL A   1      50.838  26.306  35.774  1.00  0.00    -0.237 OA
ATOM     69  O   UNL A   1      50.685  28.530  36.823  1.00  0.00    -0.744 OA
ENDBRANCH  65  66
ENDBRANCH  39  60
ENDBRANCH  13  14
ENDBRANCH   6   8
ENDBRANCH   3   4
ENDBRANCH   2   3
ENDBRANCH   1   2
BRANCH   1  70
ATOM     70  C   UNL A   1      31.119  26.585  26.525  1.00  0.00     0.002 C 
BRANCH  70  71
ATOM     71  C   UNL A   1      32.072  25.403  26.695  1.00  0.00     0.021 C 
BRANCH  71  72
ATOM     72  C   UNL A   1      31.382  24.045  26.516  1.00  0.00     0.116 C 
BRANCH  72  73
ATOM     73  N   UNL A   1      32.283  22.899  26.791  1.00  0.00    -0.355 N 
ATOM     74  C   UNL A   1      33.045  21.938  26.195  1.00  0.00     0.234 C 
ATOM     75  H   UNL A   1      32.360  22.793  27.767  1.00  0.00     0.163 HD
ATOM     76  O   UNL A   1      33.612  21.205  27.024  1.00  0.00    -0.274 OA
BRANCH  74  77
ATOM     77  C   UNL A   1      33.351  21.696  24.680  1.00  0.00     0.118 C 
ATOM     78  C   UNL A   1      32.325  20.652  24.144  1.00  0.00     0.031 C 
ATOM     79  C   UNL A   1      34.738  21.171  24.331  1.00  0.00     0.201 C 
ATOM     80  C   UNL A   1      33.064  22.972  23.852  1.00  0.00     0.142 C 
ATOM     81  C   UNL A   1      32.528  19.292  24.786  1.00  0.00     0.063 C 
ATOM     82  N   UNL A   1      34.990  19.873  25.001  1.00  0.00    -0.343 N 
ATOM     83  C   UNL A   1      35.766  22.296  24.580  1.00  0.00     0.087 C 
ATOM     84  N   UNL A   1      34.091  24.002  23.911  1.00  0.00    -0.341 N 
ATOM     85  C   UNL A   1      33.986  18.839  24.703  1.00  0.00     0.260 C 
ATOM     86  H   UNL A   1      35.903  19.530  24.701  1.00  0.00     0.346 HD
ATOM     87  H   UNL A   1      34.947  20.047  26.006  1.00  0.00     0.346 HD
ATOM     88  C   UNL A   1      35.476  23.560  23.772  1.00  0.00     0.125 C 
BRANCH  84  89
ATOM     89  C   UNL A   1      33.676  25.287  23.542  1.00  0.00     0.227 C 
ATOM     90  O   UNL A   1      34.203  26.299  24.012  1.00  0.00    -0.275 OA
BRANCH  89  91
ATOM     91  C   UNL A   1      32.598  25.421  22.486  1.00  0.00     0.140 C 
BRANCH  91  92
ATOM     92  C   UNL A   1      31.407  26.297  22.828  1.00  0.00     0.016 A 
ATOM     93  C   UNL A   1      30.256  25.631  23.280  1.00  0.00     0.128 A 
ATOM     94  C   UNL A   1      31.355  27.701  22.820  1.00  0.00     0.047 A 
ATOM     95  F   UNL A   1      30.277  24.296  23.416  1.00  0.00    -0.207 F 
ATOM     96  C   UNL A   1      29.083  26.303  23.621  1.00  0.00     0.039 A 
ATOM     97  C   UNL A   1      30.160  28.379  23.106  1.00  0.00     0.021 A 
ATOM     98  Cl  UNL A   1      32.720  28.724  22.573  1.00  0.00    -0.084 Cl
ATOM     99  C   UNL A   1      29.022  27.684  23.501  1.00  0.00     0.005 A 
ENDBRANCH  91  92
ENDBRANCH  89  91
ENDBRANCH  84  89
ENDBRANCH  74  77
ENDBRANCH  72  73
ENDBRANCH  71  72
ENDBRANCH  70  71
ENDBRANCH   1  70
TORSDOF 19
ENDMDL
MODEL 3
REMARK VINA RESULT:     -11.9      2.801      8.922
REMARK SMILES O=C(NCCCCCCNC(=O)[C@]12CCC[NH2+][C@@H]1CCN(C(=O)Cc1c(F)cccc1Cl)C2)c1ccc(-c2c3nc(c(-c4ccc(S(=O)(=O)[O-])cc4)c4ccc([nH]4)c(-c4ccc(S(=O)(=O)[O-])cc4)c4nc(c(-c5ccc(S(=O)(=O)[O-])cc5)c5ccc2[nH]5)C=C4)C=C3)cc1
REMARK SMILES IDX 6 1 5 2 4 3 3 4 1 5 2 6 34 8 35 9 93 10 36 11 92 12 37 13
REMARK SMILES IDX 38 14 39 15 86 16 40 17 91 18 85 19 87 20 41 21 90 22 84 23
REMARK SMILES IDX 83 24 42 26 72 27 53 28 71 29 54 30 57 31 70 32 88 33 55 34
REMARK SMILES IDX 56 35 69 37 89 38 58 39 43 40 44 41 52 42 45 43 51 44 46 45
REMARK SMILES IDX 47 46 48 47 49 48 50 49 73 50 74 51 82 52 75 53 81 54 76 55
REMARK SMILES IDX 77 56 78 57 79 58 80 59 59 60 60 61 68 62 61 63 67 64 62 65
REMARK SMILES IDX 63 66 64 67 65 68 66 69 7 70 8 71 9 72 10 73 11 74 12 76
REMARK SMILES IDX 13 77 14 78 18 79 33 80 15 81 17 82 19 83 21 84 16 85 20 88
REMARK SMILES IDX 22 89 23 90 24 91 25 92 26 93 31 94 27 95 28 96 30 97 32 98
REMARK SMILES IDX 29 99
REMARK H PARENT 3 7 87 25 57 36 10 75 17 86 17 87
REMARK Flexibility Score: inf
ROOT
ATOM      1  C   UNL A   1      31.857  28.047  26.694  1.00  0.00     0.002 C 
ENDROOT
BRANCH   1   2
ATOM      2  C   UNL A   1      33.364  28.048  26.967  1.00  0.00     0.021 C 
BRANCH   2   3
ATOM      3  C   UNL A   1      34.148  29.155  26.270  1.00  0.00     0.116 C 
BRANCH   3   4
ATOM      4  N   UNL A   1      33.785  30.482  26.756  1.00  0.00    -0.352 N 
ATOM      5  O   UNL A   1      33.783  32.239  28.172  1.00  0.00    -0.269 OA
ATOM      6  C   UNL A   1      34.356  31.236  27.746  1.00  0.00     0.251 C 
ATOM      7  H   UNL A   1      33.014  30.897  26.304  1.00  0.00     0.163 HD
BRANCH   6   8
ATOM      8  C   UNL A   1      35.659  30.828  28.302  1.00  0.00     0.039 A 
ATOM      9  C   UNL A   1      35.735  29.699  29.118  1.00  0.00     0.014 A 
ATOM     10  C   UNL A   1      36.800  31.585  28.028  1.00  0.00     0.014 A 
ATOM     11  C   UNL A   1      36.915  29.423  29.794  1.00  0.00     0.010 A 
ATOM     12  C   UNL A   1      38.013  31.242  28.630  1.00  0.00     0.010 A 
ATOM     13  C   UNL A   1      38.071  30.181  29.548  1.00  0.00    -0.014 A 
BRANCH  13  14
ATOM     14  C   UNL A   1      39.334  29.806  30.232  1.00  0.00     0.031 A 
ATOM     15  C   UNL A   1      39.766  30.490  31.501  1.00  0.00     0.074 A 
ATOM     16  C   UNL A   1      40.070  28.801  29.717  1.00  0.00     0.049 A 
ATOM     17  N   UNL A   1      40.814  30.248  32.247  1.00  0.00    -0.248 NA
ATOM     18  C   UNL A   1      38.923  31.590  31.995  1.00  0.00     0.031 C 
ATOM     19  C   UNL A   1      39.746  28.066  28.489  1.00  0.00     0.029 A 
ATOM     20  N   UNL A   1      41.217  28.203  30.166  1.00  0.00    -0.354 N 
ATOM     21  C   UNL A   1      40.775  31.180  33.278  1.00  0.00     0.074 A 
ATOM     22  C   UNL A   1      39.611  32.008  33.050  1.00  0.00     0.031 C 
ATOM     23  C   UNL A   1      40.633  27.075  28.322  1.00  0.00     0.029 A 
ATOM     24  C   UNL A   1      41.630  27.152  29.381  1.00  0.00     0.049 A 
ATOM     25  H   UNL A   1      41.698  28.496  30.973  1.00  0.00     0.167 HD
ATOM     26  C   UNL A   1      41.631  31.330  34.318  1.00  0.00     0.031 A 
ATOM     27  C   UNL A   1      42.702  26.345  29.490  1.00  0.00     0.031 A 
ATOM     28  C   UNL A   1      42.787  30.496  34.535  1.00  0.00     0.049 A 
ATOM     29  C   UNL A   1      43.646  26.551  30.638  1.00  0.00     0.074 A 
ATOM     30  C   UNL A   1      43.698  30.542  35.576  1.00  0.00     0.029 A 
ATOM     31  N   UNL A   1      43.196  29.471  33.694  1.00  0.00    -0.354 N 
ATOM     32  N   UNL A   1      43.574  27.419  31.620  1.00  0.00    -0.248 NA
ATOM     33  C   UNL A   1      44.814  25.664  30.696  1.00  0.00     0.031 C 
ATOM     34  C   UNL A   1      44.691  29.588  35.332  1.00  0.00     0.029 A 
ATOM     35  C   UNL A   1      44.360  28.896  34.179  1.00  0.00     0.049 A 
ATOM     36  H   UNL A   1      42.729  29.193  32.874  1.00  0.00     0.167 HD
ATOM     37  C   UNL A   1      44.671  27.162  32.431  1.00  0.00     0.074 A 
ATOM     38  C   UNL A   1      45.379  26.047  31.833  1.00  0.00     0.031 C 
ATOM     39  C   UNL A   1      45.055  27.788  33.570  1.00  0.00     0.031 A 
BRANCH  26  40
ATOM     40  C   UNL A   1      41.376  32.461  35.283  1.00  0.00    -0.014 A 
ATOM     41  C   UNL A   1      40.578  32.289  36.429  1.00  0.00     0.010 A 
ATOM     42  C   UNL A   1      41.985  33.711  35.060  1.00  0.00     0.010 A 
ATOM     43  C   UNL A   1      40.360  33.355  37.307  1.00  0.00     0.020 A 
ATOM     44  C   UNL A   1      41.794  34.770  35.953  1.00  0.00     0.020 A 
ATOM     45  C   UNL A   1      40.968  34.590  37.063  1.00  0.00     0.054 A 
BRANCH  45  46
ATOM     46  S   UNL A   1      40.678  35.950  38.227  1.00  0.00     0.124 S 
ATOM     47  O   UNL A   1      40.272  35.233  39.434  1.00  0.00    -0.237 OA
ATOM     48  O   UNL A   1      41.987  36.598  38.293  1.00  0.00    -0.237 OA
ATOM     49  O   UNL A   1      39.628  36.739  37.589  1.00  0.00    -0.744 OA
ENDBRANCH  45  46
ENDBRANCH  26  40
BRANCH  27  50
ATOM     50  C   UNL A   1      42.932  25.278  28.479  1.00  0.00    -0.014 A 
ATOM     51  C   UNL A   1      42.377  23.998  28.649  1.00  0.00     0.010 A 
ATOM     52  C   UNL A   1      43.691  25.547  27.324  1.00  0.00     0.010 A 
ATOM     53  C   UNL A   1      42.596  23.000  27.694  1.00  0.00     0.020 A 
ATOM     54  C   UNL A   1      43.882  24.563  26.351  1.00  0.00     0.020 A 
ATOM     55  C   UNL A   1      43.344  23.291  26.550  1.00  0.00     0.054 A 
BRANCH  55  56
ATOM     56  S   UNL A   1      43.577  21.994  25.304  1.00  0.00     0.124 S 
ATOM     57  O   UNL A   1      42.497  21.068  25.626  1.00  0.00    -0.237 OA
ATOM     58  O   UNL A   1      43.428  22.732  24.052  1.00  0.00    -0.237 OA
ATOM     59  O   UNL A   1      44.926  21.501  25.570  1.00  0.00    -0.744 OA
ENDBRANCH  55  56
ENDBRANCH  27  50
BRANCH  39  60
ATOM     60  C   UNL A   1      46.270  27.245  34.275  1.00  0.00    -0.014 A 
ATOM     61  C   UNL A   1      46.170  26.222  35.236  1.00  0.00     0.010 A 
ATOM     62  C   UNL A   1      47.540  27.756  33.949  1.00  0.00     0.010 A 
ATOM     63  C   UNL A   1      47.313  25.757  35.892  1.00  0.00     0.020 A 
ATOM     64  C   UNL A   1      48.687  27.270  34.577  1.00  0.00     0.020 A 
ATOM     65  C   UNL A   1      48.564  26.286  35.559  1.00  0.00     0.054 A 
BRANCH  65  66
ATOM     66  S   UNL A   1      50.035  25.652  36.409  1.00  0.00     0.124 S 
ATOM     67  O   UNL A   1      49.476  25.188  37.676  1.00  0.00    -0.237 OA
ATOM     68  O   UNL A   1      50.500  24.603  35.505  1.00  0.00    -0.237 OA
ATOM     69  O   UNL A   1      50.910  26.818  36.504  1.00  0.00    -0.744 OA
ENDBRANCH  65  66
ENDBRANCH  39  60
ENDBRANCH  13  14
ENDBRANCH   6   8
ENDBRANCH   3   4
ENDBRANCH   2   3
ENDBRANCH   1   2
BRANCH   1  70
ATOM     70  C   UNL A   1      31.199  26.670  26.524  1.00  0.00     0.002 C 
BRANCH  70  71
ATOM     71  C   UNL A   1      32.152  25.475  26.536  1.00  0.00     0.021 C 
BRANCH  71  72
ATOM     72  C   UNL A   1      31.422  24.126  26.531  1.00  0.00     0.116 C 
BRANCH  72  73
ATOM     73  N   UNL A   1      32.323  22.982  26.818  1.00  0.00    -0.355 N 
ATOM     74  C   UNL A   1      33.076  22.009  26.231  1.00  0.00     0.234 C 
ATOM     75  H   UNL A   1      32.408  22.892  27.794  1.00  0.00     0.163 HD
ATOM     76  O   UNL A   1      33.649  21.288  27.068  1.00  0.00    -0.274 OA
BRANCH  74  77
ATOM     77  C   UNL A   1      33.368  21.740  24.717  1.00  0.00     0.118 C 
ATOM     78  C   UNL A   1      32.336  20.689  24.209  1.00  0.00     0.031 C 
ATOM     79  C   UNL A   1      34.751  21.207  24.365  1.00  0.00     0.201 C 
ATOM     80  C   UNL A   1      33.076  23.002  23.871  1.00  0.00     0.142 C 
ATOM     81  C   UNL A   1      32.543  19.340  24.872  1.00  0.00     0.063 C 
ATOM     82  N   UNL A   1      35.008  19.920  25.055  1.00  0.00    -0.343 N 
ATOM     83  C   UNL A   1      35.783  22.335  24.585  1.00  0.00     0.087 C 
ATOM     84  N   UNL A   1      34.104  24.032  23.903  1.00  0.00    -0.341 N 
ATOM     85  C   UNL A   1      33.999  18.883  24.784  1.00  0.00     0.260 C 
ATOM     86  H   UNL A   1      35.917  19.570  24.753  1.00  0.00     0.346 HD
ATOM     87  H   UNL A   1      34.975  20.111  26.057  1.00  0.00     0.346 HD
ATOM     88  C   UNL A   1      35.488  23.585  23.758  1.00  0.00     0.125 C 
BRANCH  84  89
ATOM     89  C   UNL A   1      33.687  25.311  23.515  1.00  0.00     0.227 C 
ATOM     90  O   UNL A   1      34.226  26.330  23.956  1.00  0.00    -0.275 OA
BRANCH  89  91
ATOM     91  C   UNL A   1      32.592  25.428  22.475  1.00  0.00     0.140 C 
BRANCH  91  92
ATOM     92  C   UNL A   1      31.385  26.271  22.842  1.00  0.00     0.016 A 
ATOM     93  C   UNL A   1      30.249  25.571  23.279  1.00  0.00     0.128 A 
ATOM     94  C   UNL A   1      31.305  27.673  22.871  1.00  0.00     0.047 A 
ATOM     95  F   UNL A   1      30.296  24.234  23.381  1.00  0.00    -0.207 F 
ATOM     96  C   UNL A   1      29.063  26.210  23.640  1.00  0.00     0.039 A 
ATOM     97  C   UNL A   1      30.097  28.320  23.176  1.00  0.00     0.021 A 
ATOM     98  Cl  UNL A   1      32.649  28.729  22.647  1.00  0.00    -0.084 Cl
ATOM     99  C   UNL A   1      28.974  27.592  23.555  1.00  0.00     0.005 A 
ENDBRANCH  91  92
ENDBRANCH  89  91
ENDBRANCH  84  89
ENDBRANCH  74  77
ENDBRANCH  72  73
ENDBRANCH  71  72
ENDBRANCH  70  71
ENDBRANCH   1  70
TORSDOF 19
ENDMDL
