MODEL 1
REMARK VINA RESULT:     -12.7      0.000      0.000
REMARK SMILES O=C(NCCCCCCNC(=O)[C@@H]1[C@H](C(=O)Nc2ccc(Cn3cncn3)cc2)[C@@H]2C=C[C@H]1CC2)c1ccc(-c2c3nc(c(-c4ccc(S(=O)(=O)[O-])cc4)c4ccc([nH]4)c(-c4ccc(S(=O)(=O)[O-])cc4)c4nc(c(-c5ccc(S(=O)(=O)[O-])cc5)c5ccc2[nH]5)C=C4)C=C3)cc1
REMARK SMILES IDX 7 1 6 2 5 3 4 4 3 5 1 6 2 7 36 9 37 10 95 11 38 12 94 13
REMARK SMILES IDX 39 14 40 15 41 16 88 17 42 18 93 19 87 20 89 21 43 22 92 23
REMARK SMILES IDX 86 24 85 25 44 27 74 28 55 29 73 30 56 31 59 32 72 33 90 34
REMARK SMILES IDX 57 35 58 36 71 38 91 39 60 40 45 41 46 42 54 43 47 44 53 45
REMARK SMILES IDX 48 46 49 47 50 48 51 49 52 50 75 51 76 52 84 53 77 54 83 55
REMARK SMILES IDX 78 56 79 57 80 58 81 59 82 60 61 61 62 62 70 63 63 64 69 65
REMARK SMILES IDX 64 66 65 67 66 68 67 69 68 70 8 71 9 72 10 73 11 74 12 76
REMARK SMILES IDX 13 77 14 78 33 79 30 80 32 81 34 82 31 83 35 84 15 85 16 86
REMARK SMILES IDX 17 87 18 89 19 90 29 91 20 92 28 93 21 94 22 95 23 96 24 97
REMARK SMILES IDX 27 98 25 99 26 100
REMARK H PARENT 3 8 89 26 59 37 10 75 17 88
REMARK Flexibility Score: inf
ROOT
ATOM      1  C   UNL A   1      37.846  23.434  25.880  1.00  0.00     0.002 C 
ENDROOT
BRANCH   1   2
ATOM      2  C   UNL A   1      38.720  22.182  25.958  1.00  0.00     0.002 C 
BRANCH   2   3
ATOM      3  C   UNL A   1      40.005  22.312  26.781  1.00  0.00     0.021 C 
BRANCH   3   4
ATOM      4  C   UNL A   1      41.115  21.327  26.415  1.00  0.00     0.116 C 
BRANCH   4   5
ATOM      5  N   UNL A   1      42.008  21.782  25.372  1.00  0.00    -0.352 N 
ATOM      6  O   UNL A   1      43.469  22.951  24.188  1.00  0.00    -0.269 OA
ATOM      7  C   UNL A   1      42.692  22.945  25.148  1.00  0.00     0.251 C 
ATOM      8  H   UNL A   1      42.155  21.108  24.671  1.00  0.00     0.163 HD
BRANCH   7   9
ATOM      9  C   UNL A   1      42.509  24.194  25.932  1.00  0.00     0.039 A 
ATOM     10  C   UNL A   1      41.701  25.272  25.562  1.00  0.00     0.014 A 
ATOM     11  C   UNL A   1      43.205  24.260  27.152  1.00  0.00     0.014 A 
ATOM     12  C   UNL A   1      41.657  26.421  26.347  1.00  0.00     0.010 A 
ATOM     13  C   UNL A   1      43.144  25.395  27.953  1.00  0.00     0.010 A 
ATOM     14  C   UNL A   1      42.388  26.488  27.535  1.00  0.00    -0.014 A 
BRANCH  14  15
ATOM     15  C   UNL A   1      42.187  27.647  28.403  1.00  0.00     0.031 A 
ATOM     16  C   UNL A   1      43.303  28.641  28.392  1.00  0.00     0.074 A 
ATOM     17  C   UNL A   1      41.028  27.922  29.032  1.00  0.00     0.049 A 
ATOM     18  N   UNL A   1      44.020  29.064  29.383  1.00  0.00    -0.248 NA
ATOM     19  C   UNL A   1      43.731  29.161  27.082  1.00  0.00     0.031 C 
ATOM     20  C   UNL A   1      39.746  27.226  28.895  1.00  0.00     0.029 A 
ATOM     21  N   UNL A   1      40.720  28.978  29.840  1.00  0.00    -0.354 N 
ATOM     22  C   UNL A   1      44.872  30.035  28.856  1.00  0.00     0.074 A 
ATOM     23  C   UNL A   1      44.742  29.958  27.423  1.00  0.00     0.031 C 
ATOM     24  C   UNL A   1      38.762  28.007  29.394  1.00  0.00     0.029 A 
ATOM     25  C   UNL A   1      39.355  29.187  30.003  1.00  0.00     0.049 A 
ATOM     26  H   UNL A   1      41.404  29.541  30.270  1.00  0.00     0.167 HD
ATOM     27  C   UNL A   1      45.485  30.975  29.628  1.00  0.00     0.031 A 
ATOM     28  C   UNL A   1      38.756  30.285  30.529  1.00  0.00     0.031 A 
ATOM     29  C   UNL A   1      45.485  30.625  31.020  1.00  0.00     0.049 A 
ATOM     30  C   UNL A   1      39.772  31.012  31.326  1.00  0.00     0.074 A 
ATOM     31  C   UNL A   1      46.002  29.580  31.760  1.00  0.00     0.029 A 
ATOM     32  N   UNL A   1      44.563  31.239  31.831  1.00  0.00    -0.354 N 
ATOM     33  N   UNL A   1      40.299  30.548  32.423  1.00  0.00    -0.248 NA
ATOM     34  C   UNL A   1      40.515  32.083  30.682  1.00  0.00     0.031 C 
ATOM     35  C   UNL A   1      45.022  29.321  32.762  1.00  0.00     0.029 A 
ATOM     36  C   UNL A   1      44.000  30.260  32.609  1.00  0.00     0.049 A 
ATOM     37  H   UNL A   1      44.346  32.200  31.851  1.00  0.00     0.167 HD
ATOM     38  C   UNL A   1      41.624  30.953  32.380  1.00  0.00     0.074 A 
ATOM     39  C   UNL A   1      41.673  31.978  31.339  1.00  0.00     0.031 C 
ATOM     40  C   UNL A   1      42.607  30.234  33.001  1.00  0.00     0.031 A 
BRANCH  27  41
ATOM     41  C   UNL A   1      45.774  32.378  29.152  1.00  0.00    -0.014 A 
ATOM     42  C   UNL A   1      44.715  33.297  29.010  1.00  0.00     0.010 A 
ATOM     43  C   UNL A   1      47.015  32.739  28.584  1.00  0.00     0.010 A 
ATOM     44  C   UNL A   1      44.879  34.490  28.290  1.00  0.00     0.020 A 
ATOM     45  C   UNL A   1      47.200  33.944  27.903  1.00  0.00     0.020 A 
ATOM     46  C   UNL A   1      46.120  34.798  27.732  1.00  0.00     0.054 A 
BRANCH  46  47
ATOM     47  S   UNL A   1      46.297  36.290  26.720  1.00  0.00     0.124 S 
ATOM     48  O   UNL A   1      44.991  36.920  26.884  1.00  0.00    -0.237 OA
ATOM     49  O   UNL A   1      47.416  36.971  27.365  1.00  0.00    -0.237 OA
ATOM     50  O   UNL A   1      46.579  35.766  25.386  1.00  0.00    -0.744 OA
ENDBRANCH  46  47
ENDBRANCH  27  41
BRANCH  28  51
ATOM     51  C   UNL A   1      37.471  30.908  30.122  1.00  0.00    -0.014 A 
ATOM     52  C   UNL A   1      36.536  31.345  31.079  1.00  0.00     0.010 A 
ATOM     53  C   UNL A   1      37.289  31.334  28.789  1.00  0.00     0.010 A 
ATOM     54  C   UNL A   1      35.495  32.224  30.727  1.00  0.00     0.020 A 
ATOM     55  C   UNL A   1      36.250  32.200  28.430  1.00  0.00     0.020 A 
ATOM     56  C   UNL A   1      35.372  32.662  29.405  1.00  0.00     0.054 A 
BRANCH  56  57
ATOM     57  S   UNL A   1      34.143  33.936  28.993  1.00  0.00     0.124 S 
ATOM     58  O   UNL A   1      34.973  34.996  28.427  1.00  0.00    -0.237 OA
ATOM     59  O   UNL A   1      33.271  33.244  28.049  1.00  0.00    -0.237 OA
ATOM     60  O   UNL A   1      33.528  34.250  30.281  1.00  0.00    -0.744 OA
ENDBRANCH  56  57
ENDBRANCH  28  51
BRANCH  40  61
ATOM     61  C   UNL A   1      42.203  29.154  33.979  1.00  0.00    -0.014 A 
ATOM     62  C   UNL A   1      42.010  27.805  33.620  1.00  0.00     0.010 A 
ATOM     63  C   UNL A   1      42.167  29.494  35.343  1.00  0.00     0.010 A 
ATOM     64  C   UNL A   1      41.763  26.830  34.599  1.00  0.00     0.020 A 
ATOM     65  C   UNL A   1      41.940  28.525  36.324  1.00  0.00     0.020 A 
ATOM     66  C   UNL A   1      41.732  27.198  35.947  1.00  0.00     0.054 A 
BRANCH  66  67
ATOM     67  S   UNL A   1      41.468  25.929  37.217  1.00  0.00     0.124 S 
ATOM     68  O   UNL A   1      42.599  26.146  38.122  1.00  0.00    -0.237 OA
ATOM     69  O   UNL A   1      40.155  26.284  37.761  1.00  0.00    -0.237 OA
ATOM     70  O   UNL A   1      41.502  24.676  36.475  1.00  0.00    -0.744 OA
ENDBRANCH  66  67
ENDBRANCH  40  61
ENDBRANCH  14  15
ENDBRANCH   7   9
ENDBRANCH   4   5
ENDBRANCH   3   4
ENDBRANCH   2   3
ENDBRANCH   1   2
BRANCH   1  71
ATOM     71  C   UNL A   1      36.656  23.370  24.922  1.00  0.00     0.021 C 
BRANCH  71  72
ATOM     72  C   UNL A   1      35.414  24.172  25.307  1.00  0.00     0.116 C 
BRANCH  72  73
ATOM     73  N   UNL A   1      34.569  24.517  24.179  1.00  0.00    -0.356 N 
ATOM     74  C   UNL A   1      33.793  25.622  23.985  1.00  0.00     0.224 C 
ATOM     75  H   UNL A   1      34.553  23.858  23.448  1.00  0.00     0.163 HD
ATOM     76  O   UNL A   1      33.562  25.952  22.819  1.00  0.00    -0.275 OA
BRANCH  74  77
ATOM     77  C   UNL A   1      33.303  26.452  25.157  1.00  0.00     0.098 C 
ATOM     78  C   UNL A   1      31.813  26.419  25.586  1.00  0.00     0.098 C 
ATOM     79  C   UNL A   1      33.788  27.947  25.132  1.00  0.00     0.025 C 
ATOM     80  C   UNL A   1      31.419  27.803  26.194  1.00  0.00     0.025 C 
ATOM     81  C   UNL A   1      32.750  28.881  24.529  1.00  0.00    -0.027 C 
ATOM     82  C   UNL A   1      33.863  28.405  26.610  1.00  0.00     0.009 C 
ATOM     83  C   UNL A   1      31.537  28.835  25.104  1.00  0.00    -0.027 C 
ATOM     84  C   UNL A   1      32.473  28.195  27.271  1.00  0.00     0.009 C 
BRANCH  78  85
ATOM     85  C   UNL A   1      30.644  25.820  24.778  1.00  0.00     0.228 C 
ATOM     86  O   UNL A   1      29.840  26.639  24.289  1.00  0.00    -0.274 OA
ATOM     87  N   UNL A   1      30.447  24.547  24.346  1.00  0.00    -0.326 N 
ATOM     88  H   UNL A   1      29.611  24.424  23.840  1.00  0.00     0.169 HD
BRANCH  87  89
ATOM     89  C   UNL A   1      31.197  23.379  24.480  1.00  0.00     0.041 A 
ATOM     90  C   UNL A   1      31.566  22.690  23.326  1.00  0.00     0.026 A 
ATOM     91  C   UNL A   1      31.538  22.845  25.709  1.00  0.00     0.026 A 
ATOM     92  C   UNL A   1      32.485  21.640  23.405  1.00  0.00     0.008 A 
ATOM     93  C   UNL A   1      32.463  21.807  25.805  1.00  0.00     0.008 A 
ATOM     94  C   UNL A   1      33.007  21.248  24.646  1.00  0.00    -0.026 A 
BRANCH  94  95
ATOM     95  C   UNL A   1      34.137  20.259  24.746  1.00  0.00     0.181 C 
BRANCH  95  96
ATOM     96  N   UNL A   1      33.660  18.894  24.749  1.00  0.00    -0.249 N 
ATOM     97  C   UNL A   1      34.322  17.785  24.320  1.00  0.00     0.220 A 
ATOM     98  N   UNL A   1      32.468  18.570  25.283  1.00  0.00    -0.160 NA
ATOM     99  N   UNL A   1      33.578  16.724  24.528  1.00  0.00    -0.224 NA
ATOM    100  C   UNL A   1      32.451  17.248  25.097  1.00  0.00     0.246 A 
ENDBRANCH  95  96
ENDBRANCH  94  95
ENDBRANCH  87  89
ENDBRANCH  78  85
ENDBRANCH  74  77
ENDBRANCH  72  73
ENDBRANCH  71  72
ENDBRANCH   1  71
TORSDOF 20
ENDMDL
MODEL 2
REMARK VINA RESULT:     -12.6      1.563      2.152
REMARK SMILES O=C(NCCCCCCNC(=O)[C@@H]1[C@H](C(=O)Nc2ccc(Cn3cncn3)cc2)[C@@H]2C=C[C@H]1CC2)c1ccc(-c2c3nc(c(-c4ccc(S(=O)(=O)[O-])cc4)c4ccc([nH]4)c(-c4ccc(S(=O)(=O)[O-])cc4)c4nc(c(-c5ccc(S(=O)(=O)[O-])cc5)c5ccc2[nH]5)C=C4)C=C3)cc1
REMARK SMILES IDX 7 1 6 2 5 3 4 4 3 5 1 6 2 7 36 9 37 10 95 11 38 12 94 13
REMARK SMILES IDX 39 14 40 15 41 16 88 17 42 18 93 19 87 20 89 21 43 22 92 23
REMARK SMILES IDX 86 24 85 25 44 27 74 28 55 29 73 30 56 31 59 32 72 33 90 34
REMARK SMILES IDX 57 35 58 36 71 38 91 39 60 40 45 41 46 42 54 43 47 44 53 45
REMARK SMILES IDX 48 46 49 47 50 48 51 49 52 50 75 51 76 52 84 53 77 54 83 55
REMARK SMILES IDX 78 56 79 57 80 58 81 59 82 60 61 61 62 62 70 63 63 64 69 65
REMARK SMILES IDX 64 66 65 67 66 68 67 69 68 70 8 71 9 72 10 73 11 74 12 76
REMARK SMILES IDX 13 77 14 78 33 79 30 80 32 81 34 82 31 83 35 84 15 85 16 86
REMARK SMILES IDX 17 87 18 89 19 90 29 91 20 92 28 93 21 94 22 95 23 96 24 97
REMARK SMILES IDX 27 98 25 99 26 100
REMARK H PARENT 3 8 89 26 59 37 10 75 17 88
REMARK Flexibility Score: inf
ROOT
ATOM      1  C   UNL A   1      37.524  22.690  24.678  1.00  0.00     0.002 C 
ENDROOT
BRANCH   1   2
ATOM      2  C   UNL A   1      38.010  21.362  25.258  1.00  0.00     0.002 C 
BRANCH   2   3
ATOM      3  C   UNL A   1      39.333  21.412  26.030  1.00  0.00     0.021 C 
BRANCH   3   4
ATOM      4  C   UNL A   1      40.022  20.063  26.228  1.00  0.00     0.116 C 
BRANCH   4   5
ATOM      5  N   UNL A   1      41.369  19.987  25.705  1.00  0.00    -0.352 N 
ATOM      6  O   UNL A   1      43.526  20.326  25.338  1.00  0.00    -0.269 OA
ATOM      7  C   UNL A   1      42.491  20.753  25.859  1.00  0.00     0.251 C 
ATOM      8  H   UNL A   1      41.507  19.217  25.108  1.00  0.00     0.163 HD
BRANCH   7   9
ATOM      9  C   UNL A   1      42.523  22.073  26.541  1.00  0.00     0.039 A 
ATOM     10  C   UNL A   1      42.722  22.275  27.909  1.00  0.00     0.014 A 
ATOM     11  C   UNL A   1      42.354  23.196  25.711  1.00  0.00     0.014 A 
ATOM     12  C   UNL A   1      42.668  23.558  28.447  1.00  0.00     0.010 A 
ATOM     13  C   UNL A   1      42.326  24.481  26.240  1.00  0.00     0.010 A 
ATOM     14  C   UNL A   1      42.456  24.659  27.615  1.00  0.00    -0.014 A 
BRANCH  14  15
ATOM     15  C   UNL A   1      42.565  25.995  28.200  1.00  0.00     0.031 A 
ATOM     16  C   UNL A   1      43.863  26.689  27.944  1.00  0.00     0.074 A 
ATOM     17  C   UNL A   1      41.535  26.652  28.769  1.00  0.00     0.049 A 
ATOM     18  N   UNL A   1      44.718  27.147  28.801  1.00  0.00    -0.248 NA
ATOM     19  C   UNL A   1      44.303  26.803  26.543  1.00  0.00     0.031 C 
ATOM     20  C   UNL A   1      40.128  26.245  28.815  1.00  0.00     0.029 A 
ATOM     21  N   UNL A   1      41.513  27.899  29.322  1.00  0.00    -0.354 N 
ATOM     22  C   UNL A   1      45.720  27.766  28.053  1.00  0.00     0.074 A 
ATOM     23  C   UNL A   1      45.482  27.410  26.677  1.00  0.00     0.031 C 
ATOM     24  C   UNL A   1      39.368  27.315  29.141  1.00  0.00     0.029 A 
ATOM     25  C   UNL A   1      40.239  28.436  29.456  1.00  0.00     0.049 A 
ATOM     26  H   UNL A   1      42.329  28.376  29.601  1.00  0.00     0.167 HD
ATOM     27  C   UNL A   1      46.570  28.691  28.581  1.00  0.00     0.031 A 
ATOM     28  C   UNL A   1      39.923  29.728  29.729  1.00  0.00     0.031 A 
ATOM     29  C   UNL A   1      46.588  28.661  30.016  1.00  0.00     0.049 A 
ATOM     30  C   UNL A   1      41.122  30.367  30.323  1.00  0.00     0.074 A 
ATOM     31  C   UNL A   1      46.919  27.714  30.964  1.00  0.00     0.029 A 
ATOM     32  N   UNL A   1      45.874  29.627  30.681  1.00  0.00    -0.354 N 
ATOM     33  N   UNL A   1      41.610  30.047  31.487  1.00  0.00    -0.248 NA
ATOM     34  C   UNL A   1      42.031  31.079  29.440  1.00  0.00     0.031 C 
ATOM     35  C   UNL A   1      45.975  27.905  32.015  1.00  0.00     0.029 A 
ATOM     36  C   UNL A   1      45.168  28.991  31.671  1.00  0.00     0.049 A 
ATOM     37  H   UNL A   1      45.868  30.592  30.486  1.00  0.00     0.167 HD
ATOM     38  C   UNL A   1      42.985  30.128  31.331  1.00  0.00     0.074 A 
ATOM     39  C   UNL A   1      43.181  30.865  30.084  1.00  0.00     0.031 C 
ATOM     40  C   UNL A   1      43.831  29.362  32.082  1.00  0.00     0.031 A 
BRANCH  27  41
ATOM     41  C   UNL A   1      47.118  29.856  27.794  1.00  0.00    -0.014 A 
ATOM     42  C   UNL A   1      48.512  30.065  27.738  1.00  0.00     0.010 A 
ATOM     43  C   UNL A   1      46.296  30.907  27.332  1.00  0.00     0.010 A 
ATOM     44  C   UNL A   1      49.048  31.282  27.293  1.00  0.00     0.020 A 
ATOM     45  C   UNL A   1      46.821  32.105  26.845  1.00  0.00     0.020 A 
ATOM     46  C   UNL A   1      48.195  32.298  26.859  1.00  0.00     0.054 A 
BRANCH  46  47
ATOM     47  S   UNL A   1      48.890  33.901  26.381  1.00  0.00     0.124 S 
ATOM     48  O   UNL A   1      50.204  33.520  25.874  1.00  0.00    -0.237 OA
ATOM     49  O   UNL A   1      47.933  34.367  25.381  1.00  0.00    -0.237 OA
ATOM     50  O   UNL A   1      48.894  34.658  27.631  1.00  0.00    -0.744 OA
ENDBRANCH  46  47
ENDBRANCH  27  41
BRANCH  28  51
ATOM     51  C   UNL A   1      38.776  30.518  29.213  1.00  0.00    -0.014 A 
ATOM     52  C   UNL A   1      37.919  29.998  28.224  1.00  0.00     0.010 A 
ATOM     53  C   UNL A   1      38.355  31.675  29.900  1.00  0.00     0.010 A 
ATOM     54  C   UNL A   1      36.662  30.579  27.977  1.00  0.00     0.020 A 
ATOM     55  C   UNL A   1      37.109  32.264  29.653  1.00  0.00     0.020 A 
ATOM     56  C   UNL A   1      36.257  31.699  28.709  1.00  0.00     0.054 A 
BRANCH  56  57
ATOM     57  S   UNL A   1      34.564  32.333  28.517  1.00  0.00     0.124 S 
ATOM     58  O   UNL A   1      33.868  31.189  27.935  1.00  0.00    -0.237 OA
ATOM     59  O   UNL A   1      34.192  32.667  29.889  1.00  0.00    -0.237 OA
ATOM     60  O   UNL A   1      34.726  33.480  27.626  1.00  0.00    -0.744 OA
ENDBRANCH  56  57
ENDBRANCH  28  51
BRANCH  40  61
ATOM     61  C   UNL A   1      43.272  28.638  33.286  1.00  0.00    -0.014 A 
ATOM     62  C   UNL A   1      42.545  27.433  33.208  1.00  0.00     0.010 A 
ATOM     63  C   UNL A   1      43.633  29.120  34.558  1.00  0.00     0.010 A 
ATOM     64  C   UNL A   1      42.167  26.747  34.373  1.00  0.00     0.020 A 
ATOM     65  C   UNL A   1      43.277  28.431  35.719  1.00  0.00     0.020 A 
ATOM     66  C   UNL A   1      42.539  27.251  35.622  1.00  0.00     0.054 A 
BRANCH  66  67
ATOM     67  S   UNL A   1      42.099  26.334  37.126  1.00  0.00     0.124 S 
ATOM     68  O   UNL A   1      40.758  26.839  37.425  1.00  0.00    -0.237 OA
ATOM     69  O   UNL A   1      42.158  24.939  36.682  1.00  0.00    -0.237 OA
ATOM     70  O   UNL A   1      43.131  26.712  38.082  1.00  0.00    -0.744 OA
ENDBRANCH  66  67
ENDBRANCH  40  61
ENDBRANCH  14  15
ENDBRANCH   7   9
ENDBRANCH   4   5
ENDBRANCH   3   4
ENDBRANCH   2   3
ENDBRANCH   1   2
BRANCH   1  71
ATOM     71  C   UNL A   1      36.121  22.690  24.070  1.00  0.00     0.021 C 
BRANCH  71  72
ATOM     72  C   UNL A   1      35.229  23.888  24.389  1.00  0.00     0.116 C 
BRANCH  72  73
ATOM     73  N   UNL A   1      34.496  24.392  23.242  1.00  0.00    -0.356 N 
ATOM     74  C   UNL A   1      33.852  25.583  23.082  1.00  0.00     0.224 C 
ATOM     75  H   UNL A   1      34.459  23.786  22.467  1.00  0.00     0.163 HD
ATOM     76  O   UNL A   1      33.730  26.009  21.930  1.00  0.00    -0.275 OA
BRANCH  74  77
ATOM     77  C   UNL A   1      33.376  26.385  24.280  1.00  0.00     0.098 C 
ATOM     78  C   UNL A   1      31.907  26.289  24.767  1.00  0.00     0.098 C 
ATOM     79  C   UNL A   1      33.800  27.899  24.247  1.00  0.00     0.025 C 
ATOM     80  C   UNL A   1      31.483  27.652  25.401  1.00  0.00     0.025 C 
ATOM     81  C   UNL A   1      32.702  28.794  23.694  1.00  0.00    -0.027 C 
ATOM     82  C   UNL A   1      33.916  28.349  25.725  1.00  0.00     0.009 C 
ATOM     83  C   UNL A   1      31.517  28.695  24.316  1.00  0.00    -0.027 C 
ATOM     84  C   UNL A   1      32.563  28.079  26.439  1.00  0.00     0.009 C 
BRANCH  78  85
ATOM     85  C   UNL A   1      30.731  25.650  24.001  1.00  0.00     0.228 C 
ATOM     86  O   UNL A   1      29.991  26.437  23.377  1.00  0.00    -0.274 OA
ATOM     87  N   UNL A   1      30.475  24.342  23.733  1.00  0.00    -0.326 N 
ATOM     88  H   UNL A   1      29.650  24.197  23.217  1.00  0.00     0.169 HD
BRANCH  87  89
ATOM     89  C   UNL A   1      31.153  23.165  24.049  1.00  0.00     0.041 A 
ATOM     90  C   UNL A   1      31.676  22.399  23.009  1.00  0.00     0.026 A 
ATOM     91  C   UNL A   1      31.275  22.696  25.344  1.00  0.00     0.026 A 
ATOM     92  C   UNL A   1      32.534  21.333  23.291  1.00  0.00     0.008 A 
ATOM     93  C   UNL A   1      32.136  21.642  25.643  1.00  0.00     0.008 A 
ATOM     94  C   UNL A   1      32.838  21.001  24.619  1.00  0.00    -0.026 A 
BRANCH  94  95
ATOM     95  C   UNL A   1      33.902  19.991  24.953  1.00  0.00     0.181 C 
BRANCH  95  96
ATOM     96  N   UNL A   1      33.419  18.635  24.818  1.00  0.00    -0.249 N 
ATOM     97  C   UNL A   1      33.825  17.696  23.922  1.00  0.00     0.220 A 
ATOM     98  N   UNL A   1      32.517  18.125  25.678  1.00  0.00    -0.160 NA
ATOM     99  N   UNL A   1      33.185  16.571  24.144  1.00  0.00    -0.224 NA
ATOM    100  C   UNL A   1      32.386  16.882  25.208  1.00  0.00     0.246 A 
ENDBRANCH  95  96
ENDBRANCH  94  95
ENDBRANCH  87  89
ENDBRANCH  78  85
ENDBRANCH  74  77
ENDBRANCH  72  73
ENDBRANCH  71  72
ENDBRANCH   1  71
TORSDOF 20
ENDMDL
MODEL 3
REMARK VINA RESULT:     -12.3      1.740      2.438
REMARK SMILES O=C(NCCCCCCNC(=O)[C@@H]1[C@H](C(=O)Nc2ccc(Cn3cncn3)cc2)[C@@H]2C=C[C@H]1CC2)c1ccc(-c2c3nc(c(-c4ccc(S(=O)(=O)[O-])cc4)c4ccc([nH]4)c(-c4ccc(S(=O)(=O)[O-])cc4)c4nc(c(-c5ccc(S(=O)(=O)[O-])cc5)c5ccc2[nH]5)C=C4)C=C3)cc1
REMARK SMILES IDX 7 1 6 2 5 3 4 4 3 5 1 6 2 7 36 9 37 10 95 11 38 12 94 13
REMARK SMILES IDX 39 14 40 15 41 16 88 17 42 18 93 19 87 20 89 21 43 22 92 23
REMARK SMILES IDX 86 24 85 25 44 27 74 28 55 29 73 30 56 31 59 32 72 33 90 34
REMARK SMILES IDX 57 35 58 36 71 38 91 39 60 40 45 41 46 42 54 43 47 44 53 45
REMARK SMILES IDX 48 46 49 47 50 48 51 49 52 50 75 51 76 52 84 53 77 54 83 55
REMARK SMILES IDX 78 56 79 57 80 58 81 59 82 60 61 61 62 62 70 63 63 64 69 65
REMARK SMILES IDX 64 66 65 67 66 68 67 69 68 70 8 71 9 72 10 73 11 74 12 76
REMARK SMILES IDX 13 77 14 78 33 79 30 80 32 81 34 82 31 83 35 84 15 85 16 86
REMARK SMILES IDX 17 87 18 89 19 90 29 91 20 92 28 93 21 94 22 95 23 96 24 97
REMARK SMILES IDX 27 98 25 99 26 100
REMARK H PARENT 3 8 89 26 59 37 10 75 17 88
REMARK Flexibility Score: inf
ROOT
ATOM      1  C   UNL A   1      34.676  24.325  23.631  1.00  0.00     0.002 C 
ENDROOT
BRANCH   1   2
ATOM      2  C   UNL A   1      35.404  23.012  23.342  1.00  0.00     0.002 C 
BRANCH   2   3
ATOM      3  C   UNL A   1      36.838  22.911  23.873  1.00  0.00     0.021 C 
BRANCH   3   4
ATOM      4  C   UNL A   1      36.970  22.345  25.286  1.00  0.00     0.116 C 
BRANCH   4   5
ATOM      5  N   UNL A   1      38.184  21.598  25.529  1.00  0.00    -0.352 N 
ATOM      6  O   UNL A   1      40.137  20.919  26.321  1.00  0.00    -0.269 OA
ATOM      7  C   UNL A   1      39.327  21.847  26.237  1.00  0.00     0.251 C 
ATOM      8  H   UNL A   1      38.189  20.718  25.087  1.00  0.00     0.163 HD
BRANCH   7   9
ATOM      9  C   UNL A   1      39.676  23.161  26.839  1.00  0.00     0.039 A 
ATOM     10  C   UNL A   1      38.959  24.347  26.667  1.00  0.00     0.014 A 
ATOM     11  C   UNL A   1      40.818  23.175  27.659  1.00  0.00     0.014 A 
ATOM     12  C   UNL A   1      39.418  25.535  27.229  1.00  0.00     0.010 A 
ATOM     13  C   UNL A   1      41.266  24.353  28.245  1.00  0.00     0.010 A 
ATOM     14  C   UNL A   1      40.578  25.541  28.007  1.00  0.00    -0.014 A 
BRANCH  14  15
ATOM     15  C   UNL A   1      40.933  26.776  28.705  1.00  0.00     0.031 A 
ATOM     16  C   UNL A   1      42.130  27.485  28.159  1.00  0.00     0.074 A 
ATOM     17  C   UNL A   1      40.161  27.354  29.647  1.00  0.00     0.049 A 
ATOM     18  N   UNL A   1      43.228  27.804  28.765  1.00  0.00    -0.248 NA
ATOM     19  C   UNL A   1      42.131  27.796  26.720  1.00  0.00     0.031 C 
ATOM     20  C   UNL A   1      38.814  26.962  30.067  1.00  0.00     0.029 A 
ATOM     21  N   UNL A   1      40.377  28.508  30.342  1.00  0.00    -0.354 N 
ATOM     22  C   UNL A   1      43.989  28.513  27.837  1.00  0.00     0.074 A 
ATOM     23  C   UNL A   1      43.327  28.363  26.566  1.00  0.00     0.031 C 
ATOM     24  C   UNL A   1      38.248  27.982  30.752  1.00  0.00     0.029 A 
ATOM     25  C   UNL A   1      39.234  29.035  30.932  1.00  0.00     0.049 A 
ATOM     26  H   UNL A   1      41.263  28.930  30.419  1.00  0.00     0.167 HD
ATOM     27  C   UNL A   1      45.008  29.342  28.198  1.00  0.00     0.031 A 
ATOM     28  C   UNL A   1      39.088  30.277  31.461  1.00  0.00     0.031 A 
ATOM     29  C   UNL A   1      45.458  29.103  29.540  1.00  0.00     0.049 A 
ATOM     30  C   UNL A   1      40.443  30.808  31.738  1.00  0.00     0.074 A 
ATOM     31  C   UNL A   1      46.007  28.024  30.204  1.00  0.00     0.029 A 
ATOM     32  N   UNL A   1      45.033  29.970  30.517  1.00  0.00    -0.354 N 
ATOM     33  N   UNL A   1      41.242  30.317  32.642  1.00  0.00    -0.248 NA
ATOM     34  C   UNL A   1      41.081  31.631  30.723  1.00  0.00     0.031 C 
ATOM     35  C   UNL A   1      45.437  28.071  31.510  1.00  0.00     0.029 A 
ATOM     36  C   UNL A   1      44.625  29.205  31.580  1.00  0.00     0.049 A 
ATOM     37  H   UNL A   1      45.022  30.954  30.465  1.00  0.00     0.167 HD
ATOM     38  C   UNL A   1      42.508  30.404  32.084  1.00  0.00     0.074 A 
ATOM     39  C   UNL A   1      42.358  31.313  30.948  1.00  0.00     0.031 C 
ATOM     40  C   UNL A   1      43.497  29.527  32.428  1.00  0.00     0.031 A 
BRANCH  27  41
ATOM     41  C   UNL A   1      45.357  30.602  27.445  1.00  0.00    -0.014 A 
ATOM     42  C   UNL A   1      46.711  30.927  27.220  1.00  0.00     0.010 A 
ATOM     43  C   UNL A   1      44.406  31.614  27.189  1.00  0.00     0.010 A 
ATOM     44  C   UNL A   1      47.092  32.214  26.811  1.00  0.00     0.020 A 
ATOM     45  C   UNL A   1      44.772  32.884  26.739  1.00  0.00     0.020 A 
ATOM     46  C   UNL A   1      46.117  33.186  26.584  1.00  0.00     0.054 A 
BRANCH  46  47
ATOM     47  S   UNL A   1      46.623  34.871  26.153  1.00  0.00     0.124 S 
ATOM     48  O   UNL A   1      47.426  34.646  24.955  1.00  0.00    -0.237 OA
ATOM     49  O   UNL A   1      45.340  35.536  25.943  1.00  0.00    -0.237 OA
ATOM     50  O   UNL A   1      47.364  35.317  27.331  1.00  0.00    -0.744 OA
ENDBRANCH  46  47
ENDBRANCH  27  41
BRANCH  28  51
ATOM     51  C   UNL A   1      37.884  31.146  31.433  1.00  0.00    -0.014 A 
ATOM     52  C   UNL A   1      36.803  30.923  32.307  1.00  0.00     0.010 A 
ATOM     53  C   UNL A   1      37.921  32.373  30.738  1.00  0.00     0.010 A 
ATOM     54  C   UNL A   1      35.829  31.916  32.523  1.00  0.00     0.020 A 
ATOM     55  C   UNL A   1      36.950  33.361  30.941  1.00  0.00     0.020 A 
ATOM     56  C   UNL A   1      35.922  33.138  31.852  1.00  0.00     0.054 A 
BRANCH  56  57
ATOM     57  S   UNL A   1      34.771  34.482  32.271  1.00  0.00     0.124 S 
ATOM     58  O   UNL A   1      33.750  33.785  33.047  1.00  0.00    -0.237 OA
ATOM     59  O   UNL A   1      35.618  35.403  33.023  1.00  0.00    -0.237 OA
ATOM     60  O   UNL A   1      34.331  34.976  30.967  1.00  0.00    -0.744 OA
ENDBRANCH  56  57
ENDBRANCH  28  51
BRANCH  40  61
ATOM     61  C   UNL A   1      43.290  28.642  33.636  1.00  0.00    -0.014 A 
ATOM     62  C   UNL A   1      42.262  27.683  33.737  1.00  0.00     0.010 A 
ATOM     63  C   UNL A   1      44.270  28.681  34.645  1.00  0.00     0.010 A 
ATOM     64  C   UNL A   1      42.205  26.806  34.832  1.00  0.00     0.020 A 
ATOM     65  C   UNL A   1      44.229  27.797  35.726  1.00  0.00     0.020 A 
ATOM     66  C   UNL A   1      43.192  26.869  35.819  1.00  0.00     0.054 A 
BRANCH  66  67
ATOM     67  S   UNL A   1      43.150  25.697  37.204  1.00  0.00     0.124 S 
ATOM     68  O   UNL A   1      44.375  24.920  37.000  1.00  0.00    -0.237 OA
ATOM     69  O   UNL A   1      43.157  26.579  38.374  1.00  0.00    -0.237 OA
ATOM     70  O   UNL A   1      41.910  24.960  37.005  1.00  0.00    -0.744 OA
ENDBRANCH  66  67
ENDBRANCH  40  61
ENDBRANCH  14  15
ENDBRANCH   7   9
ENDBRANCH   4   5
ENDBRANCH   3   4
ENDBRANCH   2   3
ENDBRANCH   1   2
BRANCH   1  71
ATOM     71  C   UNL A   1      33.625  24.756  22.607  1.00  0.00     0.021 C 
BRANCH  71  72
ATOM     72  C   UNL A   1      32.320  23.965  22.582  1.00  0.00     0.116 C 
BRANCH  72  73
ATOM     73  N   UNL A   1      31.136  24.785  22.763  1.00  0.00    -0.356 N 
ATOM     74  C   UNL A   1      31.026  26.046  23.269  1.00  0.00     0.224 C 
ATOM     75  H   UNL A   1      30.289  24.370  22.479  1.00  0.00     0.163 HD
ATOM     76  O   UNL A   1      30.065  26.723  22.894  1.00  0.00    -0.275 OA
BRANCH  74  77
ATOM     77  C   UNL A   1      32.086  26.615  24.194  1.00  0.00     0.098 C 
ATOM     78  C   UNL A   1      32.116  26.235  25.697  1.00  0.00     0.098 C 
ATOM     79  C   UNL A   1      32.285  28.170  24.061  1.00  0.00     0.025 C 
ATOM     80  C   UNL A   1      32.694  27.431  26.521  1.00  0.00     0.025 C 
ATOM     81  C   UNL A   1      31.500  28.943  25.109  1.00  0.00    -0.027 C 
ATOM     82  C   UNL A   1      33.760  28.453  24.440  1.00  0.00     0.009 C 
ATOM     83  C   UNL A   1      31.742  28.588  26.381  1.00  0.00    -0.027 C 
ATOM     84  C   UNL A   1      34.029  27.893  25.864  1.00  0.00     0.009 C 
BRANCH  78  85
ATOM     85  C   UNL A   1      30.998  25.518  26.480  1.00  0.00     0.228 C 
ATOM     86  O   UNL A   1      30.005  26.212  26.776  1.00  0.00    -0.274 OA
ATOM     87  N   UNL A   1      30.829  24.194  26.737  1.00  0.00    -0.326 N 
ATOM     88  H   UNL A   1      30.021  23.992  27.262  1.00  0.00     0.169 HD
BRANCH  87  89
ATOM     89  C   UNL A   1      31.576  23.066  26.405  1.00  0.00     0.041 A 
ATOM     90  C   UNL A   1      31.058  22.177  25.465  1.00  0.00     0.026 A 
ATOM     91  C   UNL A   1      32.780  22.760  27.011  1.00  0.00     0.026 A 
ATOM     92  C   UNL A   1      31.861  21.154  24.954  1.00  0.00     0.008 A 
ATOM     93  C   UNL A   1      33.599  21.751  26.507  1.00  0.00     0.008 A 
ATOM     94  C   UNL A   1      33.175  20.989  25.416  1.00  0.00    -0.026 A 
BRANCH  94  95
ATOM     95  C   UNL A   1      34.125  20.028  24.753  1.00  0.00     0.181 C 
BRANCH  95  96
ATOM     96  N   UNL A   1      33.710  18.653  24.928  1.00  0.00    -0.249 N 
ATOM     97  C   UNL A   1      34.374  17.532  24.537  1.00  0.00     0.220 A 
ATOM     98  N   UNL A   1      32.590  18.341  25.607  1.00  0.00    -0.160 NA
ATOM     99  N   UNL A   1      33.700  16.470  24.914  1.00  0.00    -0.224 NA
ATOM    100  C   UNL A   1      32.613  17.008  25.544  1.00  0.00     0.246 A 
ENDBRANCH  95  96
ENDBRANCH  94  95
ENDBRANCH  87  89
ENDBRANCH  78  85
ENDBRANCH  74  77
ENDBRANCH  72  73
ENDBRANCH  71  72
ENDBRANCH   1  71
TORSDOF 20
ENDMDL
