MODEL 1
REMARK VINA RESULT:     -11.5      0.000      0.000
REMARK SMILES O=C(NCCCCCCNC(=O)c1ccccc1Nc1cccc(C(F)(F)F)c1)c1ccc(-c2c3nc(c(-c4ccc(S(=O)(=O)[O-])cc4)c4ccc([nH]4)c(-c4ccc(S(=O)(=O)[O-])cc4)c4nc(c(-c5ccc(S(=O)(=O)[O-])cc5)c5ccc2[nH]5)C=C4)C=C3)cc1
REMARK SMILES IDX 6 1 5 2 4 3 3 4 1 5 2 6 30 8 31 9 89 10 32 11 88 12 33 13
REMARK SMILES IDX 34 14 35 15 82 16 36 17 87 18 81 19 83 20 37 21 86 22 80 23
REMARK SMILES IDX 79 24 38 26 68 27 49 28 67 29 50 30 53 31 66 32 84 33 51 34
REMARK SMILES IDX 52 35 65 37 85 38 54 39 39 40 40 41 48 42 41 43 47 44 42 45
REMARK SMILES IDX 43 46 44 47 45 48 46 49 69 50 70 51 78 52 71 53 77 54 72 55
REMARK SMILES IDX 73 56 74 57 75 58 76 59 55 60 56 61 64 62 57 63 63 64 58 65
REMARK SMILES IDX 59 66 60 67 61 68 62 69 7 70 8 71 9 72 10 73 11 74 12 76
REMARK SMILES IDX 13 77 14 78 18 79 15 80 17 81 16 82 19 83 20 85 21 86 29 87
REMARK SMILES IDX 22 88 24 89 23 90 25 91 26 92 27 93 28 94
REMARK H PARENT 3 7 83 25 53 36 10 75 19 84
REMARK Flexibility Score: inf
ROOT
ATOM      1  C   UNL A   1      40.424  21.485  26.440  1.00  0.00     0.002 C 
ENDROOT
BRANCH   1   2
ATOM      2  C   UNL A   1      41.116  22.180  27.612  1.00  0.00     0.021 C 
BRANCH   2   3
ATOM      3  C   UNL A   1      42.232  23.149  27.243  1.00  0.00     0.116 C 
BRANCH   3   4
ATOM      4  N   UNL A   1      41.913  23.991  26.102  1.00  0.00    -0.352 N 
ATOM      5  O   UNL A   1      41.155  25.816  25.012  1.00  0.00    -0.269 OA
ATOM      6  C   UNL A   1      41.476  25.297  26.078  1.00  0.00     0.251 C 
ATOM      7  H   UNL A   1      42.025  23.568  25.221  1.00  0.00     0.163 HD
BRANCH   6   8
ATOM      8  C   UNL A   1      41.352  26.061  27.342  1.00  0.00     0.039 A 
ATOM      9  C   UNL A   1      40.287  25.835  28.216  1.00  0.00     0.014 A 
ATOM     10  C   UNL A   1      42.309  27.033  27.645  1.00  0.00     0.014 A 
ATOM     11  C   UNL A   1      40.090  26.687  29.298  1.00  0.00     0.010 A 
ATOM     12  C   UNL A   1      42.155  27.835  28.781  1.00  0.00     0.010 A 
ATOM     13  C   UNL A   1      41.018  27.701  29.593  1.00  0.00    -0.014 A 
BRANCH  13  14
ATOM     14  C   UNL A   1      40.778  28.593  30.758  1.00  0.00     0.031 A 
ATOM     15  C   UNL A   1      41.658  28.529  31.981  1.00  0.00     0.074 A 
ATOM     16  C   UNL A   1      39.786  29.503  30.693  1.00  0.00     0.049 A 
ATOM     17  N   UNL A   1      41.628  29.280  33.054  1.00  0.00    -0.248 NA
ATOM     18  C   UNL A   1      42.696  27.487  32.010  1.00  0.00     0.031 C 
ATOM     19  C   UNL A   1      38.859  29.659  29.569  1.00  0.00     0.029 A 
ATOM     20  N   UNL A   1      39.410  30.487  31.572  1.00  0.00    -0.354 N 
ATOM     21  C   UNL A   1      42.622  28.788  33.893  1.00  0.00     0.074 A 
ATOM     22  C   UNL A   1      43.224  27.661  33.214  1.00  0.00     0.031 C 
ATOM     23  C   UNL A   1      38.062  30.714  29.799  1.00  0.00     0.029 A 
ATOM     24  C   UNL A   1      38.386  31.276  31.107  1.00  0.00     0.049 A 
ATOM     25  H   UNL A   1      39.834  30.614  32.452  1.00  0.00     0.167 HD
ATOM     26  C   UNL A   1      43.004  29.236  35.115  1.00  0.00     0.031 A 
ATOM     27  C   UNL A   1      37.773  32.337  31.663  1.00  0.00     0.031 A 
ATOM     28  C   UNL A   1      42.417  30.368  35.785  1.00  0.00     0.049 A 
ATOM     29  C   UNL A   1      38.220  32.820  33.012  1.00  0.00     0.074 A 
ATOM     30  C   UNL A   1      42.760  30.918  37.008  1.00  0.00     0.029 A 
ATOM     31  N   UNL A   1      41.367  31.126  35.288  1.00  0.00    -0.354 N 
ATOM     32  N   UNL A   1      39.183  32.357  33.774  1.00  0.00    -0.248 NA
ATOM     33  C   UNL A   1      37.504  33.972  33.573  1.00  0.00     0.031 C 
ATOM     34  C   UNL A   1      41.891  31.984  37.270  1.00  0.00     0.029 A 
ATOM     35  C   UNL A   1      41.039  32.128  36.187  1.00  0.00     0.049 A 
ATOM     36  H   UNL A   1      40.921  30.974  34.424  1.00  0.00     0.167 HD
ATOM     37  C   UNL A   1      39.200  33.176  34.896  1.00  0.00     0.074 A 
ATOM     38  C   UNL A   1      38.163  34.170  34.706  1.00  0.00     0.031 C 
ATOM     39  C   UNL A   1      40.003  33.108  35.986  1.00  0.00     0.031 A 
BRANCH  26  40
ATOM     40  C   UNL A   1      44.099  28.482  35.823  1.00  0.00    -0.014 A 
ATOM     41  C   UNL A   1      45.445  28.873  35.714  1.00  0.00     0.010 A 
ATOM     42  C   UNL A   1      43.769  27.386  36.643  1.00  0.00     0.010 A 
ATOM     43  C   UNL A   1      46.445  28.156  36.377  1.00  0.00     0.020 A 
ATOM     44  C   UNL A   1      44.764  26.681  37.326  1.00  0.00     0.020 A 
ATOM     45  C   UNL A   1      46.099  27.059  37.173  1.00  0.00     0.054 A 
BRANCH  45  46
ATOM     46  S   UNL A   1      47.416  26.151  38.029  1.00  0.00     0.124 S 
ATOM     47  O   UNL A   1      47.517  26.885  39.288  1.00  0.00    -0.237 OA
ATOM     48  O   UNL A   1      46.865  24.803  38.133  1.00  0.00    -0.237 OA
ATOM     49  O   UNL A   1      48.566  26.283  37.136  1.00  0.00    -0.744 OA
ENDBRANCH  45  46
ENDBRANCH  26  40
BRANCH  27  50
ATOM     50  C   UNL A   1      36.676  33.023  30.929  1.00  0.00    -0.014 A 
ATOM     51  C   UNL A   1      35.346  32.910  31.368  1.00  0.00     0.010 A 
ATOM     52  C   UNL A   1      36.964  33.820  29.806  1.00  0.00     0.010 A 
ATOM     53  C   UNL A   1      34.320  33.573  30.688  1.00  0.00     0.020 A 
ATOM     54  C   UNL A   1      35.944  34.504  29.141  1.00  0.00     0.020 A 
ATOM     55  C   UNL A   1      34.626  34.368  29.580  1.00  0.00     0.054 A 
BRANCH  55  56
ATOM     56  S   UNL A   1      33.290  35.271  28.751  1.00  0.00     0.124 S 
ATOM     57  O   UNL A   1      32.627  34.209  28.001  1.00  0.00    -0.237 OA
ATOM     58  O   UNL A   1      32.534  35.823  29.872  1.00  0.00    -0.237 OA
ATOM     59  O   UNL A   1      34.000  36.261  27.943  1.00  0.00    -0.744 OA
ENDBRANCH  55  56
ENDBRANCH  27  50
BRANCH  39  60
ATOM     60  C   UNL A   1      39.814  34.163  37.041  1.00  0.00    -0.014 A 
ATOM     61  C   UNL A   1      40.342  35.457  36.882  1.00  0.00     0.010 A 
ATOM     62  C   UNL A   1      39.075  33.860  38.200  1.00  0.00     0.010 A 
ATOM     63  C   UNL A   1      40.170  36.417  37.883  1.00  0.00     0.020 A 
ATOM     64  C   UNL A   1      38.881  34.824  39.191  1.00  0.00     0.020 A 
ATOM     65  C   UNL A   1      39.446  36.092  39.035  1.00  0.00     0.054 A 
BRANCH  65  66
ATOM     66  S   UNL A   1      39.215  37.358  40.313  1.00  0.00     0.124 S 
ATOM     67  O   UNL A   1      38.373  38.332  39.626  1.00  0.00    -0.237 OA
ATOM     68  O   UNL A   1      38.566  36.615  41.392  1.00  0.00    -0.237 OA
ATOM     69  O   UNL A   1      40.576  37.804  40.606  1.00  0.00    -0.744 OA
ENDBRANCH  65  66
ENDBRANCH  39  60
ENDBRANCH  13  14
ENDBRANCH   6   8
ENDBRANCH   3   4
ENDBRANCH   2   3
ENDBRANCH   1   2
BRANCH   1  70
ATOM     70  C   UNL A   1      38.978  21.909  26.165  1.00  0.00     0.002 C 
BRANCH  70  71
ATOM     71  C   UNL A   1      38.110  20.908  25.394  1.00  0.00     0.021 C 
BRANCH  71  72
ATOM     72  C   UNL A   1      36.728  21.408  24.975  1.00  0.00     0.116 C 
BRANCH  72  73
ATOM     73  N   UNL A   1      35.856  21.652  26.111  1.00  0.00    -0.352 N 
ATOM     74  C   UNL A   1      34.514  21.930  26.121  1.00  0.00     0.253 C 
ATOM     75  H   UNL A   1      36.288  21.612  26.995  1.00  0.00     0.163 HD
ATOM     76  O   UNL A   1      33.942  22.169  27.181  1.00  0.00    -0.269 OA
BRANCH  74  77
ATOM     77  C   UNL A   1      33.747  21.976  24.858  1.00  0.00     0.063 A 
ATOM     78  C   UNL A   1      33.902  23.136  24.081  1.00  0.00     0.016 A 
ATOM     79  C   UNL A   1      32.870  20.944  24.461  1.00  0.00     0.051 A 
ATOM     80  C   UNL A   1      33.218  23.268  22.876  1.00  0.00     0.001 A 
ATOM     81  C   UNL A   1      32.206  21.100  23.234  1.00  0.00     0.027 A 
ATOM     82  C   UNL A   1      32.374  22.246  22.450  1.00  0.00     0.002 A 
BRANCH  79  83
ATOM     83  N   UNL A   1      32.685  19.786  25.242  1.00  0.00    -0.355 N 
ATOM     84  H   UNL A   1      32.078  19.905  26.008  1.00  0.00     0.167 HD
BRANCH  83  85
ATOM     85  C   UNL A   1      33.217  18.490  25.120  1.00  0.00     0.039 A 
ATOM     86  C   UNL A   1      34.515  18.329  24.622  1.00  0.00     0.026 A 
ATOM     87  C   UNL A   1      32.516  17.347  25.528  1.00  0.00     0.039 A 
ATOM     88  C   UNL A   1      35.099  17.063  24.530  1.00  0.00     0.003 A 
ATOM     89  C   UNL A   1      33.083  16.063  25.431  1.00  0.00     0.058 A 
ATOM     90  C   UNL A   1      34.387  15.934  24.933  1.00  0.00     0.013 A 
BRANCH  89  91
ATOM     91  C   UNL A   1      32.316  14.841  25.872  1.00  0.00     0.416 C 
ATOM     92  F   UNL A   1      31.051  14.809  25.376  1.00  0.00    -0.166 F 
ATOM     93  F   UNL A   1      32.914  13.684  25.474  1.00  0.00    -0.166 F 
ATOM     94  F   UNL A   1      32.188  14.747  27.226  1.00  0.00    -0.166 F 
ENDBRANCH  89  91
ENDBRANCH  83  85
ENDBRANCH  79  83
ENDBRANCH  74  77
ENDBRANCH  72  73
ENDBRANCH  71  72
ENDBRANCH  70  71
ENDBRANCH   1  70
TORSDOF 19
ENDMDL
MODEL 2
REMARK VINA RESULT:     -11.4      5.468     10.225
REMARK SMILES O=C(NCCCCCCNC(=O)c1ccccc1Nc1cccc(C(F)(F)F)c1)c1ccc(-c2c3nc(c(-c4ccc(S(=O)(=O)[O-])cc4)c4ccc([nH]4)c(-c4ccc(S(=O)(=O)[O-])cc4)c4nc(c(-c5ccc(S(=O)(=O)[O-])cc5)c5ccc2[nH]5)C=C4)C=C3)cc1
REMARK SMILES IDX 6 1 5 2 4 3 3 4 1 5 2 6 30 8 31 9 89 10 32 11 88 12 33 13
REMARK SMILES IDX 34 14 35 15 82 16 36 17 87 18 81 19 83 20 37 21 86 22 80 23
REMARK SMILES IDX 79 24 38 26 68 27 49 28 67 29 50 30 53 31 66 32 84 33 51 34
REMARK SMILES IDX 52 35 65 37 85 38 54 39 39 40 40 41 48 42 41 43 47 44 42 45
REMARK SMILES IDX 43 46 44 47 45 48 46 49 69 50 70 51 78 52 71 53 77 54 72 55
REMARK SMILES IDX 73 56 74 57 75 58 76 59 55 60 56 61 64 62 57 63 63 64 58 65
REMARK SMILES IDX 59 66 60 67 61 68 62 69 7 70 8 71 9 72 10 73 11 74 12 76
REMARK SMILES IDX 13 77 14 78 18 79 15 80 17 81 16 82 19 83 20 85 21 86 29 87
REMARK SMILES IDX 22 88 24 89 23 90 25 91 26 92 27 93 28 94
REMARK H PARENT 3 7 83 25 53 36 10 75 19 84
REMARK Flexibility Score: inf
ROOT
ATOM      1  C   UNL A   1      32.406  26.147  26.298  1.00  0.00     0.002 C 
ENDROOT
BRANCH   1   2
ATOM      2  C   UNL A   1      32.321  27.605  26.748  1.00  0.00     0.021 C 
BRANCH   2   3
ATOM      3  C   UNL A   1      33.645  28.265  27.110  1.00  0.00     0.116 C 
BRANCH   3   4
ATOM      4  N   UNL A   1      33.508  29.660  27.495  1.00  0.00    -0.352 N 
ATOM      5  O   UNL A   1      34.099  31.627  28.430  1.00  0.00    -0.269 OA
ATOM      6  C   UNL A   1      34.431  30.498  28.079  1.00  0.00     0.251 C 
ATOM      7  H   UNL A   1      32.630  30.065  27.311  1.00  0.00     0.163 HD
BRANCH   6   8
ATOM      8  C   UNL A   1      35.813  30.022  28.324  1.00  0.00     0.039 A 
ATOM      9  C   UNL A   1      36.198  29.548  29.580  1.00  0.00     0.014 A 
ATOM     10  C   UNL A   1      36.744  30.071  27.283  1.00  0.00     0.014 A 
ATOM     11  C   UNL A   1      37.540  29.282  29.837  1.00  0.00     0.010 A 
ATOM     12  C   UNL A   1      38.078  29.723  27.521  1.00  0.00     0.010 A 
ATOM     13  C   UNL A   1      38.498  29.371  28.813  1.00  0.00    -0.014 A 
BRANCH  13  14
ATOM     14  C   UNL A   1      39.923  29.078  29.121  1.00  0.00     0.031 A 
ATOM     15  C   UNL A   1      40.544  27.756  28.749  1.00  0.00     0.074 A 
ATOM     16  C   UNL A   1      40.677  30.034  29.699  1.00  0.00     0.049 A 
ATOM     17  N   UNL A   1      41.787  27.365  28.883  1.00  0.00    -0.248 NA
ATOM     18  C   UNL A   1      39.660  26.739  28.159  1.00  0.00     0.031 C 
ATOM     19  C   UNL A   1      40.192  31.353  30.116  1.00  0.00     0.029 A 
ATOM     20  N   UNL A   1      42.014  30.060  30.007  1.00  0.00    -0.354 N 
ATOM     21  C   UNL A   1      41.829  26.055  28.421  1.00  0.00     0.074 A 
ATOM     22  C   UNL A   1      40.483  25.708  28.021  1.00  0.00     0.031 C 
ATOM     23  C   UNL A   1      41.226  32.079  30.568  1.00  0.00     0.029 A 
ATOM     24  C   UNL A   1      42.435  31.262  30.522  1.00  0.00     0.049 A 
ATOM     25  H   UNL A   1      42.613  29.291  29.872  1.00  0.00     0.167 HD
ATOM     26  C   UNL A   1      42.892  25.217  28.332  1.00  0.00     0.031 A 
ATOM     27  C   UNL A   1      43.656  31.670  30.914  1.00  0.00     0.031 A 
ATOM     28  C   UNL A   1      44.236  25.566  28.715  1.00  0.00     0.049 A 
ATOM     29  C   UNL A   1      44.818  30.727  30.797  1.00  0.00     0.074 A 
ATOM     30  C   UNL A   1      45.383  24.796  28.629  1.00  0.00     0.029 A 
ATOM     31  N   UNL A   1      44.615  26.786  29.254  1.00  0.00    -0.354 N 
ATOM     32  N   UNL A   1      44.839  29.502  30.329  1.00  0.00    -0.248 NA
ATOM     33  C   UNL A   1      46.122  31.224  31.254  1.00  0.00     0.031 C 
ATOM     34  C   UNL A   1      46.450  25.537  29.152  1.00  0.00     0.029 A 
ATOM     35  C   UNL A   1      45.974  26.786  29.520  1.00  0.00     0.049 A 
ATOM     36  H   UNL A   1      44.007  27.543  29.422  1.00  0.00     0.167 HD
ATOM     37  C   UNL A   1      46.163  29.089  30.416  1.00  0.00     0.074 A 
ATOM     38  C   UNL A   1      46.914  30.200  30.967  1.00  0.00     0.031 C 
ATOM     39  C   UNL A   1      46.707  27.897  30.071  1.00  0.00     0.031 A 
BRANCH  26  40
ATOM     40  C   UNL A   1      42.639  23.823  27.821  1.00  0.00    -0.014 A 
ATOM     41  C   UNL A   1      42.168  22.807  28.671  1.00  0.00     0.010 A 
ATOM     42  C   UNL A   1      42.838  23.536  26.457  1.00  0.00     0.010 A 
ATOM     43  C   UNL A   1      41.942  21.519  28.176  1.00  0.00     0.020 A 
ATOM     44  C   UNL A   1      42.592  22.255  25.953  1.00  0.00     0.020 A 
ATOM     45  C   UNL A   1      42.163  21.249  26.822  1.00  0.00     0.054 A 
BRANCH  45  46
ATOM     46  S   UNL A   1      41.856  19.571  26.204  1.00  0.00     0.124 S 
ATOM     47  O   UNL A   1      40.414  19.597  25.971  1.00  0.00    -0.237 OA
ATOM     48  O   UNL A   1      42.683  19.512  25.002  1.00  0.00    -0.237 OA
ATOM     49  O   UNL A   1      42.295  18.712  27.301  1.00  0.00    -0.744 OA
ENDBRANCH  45  46
ENDBRANCH  26  40
BRANCH  27  50
ATOM     50  C   UNL A   1      43.839  33.049  31.441  1.00  0.00    -0.014 A 
ATOM     51  C   UNL A   1      43.726  33.306  32.818  1.00  0.00     0.010 A 
ATOM     52  C   UNL A   1      44.160  34.105  30.569  1.00  0.00     0.010 A 
ATOM     53  C   UNL A   1      43.919  34.600  33.313  1.00  0.00     0.020 A 
ATOM     54  C   UNL A   1      44.379  35.392  31.064  1.00  0.00     0.020 A 
ATOM     55  C   UNL A   1      44.246  35.634  32.432  1.00  0.00     0.054 A 
BRANCH  55  56
ATOM     56  S   UNL A   1      44.556  37.291  33.101  1.00  0.00     0.124 S 
ATOM     57  O   UNL A   1      46.012  37.369  33.056  1.00  0.00    -0.237 OA
ATOM     58  O   UNL A   1      43.846  38.153  32.159  1.00  0.00    -0.237 OA
ATOM     59  O   UNL A   1      43.971  37.232  34.439  1.00  0.00    -0.744 OA
ENDBRANCH  55  56
ENDBRANCH  27  50
BRANCH  39  60
ATOM     60  C   UNL A   1      48.193  27.746  30.247  1.00  0.00    -0.014 A 
ATOM     61  C   UNL A   1      49.087  28.080  29.214  1.00  0.00     0.010 A 
ATOM     62  C   UNL A   1      48.703  27.286  31.475  1.00  0.00     0.010 A 
ATOM     63  C   UNL A   1      50.464  27.915  29.392  1.00  0.00     0.020 A 
ATOM     64  C   UNL A   1      50.078  27.143  31.664  1.00  0.00     0.020 A 
ATOM     65  C   UNL A   1      50.951  27.441  30.615  1.00  0.00     0.054 A 
BRANCH  65  66
ATOM     66  S   UNL A   1      52.741  27.254  30.834  1.00  0.00     0.124 S 
ATOM     67  O   UNL A   1      53.185  28.644  30.898  1.00  0.00    -0.237 OA
ATOM     68  O   UNL A   1      52.838  26.504  32.085  1.00  0.00    -0.237 OA
ATOM     69  O   UNL A   1      53.159  26.519  29.642  1.00  0.00    -0.744 OA
ENDBRANCH  65  66
ENDBRANCH  39  60
ENDBRANCH  13  14
ENDBRANCH   6   8
ENDBRANCH   3   4
ENDBRANCH   2   3
ENDBRANCH   1   2
BRANCH   1  70
ATOM     70  C   UNL A   1      31.169  25.286  26.569  1.00  0.00     0.002 C 
BRANCH  70  71
ATOM     71  C   UNL A   1      30.995  24.045  25.686  1.00  0.00     0.021 C 
BRANCH  71  72
ATOM     72  C   UNL A   1      31.903  22.861  26.014  1.00  0.00     0.116 C 
BRANCH  72  73
ATOM     73  N   UNL A   1      31.765  21.772  25.063  1.00  0.00    -0.352 N 
ATOM     74  C   UNL A   1      32.712  21.230  24.233  1.00  0.00     0.253 C 
ATOM     75  H   UNL A   1      30.869  21.369  25.004  1.00  0.00     0.163 HD
ATOM     76  O   UNL A   1      32.403  20.342  23.442  1.00  0.00    -0.269 OA
BRANCH  74  77
ATOM     77  C   UNL A   1      34.106  21.723  24.260  1.00  0.00     0.063 A 
ATOM     78  C   UNL A   1      34.960  21.114  25.194  1.00  0.00     0.016 A 
ATOM     79  C   UNL A   1      34.557  22.775  23.436  1.00  0.00     0.051 A 
ATOM     80  C   UNL A   1      36.289  21.514  25.292  1.00  0.00     0.001 A 
ATOM     81  C   UNL A   1      35.907  23.147  23.548  1.00  0.00     0.027 A 
ATOM     82  C   UNL A   1      36.764  22.527  24.464  1.00  0.00     0.002 A 
BRANCH  79  83
ATOM     83  N   UNL A   1      33.706  23.413  22.512  1.00  0.00    -0.355 N 
ATOM     84  H   UNL A   1      33.561  22.908  21.679  1.00  0.00     0.167 HD
BRANCH  83  85
ATOM     85  C   UNL A   1      33.026  24.643  22.570  1.00  0.00     0.039 A 
ATOM     86  C   UNL A   1      31.634  24.660  22.427  1.00  0.00     0.026 A 
ATOM     87  C   UNL A   1      33.683  25.855  22.819  1.00  0.00     0.039 A 
ATOM     88  C   UNL A   1      30.915  25.854  22.527  1.00  0.00     0.003 A 
ATOM     89  C   UNL A   1      32.977  27.068  22.911  1.00  0.00     0.058 A 
ATOM     90  C   UNL A   1      31.583  27.053  22.769  1.00  0.00     0.013 A 
BRANCH  89  91
ATOM     91  C   UNL A   1      33.698  28.366  23.178  1.00  0.00     0.416 C 
ATOM     92  F   UNL A   1      32.875  29.333  23.663  1.00  0.00    -0.166 F 
ATOM     93  F   UNL A   1      34.701  28.224  24.088  1.00  0.00    -0.166 F 
ATOM     94  F   UNL A   1      34.279  28.896  22.065  1.00  0.00    -0.166 F 
ENDBRANCH  89  91
ENDBRANCH  83  85
ENDBRANCH  79  83
ENDBRANCH  74  77
ENDBRANCH  72  73
ENDBRANCH  71  72
ENDBRANCH  70  71
ENDBRANCH   1  70
TORSDOF 19
ENDMDL
MODEL 3
REMARK VINA RESULT:     -11.4      2.922      4.041
REMARK SMILES O=C(NCCCCCCNC(=O)c1ccccc1Nc1cccc(C(F)(F)F)c1)c1ccc(-c2c3nc(c(-c4ccc(S(=O)(=O)[O-])cc4)c4ccc([nH]4)c(-c4ccc(S(=O)(=O)[O-])cc4)c4nc(c(-c5ccc(S(=O)(=O)[O-])cc5)c5ccc2[nH]5)C=C4)C=C3)cc1
REMARK SMILES IDX 6 1 5 2 4 3 3 4 1 5 2 6 30 8 31 9 89 10 32 11 88 12 33 13
REMARK SMILES IDX 34 14 35 15 82 16 36 17 87 18 81 19 83 20 37 21 86 22 80 23
REMARK SMILES IDX 79 24 38 26 68 27 49 28 67 29 50 30 53 31 66 32 84 33 51 34
REMARK SMILES IDX 52 35 65 37 85 38 54 39 39 40 40 41 48 42 41 43 47 44 42 45
REMARK SMILES IDX 43 46 44 47 45 48 46 49 69 50 70 51 78 52 71 53 77 54 72 55
REMARK SMILES IDX 73 56 74 57 75 58 76 59 55 60 56 61 64 62 57 63 63 64 58 65
REMARK SMILES IDX 59 66 60 67 61 68 62 69 7 70 8 71 9 72 10 73 11 74 12 76
REMARK SMILES IDX 13 77 14 78 18 79 15 80 17 81 16 82 19 83 20 85 21 86 29 87
REMARK SMILES IDX 22 88 24 89 23 90 25 91 26 92 27 93 28 94
REMARK H PARENT 3 7 83 25 53 36 10 75 19 84
REMARK Flexibility Score: inf
ROOT
ATOM      1  C   UNL A   1      40.317  21.477  26.398  1.00  0.00     0.002 C 
ENDROOT
BRANCH   1   2
ATOM      2  C   UNL A   1      40.924  22.129  27.639  1.00  0.00     0.021 C 
BRANCH   2   3
ATOM      3  C   UNL A   1      42.042  23.132  27.382  1.00  0.00     0.116 C 
BRANCH   3   4
ATOM      4  N   UNL A   1      41.798  23.986  26.232  1.00  0.00    -0.352 N 
ATOM      5  O   UNL A   1      41.169  25.845  25.118  1.00  0.00    -0.269 OA
ATOM      6  C   UNL A   1      41.434  25.313  26.193  1.00  0.00     0.251 C 
ATOM      7  H   UNL A   1      41.909  23.554  25.354  1.00  0.00     0.163 HD
BRANCH   6   8
ATOM      8  C   UNL A   1      41.320  26.088  27.451  1.00  0.00     0.039 A 
ATOM      9  C   UNL A   1      40.255  25.879  28.329  1.00  0.00     0.014 A 
ATOM     10  C   UNL A   1      42.288  27.053  27.745  1.00  0.00     0.014 A 
ATOM     11  C   UNL A   1      40.069  26.741  29.406  1.00  0.00     0.010 A 
ATOM     12  C   UNL A   1      42.143  27.865  28.875  1.00  0.00     0.010 A 
ATOM     13  C   UNL A   1      41.007  27.748  29.690  1.00  0.00    -0.014 A 
BRANCH  13  14
ATOM     14  C   UNL A   1      40.778  28.651  30.850  1.00  0.00     0.031 A 
ATOM     15  C   UNL A   1      41.674  28.604  32.061  1.00  0.00     0.074 A 
ATOM     16  C   UNL A   1      39.782  29.556  30.788  1.00  0.00     0.049 A 
ATOM     17  N   UNL A   1      41.656  29.365  33.127  1.00  0.00    -0.248 NA
ATOM     18  C   UNL A   1      42.718  27.567  32.087  1.00  0.00     0.031 C 
ATOM     19  C   UNL A   1      38.839  29.696  29.675  1.00  0.00     0.029 A 
ATOM     20  N   UNL A   1      39.413  30.547  31.662  1.00  0.00    -0.354 N 
ATOM     21  C   UNL A   1      42.663  28.887  33.958  1.00  0.00     0.074 A 
ATOM     22  C   UNL A   1      43.261  27.755  33.283  1.00  0.00     0.031 C 
ATOM     23  C   UNL A   1      38.041  30.750  29.905  1.00  0.00     0.029 A 
ATOM     24  C   UNL A   1      38.380  31.327  31.202  1.00  0.00     0.049 A 
ATOM     25  H   UNL A   1      39.847  30.685  32.534  1.00  0.00     0.167 HD
ATOM     26  C   UNL A   1      43.059  29.349  35.170  1.00  0.00     0.031 A 
ATOM     27  C   UNL A   1      37.769  32.391  31.755  1.00  0.00     0.031 A 
ATOM     28  C   UNL A   1      42.475  30.485  35.836  1.00  0.00     0.049 A 
ATOM     29  C   UNL A   1      38.231  32.890  33.093  1.00  0.00     0.074 A 
ATOM     30  C   UNL A   1      42.831  31.049  37.049  1.00  0.00     0.029 A 
ATOM     31  N   UNL A   1      41.415  31.233  35.345  1.00  0.00    -0.354 N 
ATOM     32  N   UNL A   1      39.206  32.439  33.847  1.00  0.00    -0.248 NA
ATOM     33  C   UNL A   1      37.517  34.045  33.652  1.00  0.00     0.031 C 
ATOM     34  C   UNL A   1      41.962  32.114  37.310  1.00  0.00     0.029 A 
ATOM     35  C   UNL A   1      41.094  32.243  36.238  1.00  0.00     0.049 A 
ATOM     36  H   UNL A   1      40.958  31.071  34.488  1.00  0.00     0.167 HD
ATOM     37  C   UNL A   1      39.234  33.269  34.961  1.00  0.00     0.074 A 
ATOM     38  C   UNL A   1      38.191  34.257  34.774  1.00  0.00     0.031 C 
ATOM     39  C   UNL A   1      40.052  33.217  36.040  1.00  0.00     0.031 A 
BRANCH  26  40
ATOM     40  C   UNL A   1      44.165  28.607  35.871  1.00  0.00    -0.014 A 
ATOM     41  C   UNL A   1      43.891  27.531  36.735  1.00  0.00     0.010 A 
ATOM     42  C   UNL A   1      45.505  28.967  35.630  1.00  0.00     0.010 A 
ATOM     43  C   UNL A   1      44.934  26.857  37.377  1.00  0.00     0.020 A 
ATOM     44  C   UNL A   1      46.552  28.280  36.254  1.00  0.00     0.020 A 
ATOM     45  C   UNL A   1      46.258  27.241  37.139  1.00  0.00     0.054 A 
BRANCH  45  46
ATOM     46  S   UNL A   1      47.592  26.345  37.981  1.00  0.00     0.124 S 
ATOM     47  O   UNL A   1      47.360  26.704  39.377  1.00  0.00    -0.237 OA
ATOM     48  O   UNL A   1      47.315  24.953  37.637  1.00  0.00    -0.237 OA
ATOM     49  O   UNL A   1      48.808  26.899  37.389  1.00  0.00    -0.744 OA
ENDBRANCH  45  46
ENDBRANCH  26  40
BRANCH  27  50
ATOM     50  C   UNL A   1      36.659  33.064  31.028  1.00  0.00    -0.014 A 
ATOM     51  C   UNL A   1      35.337  32.959  31.491  1.00  0.00     0.010 A 
ATOM     52  C   UNL A   1      36.928  33.843  29.888  1.00  0.00     0.010 A 
ATOM     53  C   UNL A   1      34.299  33.610  30.818  1.00  0.00     0.020 A 
ATOM     54  C   UNL A   1      35.897  34.516  29.229  1.00  0.00     0.020 A 
ATOM     55  C   UNL A   1      34.586  34.387  29.692  1.00  0.00     0.054 A 
BRANCH  55  56
ATOM     56  S   UNL A   1      33.236  35.275  28.871  1.00  0.00     0.124 S 
ATOM     57  O   UNL A   1      32.643  34.229  28.045  1.00  0.00    -0.237 OA
ATOM     58  O   UNL A   1      32.423  35.732  29.995  1.00  0.00    -0.237 OA
ATOM     59  O   UNL A   1      33.924  36.338  28.140  1.00  0.00    -0.744 OA
ENDBRANCH  55  56
ENDBRANCH  27  50
BRANCH  39  60
ATOM     60  C   UNL A   1      39.871  34.282  37.087  1.00  0.00    -0.014 A 
ATOM     61  C   UNL A   1      40.526  35.523  36.985  1.00  0.00     0.010 A 
ATOM     62  C   UNL A   1      39.015  34.044  38.177  1.00  0.00     0.010 A 
ATOM     63  C   UNL A   1      40.359  36.492  37.979  1.00  0.00     0.020 A 
ATOM     64  C   UNL A   1      38.827  35.019  39.159  1.00  0.00     0.020 A 
ATOM     65  C   UNL A   1      39.515  36.231  39.063  1.00  0.00     0.054 A 
BRANCH  65  66
ATOM     66  S   UNL A   1      39.294  37.509  40.331  1.00  0.00     0.124 S 
ATOM     67  O   UNL A   1      38.908  36.718  41.495  1.00  0.00    -0.237 OA
ATOM     68  O   UNL A   1      40.617  38.128  40.401  1.00  0.00    -0.237 OA
ATOM     69  O   UNL A   1      38.244  38.363  39.779  1.00  0.00    -0.744 OA
ENDBRANCH  65  66
ENDBRANCH  39  60
ENDBRANCH  13  14
ENDBRANCH   6   8
ENDBRANCH   3   4
ENDBRANCH   2   3
ENDBRANCH   1   2
BRANCH   1  70
ATOM     70  C   UNL A   1      38.877  21.880  26.063  1.00  0.00     0.002 C 
BRANCH  70  71
ATOM     71  C   UNL A   1      38.064  20.879  25.235  1.00  0.00     0.021 C 
BRANCH  71  72
ATOM     72  C   UNL A   1      36.634  21.297  24.900  1.00  0.00     0.116 C 
BRANCH  72  73
ATOM     73  N   UNL A   1      35.770  21.317  26.068  1.00  0.00    -0.352 N 
ATOM     74  C   UNL A   1      34.401  21.301  26.126  1.00  0.00     0.253 C 
ATOM     75  H   UNL A   1      36.232  21.347  26.937  1.00  0.00     0.163 HD
ATOM     76  O   UNL A   1      33.829  21.382  27.210  1.00  0.00    -0.269 OA
BRANCH  74  77
ATOM     77  C   UNL A   1      33.598  21.215  24.888  1.00  0.00     0.063 A 
ATOM     78  C   UNL A   1      33.081  19.947  24.573  1.00  0.00     0.016 A 
ATOM     79  C   UNL A   1      33.390  22.319  24.036  1.00  0.00     0.051 A 
ATOM     80  C   UNL A   1      32.313  19.769  23.426  1.00  0.00     0.001 A 
ATOM     81  C   UNL A   1      32.599  22.112  22.894  1.00  0.00     0.027 A 
ATOM     82  C   UNL A   1      32.067  20.854  22.590  1.00  0.00     0.002 A 
BRANCH  79  83
ATOM     83  N   UNL A   1      33.922  23.592  24.326  1.00  0.00    -0.355 N 
ATOM     84  H   UNL A   1      34.869  23.702  24.077  1.00  0.00     0.167 HD
BRANCH  83  85
ATOM     85  C   UNL A   1      33.340  24.731  24.908  1.00  0.00     0.039 A 
ATOM     86  C   UNL A   1      32.350  24.568  25.885  1.00  0.00     0.026 A 
ATOM     87  C   UNL A   1      33.747  26.033  24.587  1.00  0.00     0.039 A 
ATOM     88  C   UNL A   1      31.779  25.672  26.523  1.00  0.00     0.003 A 
ATOM     89  C   UNL A   1      33.175  27.156  25.211  1.00  0.00     0.058 A 
ATOM     90  C   UNL A   1      32.191  26.961  26.189  1.00  0.00     0.013 A 
BRANCH  89  91
ATOM     91  C   UNL A   1      33.622  28.552  24.854  1.00  0.00     0.416 C 
ATOM     92  F   UNL A   1      32.613  29.317  24.359  1.00  0.00    -0.166 F 
ATOM     93  F   UNL A   1      34.123  29.225  25.926  1.00  0.00    -0.166 F 
ATOM     94  F   UNL A   1      34.605  28.576  23.909  1.00  0.00    -0.166 F 
ENDBRANCH  89  91
ENDBRANCH  83  85
ENDBRANCH  79  83
ENDBRANCH  74  77
ENDBRANCH  72  73
ENDBRANCH  71  72
ENDBRANCH  70  71
ENDBRANCH   1  70
TORSDOF 19
ENDMDL
