MODEL 1
REMARK VINA RESULT:     -10.6      0.000      0.000
REMARK SMILES O=C(NCCCCCCNC(=O)c1ccc(-c2c3nc(c(-c4ccc(S(=O)(=O)[O-])cc4)c4ccc([nH]4)c(-c4ccc(S(=O)(=O)[O-])cc4)c4nc(c(-c5ccc(S(=O)(=O)[O-])cc5)c5ccc2[nH]5)C=C4)C=C3)cc1)c1ccc(N/C=C\C(=O)c2ccco2)cc1
REMARK SMILES IDX 6 1 5 2 4 3 3 4 1 5 2 6 73 8 74 9 88 10 75 11 87 12 76 13
REMARK SMILES IDX 77 14 78 16 79 17 80 18 81 19 82 20 83 21 86 22 84 23 85 24
REMARK SMILES IDX 7 25 8 26 9 27 10 28 11 29 12 31 13 32 14 33 72 34 15 35
REMARK SMILES IDX 71 36 16 37 17 38 18 39 65 40 19 41 70 42 64 43 66 44 20 45
REMARK SMILES IDX 69 46 63 47 62 48 21 50 51 51 32 52 50 53 33 54 36 55 49 56
REMARK SMILES IDX 67 57 34 58 35 59 48 61 68 62 37 63 22 64 23 65 31 66 24 67
REMARK SMILES IDX 30 68 25 69 26 70 27 71 28 72 29 73 52 74 53 75 61 76 54 77
REMARK SMILES IDX 60 78 55 79 56 80 57 81 58 82 59 83 38 84 39 85 47 86 40 87
REMARK SMILES IDX 46 88 41 89 42 90 43 91 44 92 45 93
REMARK H PARENT 3 7 77 15 10 30 66 49 36 60
REMARK Flexibility Score: inf
ROOT
ATOM      1  C   UNL A   1      34.214  24.436  25.719  1.00  0.00     0.002 C 
ENDROOT
BRANCH   1   2
ATOM      2  C   UNL A   1      33.785  23.382  26.744  1.00  0.00     0.021 C 
BRANCH   2   3
ATOM      3  C   UNL A   1      32.863  22.292  26.204  1.00  0.00     0.116 C 
BRANCH   3   4
ATOM      4  N   UNL A   1      31.575  22.285  26.878  1.00  0.00    -0.352 N 
ATOM      5  O   UNL A   1      29.586  23.133  27.528  1.00  0.00    -0.269 OA
ATOM      6  C   UNL A   1      30.540  23.174  26.755  1.00  0.00     0.251 C 
ATOM      7  H   UNL A   1      31.427  21.543  27.506  1.00  0.00     0.163 HD
BRANCH   6   8
ATOM      8  C   UNL A   1      30.584  24.204  25.700  1.00  0.00     0.039 A 
ATOM      9  C   UNL A   1      30.413  25.557  26.003  1.00  0.00     0.016 A 
ATOM     10  C   UNL A   1      30.816  23.802  24.387  1.00  0.00     0.016 A 
ATOM     11  C   UNL A   1      30.416  26.508  24.977  1.00  0.00     0.027 A 
ATOM     12  C   UNL A   1      30.840  24.759  23.373  1.00  0.00     0.027 A 
ATOM     13  C   UNL A   1      30.642  26.124  23.653  1.00  0.00     0.038 A 
BRANCH  13  14
ATOM     14  N   UNL A   1      30.600  27.012  22.567  1.00  0.00    -0.362 N 
ATOM     15  H   UNL A   1      30.308  26.617  21.713  1.00  0.00     0.166 HD
BRANCH  14  16
ATOM     16  C   UNL A   1      30.904  28.347  22.518  1.00  0.00     0.087 C 
ATOM     17  C   UNL A   1      31.954  29.000  23.037  1.00  0.00     0.074 C 
BRANCH  17  18
ATOM     18  C   UNL A   1      33.100  28.421  23.801  1.00  0.00     0.222 C 
ATOM     19  O   UNL A   1      33.830  27.628  23.205  1.00  0.00    -0.286 OA
BRANCH  18  20
ATOM     20  C   UNL A   1      33.304  28.806  25.183  1.00  0.00     0.173 A 
ATOM     21  C   UNL A   1      34.356  28.622  26.066  1.00  0.00     0.054 A 
ATOM     22  O   UNL A   1      32.278  29.436  25.837  1.00  0.00    -0.461 OA
ATOM     23  C   UNL A   1      33.930  29.118  27.321  1.00  0.00     0.043 A 
ATOM     24  C   UNL A   1      32.662  29.606  27.127  1.00  0.00     0.196 A 
ENDBRANCH  18  20
ENDBRANCH  17  18
ENDBRANCH  14  16
ENDBRANCH  13  14
ENDBRANCH   6   8
ENDBRANCH   3   4
ENDBRANCH   2   3
ENDBRANCH   1   2
BRANCH   1  25
ATOM     25  C   UNL A   1      34.534  23.901  24.321  1.00  0.00     0.002 C 
BRANCH  25  26
ATOM     26  C   UNL A   1      35.910  23.249  24.166  1.00  0.00     0.021 C 
BRANCH  26  27
ATOM     27  C   UNL A   1      37.001  23.816  25.068  1.00  0.00     0.116 C 
BRANCH  27  28
ATOM     28  N   UNL A   1      37.969  22.809  25.470  1.00  0.00    -0.352 N 
ATOM     29  C   UNL A   1      39.125  22.957  26.195  1.00  0.00     0.251 C 
ATOM     30  H   UNL A   1      37.766  21.891  25.182  1.00  0.00     0.163 HD
ATOM     31  O   UNL A   1      39.906  22.014  26.301  1.00  0.00    -0.269 OA
BRANCH  29  32
ATOM     32  C   UNL A   1      39.441  24.257  26.826  1.00  0.00     0.039 A 
ATOM     33  C   UNL A   1      38.993  24.502  28.126  1.00  0.00     0.014 A 
ATOM     34  C   UNL A   1      40.172  25.232  26.140  1.00  0.00     0.014 A 
ATOM     35  C   UNL A   1      39.330  25.700  28.761  1.00  0.00     0.010 A 
ATOM     36  C   UNL A   1      40.567  26.394  26.798  1.00  0.00     0.010 A 
ATOM     37  C   UNL A   1      40.148  26.642  28.114  1.00  0.00    -0.014 A 
BRANCH  37  38
ATOM     38  C   UNL A   1      40.577  27.888  28.800  1.00  0.00     0.031 A 
ATOM     39  C   UNL A   1      41.936  27.973  29.440  1.00  0.00     0.074 A 
ATOM     40  C   UNL A   1      39.717  28.921  28.904  1.00  0.00     0.049 A 
ATOM     41  N   UNL A   1      42.461  28.951  30.133  1.00  0.00    -0.248 NA
ATOM     42  C   UNL A   1      42.810  26.797  29.302  1.00  0.00     0.031 C 
ATOM     43  C   UNL A   1      38.355  28.947  28.366  1.00  0.00     0.029 A 
ATOM     44  N   UNL A   1      39.859  30.146  29.507  1.00  0.00    -0.354 N 
ATOM     45  C   UNL A   1      43.718  28.506  30.522  1.00  0.00     0.074 A 
ATOM     46  C   UNL A   1      43.854  27.150  30.036  1.00  0.00     0.031 C 
ATOM     47  C   UNL A   1      37.794  30.133  28.648  1.00  0.00     0.029 A 
ATOM     48  C   UNL A   1      38.738  30.938  29.417  1.00  0.00     0.049 A 
ATOM     49  H   UNL A   1      40.685  30.431  29.960  1.00  0.00     0.167 HD
ATOM     50  C   UNL A   1      44.683  29.171  31.204  1.00  0.00     0.031 A 
ATOM     51  C   UNL A   1      38.491  32.169  29.907  1.00  0.00     0.031 A 
ATOM     52  C   UNL A   1      44.544  30.519  31.688  1.00  0.00     0.049 A 
ATOM     53  C   UNL A   1      39.571  32.887  30.668  1.00  0.00     0.074 A 
ATOM     54  C   UNL A   1      45.478  31.295  32.354  1.00  0.00     0.029 A 
ATOM     55  N   UNL A   1      43.401  31.293  31.560  1.00  0.00    -0.354 N 
ATOM     56  N   UNL A   1      40.776  32.469  30.977  1.00  0.00    -0.248 NA
ATOM     57  C   UNL A   1      39.264  34.245  31.135  1.00  0.00     0.031 C 
ATOM     58  C   UNL A   1      44.882  32.520  32.671  1.00  0.00     0.029 A 
ATOM     59  C   UNL A   1      43.597  32.530  32.151  1.00  0.00     0.049 A 
ATOM     60  H   UNL A   1      42.572  31.005  31.114  1.00  0.00     0.167 HD
ATOM     61  C   UNL A   1      41.379  33.523  31.655  1.00  0.00     0.074 A 
ATOM     62  C   UNL A   1      40.411  34.601  31.697  1.00  0.00     0.031 C 
ATOM     63  C   UNL A   1      42.622  33.591  32.192  1.00  0.00     0.031 A 
BRANCH  50  64
ATOM     64  C   UNL A   1      45.972  28.437  31.469  1.00  0.00    -0.014 A 
ATOM     65  C   UNL A   1      46.103  27.577  32.575  1.00  0.00     0.010 A 
ATOM     66  C   UNL A   1      47.063  28.593  30.594  1.00  0.00     0.010 A 
ATOM     67  C   UNL A   1      47.314  26.931  32.833  1.00  0.00     0.020 A 
ATOM     68  C   UNL A   1      48.268  27.924  30.831  1.00  0.00     0.020 A 
ATOM     69  C   UNL A   1      48.391  27.115  31.963  1.00  0.00     0.054 A 
BRANCH  69  70
ATOM     70  S   UNL A   1      49.954  26.265  32.322  1.00  0.00     0.124 S 
ATOM     71  O   UNL A   1      50.922  27.119  31.638  1.00  0.00    -0.237 OA
ATOM     72  O   UNL A   1      50.008  26.298  33.781  1.00  0.00    -0.237 OA
ATOM     73  O   UNL A   1      49.770  24.939  31.737  1.00  0.00    -0.744 OA
ENDBRANCH  69  70
ENDBRANCH  50  64
BRANCH  51  74
ATOM     74  C   UNL A   1      37.162  32.798  29.679  1.00  0.00    -0.014 A 
ATOM     75  C   UNL A   1      36.253  32.959  30.739  1.00  0.00     0.010 A 
ATOM     76  C   UNL A   1      36.812  33.268  28.400  1.00  0.00     0.010 A 
ATOM     77  C   UNL A   1      35.015  33.571  30.522  1.00  0.00     0.020 A 
ATOM     78  C   UNL A   1      35.587  33.905  28.186  1.00  0.00     0.020 A 
ATOM     79  C   UNL A   1      34.692  34.045  29.248  1.00  0.00     0.054 A 
BRANCH  79  80
ATOM     80  S   UNL A   1      33.109  34.899  29.005  1.00  0.00     0.124 S 
ATOM     81  O   UNL A   1      32.527  34.846  30.341  1.00  0.00    -0.237 OA
ATOM     82  O   UNL A   1      33.532  36.221  28.548  1.00  0.00    -0.237 OA
ATOM     83  O   UNL A   1      32.436  34.087  27.993  1.00  0.00    -0.744 OA
ENDBRANCH  79  80
ENDBRANCH  51  74
BRANCH  63  84
ATOM     84  C   UNL A   1      43.022  34.885  32.851  1.00  0.00    -0.014 A 
ATOM     85  C   UNL A   1      42.806  35.101  34.223  1.00  0.00     0.010 A 
ATOM     86  C   UNL A   1      43.672  35.877  32.095  1.00  0.00     0.010 A 
ATOM     87  C   UNL A   1      43.209  36.299  34.822  1.00  0.00     0.020 A 
ATOM     88  C   UNL A   1      44.101  37.064  32.694  1.00  0.00     0.020 A 
ATOM     89  C   UNL A   1      43.854  37.273  34.052  1.00  0.00     0.054 A 
BRANCH  89  90
ATOM     90  S   UNL A   1      44.406  38.799  34.860  1.00  0.00     0.124 S 
ATOM     91  O   UNL A   1      43.535  39.799  34.249  1.00  0.00    -0.237 OA
ATOM     92  O   UNL A   1      44.152  38.525  36.273  1.00  0.00    -0.237 OA
ATOM     93  O   UNL A   1      45.817  38.895  34.495  1.00  0.00    -0.744 OA
ENDBRANCH  89  90
ENDBRANCH  63  84
ENDBRANCH  37  38
ENDBRANCH  29  32
ENDBRANCH  27  28
ENDBRANCH  26  27
ENDBRANCH  25  26
ENDBRANCH   1  25
TORSDOF 20
ENDMDL
MODEL 2
REMARK VINA RESULT:     -10.5      4.204      5.548
REMARK SMILES O=C(NCCCCCCNC(=O)c1ccc(-c2c3nc(c(-c4ccc(S(=O)(=O)[O-])cc4)c4ccc([nH]4)c(-c4ccc(S(=O)(=O)[O-])cc4)c4nc(c(-c5ccc(S(=O)(=O)[O-])cc5)c5ccc2[nH]5)C=C4)C=C3)cc1)c1ccc(N/C=C\C(=O)c2ccco2)cc1
REMARK SMILES IDX 6 1 5 2 4 3 3 4 1 5 2 6 73 8 74 9 88 10 75 11 87 12 76 13
REMARK SMILES IDX 77 14 78 16 79 17 80 18 81 19 82 20 83 21 86 22 84 23 85 24
REMARK SMILES IDX 7 25 8 26 9 27 10 28 11 29 12 31 13 32 14 33 72 34 15 35
REMARK SMILES IDX 71 36 16 37 17 38 18 39 65 40 19 41 70 42 64 43 66 44 20 45
REMARK SMILES IDX 69 46 63 47 62 48 21 50 51 51 32 52 50 53 33 54 36 55 49 56
REMARK SMILES IDX 67 57 34 58 35 59 48 61 68 62 37 63 22 64 23 65 31 66 24 67
REMARK SMILES IDX 30 68 25 69 26 70 27 71 28 72 29 73 52 74 53 75 61 76 54 77
REMARK SMILES IDX 60 78 55 79 56 80 57 81 58 82 59 83 38 84 39 85 47 86 40 87
REMARK SMILES IDX 46 88 41 89 42 90 43 91 44 92 45 93
REMARK H PARENT 3 7 77 15 10 30 66 49 36 60
REMARK Flexibility Score: inf
ROOT
ATOM      1  C   UNL A   1      35.953  20.961  25.211  1.00  0.00     0.002 C 
ENDROOT
BRANCH   1   2
ATOM      2  C   UNL A   1      35.459  22.000  26.223  1.00  0.00     0.021 C 
BRANCH   2   3
ATOM      3  C   UNL A   1      34.203  21.604  26.996  1.00  0.00     0.116 C 
BRANCH   3   4
ATOM      4  N   UNL A   1      33.573  20.418  26.441  1.00  0.00    -0.352 N 
ATOM      5  O   UNL A   1      32.059  19.268  25.223  1.00  0.00    -0.269 OA
ATOM      6  C   UNL A   1      32.625  20.334  25.456  1.00  0.00     0.251 C 
ATOM      7  H   UNL A   1      33.867  19.561  26.824  1.00  0.00     0.163 HD
BRANCH   6   8
ATOM      8  C   UNL A   1      32.265  21.538  24.685  1.00  0.00     0.039 A 
ATOM      9  C   UNL A   1      31.325  22.452  25.169  1.00  0.00     0.016 A 
ATOM     10  C   UNL A   1      32.894  21.759  23.463  1.00  0.00     0.016 A 
ATOM     11  C   UNL A   1      30.971  23.563  24.397  1.00  0.00     0.027 A 
ATOM     12  C   UNL A   1      32.552  22.881  22.710  1.00  0.00     0.027 A 
ATOM     13  C   UNL A   1      31.588  23.800  23.165  1.00  0.00     0.038 A 
BRANCH  13  14
ATOM     14  N   UNL A   1      31.241  24.858  22.312  1.00  0.00    -0.362 N 
ATOM     15  H   UNL A   1      30.485  24.679  21.707  1.00  0.00     0.166 HD
BRANCH  14  16
ATOM     16  C   UNL A   1      31.798  26.104  22.194  1.00  0.00     0.087 C 
ATOM     17  C   UNL A   1      31.276  27.302  22.496  1.00  0.00     0.074 C 
BRANCH  17  18
ATOM     18  C   UNL A   1      29.926  27.588  23.071  1.00  0.00     0.222 C 
ATOM     19  O   UNL A   1      29.487  26.789  23.900  1.00  0.00    -0.286 OA
BRANCH  18  20
ATOM     20  C   UNL A   1      29.203  28.768  22.642  1.00  0.00     0.173 A 
ATOM     21  C   UNL A   1      27.940  29.256  22.936  1.00  0.00     0.054 A 
ATOM     22  O   UNL A   1      29.796  29.591  21.721  1.00  0.00    -0.461 OA
ATOM     23  C   UNL A   1      27.740  30.396  22.121  1.00  0.00     0.043 A 
ATOM     24  C   UNL A   1      28.900  30.559  21.405  1.00  0.00     0.196 A 
ENDBRANCH  18  20
ENDBRANCH  17  18
ENDBRANCH  14  16
ENDBRANCH  13  14
ENDBRANCH   6   8
ENDBRANCH   3   4
ENDBRANCH   2   3
ENDBRANCH   1   2
BRANCH   1  25
ATOM     25  C   UNL A   1      37.379  21.172  24.697  1.00  0.00     0.002 C 
BRANCH  25  26
ATOM     26  C   UNL A   1      38.371  20.059  25.039  1.00  0.00     0.021 C 
BRANCH  26  27
ATOM     27  C   UNL A   1      39.452  20.441  26.045  1.00  0.00     0.116 C 
BRANCH  27  28
ATOM     28  N   UNL A   1      40.455  19.401  26.204  1.00  0.00    -0.352 N 
ATOM     29  C   UNL A   1      41.811  19.523  26.382  1.00  0.00     0.251 C 
ATOM     30  H   UNL A   1      40.114  18.479  26.182  1.00  0.00     0.163 HD
ATOM     31  O   UNL A   1      42.527  18.526  26.336  1.00  0.00    -0.269 OA
BRANCH  29  32
ATOM     32  C   UNL A   1      42.411  20.858  26.604  1.00  0.00     0.039 A 
ATOM     33  C   UNL A   1      42.797  21.615  25.497  1.00  0.00     0.014 A 
ATOM     34  C   UNL A   1      42.595  21.358  27.897  1.00  0.00     0.014 A 
ATOM     35  C   UNL A   1      43.310  22.901  25.682  1.00  0.00     0.010 A 
ATOM     36  C   UNL A   1      43.040  22.665  28.076  1.00  0.00     0.010 A 
ATOM     37  C   UNL A   1      43.405  23.450  26.972  1.00  0.00    -0.014 A 
BRANCH  37  38
ATOM     38  C   UNL A   1      43.881  24.841  27.182  1.00  0.00     0.031 A 
ATOM     39  C   UNL A   1      45.328  25.191  26.960  1.00  0.00     0.074 A 
ATOM     40  C   UNL A   1      43.025  25.777  27.637  1.00  0.00     0.049 A 
ATOM     41  N   UNL A   1      45.939  26.332  27.150  1.00  0.00    -0.248 NA
ATOM     42  C   UNL A   1      46.207  24.110  26.484  1.00  0.00     0.031 C 
ATOM     43  C   UNL A   1      41.607  25.555  27.934  1.00  0.00     0.029 A 
ATOM     44  N   UNL A   1      43.223  27.102  27.938  1.00  0.00    -0.354 N 
ATOM     45  C   UNL A   1      47.272  26.105  26.829  1.00  0.00     0.074 A 
ATOM     46  C   UNL A   1      47.390  24.705  26.485  1.00  0.00     0.031 C 
ATOM     47  C   UNL A   1      41.062  26.706  28.358  1.00  0.00     0.029 A 
ATOM     48  C   UNL A   1      42.094  27.738  28.399  1.00  0.00     0.049 A 
ATOM     49  H   UNL A   1      44.091  27.554  27.833  1.00  0.00     0.167 HD
ATOM     50  C   UNL A   1      48.302  26.986  26.799  1.00  0.00     0.031 A 
ATOM     51  C   UNL A   1      41.910  29.005  28.818  1.00  0.00     0.031 A 
ATOM     52  C   UNL A   1      48.182  28.378  27.143  1.00  0.00     0.049 A 
ATOM     53  C   UNL A   1      43.067  29.965  28.787  1.00  0.00     0.074 A 
ATOM     54  C   UNL A   1      49.157  29.361  27.107  1.00  0.00     0.029 A 
ATOM     55  N   UNL A   1      47.018  28.988  27.587  1.00  0.00    -0.354 N 
ATOM     56  N   UNL A   1      44.309  29.745  28.424  1.00  0.00    -0.248 NA
ATOM     57  C   UNL A   1      42.796  31.346  29.209  1.00  0.00     0.031 C 
ATOM     58  C   UNL A   1      48.593  30.553  27.575  1.00  0.00     0.029 A 
ATOM     59  C   UNL A   1      47.252  30.327  27.847  1.00  0.00     0.049 A 
ATOM     60  H   UNL A   1      46.151  28.534  27.699  1.00  0.00     0.167 HD
ATOM     61  C   UNL A   1      44.962  30.966  28.552  1.00  0.00     0.074 A 
ATOM     62  C   UNL A   1      43.974  31.922  29.010  1.00  0.00     0.031 C 
ATOM     63  C   UNL A   1      46.262  31.266  28.309  1.00  0.00     0.031 A 
BRANCH  50  64
ATOM     64  C   UNL A   1      49.651  26.458  26.386  1.00  0.00    -0.014 A 
ATOM     65  C   UNL A   1      50.448  25.724  27.284  1.00  0.00     0.010 A 
ATOM     66  C   UNL A   1      50.123  26.680  25.080  1.00  0.00     0.010 A 
ATOM     67  C   UNL A   1      51.714  25.272  26.902  1.00  0.00     0.020 A 
ATOM     68  C   UNL A   1      51.376  26.202  24.684  1.00  0.00     0.020 A 
ATOM     69  C   UNL A   1      52.172  25.520  25.606  1.00  0.00     0.054 A 
BRANCH  69  70
ATOM     70  S   UNL A   1      53.820  24.922  25.137  1.00  0.00     0.124 S 
ATOM     71  O   UNL A   1      53.620  23.475  25.124  1.00  0.00    -0.237 OA
ATOM     72  O   UNL A   1      54.025  25.540  23.830  1.00  0.00    -0.237 OA
ATOM     73  O   UNL A   1      54.686  25.421  26.202  1.00  0.00    -0.744 OA
ENDBRANCH  69  70
ENDBRANCH  50  64
BRANCH  51  74
ATOM     74  C   UNL A   1      40.567  29.434  29.295  1.00  0.00    -0.014 A 
ATOM     75  C   UNL A   1      39.610  29.929  28.393  1.00  0.00     0.010 A 
ATOM     76  C   UNL A   1      40.228  29.316  30.656  1.00  0.00     0.010 A 
ATOM     77  C   UNL A   1      38.342  30.308  28.844  1.00  0.00     0.020 A 
ATOM     78  C   UNL A   1      38.953  29.669  31.105  1.00  0.00     0.020 A 
ATOM     79  C   UNL A   1      38.020  30.170  30.197  1.00  0.00     0.054 A 
BRANCH  79  80
ATOM     80  S   UNL A   1      36.346  30.602  30.748  1.00  0.00     0.124 S 
ATOM     81  O   UNL A   1      36.188  29.759  31.928  1.00  0.00    -0.237 OA
ATOM     82  O   UNL A   1      36.458  32.036  31.003  1.00  0.00    -0.237 OA
ATOM     83  O   UNL A   1      35.508  30.246  29.605  1.00  0.00    -0.744 OA
ENDBRANCH  79  80
ENDBRANCH  51  74
BRANCH  63  84
ATOM     84  C   UNL A   1      46.690  32.696  28.509  1.00  0.00    -0.014 A 
ATOM     85  C   UNL A   1      47.121  33.160  29.764  1.00  0.00     0.010 A 
ATOM     86  C   UNL A   1      46.713  33.573  27.409  1.00  0.00     0.010 A 
ATOM     87  C   UNL A   1      47.540  34.484  29.922  1.00  0.00     0.020 A 
ATOM     88  C   UNL A   1      47.157  34.890  27.556  1.00  0.00     0.020 A 
ATOM     89  C   UNL A   1      47.555  35.340  28.817  1.00  0.00     0.054 A 
BRANCH  89  90
ATOM     90  S   UNL A   1      48.145  37.041  29.038  1.00  0.00     0.124 S 
ATOM     91  O   UNL A   1      46.907  37.808  28.935  1.00  0.00    -0.237 OA
ATOM     92  O   UNL A   1      48.751  37.001  30.366  1.00  0.00    -0.237 OA
ATOM     93  O   UNL A   1      49.087  37.228  27.936  1.00  0.00    -0.744 OA
ENDBRANCH  89  90
ENDBRANCH  63  84
ENDBRANCH  37  38
ENDBRANCH  29  32
ENDBRANCH  27  28
ENDBRANCH  26  27
ENDBRANCH  25  26
ENDBRANCH   1  25
TORSDOF 20
ENDMDL
MODEL 3
REMARK VINA RESULT:     -10.3      2.629      9.181
REMARK SMILES O=C(NCCCCCCNC(=O)c1ccc(-c2c3nc(c(-c4ccc(S(=O)(=O)[O-])cc4)c4ccc([nH]4)c(-c4ccc(S(=O)(=O)[O-])cc4)c4nc(c(-c5ccc(S(=O)(=O)[O-])cc5)c5ccc2[nH]5)C=C4)C=C3)cc1)c1ccc(N/C=C\C(=O)c2ccco2)cc1
REMARK SMILES IDX 6 1 5 2 4 3 3 4 1 5 2 6 73 8 74 9 88 10 75 11 87 12 76 13
REMARK SMILES IDX 77 14 78 16 79 17 80 18 81 19 82 20 83 21 86 22 84 23 85 24
REMARK SMILES IDX 7 25 8 26 9 27 10 28 11 29 12 31 13 32 14 33 72 34 15 35
REMARK SMILES IDX 71 36 16 37 17 38 18 39 65 40 19 41 70 42 64 43 66 44 20 45
REMARK SMILES IDX 69 46 63 47 62 48 21 50 51 51 32 52 50 53 33 54 36 55 49 56
REMARK SMILES IDX 67 57 34 58 35 59 48 61 68 62 37 63 22 64 23 65 31 66 24 67
REMARK SMILES IDX 30 68 25 69 26 70 27 71 28 72 29 73 52 74 53 75 61 76 54 77
REMARK SMILES IDX 60 78 55 79 56 80 57 81 58 82 59 83 38 84 39 85 47 86 40 87
REMARK SMILES IDX 46 88 41 89 42 90 43 91 44 92 45 93
REMARK H PARENT 3 7 77 15 10 30 66 49 36 60
REMARK Flexibility Score: inf
ROOT
ATOM      1  C   UNL A   1      31.380  29.401  24.883  1.00  0.00     0.002 C 
ENDROOT
BRANCH   1   2
ATOM      2  C   UNL A   1      32.011  28.471  23.841  1.00  0.00     0.021 C 
BRANCH   2   3
ATOM      3  C   UNL A   1      31.071  28.014  22.728  1.00  0.00     0.116 C 
BRANCH   3   4
ATOM      4  N   UNL A   1      29.708  27.844  23.202  1.00  0.00    -0.352 N 
ATOM      5  O   UNL A   1      27.919  26.694  23.962  1.00  0.00    -0.269 OA
ATOM      6  C   UNL A   1      29.133  26.743  23.781  1.00  0.00     0.251 C 
ATOM      7  H   UNL A   1      29.119  28.624  23.093  1.00  0.00     0.163 HD
BRANCH   6   8
ATOM      8  C   UNL A   1      29.978  25.597  24.167  1.00  0.00     0.039 A 
ATOM      9  C   UNL A   1      30.513  24.736  23.204  1.00  0.00     0.016 A 
ATOM     10  C   UNL A   1      30.248  25.395  25.518  1.00  0.00     0.016 A 
ATOM     11  C   UNL A   1      31.274  23.633  23.602  1.00  0.00     0.027 A 
ATOM     12  C   UNL A   1      31.027  24.305  25.903  1.00  0.00     0.027 A 
ATOM     13  C   UNL A   1      31.553  23.410  24.953  1.00  0.00     0.038 A 
BRANCH  13  14
ATOM     14  N   UNL A   1      32.258  22.293  25.428  1.00  0.00    -0.362 N 
ATOM     15  H   UNL A   1      32.293  21.526  24.812  1.00  0.00     0.166 HD
BRANCH  14  16
ATOM     16  C   UNL A   1      32.905  22.113  26.622  1.00  0.00     0.087 C 
ATOM     17  C   UNL A   1      34.168  21.726  26.856  1.00  0.00     0.074 C 
BRANCH  17  18
ATOM     18  C   UNL A   1      35.223  21.406  25.848  1.00  0.00     0.222 C 
ATOM     19  O   UNL A   1      34.968  20.523  25.028  1.00  0.00    -0.286 OA
BRANCH  18  20
ATOM     20  C   UNL A   1      36.478  22.131  25.872  1.00  0.00     0.173 A 
ATOM     21  C   UNL A   1      37.799  21.730  25.759  1.00  0.00     0.054 A 
ATOM     22  O   UNL A   1      36.439  23.482  26.101  1.00  0.00    -0.461 OA
ATOM     23  C   UNL A   1      38.597  22.879  25.978  1.00  0.00     0.043 A 
ATOM     24  C   UNL A   1      37.722  23.918  26.176  1.00  0.00     0.196 A 
ENDBRANCH  18  20
ENDBRANCH  17  18
ENDBRANCH  14  16
ENDBRANCH  13  14
ENDBRANCH   6   8
ENDBRANCH   3   4
ENDBRANCH   2   3
ENDBRANCH   1   2
BRANCH   1  25
ATOM     25  C   UNL A   1      31.435  28.901  26.328  1.00  0.00     0.002 C 
BRANCH  25  26
ATOM     26  C   UNL A   1      32.518  27.862  26.624  1.00  0.00     0.021 C 
BRANCH  26  27
ATOM     27  C   UNL A   1      33.806  28.420  27.221  1.00  0.00     0.116 C 
BRANCH  27  28
ATOM     28  N   UNL A   1      33.684  29.818  27.597  1.00  0.00    -0.352 N 
ATOM     29  C   UNL A   1      34.592  30.629  28.232  1.00  0.00     0.251 C 
ATOM     30  H   UNL A   1      32.828  30.245  27.364  1.00  0.00     0.163 HD
ATOM     31  O   UNL A   1      34.252  31.746  28.616  1.00  0.00    -0.269 OA
BRANCH  29  32
ATOM     32  C   UNL A   1      35.969  30.148  28.475  1.00  0.00     0.039 A 
ATOM     33  C   UNL A   1      36.884  30.160  27.420  1.00  0.00     0.014 A 
ATOM     34  C   UNL A   1      36.358  29.683  29.736  1.00  0.00     0.014 A 
ATOM     35  C   UNL A   1      38.204  29.765  27.643  1.00  0.00     0.010 A 
ATOM     36  C   UNL A   1      37.690  29.357  29.973  1.00  0.00     0.010 A 
ATOM     37  C   UNL A   1      38.627  29.391  28.929  1.00  0.00    -0.014 A 
BRANCH  37  38
ATOM     38  C   UNL A   1      40.045  29.037  29.201  1.00  0.00     0.031 A 
ATOM     39  C   UNL A   1      40.986  30.061  29.773  1.00  0.00     0.074 A 
ATOM     40  C   UNL A   1      40.501  27.812  28.871  1.00  0.00     0.049 A 
ATOM     41  N   UNL A   1      42.267  29.957  30.020  1.00  0.00    -0.248 NA
ATOM     42  C   UNL A   1      40.420  31.383  30.088  1.00  0.00     0.031 C 
ATOM     43  C   UNL A   1      39.699  26.744  28.269  1.00  0.00     0.029 A 
ATOM     44  N   UNL A   1      41.753  27.262  28.988  1.00  0.00    -0.354 N 
ATOM     45  C   UNL A   1      42.661  31.197  30.507  1.00  0.00     0.074 A 
ATOM     46  C   UNL A   1      41.496  32.054  30.467  1.00  0.00     0.031 C 
ATOM     47  C   UNL A   1      40.475  25.664  28.084  1.00  0.00     0.029 A 
ATOM     48  C   UNL A   1      41.834  25.972  28.520  1.00  0.00     0.049 A 
ATOM     49  H   UNL A   1      42.520  27.746  29.371  1.00  0.00     0.167 HD
ATOM     50  C   UNL A   1      43.876  31.585  30.966  1.00  0.00     0.031 A 
ATOM     51  C   UNL A   1      42.885  25.132  28.438  1.00  0.00     0.031 A 
ATOM     52  C   UNL A   1      45.034  30.730  31.002  1.00  0.00     0.049 A 
ATOM     53  C   UNL A   1      44.226  25.583  28.945  1.00  0.00     0.074 A 
ATOM     54  C   UNL A   1      46.299  31.016  31.486  1.00  0.00     0.029 A 
ATOM     55  N   UNL A   1      45.070  29.424  30.537  1.00  0.00    -0.354 N 
ATOM     56  N   UNL A   1      44.566  26.743  29.455  1.00  0.00    -0.248 NA
ATOM     57  C   UNL A   1      45.324  24.609  28.877  1.00  0.00     0.031 C 
ATOM     58  C   UNL A   1      47.113  29.899  31.268  1.00  0.00     0.029 A 
ATOM     59  C   UNL A   1      46.339  28.897  30.703  1.00  0.00     0.049 A 
ATOM     60  H   UNL A   1      44.305  28.943  30.146  1.00  0.00     0.167 HD
ATOM     61  C   UNL A   1      45.910  26.630  29.791  1.00  0.00     0.074 A 
ATOM     62  C   UNL A   1      46.317  25.284  29.439  1.00  0.00     0.031 C 
ATOM     63  C   UNL A   1      46.732  27.558  30.342  1.00  0.00     0.031 A 
BRANCH  50  64
ATOM     64  C   UNL A   1      44.008  33.002  31.460  1.00  0.00    -0.014 A 
ATOM     65  C   UNL A   1      43.815  33.318  32.817  1.00  0.00     0.010 A 
ATOM     66  C   UNL A   1      44.346  34.031  30.562  1.00  0.00     0.010 A 
ATOM     67  C   UNL A   1      43.902  34.641  33.258  1.00  0.00     0.020 A 
ATOM     68  C   UNL A   1      44.464  35.352  31.004  1.00  0.00     0.020 A 
ATOM     69  C   UNL A   1      44.219  35.650  32.346  1.00  0.00     0.054 A 
BRANCH  69  70
ATOM     70  S   UNL A   1      44.324  37.360  32.944  1.00  0.00     0.124 S 
ATOM     71  O   UNL A   1      43.086  37.485  33.711  1.00  0.00    -0.237 OA
ATOM     72  O   UNL A   1      45.553  37.348  33.734  1.00  0.00    -0.237 OA
ATOM     73  O   UNL A   1      44.381  38.153  31.719  1.00  0.00    -0.744 OA
ENDBRANCH  69  70
ENDBRANCH  50  64
BRANCH  51  74
ATOM     74  C   UNL A   1      42.697  23.774  27.858  1.00  0.00    -0.014 A 
ATOM     75  C   UNL A   1      42.459  22.666  28.690  1.00  0.00     0.010 A 
ATOM     76  C   UNL A   1      42.725  23.590  26.464  1.00  0.00     0.010 A 
ATOM     77  C   UNL A   1      42.260  21.397  28.137  1.00  0.00     0.020 A 
ATOM     78  C   UNL A   1      42.500  22.328  25.908  1.00  0.00     0.020 A 
ATOM     79  C   UNL A   1      42.277  21.237  26.749  1.00  0.00     0.054 A 
BRANCH  79  80
ATOM     80  S   UNL A   1      41.947  19.595  26.051  1.00  0.00     0.124 S 
ATOM     81  O   UNL A   1      42.840  19.570  24.898  1.00  0.00    -0.237 OA
ATOM     82  O   UNL A   1      42.308  18.706  27.153  1.00  0.00    -0.237 OA
ATOM     83  O   UNL A   1      40.520  19.637  25.740  1.00  0.00    -0.744 OA
ENDBRANCH  79  80
ENDBRANCH  51  74
BRANCH  63  84
ATOM     84  C   UNL A   1      48.152  27.143  30.625  1.00  0.00    -0.014 A 
ATOM     85  C   UNL A   1      49.185  27.406  29.709  1.00  0.00     0.010 A 
ATOM     86  C   UNL A   1      48.464  26.530  31.852  1.00  0.00     0.010 A 
ATOM     87  C   UNL A   1      50.501  27.037  30.003  1.00  0.00     0.020 A 
ATOM     88  C   UNL A   1      49.781  26.184  32.162  1.00  0.00     0.020 A 
ATOM     89  C   UNL A   1      50.790  26.428  31.228  1.00  0.00     0.054 A 
BRANCH  89  90
ATOM     90  S   UNL A   1      52.511  25.998  31.606  1.00  0.00     0.124 S 
ATOM     91  O   UNL A   1      53.143  26.093  30.293  1.00  0.00    -0.237 OA
ATOM     92  O   UNL A   1      52.897  27.031  32.564  1.00  0.00    -0.237 OA
ATOM     93  O   UNL A   1      52.419  24.648  32.157  1.00  0.00    -0.744 OA
ENDBRANCH  89  90
ENDBRANCH  63  84
ENDBRANCH  37  38
ENDBRANCH  29  32
ENDBRANCH  27  28
ENDBRANCH  26  27
ENDBRANCH  25  26
ENDBRANCH   1  25
TORSDOF 20
ENDMDL
