MODEL 1
REMARK VINA RESULT:     -12.3      0.000      0.000
REMARK SMILES O=C(NCCCCCCNC(=O)[C@@H]1CCCN1S(=O)(=O)c1ccc2c3c(cccc13)C(=O)N2)c1ccc(-c2c3nc(c(-c4ccc(S(=O)(=O)[O-])cc4)c4ccc([nH]4)c(-c4ccc(S(=O)(=O)[O-])cc4)c4nc(c(-c5ccc(S(=O)(=O)[O-])cc5)c5ccc2[nH]5)C=C4)C=C3)cc1
REMARK SMILES IDX 6 1 5 2 4 3 3 4 1 5 2 6 34 8 35 9 93 10 36 11 92 12 37 13
REMARK SMILES IDX 38 14 39 15 86 16 40 17 91 18 85 19 87 20 41 21 90 22 84 23
REMARK SMILES IDX 83 24 42 26 72 27 53 28 71 29 54 30 57 31 70 32 88 33 55 34
REMARK SMILES IDX 56 35 69 37 89 38 58 39 43 40 44 41 52 42 45 43 51 44 46 45
REMARK SMILES IDX 47 46 48 47 49 48 50 49 73 50 74 51 82 52 75 53 81 54 76 55
REMARK SMILES IDX 77 56 78 57 79 58 80 59 59 60 60 61 68 62 61 63 67 64 62 65
REMARK SMILES IDX 63 66 64 67 65 68 66 69 7 70 8 71 9 72 10 73 11 74 12 76
REMARK SMILES IDX 13 77 14 78 17 79 15 80 16 81 18 82 19 83 20 84 21 85 22 86
REMARK SMILES IDX 30 87 23 88 25 89 29 90 24 91 26 92 28 93 33 94 27 95 31 96
REMARK SMILES IDX 32 98
REMARK H PARENT 3 7 87 25 57 36 10 75 33 97
REMARK Flexibility Score: inf
ROOT
ATOM      1  C   UNL A   1      33.504  29.238  27.205  1.00  0.00     0.002 C 
ENDROOT
BRANCH   1   2
ATOM      2  C   UNL A   1      33.969  30.674  27.498  1.00  0.00     0.021 C 
BRANCH   2   3
ATOM      3  C   UNL A   1      35.392  30.804  28.042  1.00  0.00     0.116 C 
BRANCH   3   4
ATOM      4  N   UNL A   1      35.392  31.092  29.467  1.00  0.00    -0.352 N 
ATOM      5  O   UNL A   1      36.067  30.777  31.605  1.00  0.00    -0.269 OA
ATOM      6  C   UNL A   1      36.325  30.725  30.407  1.00  0.00     0.251 C 
ATOM      7  H   UNL A   1      34.629  31.617  29.801  1.00  0.00     0.163 HD
BRANCH   6   8
ATOM      8  C   UNL A   1      37.653  30.270  29.956  1.00  0.00     0.039 A 
ATOM      9  C   UNL A   1      38.624  29.928  30.902  1.00  0.00     0.014 A 
ATOM     10  C   UNL A   1      37.924  30.171  28.589  1.00  0.00     0.014 A 
ATOM     11  C   UNL A   1      39.899  29.563  30.478  1.00  0.00     0.010 A 
ATOM     12  C   UNL A   1      39.196  29.773  28.167  1.00  0.00     0.010 A 
ATOM     13  C   UNL A   1      40.200  29.491  29.107  1.00  0.00    -0.014 A 
BRANCH  13  14
ATOM     14  C   UNL A   1      41.574  29.121  28.679  1.00  0.00     0.031 A 
ATOM     15  C   UNL A   1      42.676  30.145  28.685  1.00  0.00     0.074 A 
ATOM     16  C   UNL A   1      41.836  27.848  28.323  1.00  0.00     0.049 A 
ATOM     17  N   UNL A   1      43.944  29.982  28.409  1.00  0.00    -0.248 NA
ATOM     18  C   UNL A   1      42.315  31.526  29.047  1.00  0.00     0.031 C 
ATOM     19  C   UNL A   1      40.846  26.770  28.269  1.00  0.00     0.029 A 
ATOM     20  N   UNL A   1      43.010  27.242  27.949  1.00  0.00    -0.354 N 
ATOM     21  C   UNL A   1      44.530  31.232  28.562  1.00  0.00     0.074 A 
ATOM     22  C   UNL A   1      43.479  32.153  28.927  1.00  0.00     0.031 C 
ATOM     23  C   UNL A   1      41.459  25.631  27.904  1.00  0.00     0.029 A 
ATOM     24  C   UNL A   1      42.874  25.903  27.666  1.00  0.00     0.049 A 
ATOM     25  H   UNL A   1      43.868  27.721  27.889  1.00  0.00     0.167 HD
ATOM     26  C   UNL A   1      45.832  31.575  28.423  1.00  0.00     0.031 A 
ATOM     27  C   UNL A   1      43.780  24.995  27.252  1.00  0.00     0.031 A 
ATOM     28  C   UNL A   1      46.879  30.653  28.072  1.00  0.00     0.049 A 
ATOM     29  C   UNL A   1      45.214  25.411  27.071  1.00  0.00     0.074 A 
ATOM     30  C   UNL A   1      48.236  30.906  27.964  1.00  0.00     0.029 A 
ATOM     31  N   UNL A   1      46.692  29.316  27.764  1.00  0.00    -0.354 N 
ATOM     32  N   UNL A   1      45.758  26.584  27.290  1.00  0.00    -0.248 NA
ATOM     33  C   UNL A   1      46.157  24.389  26.594  1.00  0.00     0.031 C 
ATOM     34  C   UNL A   1      48.863  29.736  27.532  1.00  0.00     0.029 A 
ATOM     35  C   UNL A   1      47.904  28.741  27.428  1.00  0.00     0.049 A 
ATOM     36  H   UNL A   1      45.828  28.846  27.783  1.00  0.00     0.167 HD
ATOM     37  C   UNL A   1      47.106  26.439  26.983  1.00  0.00     0.074 A 
ATOM     38  C   UNL A   1      47.302  25.062  26.579  1.00  0.00     0.031 C 
ATOM     39  C   UNL A   1      48.089  27.369  27.029  1.00  0.00     0.031 A 
BRANCH  26  40
ATOM     40  C   UNL A   1      46.230  33.006  28.651  1.00  0.00    -0.014 A 
ATOM     41  C   UNL A   1      46.214  33.931  27.594  1.00  0.00     0.010 A 
ATOM     42  C   UNL A   1      46.468  33.459  29.962  1.00  0.00     0.010 A 
ATOM     43  C   UNL A   1      46.421  35.290  27.845  1.00  0.00     0.020 A 
ATOM     44  C   UNL A   1      46.658  34.820  30.219  1.00  0.00     0.020 A 
ATOM     45  C   UNL A   1      46.627  35.728  29.159  1.00  0.00     0.054 A 
BRANCH  45  46
ATOM     46  S   UNL A   1      46.821  37.506  29.456  1.00  0.00     0.124 S 
ATOM     47  O   UNL A   1      47.864  37.535  30.480  1.00  0.00    -0.237 OA
ATOM     48  O   UNL A   1      47.221  38.001  28.141  1.00  0.00    -0.237 OA
ATOM     49  O   UNL A   1      45.500  37.932  29.909  1.00  0.00    -0.744 OA
ENDBRANCH  45  46
ENDBRANCH  26  40
BRANCH  27  50
ATOM     50  C   UNL A   1      43.339  23.604  26.957  1.00  0.00    -0.014 A 
ATOM     51  C   UNL A   1      43.051  23.198  25.643  1.00  0.00     0.010 A 
ATOM     52  C   UNL A   1      43.240  22.666  28.002  1.00  0.00     0.010 A 
ATOM     53  C   UNL A   1      42.671  21.878  25.380  1.00  0.00     0.020 A 
ATOM     54  C   UNL A   1      42.885  21.340  27.739  1.00  0.00     0.020 A 
ATOM     55  C   UNL A   1      42.599  20.955  26.430  1.00  0.00     0.054 A 
BRANCH  55  56
ATOM     56  S   UNL A   1      42.141  19.240  26.052  1.00  0.00     0.124 S 
ATOM     57  O   UNL A   1      42.998  18.937  24.910  1.00  0.00    -0.237 OA
ATOM     58  O   UNL A   1      42.475  18.552  27.295  1.00  0.00    -0.237 OA
ATOM     59  O   UNL A   1      40.713  19.323  25.754  1.00  0.00    -0.744 OA
ENDBRANCH  55  56
ENDBRANCH  27  50
BRANCH  39  60
ATOM     60  C   UNL A   1      49.482  26.961  26.637  1.00  0.00    -0.014 A 
ATOM     61  C   UNL A   1      50.350  26.388  27.582  1.00  0.00     0.010 A 
ATOM     62  C   UNL A   1      49.864  26.999  25.284  1.00  0.00     0.010 A 
ATOM     63  C   UNL A   1      51.573  25.847  27.177  1.00  0.00     0.020 A 
ATOM     64  C   UNL A   1      51.076  26.441  24.872  1.00  0.00     0.020 A 
ATOM     65  C   UNL A   1      51.920  25.861  25.822  1.00  0.00     0.054 A 
BRANCH  65  66
ATOM     66  S   UNL A   1      53.474  25.072  25.319  1.00  0.00     0.124 S 
ATOM     67  O   UNL A   1      53.689  25.633  23.987  1.00  0.00    -0.237 OA
ATOM     68  O   UNL A   1      54.403  25.526  26.349  1.00  0.00    -0.237 OA
ATOM     69  O   UNL A   1      53.165  23.644  25.346  1.00  0.00    -0.744 OA
ENDBRANCH  65  66
ENDBRANCH  39  60
ENDBRANCH  13  14
ENDBRANCH   6   8
ENDBRANCH   3   4
ENDBRANCH   2   3
ENDBRANCH   1   2
BRANCH   1  70
ATOM     70  C   UNL A   1      32.275  29.104  26.308  1.00  0.00     0.002 C 
BRANCH  70  71
ATOM     71  C   UNL A   1      31.479  27.815  26.510  1.00  0.00     0.021 C 
BRANCH  71  72
ATOM     72  C   UNL A   1      32.261  26.509  26.542  1.00  0.00     0.116 C 
BRANCH  72  73
ATOM     73  N   UNL A   1      31.429  25.379  26.896  1.00  0.00    -0.355 N 
ATOM     74  C   UNL A   1      31.593  24.046  26.734  1.00  0.00     0.238 C 
ATOM     75  H   UNL A   1      30.585  25.626  27.339  1.00  0.00     0.163 HD
ATOM     76  O   UNL A   1      30.711  23.336  27.242  1.00  0.00    -0.273 OA
BRANCH  74  77
ATOM     77  C   UNL A   1      32.761  23.382  26.039  1.00  0.00     0.162 C 
ATOM     78  C   UNL A   1      34.091  23.692  26.739  1.00  0.00     0.032 C 
ATOM     79  N   UNL A   1      33.068  23.246  24.594  1.00  0.00    -0.185 NA
ATOM     80  C   UNL A   1      35.125  23.063  25.830  1.00  0.00     0.019 C 
ATOM     81  C   UNL A   1      34.564  23.325  24.446  1.00  0.00     0.103 C 
BRANCH  79  82
ATOM     82  S   UNL A   1      32.291  23.858  23.228  1.00  0.00     0.244 S 
ATOM     83  O   UNL A   1      33.096  23.413  22.108  1.00  0.00    -0.207 OA
ATOM     84  O   UNL A   1      30.913  23.421  23.331  1.00  0.00    -0.207 OA
BRANCH  82  85
ATOM     85  C   UNL A   1      32.225  25.632  23.157  1.00  0.00     0.090 A 
ATOM     86  C   UNL A   1      33.353  26.398  22.801  1.00  0.00     0.024 A 
ATOM     87  C   UNL A   1      30.942  26.255  23.316  1.00  0.00     0.005 A 
ATOM     88  C   UNL A   1      33.236  27.747  22.404  1.00  0.00     0.028 A 
ATOM     89  C   UNL A   1      30.898  27.569  22.951  1.00  0.00     0.019 A 
ATOM     90  C   UNL A   1      29.690  25.741  23.753  1.00  0.00     0.010 A 
ATOM     91  C   UNL A   1      31.967  28.289  22.470  1.00  0.00     0.050 A 
ATOM     92  C   UNL A   1      29.775  28.383  22.922  1.00  0.00     0.050 A 
ATOM     93  C   UNL A   1      28.532  26.549  23.787  1.00  0.00     0.002 A 
ATOM     94  N   UNL A   1      31.495  29.540  22.121  1.00  0.00    -0.321 N 
ATOM     95  C   UNL A   1      28.550  27.888  23.362  1.00  0.00     0.014 A 
ATOM     96  C   UNL A   1      30.124  29.681  22.380  1.00  0.00     0.256 C 
ATOM     97  H   UNL A   1      32.058  30.251  21.735  1.00  0.00     0.170 HD
ATOM     98  O   UNL A   1      29.476  30.688  22.148  1.00  0.00    -0.269 OA
ENDBRANCH  82  85
ENDBRANCH  79  82
ENDBRANCH  74  77
ENDBRANCH  72  73
ENDBRANCH  71  72
ENDBRANCH  70  71
ENDBRANCH   1  70
TORSDOF 18
ENDMDL
MODEL 2
REMARK VINA RESULT:     -12.2      6.089     11.564
REMARK SMILES O=C(NCCCCCCNC(=O)[C@@H]1CCCN1S(=O)(=O)c1ccc2c3c(cccc13)C(=O)N2)c1ccc(-c2c3nc(c(-c4ccc(S(=O)(=O)[O-])cc4)c4ccc([nH]4)c(-c4ccc(S(=O)(=O)[O-])cc4)c4nc(c(-c5ccc(S(=O)(=O)[O-])cc5)c5ccc2[nH]5)C=C4)C=C3)cc1
REMARK SMILES IDX 6 1 5 2 4 3 3 4 1 5 2 6 34 8 35 9 93 10 36 11 92 12 37 13
REMARK SMILES IDX 38 14 39 15 86 16 40 17 91 18 85 19 87 20 41 21 90 22 84 23
REMARK SMILES IDX 83 24 42 26 72 27 53 28 71 29 54 30 57 31 70 32 88 33 55 34
REMARK SMILES IDX 56 35 69 37 89 38 58 39 43 40 44 41 52 42 45 43 51 44 46 45
REMARK SMILES IDX 47 46 48 47 49 48 50 49 73 50 74 51 82 52 75 53 81 54 76 55
REMARK SMILES IDX 77 56 78 57 79 58 80 59 59 60 60 61 68 62 61 63 67 64 62 65
REMARK SMILES IDX 63 66 64 67 65 68 66 69 7 70 8 71 9 72 10 73 11 74 12 76
REMARK SMILES IDX 13 77 14 78 17 79 15 80 16 81 18 82 19 83 20 84 21 85 22 86
REMARK SMILES IDX 30 87 23 88 25 89 29 90 24 91 26 92 28 93 33 94 27 95 31 96
REMARK SMILES IDX 32 98
REMARK H PARENT 3 7 87 25 57 36 10 75 33 97
REMARK Flexibility Score: inf
ROOT
ATOM      1  C   UNL A   1      37.067  23.445  25.290  1.00  0.00     0.002 C 
ENDROOT
BRANCH   1   2
ATOM      2  C   UNL A   1      38.199  22.830  26.131  1.00  0.00     0.021 C 
BRANCH   2   3
ATOM      3  C   UNL A   1      39.086  23.833  26.870  1.00  0.00     0.116 C 
BRANCH   3   4
ATOM      4  N   UNL A   1      40.263  24.177  26.089  1.00  0.00    -0.352 N 
ATOM      5  O   UNL A   1      41.761  25.621  25.199  1.00  0.00    -0.269 OA
ATOM      6  C   UNL A   1      40.976  25.352  26.100  1.00  0.00     0.251 C 
ATOM      7  H   UNL A   1      40.592  23.481  25.476  1.00  0.00     0.163 HD
BRANCH   6   8
ATOM      8  C   UNL A   1      40.788  26.289  27.223  1.00  0.00     0.039 A 
ATOM      9  C   UNL A   1      41.528  27.476  27.263  1.00  0.00     0.014 A 
ATOM     10  C   UNL A   1      39.865  25.993  28.228  1.00  0.00     0.014 A 
ATOM     11  C   UNL A   1      41.402  28.329  28.356  1.00  0.00     0.010 A 
ATOM     12  C   UNL A   1      39.717  26.868  29.308  1.00  0.00     0.010 A 
ATOM     13  C   UNL A   1      40.503  28.029  29.393  1.00  0.00    -0.014 A 
BRANCH  13  14
ATOM     14  C   UNL A   1      40.400  28.944  30.559  1.00  0.00     0.031 A 
ATOM     15  C   UNL A   1      41.322  28.782  31.737  1.00  0.00     0.074 A 
ATOM     16  C   UNL A   1      39.501  29.947  30.537  1.00  0.00     0.049 A 
ATOM     17  N   UNL A   1      41.420  29.528  32.807  1.00  0.00    -0.248 NA
ATOM     18  C   UNL A   1      42.255  27.642  31.715  1.00  0.00     0.031 C 
ATOM     19  C   UNL A   1      38.548  30.198  29.455  1.00  0.00     0.029 A 
ATOM     20  N   UNL A   1      39.247  30.947  31.444  1.00  0.00    -0.354 N 
ATOM     21  C   UNL A   1      42.418  28.952  33.583  1.00  0.00     0.074 A 
ATOM     22  C   UNL A   1      42.879  27.778  32.879  1.00  0.00     0.031 C 
ATOM     23  C   UNL A   1      37.826  31.292  29.751  1.00  0.00     0.029 A 
ATOM     24  C   UNL A   1      38.241  31.801  31.055  1.00  0.00     0.049 A 
ATOM     25  H   UNL A   1      39.738  31.043  32.292  1.00  0.00     0.167 HD
ATOM     26  C   UNL A   1      42.912  29.375  34.769  1.00  0.00     0.031 A 
ATOM     27  C   UNL A   1      37.703  32.868  31.679  1.00  0.00     0.031 A 
ATOM     28  C   UNL A   1      42.460  30.552  35.461  1.00  0.00     0.049 A 
ATOM     29  C   UNL A   1      38.249  33.296  33.014  1.00  0.00     0.074 A 
ATOM     30  C   UNL A   1      42.946  31.085  36.644  1.00  0.00     0.029 A 
ATOM     31  N   UNL A   1      41.421  31.368  35.048  1.00  0.00    -0.354 N 
ATOM     32  N   UNL A   1      39.241  32.776  33.696  1.00  0.00    -0.248 NA
ATOM     33  C   UNL A   1      37.610  34.450  33.663  1.00  0.00     0.031 C 
ATOM     34  C   UNL A   1      42.161  32.189  36.977  1.00  0.00     0.029 A 
ATOM     35  C   UNL A   1      41.224  32.378  35.973  1.00  0.00     0.049 A 
ATOM     36  H   UNL A   1      40.901  31.249  34.222  1.00  0.00     0.167 HD
ATOM     37  C   UNL A   1      39.349  33.544  34.850  1.00  0.00     0.074 A 
ATOM     38  C   UNL A   1      38.335  34.573  34.770  1.00  0.00     0.031 C 
ATOM     39  C   UNL A   1      40.213  33.399  35.883  1.00  0.00     0.031 A 
BRANCH  26  40
ATOM     40  C   UNL A   1      44.010  28.580  35.419  1.00  0.00    -0.014 A 
ATOM     41  C   UNL A   1      45.358  28.871  35.157  1.00  0.00     0.010 A 
ATOM     42  C   UNL A   1      43.688  27.640  36.416  1.00  0.00     0.010 A 
ATOM     43  C   UNL A   1      46.369  28.243  35.888  1.00  0.00     0.020 A 
ATOM     44  C   UNL A   1      44.696  27.022  37.162  1.00  0.00     0.020 A 
ATOM     45  C   UNL A   1      46.031  27.333  36.897  1.00  0.00     0.054 A 
BRANCH  45  46
ATOM     46  S   UNL A   1      47.366  26.591  37.874  1.00  0.00     0.124 S 
ATOM     47  O   UNL A   1      48.304  26.163  36.837  1.00  0.00    -0.237 OA
ATOM     48  O   UNL A   1      47.812  27.712  38.697  1.00  0.00    -0.237 OA
ATOM     49  O   UNL A   1      46.710  25.506  38.597  1.00  0.00    -0.744 OA
ENDBRANCH  45  46
ENDBRANCH  26  40
BRANCH  27  50
ATOM     50  C   UNL A   1      36.564  33.587  31.047  1.00  0.00    -0.014 A 
ATOM     51  C   UNL A   1      36.593  33.936  29.686  1.00  0.00     0.010 A 
ATOM     52  C   UNL A   1      35.421  33.894  31.809  1.00  0.00     0.010 A 
ATOM     53  C   UNL A   1      35.499  34.582  29.100  1.00  0.00     0.020 A 
ATOM     54  C   UNL A   1      34.317  34.516  31.221  1.00  0.00     0.020 A 
ATOM     55  C   UNL A   1      34.364  34.859  29.870  1.00  0.00     0.054 A 
BRANCH  55  56
ATOM     56  S   UNL A   1      32.946  35.661  29.072  1.00  0.00     0.124 S 
ATOM     57  O   UNL A   1      33.576  36.773  28.368  1.00  0.00    -0.237 OA
ATOM     58  O   UNL A   1      32.422  34.592  28.227  1.00  0.00    -0.237 OA
ATOM     59  O   UNL A   1      32.089  36.041  30.194  1.00  0.00    -0.744 OA
ENDBRANCH  55  56
ENDBRANCH  27  50
BRANCH  39  60
ATOM     60  C   UNL A   1      40.124  34.366  37.032  1.00  0.00    -0.014 A 
ATOM     61  C   UNL A   1      40.827  35.582  36.998  1.00  0.00     0.010 A 
ATOM     62  C   UNL A   1      39.206  34.128  38.072  1.00  0.00     0.010 A 
ATOM     63  C   UNL A   1      40.603  36.552  37.978  1.00  0.00     0.020 A 
ATOM     64  C   UNL A   1      38.964  35.104  39.041  1.00  0.00     0.020 A 
ATOM     65  C   UNL A   1      39.659  36.313  38.983  1.00  0.00     0.054 A 
BRANCH  65  66
ATOM     66  S   UNL A   1      39.329  37.628  40.188  1.00  0.00     0.124 S 
ATOM     67  O   UNL A   1      38.234  38.360  39.557  1.00  0.00    -0.237 OA
ATOM     68  O   UNL A   1      38.972  36.873  41.386  1.00  0.00    -0.237 OA
ATOM     69  O   UNL A   1      40.594  38.355  40.267  1.00  0.00    -0.744 OA
ENDBRANCH  65  66
ENDBRANCH  39  60
ENDBRANCH  13  14
ENDBRANCH   6   8
ENDBRANCH   3   4
ENDBRANCH   2   3
ENDBRANCH   1   2
BRANCH   1  70
ATOM     70  C   UNL A   1      36.610  22.626  24.084  1.00  0.00     0.002 C 
BRANCH  70  71
ATOM     71  C   UNL A   1      35.516  23.286  23.246  1.00  0.00     0.021 C 
BRANCH  71  72
ATOM     72  C   UNL A   1      34.748  24.437  23.882  1.00  0.00     0.116 C 
BRANCH  72  73
ATOM     73  N   UNL A   1      33.974  25.184  22.914  1.00  0.00    -0.355 N 
ATOM     74  C   UNL A   1      33.145  26.245  23.040  1.00  0.00     0.238 C 
ATOM     75  H   UNL A   1      34.070  24.859  21.990  1.00  0.00     0.163 HD
ATOM     76  O   UNL A   1      32.704  26.704  21.974  1.00  0.00    -0.273 OA
BRANCH  74  77
ATOM     77  C   UNL A   1      32.766  26.916  24.341  1.00  0.00     0.162 C 
ATOM     78  C   UNL A   1      33.991  27.154  25.236  1.00  0.00     0.032 C 
ATOM     79  N   UNL A   1      31.622  26.669  25.252  1.00  0.00    -0.185 NA
ATOM     80  C   UNL A   1      33.393  27.696  26.517  1.00  0.00     0.019 C 
ATOM     81  C   UNL A   1      32.111  26.899  26.656  1.00  0.00     0.103 C 
BRANCH  79  82
ATOM     82  S   UNL A   1      30.403  25.505  25.217  1.00  0.00     0.244 S 
ATOM     83  O   UNL A   1      29.933  25.413  26.586  1.00  0.00    -0.207 OA
ATOM     84  O   UNL A   1      29.486  25.927  24.179  1.00  0.00    -0.207 OA
BRANCH  82  85
ATOM     85  C   UNL A   1      30.952  23.884  24.740  1.00  0.00     0.090 A 
ATOM     86  C   UNL A   1      30.699  23.370  23.452  1.00  0.00     0.024 A 
ATOM     87  C   UNL A   1      31.804  23.177  25.653  1.00  0.00     0.005 A 
ATOM     88  C   UNL A   1      31.410  22.260  22.946  1.00  0.00     0.028 A 
ATOM     89  C   UNL A   1      32.437  22.093  25.117  1.00  0.00     0.019 A 
ATOM     90  C   UNL A   1      32.140  23.421  27.013  1.00  0.00     0.010 A 
ATOM     91  C   UNL A   1      32.299  21.664  23.817  1.00  0.00     0.050 A 
ATOM     92  C   UNL A   1      33.374  21.287  25.747  1.00  0.00     0.050 A 
ATOM     93  C   UNL A   1      33.053  22.596  27.706  1.00  0.00     0.002 A 
ATOM     94  N   UNL A   1      33.174  20.608  23.640  1.00  0.00    -0.321 N 
ATOM     95  C   UNL A   1      33.697  21.515  27.082  1.00  0.00     0.014 A 
ATOM     96  C   UNL A   1      33.885  20.305  24.811  1.00  0.00     0.256 C 
ATOM     97  H   UNL A   1      33.284  20.124  22.789  1.00  0.00     0.170 HD
ATOM     98  O   UNL A   1      34.721  19.423  24.903  1.00  0.00    -0.269 OA
ENDBRANCH  82  85
ENDBRANCH  79  82
ENDBRANCH  74  77
ENDBRANCH  72  73
ENDBRANCH  71  72
ENDBRANCH  70  71
ENDBRANCH   1  70
TORSDOF 18
ENDMDL
MODEL 3
REMARK VINA RESULT:     -12.2      5.688      7.688
REMARK SMILES O=C(NCCCCCCNC(=O)[C@@H]1CCCN1S(=O)(=O)c1ccc2c3c(cccc13)C(=O)N2)c1ccc(-c2c3nc(c(-c4ccc(S(=O)(=O)[O-])cc4)c4ccc([nH]4)c(-c4ccc(S(=O)(=O)[O-])cc4)c4nc(c(-c5ccc(S(=O)(=O)[O-])cc5)c5ccc2[nH]5)C=C4)C=C3)cc1
REMARK SMILES IDX 6 1 5 2 4 3 3 4 1 5 2 6 34 8 35 9 93 10 36 11 92 12 37 13
REMARK SMILES IDX 38 14 39 15 86 16 40 17 91 18 85 19 87 20 41 21 90 22 84 23
REMARK SMILES IDX 83 24 42 26 72 27 53 28 71 29 54 30 57 31 70 32 88 33 55 34
REMARK SMILES IDX 56 35 69 37 89 38 58 39 43 40 44 41 52 42 45 43 51 44 46 45
REMARK SMILES IDX 47 46 48 47 49 48 50 49 73 50 74 51 82 52 75 53 81 54 76 55
REMARK SMILES IDX 77 56 78 57 79 58 80 59 59 60 60 61 68 62 61 63 67 64 62 65
REMARK SMILES IDX 63 66 64 67 65 68 66 69 7 70 8 71 9 72 10 73 11 74 12 76
REMARK SMILES IDX 13 77 14 78 17 79 15 80 16 81 18 82 19 83 20 84 21 85 22 86
REMARK SMILES IDX 30 87 23 88 25 89 29 90 24 91 26 92 28 93 33 94 27 95 31 96
REMARK SMILES IDX 32 98
REMARK H PARENT 3 7 87 25 57 36 10 75 33 97
REMARK Flexibility Score: inf
ROOT
ATOM      1  C   UNL A   1      31.582  30.092  26.996  1.00  0.00     0.002 C 
ENDROOT
BRANCH   1   2
ATOM      2  C   UNL A   1      31.726  31.589  26.675  1.00  0.00     0.021 C 
BRANCH   2   3
ATOM      3  C   UNL A   1      32.994  32.255  27.209  1.00  0.00     0.116 C 
BRANCH   3   4
ATOM      4  N   UNL A   1      32.739  33.621  27.637  1.00  0.00    -0.352 N 
ATOM      5  O   UNL A   1      32.763  35.323  29.129  1.00  0.00    -0.269 OA
ATOM      6  C   UNL A   1      33.272  34.288  28.713  1.00  0.00     0.251 C 
ATOM      7  H   UNL A   1      32.104  34.133  27.085  1.00  0.00     0.163 HD
BRANCH   6   8
ATOM      8  C   UNL A   1      34.478  33.744  29.363  1.00  0.00     0.039 A 
ATOM      9  C   UNL A   1      34.351  32.729  30.317  1.00  0.00     0.014 A 
ATOM     10  C   UNL A   1      35.737  34.235  29.011  1.00  0.00     0.014 A 
ATOM     11  C   UNL A   1      35.483  32.262  30.981  1.00  0.00     0.010 A 
ATOM     12  C   UNL A   1      36.875  33.741  29.657  1.00  0.00     0.010 A 
ATOM     13  C   UNL A   1      36.754  32.770  30.664  1.00  0.00    -0.014 A 
BRANCH  13  14
ATOM     14  C   UNL A   1      37.944  32.272  31.400  1.00  0.00     0.031 A 
ATOM     15  C   UNL A   1      38.289  32.826  32.755  1.00  0.00     0.074 A 
ATOM     16  C   UNL A   1      38.692  31.288  30.862  1.00  0.00     0.049 A 
ATOM     17  N   UNL A   1      39.248  32.463  33.568  1.00  0.00    -0.248 NA
ATOM     18  C   UNL A   1      37.454  33.926  33.269  1.00  0.00     0.031 C 
ATOM     19  C   UNL A   1      38.462  30.679  29.551  1.00  0.00     0.029 A 
ATOM     20  N   UNL A   1      39.789  30.623  31.350  1.00  0.00    -0.354 N 
ATOM     21  C   UNL A   1      39.134  33.284  34.682  1.00  0.00     0.074 A 
ATOM     22  C   UNL A   1      38.033  34.186  34.435  1.00  0.00     0.031 C 
ATOM     23  C   UNL A   1      39.377  29.716  29.348  1.00  0.00     0.029 A 
ATOM     24  C   UNL A   1      40.277  29.661  30.497  1.00  0.00     0.049 A 
ATOM     25  H   UNL A   1      40.189  30.816  32.229  1.00  0.00     0.167 HD
ATOM     26  C   UNL A   1      39.876  33.275  35.814  1.00  0.00     0.031 A 
ATOM     27  C   UNL A   1      41.334  28.834  30.616  1.00  0.00     0.031 A 
ATOM     28  C   UNL A   1      40.963  32.368  36.062  1.00  0.00     0.049 A 
ATOM     29  C   UNL A   1      42.163  28.868  31.871  1.00  0.00     0.074 A 
ATOM     30  C   UNL A   1      41.733  32.253  37.208  1.00  0.00     0.029 A 
ATOM     31  N   UNL A   1      41.442  31.433  35.160  1.00  0.00    -0.354 N 
ATOM     32  N   UNL A   1      41.993  29.606  32.941  1.00  0.00    -0.248 NA
ATOM     33  C   UNL A   1      43.319  27.964  31.939  1.00  0.00     0.031 C 
ATOM     34  C   UNL A   1      42.716  31.291  36.975  1.00  0.00     0.029 A 
ATOM     35  C   UNL A   1      42.523  30.765  35.708  1.00  0.00     0.049 A 
ATOM     36  H   UNL A   1      41.070  31.268  34.264  1.00  0.00     0.167 HD
ATOM     37  C   UNL A   1      43.017  29.250  33.812  1.00  0.00     0.074 A 
ATOM     38  C   UNL A   1      43.792  28.220  33.154  1.00  0.00     0.031 C 
ATOM     39  C   UNL A   1      43.286  29.740  35.045  1.00  0.00     0.031 A 
BRANCH  26  40
ATOM     40  C   UNL A   1      39.553  34.268  36.896  1.00  0.00    -0.014 A 
ATOM     41  C   UNL A   1      38.815  33.880  38.026  1.00  0.00     0.010 A 
ATOM     42  C   UNL A   1      40.127  35.552  36.852  1.00  0.00     0.010 A 
ATOM     43  C   UNL A   1      38.663  34.759  39.102  1.00  0.00     0.020 A 
ATOM     44  C   UNL A   1      39.991  36.427  37.934  1.00  0.00     0.020 A 
ATOM     45  C   UNL A   1      39.265  36.022  39.055  1.00  0.00     0.054 A 
BRANCH  45  46
ATOM     46  S   UNL A   1      39.107  37.108  40.499  1.00  0.00     0.124 S 
ATOM     47  O   UNL A   1      38.251  38.176  39.987  1.00  0.00    -0.237 OA
ATOM     48  O   UNL A   1      38.486  36.227  41.485  1.00  0.00    -0.237 OA
ATOM     49  O   UNL A   1      40.481  37.505  40.791  1.00  0.00    -0.744 OA
ENDBRANCH  45  46
ENDBRANCH  26  40
BRANCH  27  50
ATOM     50  C   UNL A   1      41.676  27.918  29.493  1.00  0.00    -0.014 A 
ATOM     51  C   UNL A   1      40.931  26.751  29.257  1.00  0.00     0.010 A 
ATOM     52  C   UNL A   1      42.739  28.239  28.628  1.00  0.00     0.010 A 
ATOM     53  C   UNL A   1      41.245  25.919  28.177  1.00  0.00     0.020 A 
ATOM     54  C   UNL A   1      43.040  27.425  27.533  1.00  0.00     0.020 A 
ATOM     55  C   UNL A   1      42.292  26.267  27.316  1.00  0.00     0.054 A 
BRANCH  55  56
ATOM     56  S   UNL A   1      42.650  25.190  25.901  1.00  0.00     0.124 S 
ATOM     57  O   UNL A   1      44.103  25.064  25.969  1.00  0.00    -0.237 OA
ATOM     58  O   UNL A   1      41.894  23.986  26.231  1.00  0.00    -0.237 OA
ATOM     59  O   UNL A   1      42.144  25.945  24.756  1.00  0.00    -0.744 OA
ENDBRANCH  55  56
ENDBRANCH  27  50
BRANCH  39  60
ATOM     60  C   UNL A   1      44.468  29.188  35.793  1.00  0.00    -0.014 A 
ATOM     61  C   UNL A   1      45.690  29.883  35.811  1.00  0.00     0.010 A 
ATOM     62  C   UNL A   1      44.306  28.057  36.615  1.00  0.00     0.010 A 
ATOM     63  C   UNL A   1      46.726  29.463  36.649  1.00  0.00     0.020 A 
ATOM     64  C   UNL A   1      45.331  27.647  37.469  1.00  0.00     0.020 A 
ATOM     65  C   UNL A   1      46.533  28.359  37.486  1.00  0.00     0.054 A 
BRANCH  65  66
ATOM     66  S   UNL A   1      47.867  27.894  38.624  1.00  0.00     0.124 S 
ATOM     67  O   UNL A   1      49.062  28.243  37.861  1.00  0.00    -0.237 OA
ATOM     68  O   UNL A   1      47.595  28.737  39.786  1.00  0.00    -0.237 OA
ATOM     69  O   UNL A   1      47.663  26.462  38.834  1.00  0.00    -0.744 OA
ENDBRANCH  65  66
ENDBRANCH  39  60
ENDBRANCH  13  14
ENDBRANCH   6   8
ENDBRANCH   3   4
ENDBRANCH   2   3
ENDBRANCH   1   2
BRANCH   1  70
ATOM     70  C   UNL A   1      31.855  29.132  25.839  1.00  0.00     0.002 C 
BRANCH  70  71
ATOM     71  C   UNL A   1      33.157  28.341  25.964  1.00  0.00     0.021 C 
BRANCH  71  72
ATOM     72  C   UNL A   1      33.043  26.852  26.256  1.00  0.00     0.116 C 
BRANCH  72  73
ATOM     73  N   UNL A   1      34.230  26.122  25.864  1.00  0.00    -0.355 N 
ATOM     74  C   UNL A   1      34.441  24.816  25.584  1.00  0.00     0.238 C 
ATOM     75  H   UNL A   1      35.036  26.682  25.787  1.00  0.00     0.163 HD
ATOM     76  O   UNL A   1      35.583  24.535  25.187  1.00  0.00    -0.273 OA
BRANCH  74  77
ATOM     77  C   UNL A   1      33.404  23.718  25.675  1.00  0.00     0.162 C 
ATOM     78  C   UNL A   1      34.004  22.411  26.211  1.00  0.00     0.032 C 
ATOM     79  N   UNL A   1      32.330  23.330  24.728  1.00  0.00    -0.185 NA
ATOM     80  C   UNL A   1      32.862  21.424  26.098  1.00  0.00     0.019 C 
ATOM     81  C   UNL A   1      32.188  21.834  24.804  1.00  0.00     0.103 C 
BRANCH  79  82
ATOM     82  S   UNL A   1      31.944  23.899  23.189  1.00  0.00     0.244 S 
ATOM     83  O   UNL A   1      32.994  23.395  22.327  1.00  0.00    -0.207 OA
ATOM     84  O   UNL A   1      30.574  23.492  22.952  1.00  0.00    -0.207 OA
BRANCH  82  85
ATOM     85  C   UNL A   1      31.948  25.670  23.041  1.00  0.00     0.090 A 
ATOM     86  C   UNL A   1      33.086  26.369  22.590  1.00  0.00     0.024 A 
ATOM     87  C   UNL A   1      30.704  26.356  23.241  1.00  0.00     0.005 A 
ATOM     88  C   UNL A   1      33.004  27.704  22.140  1.00  0.00     0.028 A 
ATOM     89  C   UNL A   1      30.694  27.654  22.819  1.00  0.00     0.019 A 
ATOM     90  C   UNL A   1      29.457  25.916  23.768  1.00  0.00     0.010 A 
ATOM     91  C   UNL A   1      31.765  28.304  22.250  1.00  0.00     0.050 A 
ATOM     92  C   UNL A   1      29.606  28.514  22.815  1.00  0.00     0.050 A 
ATOM     93  C   UNL A   1      28.338  26.776  23.827  1.00  0.00     0.002 A 
ATOM     94  N   UNL A   1      31.327  29.559  21.871  1.00  0.00    -0.321 N 
ATOM     95  C   UNL A   1      28.389  28.093  23.341  1.00  0.00     0.014 A 
ATOM     96  C   UNL A   1      29.979  29.771  22.197  1.00  0.00     0.256 C 
ATOM     97  H   UNL A   1      31.896  30.227  21.424  1.00  0.00     0.170 HD
ATOM     98  O   UNL A   1      29.362  30.795  21.954  1.00  0.00    -0.269 OA
ENDBRANCH  82  85
ENDBRANCH  79  82
ENDBRANCH  74  77
ENDBRANCH  72  73
ENDBRANCH  71  72
ENDBRANCH  70  71
ENDBRANCH   1  70
TORSDOF 18
ENDMDL
