MODEL 1
REMARK VINA RESULT:     -10.7      0.000      0.000
REMARK SMILES [NH3+][C@@]1(C(=O)NCCCCCCNC(=O)c2ccc(-c3c4nc(c(-c5ccc(S(=O)(=O)[O-])cc5)c5ccc([nH]5)c(-c5ccc(S(=O)(=O)[O-])cc5)c5nc(c(-c6ccc(S(=O)(=O)[O-])cc6)c6ccc3[nH]6)C=C5)C=C4)cc2)CC[C@@H](Sc2ccc(Cl)c(Cl)c2)C1
REMARK SMILES IDX 9 1 8 2 7 3 6 4 5 5 3 6 4 7 2 9 75 10 87 11 76 12 77 13 1 14
REMARK SMILES IDX 78 18 79 19 80 20 86 21 81 22 84 23 82 24 85 25 83 26 10 27
REMARK SMILES IDX 11 28 12 29 13 30 14 32 15 33 16 34 74 35 17 36 73 37 18 38
REMARK SMILES IDX 19 39 20 40 67 41 21 42 72 43 66 44 68 45 22 46 71 47 65 48
REMARK SMILES IDX 64 49 23 51 53 52 34 53 52 54 35 55 38 56 51 57 69 58 36 59
REMARK SMILES IDX 37 60 50 62 70 63 39 64 24 65 25 66 33 67 26 68 32 69 27 70
REMARK SMILES IDX 28 71 29 72 30 73 31 74 54 75 55 76 63 77 56 78 62 79 57 80
REMARK SMILES IDX 58 81 59 82 60 83 61 84 40 85 41 86 49 87 42 88 48 89 43 90
REMARK SMILES IDX 44 91 45 92 46 93 47 94
REMARK H PARENT 5 8 1 15 1 16 1 17 12 31 68 50 38 61
REMARK Flexibility Score: inf
ROOT
ATOM      1  C   UNL A   1      31.799  29.279  25.301  1.00  0.00     0.002 C 
ENDROOT
BRANCH   1   2
ATOM      2  C   UNL A   1      30.839  29.076  24.122  1.00  0.00     0.002 C 
BRANCH   2   3
ATOM      3  C   UNL A   1      31.491  28.553  22.841  1.00  0.00     0.021 C 
BRANCH   3   4
ATOM      4  C   UNL A   1      30.938  27.215  22.368  1.00  0.00     0.116 C 
BRANCH   4   5
ATOM      5  N   UNL A   1      31.651  26.677  21.239  1.00  0.00    -0.351 N 
ATOM      6  C   UNL A   1      32.539  25.653  21.148  1.00  0.00     0.281 C 
ATOM      7  O   UNL A   1      32.865  25.326  19.996  1.00  0.00    -0.268 OA
ATOM      8  H   UNL A   1      31.464  27.129  20.386  1.00  0.00     0.163 HD
BRANCH   6   9
ATOM      9  C   UNL A   1      33.107  24.850  22.381  1.00  0.00     0.175 C 
ATOM     10  C   UNL A   1      33.747  23.517  21.959  1.00  0.00     0.080 C 
ATOM     11  C   UNL A   1      32.089  24.524  23.484  1.00  0.00     0.094 C 
ATOM     12  C   UNL A   1      32.844  22.395  22.456  1.00  0.00     0.022 C 
ATOM     13  C   UNL A   1      31.942  22.996  23.538  1.00  0.00     0.058 C 
BRANCH   9  14
ATOM     14  N   UNL A   1      34.140  25.734  22.996  1.00  0.00    -0.345 N 
ATOM     15  H   UNL A   1      34.447  26.425  22.312  1.00  0.00     0.345 HD
ATOM     16  H   UNL A   1      34.937  25.171  23.292  1.00  0.00     0.345 HD
ATOM     17  H   UNL A   1      33.741  26.211  23.805  1.00  0.00     0.345 HD
ENDBRANCH   9  14
BRANCH  13  18
ATOM     18  S   UNL A   1      32.099  22.277  25.218  1.00  0.00    -0.122 SA
BRANCH  18  19
ATOM     19  C   UNL A   1      33.858  22.187  25.440  1.00  0.00     0.009 A 
ATOM     20  C   UNL A   1      34.545  23.323  25.878  1.00  0.00     0.017 A 
ATOM     21  C   UNL A   1      34.572  21.030  25.127  1.00  0.00     0.037 A 
ATOM     22  C   UNL A   1      35.933  23.294  26.029  1.00  0.00     0.023 A 
ATOM     23  C   UNL A   1      35.961  20.994  25.282  1.00  0.00     0.060 A 
ATOM     24  C   UNL A   1      36.644  22.129  25.733  1.00  0.00     0.059 A 
ATOM     25  Cl  UNL A   1      36.770  19.515  24.902  1.00  0.00    -0.083 Cl
ATOM     26  Cl  UNL A   1      38.358  22.158  25.936  1.00  0.00    -0.083 Cl
ENDBRANCH  18  19
ENDBRANCH  13  18
ENDBRANCH   6   9
ENDBRANCH   4   5
ENDBRANCH   3   4
ENDBRANCH   2   3
ENDBRANCH   1   2
BRANCH   1  27
ATOM     27  C   UNL A   1      32.990  28.315  25.353  1.00  0.00     0.021 C 
BRANCH  27  28
ATOM     28  C   UNL A   1      33.997  28.605  26.461  1.00  0.00     0.116 C 
BRANCH  28  29
ATOM     29  N   UNL A   1      33.790  29.918  27.048  1.00  0.00    -0.352 N 
ATOM     30  C   UNL A   1      34.563  30.599  27.951  1.00  0.00     0.251 C 
ATOM     31  H   UNL A   1      32.977  30.388  26.753  1.00  0.00     0.163 HD
ATOM     32  O   UNL A   1      34.111  31.599  28.511  1.00  0.00    -0.269 OA
BRANCH  30  33
ATOM     33  C   UNL A   1      35.927  30.128  28.259  1.00  0.00     0.039 A 
ATOM     34  C   UNL A   1      36.917  30.229  27.279  1.00  0.00     0.014 A 
ATOM     35  C   UNL A   1      36.226  29.572  29.507  1.00  0.00     0.014 A 
ATOM     36  C   UNL A   1      38.219  29.818  27.567  1.00  0.00     0.010 A 
ATOM     37  C   UNL A   1      37.539  29.231  29.817  1.00  0.00     0.010 A 
ATOM     38  C   UNL A   1      38.548  29.344  28.848  1.00  0.00    -0.014 A 
BRANCH  38  39
ATOM     39  C   UNL A   1      39.938  28.954  29.190  1.00  0.00     0.031 A 
ATOM     40  C   UNL A   1      40.855  29.939  29.866  1.00  0.00     0.074 A 
ATOM     41  C   UNL A   1      40.391  27.732  28.848  1.00  0.00     0.049 A 
ATOM     42  N   UNL A   1      42.113  29.802  30.195  1.00  0.00    -0.248 NA
ATOM     43  C   UNL A   1      40.289  31.258  30.197  1.00  0.00     0.031 C 
ATOM     44  C   UNL A   1      39.608  26.699  28.164  1.00  0.00     0.029 A 
ATOM     45  N   UNL A   1      41.621  27.150  29.026  1.00  0.00    -0.354 N 
ATOM     46  C   UNL A   1      42.491  31.014  30.762  1.00  0.00     0.074 A 
ATOM     47  C   UNL A   1      41.346  31.895  30.679  1.00  0.00     0.031 C 
ATOM     48  C   UNL A   1      40.366  25.602  28.010  1.00  0.00     0.029 A 
ATOM     49  C   UNL A   1      41.700  25.866  28.541  1.00  0.00     0.049 A 
ATOM     50  H   UNL A   1      42.376  27.609  29.461  1.00  0.00     0.167 HD
ATOM     51  C   UNL A   1      43.675  31.356  31.323  1.00  0.00     0.031 A 
ATOM     52  C   UNL A   1      42.732  24.999  28.520  1.00  0.00     0.031 A 
ATOM     53  C   UNL A   1      44.811  30.477  31.405  1.00  0.00     0.049 A 
ATOM     54  C   UNL A   1      44.050  25.418  29.115  1.00  0.00     0.074 A 
ATOM     55  C   UNL A   1      46.045  30.717  31.983  1.00  0.00     0.029 A 
ATOM     56  N   UNL A   1      44.853  29.187  30.894  1.00  0.00    -0.354 N 
ATOM     57  N   UNL A   1      44.370  26.552  29.692  1.00  0.00    -0.248 NA
ATOM     58  C   UNL A   1      45.140  24.436  29.065  1.00  0.00     0.031 C 
ATOM     59  C   UNL A   1      46.851  29.592  31.776  1.00  0.00     0.029 A 
ATOM     60  C   UNL A   1      46.098  28.628  31.125  1.00  0.00     0.049 A 
ATOM     61  H   UNL A   1      44.107  28.738  30.436  1.00  0.00     0.167 HD
ATOM     62  C   UNL A   1      45.690  26.405  30.104  1.00  0.00     0.074 A 
ATOM     63  C   UNL A   1      46.101  25.070  29.722  1.00  0.00     0.031 C 
ATOM     64  C   UNL A   1      46.490  27.295  30.742  1.00  0.00     0.031 A 
BRANCH  51  65
ATOM     65  C   UNL A   1      43.800  32.746  31.893  1.00  0.00    -0.014 A 
ATOM     66  C   UNL A   1      43.534  32.997  33.252  1.00  0.00     0.010 A 
ATOM     67  C   UNL A   1      44.230  33.806  31.075  1.00  0.00     0.010 A 
ATOM     68  C   UNL A   1      43.655  34.289  33.771  1.00  0.00     0.020 A 
ATOM     69  C   UNL A   1      44.382  35.094  31.597  1.00  0.00     0.020 A 
ATOM     70  C   UNL A   1      44.077  35.330  32.939  1.00  0.00     0.054 A 
BRANCH  70  71
ATOM     71  S   UNL A   1      44.249  36.990  33.648  1.00  0.00     0.124 S 
ATOM     72  O   UNL A   1      43.584  37.816  32.644  1.00  0.00    -0.237 OA
ATOM     73  O   UNL A   1      43.548  36.867  34.924  1.00  0.00    -0.237 OA
ATOM     74  O   UNL A   1      45.694  37.177  33.750  1.00  0.00    -0.744 OA
ENDBRANCH  70  71
ENDBRANCH  51  65
BRANCH  52  75
ATOM     75  C   UNL A   1      42.560  23.646  27.924  1.00  0.00    -0.014 A 
ATOM     76  C   UNL A   1      43.093  23.350  26.656  1.00  0.00     0.010 A 
ATOM     77  C   UNL A   1      41.857  22.645  28.619  1.00  0.00     0.010 A 
ATOM     78  C   UNL A   1      42.901  22.091  26.082  1.00  0.00     0.020 A 
ATOM     79  C   UNL A   1      41.690  21.374  28.061  1.00  0.00     0.020 A 
ATOM     80  C   UNL A   1      42.201  21.110  26.789  1.00  0.00     0.054 A 
BRANCH  80  81
ATOM     81  S   UNL A   1      41.992  19.471  26.038  1.00  0.00     0.124 S 
ATOM     82  O   UNL A   1      42.813  19.582  24.837  1.00  0.00    -0.237 OA
ATOM     83  O   UNL A   1      42.504  18.581  27.077  1.00  0.00    -0.237 OA
ATOM     84  O   UNL A   1      40.551  19.384  25.807  1.00  0.00    -0.744 OA
ENDBRANCH  80  81
ENDBRANCH  52  75
BRANCH  64  85
ATOM     85  C   UNL A   1      47.879  26.841  31.109  1.00  0.00    -0.014 A 
ATOM     86  C   UNL A   1      48.116  26.063  32.254  1.00  0.00     0.010 A 
ATOM     87  C   UNL A   1      48.956  27.159  30.260  1.00  0.00     0.010 A 
ATOM     88  C   UNL A   1      49.411  25.637  32.563  1.00  0.00     0.020 A 
ATOM     89  C   UNL A   1      50.246  26.709  30.548  1.00  0.00     0.020 A 
ATOM     90  C   UNL A   1      50.468  25.962  31.706  1.00  0.00     0.054 A 
BRANCH  90  91
ATOM     91  S   UNL A   1      52.131  25.359  32.106  1.00  0.00     0.124 S 
ATOM     92  O   UNL A   1      51.892  23.937  32.337  1.00  0.00    -0.237 OA
ATOM     93  O   UNL A   1      52.887  25.681  30.897  1.00  0.00    -0.237 OA
ATOM     94  O   UNL A   1      52.503  26.129  33.290  1.00  0.00    -0.744 OA
ENDBRANCH  90  91
ENDBRANCH  64  85
ENDBRANCH  38  39
ENDBRANCH  30  33
ENDBRANCH  28  29
ENDBRANCH  27  28
ENDBRANCH   1  27
TORSDOF 19
ENDMDL
MODEL 2
REMARK VINA RESULT:     -10.5      2.577      3.404
REMARK SMILES [NH3+][C@@]1(C(=O)NCCCCCCNC(=O)c2ccc(-c3c4nc(c(-c5ccc(S(=O)(=O)[O-])cc5)c5ccc([nH]5)c(-c5ccc(S(=O)(=O)[O-])cc5)c5nc(c(-c6ccc(S(=O)(=O)[O-])cc6)c6ccc3[nH]6)C=C5)C=C4)cc2)CC[C@@H](Sc2ccc(Cl)c(Cl)c2)C1
REMARK SMILES IDX 9 1 8 2 7 3 6 4 5 5 3 6 4 7 2 9 75 10 87 11 76 12 77 13 1 14
REMARK SMILES IDX 78 18 79 19 80 20 86 21 81 22 84 23 82 24 85 25 83 26 10 27
REMARK SMILES IDX 11 28 12 29 13 30 14 32 15 33 16 34 74 35 17 36 73 37 18 38
REMARK SMILES IDX 19 39 20 40 67 41 21 42 72 43 66 44 68 45 22 46 71 47 65 48
REMARK SMILES IDX 64 49 23 51 53 52 34 53 52 54 35 55 38 56 51 57 69 58 36 59
REMARK SMILES IDX 37 60 50 62 70 63 39 64 24 65 25 66 33 67 26 68 32 69 27 70
REMARK SMILES IDX 28 71 29 72 30 73 31 74 54 75 55 76 63 77 56 78 62 79 57 80
REMARK SMILES IDX 58 81 59 82 60 83 61 84 40 85 41 86 49 87 42 88 48 89 43 90
REMARK SMILES IDX 44 91 45 92 46 93 47 94
REMARK H PARENT 5 8 1 15 1 16 1 17 12 31 68 50 38 61
REMARK Flexibility Score: inf
ROOT
ATOM      1  C   UNL A   1      31.892  28.152  25.546  1.00  0.00     0.002 C 
ENDROOT
BRANCH   1   2
ATOM      2  C   UNL A   1      32.268  28.539  24.110  1.00  0.00     0.002 C 
BRANCH   2   3
ATOM      3  C   UNL A   1      31.107  28.534  23.114  1.00  0.00     0.021 C 
BRANCH   3   4
ATOM      4  C   UNL A   1      30.775  27.154  22.560  1.00  0.00     0.116 C 
BRANCH   4   5
ATOM      5  N   UNL A   1      31.745  26.680  21.607  1.00  0.00    -0.351 N 
ATOM      6  C   UNL A   1      32.417  25.504  21.526  1.00  0.00     0.281 C 
ATOM      7  O   UNL A   1      33.076  25.333  20.488  1.00  0.00    -0.268 OA
ATOM      8  H   UNL A   1      31.958  27.321  20.891  1.00  0.00     0.163 HD
BRANCH   6   9
ATOM      9  C   UNL A   1      32.356  24.362  22.613  1.00  0.00     0.175 C 
ATOM     10  C   UNL A   1      30.919  24.088  23.085  1.00  0.00     0.080 C 
ATOM     11  C   UNL A   1      33.199  24.604  23.873  1.00  0.00     0.094 C 
ATOM     12  C   UNL A   1      30.804  24.585  24.522  1.00  0.00     0.022 C 
ATOM     13  C   UNL A   1      32.231  24.725  25.059  1.00  0.00     0.058 C 
BRANCH   9  14
ATOM     14  N   UNL A   1      32.911  23.145  21.950  1.00  0.00    -0.345 N 
ATOM     15  H   UNL A   1      32.377  22.945  21.105  1.00  0.00     0.345 HD
ATOM     16  H   UNL A   1      32.848  22.352  22.589  1.00  0.00     0.345 HD
ATOM     17  H   UNL A   1      33.888  23.307  21.705  1.00  0.00     0.345 HD
ENDBRANCH   9  14
BRANCH  13  18
ATOM     18  S   UNL A   1      32.662  23.676  26.501  1.00  0.00    -0.122 SA
BRANCH  18  19
ATOM     19  C   UNL A   1      33.105  22.133  25.742  1.00  0.00     0.009 A 
ATOM     20  C   UNL A   1      32.090  21.290  25.280  1.00  0.00     0.017 A 
ATOM     21  C   UNL A   1      34.435  21.721  25.655  1.00  0.00     0.037 A 
ATOM     22  C   UNL A   1      32.404  20.055  24.709  1.00  0.00     0.023 A 
ATOM     23  C   UNL A   1      34.754  20.488  25.079  1.00  0.00     0.060 A 
ATOM     24  C   UNL A   1      33.738  19.652  24.605  1.00  0.00     0.059 A 
ATOM     25  Cl  UNL A   1      36.426  20.061  24.981  1.00  0.00    -0.083 Cl
ATOM     26  Cl  UNL A   1      34.061  18.112  23.895  1.00  0.00    -0.083 Cl
ENDBRANCH  18  19
ENDBRANCH  13  18
ENDBRANCH   6   9
ENDBRANCH   4   5
ENDBRANCH   3   4
ENDBRANCH   2   3
ENDBRANCH   1   2
BRANCH   1  27
ATOM     27  C   UNL A   1      33.072  27.979  26.509  1.00  0.00     0.021 C 
BRANCH  27  28
ATOM     28  C   UNL A   1      34.232  28.941  26.275  1.00  0.00     0.116 C 
BRANCH  28  29
ATOM     29  N   UNL A   1      33.865  30.313  26.582  1.00  0.00    -0.352 N 
ATOM     30  C   UNL A   1      34.353  31.147  27.554  1.00  0.00     0.251 C 
ATOM     31  H   UNL A   1      33.165  30.700  26.010  1.00  0.00     0.163 HD
ATOM     32  O   UNL A   1      33.758  32.194  27.815  1.00  0.00    -0.269 OA
BRANCH  30  33
ATOM     33  C   UNL A   1      35.579  30.786  28.291  1.00  0.00     0.039 A 
ATOM     34  C   UNL A   1      35.542  29.713  29.183  1.00  0.00     0.014 A 
ATOM     35  C   UNL A   1      36.759  31.516  28.115  1.00  0.00     0.014 A 
ATOM     36  C   UNL A   1      36.704  29.339  29.863  1.00  0.00     0.010 A 
ATOM     37  C   UNL A   1      37.932  31.098  28.736  1.00  0.00     0.010 A 
ATOM     38  C   UNL A   1      37.915  30.010  29.622  1.00  0.00    -0.014 A 
BRANCH  38  39
ATOM     39  C   UNL A   1      39.171  29.593  30.293  1.00  0.00     0.031 A 
ATOM     40  C   UNL A   1      39.636  30.305  31.536  1.00  0.00     0.074 A 
ATOM     41  C   UNL A   1      39.917  28.607  29.757  1.00  0.00     0.049 A 
ATOM     42  N   UNL A   1      40.728  30.121  32.231  1.00  0.00    -0.248 NA
ATOM     43  C   UNL A   1      38.770  31.379  32.053  1.00  0.00     0.031 C 
ATOM     44  C   UNL A   1      39.588  27.861  28.540  1.00  0.00     0.029 A 
ATOM     45  N   UNL A   1      41.110  28.065  30.165  1.00  0.00    -0.354 N 
ATOM     46  C   UNL A   1      40.687  31.057  33.258  1.00  0.00     0.074 A 
ATOM     47  C   UNL A   1      39.490  31.846  33.063  1.00  0.00     0.031 C 
ATOM     48  C   UNL A   1      40.537  26.937  28.320  1.00  0.00     0.029 A 
ATOM     49  C   UNL A   1      41.565  27.056  29.349  1.00  0.00     0.049 A 
ATOM     50  H   UNL A   1      41.595  28.369  30.966  1.00  0.00     0.167 HD
ATOM     51  C   UNL A   1      41.552  31.228  34.286  1.00  0.00     0.031 A 
ATOM     52  C   UNL A   1      42.687  26.312  29.418  1.00  0.00     0.031 A 
ATOM     53  C   UNL A   1      42.739  30.440  34.478  1.00  0.00     0.049 A 
ATOM     54  C   UNL A   1      43.652  26.548  30.549  1.00  0.00     0.074 A 
ATOM     55  C   UNL A   1      43.664  30.513  35.506  1.00  0.00     0.029 A 
ATOM     56  N   UNL A   1      43.168  29.433  33.626  1.00  0.00    -0.354 N 
ATOM     57  N   UNL A   1      43.566  27.405  31.539  1.00  0.00    -0.248 NA
ATOM     58  C   UNL A   1      44.857  25.711  30.576  1.00  0.00     0.031 C 
ATOM     59  C   UNL A   1      44.679  29.586  35.246  1.00  0.00     0.029 A 
ATOM     60  C   UNL A   1      44.354  28.892  34.091  1.00  0.00     0.049 A 
ATOM     61  H   UNL A   1      42.699  29.146  32.810  1.00  0.00     0.167 HD
ATOM     62  C   UNL A   1      44.692  27.184  32.326  1.00  0.00     0.074 A 
ATOM     63  C   UNL A   1      45.432  26.106  31.703  1.00  0.00     0.031 C 
ATOM     64  C   UNL A   1      45.077  27.816  33.462  1.00  0.00     0.031 A 
BRANCH  51  65
ATOM     65  C   UNL A   1      41.241  32.314  35.283  1.00  0.00    -0.014 A 
ATOM     66  C   UNL A   1      41.728  33.623  35.105  1.00  0.00     0.010 A 
ATOM     67  C   UNL A   1      40.419  32.039  36.390  1.00  0.00     0.010 A 
ATOM     68  C   UNL A   1      41.432  34.623  36.034  1.00  0.00     0.020 A 
ATOM     69  C   UNL A   1      40.095  33.044  37.307  1.00  0.00     0.020 A 
ATOM     70  C   UNL A   1      40.618  34.327  37.131  1.00  0.00     0.054 A 
BRANCH  70  71
ATOM     71  S   UNL A   1      40.232  35.652  38.306  1.00  0.00     0.124 S 
ATOM     72  O   UNL A   1      41.516  35.842  38.978  1.00  0.00    -0.237 OA
ATOM     73  O   UNL A   1      39.815  36.744  37.431  1.00  0.00    -0.237 OA
ATOM     74  O   UNL A   1      39.174  35.083  39.137  1.00  0.00    -0.744 OA
ENDBRANCH  70  71
ENDBRANCH  51  65
BRANCH  52  75
ATOM     75  C   UNL A   1      42.954  25.265  28.394  1.00  0.00    -0.014 A 
ATOM     76  C   UNL A   1      43.609  25.594  27.192  1.00  0.00     0.010 A 
ATOM     77  C   UNL A   1      42.551  23.935  28.609  1.00  0.00     0.010 A 
ATOM     78  C   UNL A   1      43.830  24.619  26.215  1.00  0.00     0.020 A 
ATOM     79  C   UNL A   1      42.797  22.951  27.647  1.00  0.00     0.020 A 
ATOM     80  C   UNL A   1      43.422  23.303  26.450  1.00  0.00     0.054 A 
BRANCH  80  81
ATOM     81  S   UNL A   1      43.748  22.048  25.181  1.00  0.00     0.124 S 
ATOM     82  O   UNL A   1      42.745  21.034  25.493  1.00  0.00    -0.237 OA
ATOM     83  O   UNL A   1      43.535  22.790  23.941  1.00  0.00    -0.237 OA
ATOM     84  O   UNL A   1      45.134  21.658  25.435  1.00  0.00    -0.744 OA
ENDBRANCH  80  81
ENDBRANCH  52  75
BRANCH  64  85
ATOM     85  C   UNL A   1      46.336  27.331  34.133  1.00  0.00    -0.014 A 
ATOM     86  C   UNL A   1      47.587  27.900  33.840  1.00  0.00     0.010 A 
ATOM     87  C   UNL A   1      46.252  26.324  35.112  1.00  0.00     0.010 A 
ATOM     88  C   UNL A   1      48.738  27.446  34.491  1.00  0.00     0.020 A 
ATOM     89  C   UNL A   1      47.396  25.890  35.787  1.00  0.00     0.020 A 
ATOM     90  C   UNL A   1      48.635  26.445  35.462  1.00  0.00     0.054 A 
BRANCH  90  91
ATOM     91  S   UNL A   1      50.136  25.907  36.323  1.00  0.00     0.124 S 
ATOM     92  O   UNL A   1      51.184  26.306  35.387  1.00  0.00    -0.237 OA
ATOM     93  O   UNL A   1      50.082  26.671  37.568  1.00  0.00    -0.237 OA
ATOM     94  O   UNL A   1      49.952  24.466  36.475  1.00  0.00    -0.744 OA
ENDBRANCH  90  91
ENDBRANCH  64  85
ENDBRANCH  38  39
ENDBRANCH  30  33
ENDBRANCH  28  29
ENDBRANCH  27  28
ENDBRANCH   1  27
TORSDOF 19
ENDMDL
MODEL 3
REMARK VINA RESULT:     -10.2      2.783      8.418
REMARK SMILES [NH3+][C@@]1(C(=O)NCCCCCCNC(=O)c2ccc(-c3c4nc(c(-c5ccc(S(=O)(=O)[O-])cc5)c5ccc([nH]5)c(-c5ccc(S(=O)(=O)[O-])cc5)c5nc(c(-c6ccc(S(=O)(=O)[O-])cc6)c6ccc3[nH]6)C=C5)C=C4)cc2)CC[C@@H](Sc2ccc(Cl)c(Cl)c2)C1
REMARK SMILES IDX 9 1 8 2 7 3 6 4 5 5 3 6 4 7 2 9 75 10 87 11 76 12 77 13 1 14
REMARK SMILES IDX 78 18 79 19 80 20 86 21 81 22 84 23 82 24 85 25 83 26 10 27
REMARK SMILES IDX 11 28 12 29 13 30 14 32 15 33 16 34 74 35 17 36 73 37 18 38
REMARK SMILES IDX 19 39 20 40 67 41 21 42 72 43 66 44 68 45 22 46 71 47 65 48
REMARK SMILES IDX 64 49 23 51 53 52 34 53 52 54 35 55 38 56 51 57 69 58 36 59
REMARK SMILES IDX 37 60 50 62 70 63 39 64 24 65 25 66 33 67 26 68 32 69 27 70
REMARK SMILES IDX 28 71 29 72 30 73 31 74 54 75 55 76 63 77 56 78 62 79 57 80
REMARK SMILES IDX 58 81 59 82 60 83 61 84 40 85 41 86 49 87 42 88 48 89 43 90
REMARK SMILES IDX 44 91 45 92 46 93 47 94
REMARK H PARENT 5 8 1 15 1 16 1 17 12 31 68 50 38 61
REMARK Flexibility Score: inf
ROOT
ATOM      1  C   UNL A   1      32.171  28.126  24.877  1.00  0.00     0.002 C 
ENDROOT
BRANCH   1   2
ATOM      2  C   UNL A   1      31.344  29.171  24.118  1.00  0.00     0.002 C 
BRANCH   2   3
ATOM      3  C   UNL A   1      30.825  28.717  22.752  1.00  0.00     0.021 C 
BRANCH   3   4
ATOM      4  C   UNL A   1      30.792  27.205  22.576  1.00  0.00     0.116 C 
BRANCH   4   5
ATOM      5  N   UNL A   1      31.748  26.728  21.611  1.00  0.00    -0.351 N 
ATOM      6  C   UNL A   1      32.415  25.549  21.520  1.00  0.00     0.281 C 
ATOM      7  O   UNL A   1      33.061  25.377  20.474  1.00  0.00    -0.268 OA
ATOM      8  H   UNL A   1      31.956  27.369  20.893  1.00  0.00     0.163 HD
BRANCH   6   9
ATOM      9  C   UNL A   1      32.362  24.406  22.606  1.00  0.00     0.175 C 
ATOM     10  C   UNL A   1      30.924  24.102  23.057  1.00  0.00     0.080 C 
ATOM     11  C   UNL A   1      33.180  24.665  23.879  1.00  0.00     0.094 C 
ATOM     12  C   UNL A   1      30.777  24.596  24.491  1.00  0.00     0.022 C 
ATOM     13  C   UNL A   1      32.192  24.765  25.050  1.00  0.00     0.058 C 
BRANCH   9  14
ATOM     14  N   UNL A   1      32.952  23.202  21.952  1.00  0.00    -0.345 N 
ATOM     15  H   UNL A   1      33.969  23.282  21.944  1.00  0.00     0.345 HD
ATOM     16  H   UNL A   1      32.609  23.133  20.993  1.00  0.00     0.345 HD
ATOM     17  H   UNL A   1      32.681  22.366  22.470  1.00  0.00     0.345 HD
ENDBRANCH   9  14
BRANCH  13  18
ATOM     18  S   UNL A   1      32.624  23.725  26.498  1.00  0.00    -0.122 SA
BRANCH  18  19
ATOM     19  C   UNL A   1      33.066  22.178  25.748  1.00  0.00     0.009 A 
ATOM     20  C   UNL A   1      32.050  21.324  25.309  1.00  0.00     0.017 A 
ATOM     21  C   UNL A   1      34.397  21.773  25.647  1.00  0.00     0.037 A 
ATOM     22  C   UNL A   1      32.363  20.085  24.746  1.00  0.00     0.023 A 
ATOM     23  C   UNL A   1      34.716  20.536  25.079  1.00  0.00     0.060 A 
ATOM     24  C   UNL A   1      33.698  19.689  24.628  1.00  0.00     0.059 A 
ATOM     25  Cl  UNL A   1      36.389  20.118  24.962  1.00  0.00    -0.083 Cl
ATOM     26  Cl  UNL A   1      34.021  18.144  23.928  1.00  0.00    -0.083 Cl
ENDBRANCH  18  19
ENDBRANCH  13  18
ENDBRANCH   6   9
ENDBRANCH   4   5
ENDBRANCH   3   4
ENDBRANCH   2   3
ENDBRANCH   1   2
BRANCH   1  27
ATOM     27  C   UNL A   1      33.683  28.375  24.898  1.00  0.00     0.021 C 
BRANCH  27  28
ATOM     28  C   UNL A   1      34.240  28.801  26.253  1.00  0.00     0.116 C 
BRANCH  28  29
ATOM     29  N   UNL A   1      33.865  30.165  26.585  1.00  0.00    -0.352 N 
ATOM     30  C   UNL A   1      34.378  31.000  27.543  1.00  0.00     0.251 C 
ATOM     31  H   UNL A   1      33.136  30.545  26.044  1.00  0.00     0.163 HD
ATOM     32  O   UNL A   1      33.779  32.036  27.835  1.00  0.00    -0.269 OA
BRANCH  30  33
ATOM     33  C   UNL A   1      35.639  30.653  28.227  1.00  0.00     0.039 A 
ATOM     34  C   UNL A   1      36.788  31.395  27.948  1.00  0.00     0.014 A 
ATOM     35  C   UNL A   1      35.691  29.585  29.129  1.00  0.00     0.014 A 
ATOM     36  C   UNL A   1      37.980  31.098  28.612  1.00  0.00     0.010 A 
ATOM     37  C   UNL A   1      36.859  29.338  29.844  1.00  0.00     0.010 A 
ATOM     38  C   UNL A   1      38.018  30.087  29.587  1.00  0.00    -0.014 A 
BRANCH  38  39
ATOM     39  C   UNL A   1      39.261  29.794  30.343  1.00  0.00     0.031 A 
ATOM     40  C   UNL A   1      40.185  28.698  29.880  1.00  0.00     0.074 A 
ATOM     41  C   UNL A   1      39.532  30.478  31.471  1.00  0.00     0.049 A 
ATOM     42  N   UNL A   1      41.286  28.261  30.435  1.00  0.00    -0.248 NA
ATOM     43  C   UNL A   1      39.813  27.989  28.645  1.00  0.00     0.031 C 
ATOM     44  C   UNL A   1      38.699  31.542  32.038  1.00  0.00     0.029 A 
ATOM     45  N   UNL A   1      40.583  30.380  32.347  1.00  0.00    -0.354 N 
ATOM     46  C   UNL A   1      41.732  27.223  29.624  1.00  0.00     0.074 A 
ATOM     47  C   UNL A   1      40.753  27.058  28.572  1.00  0.00     0.031 C 
ATOM     48  C   UNL A   1      39.288  32.020  33.146  1.00  0.00     0.029 A 
ATOM     49  C   UNL A   1      40.513  31.267  33.395  1.00  0.00     0.049 A 
ATOM     50  H   UNL A   1      41.319  29.735  32.236  1.00  0.00     0.167 HD
ATOM     51  C   UNL A   1      42.866  26.490  29.731  1.00  0.00     0.031 A 
ATOM     52  C   UNL A   1      41.340  31.451  34.444  1.00  0.00     0.031 A 
ATOM     53  C   UNL A   1      43.838  26.659  30.778  1.00  0.00     0.049 A 
ATOM     54  C   UNL A   1      42.574  30.596  34.561  1.00  0.00     0.074 A 
ATOM     55  C   UNL A   1      45.036  25.989  30.956  1.00  0.00     0.029 A 
ATOM     56  N   UNL A   1      43.726  27.563  31.824  1.00  0.00    -0.354 N 
ATOM     57  N   UNL A   1      43.003  29.655  33.754  1.00  0.00    -0.248 NA
ATOM     58  C   UNL A   1      43.438  30.838  35.722  1.00  0.00     0.031 C 
ATOM     59  C   UNL A   1      45.623  26.451  32.139  1.00  0.00     0.029 A 
ATOM     60  C   UNL A   1      44.822  27.453  32.663  1.00  0.00     0.049 A 
ATOM     61  H   UNL A   1      42.978  28.189  31.952  1.00  0.00     0.167 HD
ATOM     62  C   UNL A   1      44.207  29.216  34.295  1.00  0.00     0.074 A 
ATOM     63  C   UNL A   1      44.441  30.004  35.487  1.00  0.00     0.031 C 
ATOM     64  C   UNL A   1      45.043  28.248  33.844  1.00  0.00     0.031 A 
BRANCH  51  65
ATOM     65  C   UNL A   1      43.115  25.436  28.683  1.00  0.00    -0.014 A 
ATOM     66  C   UNL A   1      43.955  25.692  27.583  1.00  0.00     0.010 A 
ATOM     67  C   UNL A   1      42.538  24.160  28.818  1.00  0.00     0.010 A 
ATOM     68  C   UNL A   1      44.181  24.706  26.619  1.00  0.00     0.020 A 
ATOM     69  C   UNL A   1      42.786  23.161  27.871  1.00  0.00     0.020 A 
ATOM     70  C   UNL A   1      43.593  23.447  26.768  1.00  0.00     0.054 A 
BRANCH  70  71
ATOM     71  S   UNL A   1      43.925  22.182  25.513  1.00  0.00     0.124 S 
ATOM     72  O   UNL A   1      45.385  22.114  25.532  1.00  0.00    -0.237 OA
ATOM     73  O   UNL A   1      43.236  21.011  26.048  1.00  0.00    -0.237 OA
ATOM     74  O   UNL A   1      43.345  22.740  24.294  1.00  0.00    -0.744 OA
ENDBRANCH  70  71
ENDBRANCH  51  65
BRANCH  52  75
ATOM     75  C   UNL A   1      41.035  32.493  35.463  1.00  0.00    -0.014 A 
ATOM     76  C   UNL A   1      41.424  33.829  35.255  1.00  0.00     0.010 A 
ATOM     77  C   UNL A   1      40.361  32.155  36.650  1.00  0.00     0.010 A 
ATOM     78  C   UNL A   1      41.169  34.801  36.227  1.00  0.00     0.020 A 
ATOM     79  C   UNL A   1      40.077  33.131  37.610  1.00  0.00     0.020 A 
ATOM     80  C   UNL A   1      40.496  34.445  37.399  1.00  0.00     0.054 A 
BRANCH  80  81
ATOM     81  S   UNL A   1      40.148  35.730  38.632  1.00  0.00     0.124 S 
ATOM     82  O   UNL A   1      38.945  35.212  39.278  1.00  0.00    -0.237 OA
ATOM     83  O   UNL A   1      41.360  35.721  39.447  1.00  0.00    -0.237 OA
ATOM     84  O   UNL A   1      39.957  36.933  37.824  1.00  0.00    -0.744 OA
ENDBRANCH  80  81
ENDBRANCH  52  75
BRANCH  64  85
ATOM     85  C   UNL A   1      46.314  28.014  34.618  1.00  0.00    -0.014 A 
ATOM     86  C   UNL A   1      47.485  28.740  34.339  1.00  0.00     0.010 A 
ATOM     87  C   UNL A   1      46.317  27.087  35.677  1.00  0.00     0.010 A 
ATOM     88  C   UNL A   1      48.647  28.518  35.084  1.00  0.00     0.020 A 
ATOM     89  C   UNL A   1      47.467  26.886  36.444  1.00  0.00     0.020 A 
ATOM     90  C   UNL A   1      48.630  27.594  36.133  1.00  0.00     0.054 A 
BRANCH  90  91
ATOM     91  S   UNL A   1      50.137  27.359  37.113  1.00  0.00     0.124 S 
ATOM     92  O   UNL A   1      49.807  26.175  37.901  1.00  0.00    -0.237 OA
ATOM     93  O   UNL A   1      51.159  27.167  36.086  1.00  0.00    -0.237 OA
ATOM     94  O   UNL A   1      50.253  28.601  37.874  1.00  0.00    -0.744 OA
ENDBRANCH  90  91
ENDBRANCH  64  85
ENDBRANCH  38  39
ENDBRANCH  30  33
ENDBRANCH  28  29
ENDBRANCH  27  28
ENDBRANCH   1  27
TORSDOF 19
ENDMDL
