MODEL 1
REMARK VINA RESULT:     -10.4      0.000      0.000
REMARK SMILES COc1cc(/C=C/C(=O)NCCCCCCNC(=O)c2ccc(-c3c4nc(c(-c5ccc(S(=O)(=O)[O-])cc5)c5ccc([nH]5)c(-c5ccc(S(=O)(=O)[O-])cc5)c5nc(c(-c6ccc(S(=O)(=O)[O-])cc6)c6ccc3[nH]6)C=C5)C=C4)cc2)cc(OC)c1O
REMARK SMILES IDX 14 1 13 2 12 3 11 4 10 5 8 6 9 7 7 9 6 10 5 11 3 12 4 13
REMARK SMILES IDX 84 14 81 15 80 16 2 17 1 18 85 19 82 21 83 22 15 23 16 24
REMARK SMILES IDX 17 25 18 26 19 28 20 29 21 30 79 31 22 32 78 33 23 34 24 35
REMARK SMILES IDX 25 36 72 37 26 38 77 39 71 40 73 41 27 42 76 43 70 44 69 45
REMARK SMILES IDX 28 47 58 48 39 49 57 50 40 51 43 52 56 53 74 54 41 55 42 56
REMARK SMILES IDX 55 58 75 59 44 60 29 61 30 62 38 63 31 64 37 65 32 66 33 67
REMARK SMILES IDX 34 68 35 69 36 70 59 71 60 72 68 73 61 74 67 75 62 76 63 77
REMARK SMILES IDX 64 78 65 79 66 80 45 81 46 82 54 83 47 84 53 85 48 86 49 87
REMARK SMILES IDX 50 88 51 89 52 90
REMARK H PARENT 10 8 85 20 17 27 73 46 43 57
REMARK Flexibility Score: inf
ROOT
ATOM      1  C   UNL A   1      35.036  22.959  23.531  1.00  0.00     0.002 C 
ENDROOT
BRANCH   1   2
ATOM      2  C   UNL A   1      34.572  21.828  24.456  1.00  0.00     0.002 C 
BRANCH   2   3
ATOM      3  C   UNL A   1      33.522  22.239  25.498  1.00  0.00     0.021 C 
BRANCH   3   4
ATOM      4  C   UNL A   1      32.095  21.861  25.099  1.00  0.00     0.116 C 
BRANCH   4   5
ATOM      5  N   UNL A   1      31.173  22.215  26.162  1.00  0.00    -0.353 N 
ATOM      6  C   UNL A   1      30.586  23.393  26.491  1.00  0.00     0.243 C 
ATOM      7  O   UNL A   1      29.809  23.433  27.445  1.00  0.00    -0.270 OA
ATOM      8  H   UNL A   1      30.927  21.464  26.750  1.00  0.00     0.163 HD
BRANCH   6   9
ATOM      9  C   UNL A   1      30.776  24.612  25.673  1.00  0.00     0.072 C 
ATOM     10  C   UNL A   1      30.072  24.955  24.583  1.00  0.00     0.014 C 
BRANCH  10  11
ATOM     11  C   UNL A   1      30.312  26.181  23.810  1.00  0.00    -0.018 A 
ATOM     12  C   UNL A   1      29.656  28.412  23.063  1.00  0.00     0.165 A 
ATOM     13  C   UNL A   1      29.376  27.214  23.737  1.00  0.00     0.058 A 
ATOM     14  C   UNL A   1      30.914  28.580  22.460  1.00  0.00     0.200 A 
ATOM     15  C   UNL A   1      31.863  27.547  22.504  1.00  0.00     0.165 A 
ATOM     16  C   UNL A   1      31.547  26.359  23.181  1.00  0.00     0.058 A 
BRANCH  12  17
ATOM     17  O   UNL A   1      28.615  29.299  23.134  1.00  0.00    -0.493 OA
ATOM     18  C   UNL A   1      27.286  28.828  22.985  1.00  0.00     0.278 C 
ENDBRANCH  12  17
BRANCH  14  19
ATOM     19  O   UNL A   1      31.243  29.777  21.888  1.00  0.00    -0.502 OA
ATOM     20  H   UNL A   1      32.142  30.033  21.823  1.00  0.00     0.293 HD
ENDBRANCH  14  19
BRANCH  15  21
ATOM     21  O   UNL A   1      33.134  27.528  21.995  1.00  0.00    -0.493 OA
ATOM     22  C   UNL A   1      34.169  28.212  22.684  1.00  0.00     0.278 C 
ENDBRANCH  15  21
ENDBRANCH  10  11
ENDBRANCH   6   9
ENDBRANCH   4   5
ENDBRANCH   3   4
ENDBRANCH   2   3
ENDBRANCH   1   2
BRANCH   1  23
ATOM     23  C   UNL A   1      36.542  23.233  23.554  1.00  0.00     0.021 C 
BRANCH  23  24
ATOM     24  C   UNL A   1      37.097  23.534  24.943  1.00  0.00     0.116 C 
BRANCH  24  25
ATOM     25  N   UNL A   1      38.113  22.566  25.334  1.00  0.00    -0.352 N 
ATOM     26  C   UNL A   1      39.292  22.771  26.010  1.00  0.00     0.251 C 
ATOM     27  H   UNL A   1      37.929  21.634  25.078  1.00  0.00     0.163 HD
ATOM     28  O   UNL A   1      40.149  21.898  26.040  1.00  0.00    -0.269 OA
BRANCH  26  29
ATOM     29  C   UNL A   1      39.519  24.065  26.687  1.00  0.00     0.039 A 
ATOM     30  C   UNL A   1      38.938  24.293  27.936  1.00  0.00     0.014 A 
ATOM     31  C   UNL A   1      40.326  25.038  26.092  1.00  0.00     0.014 A 
ATOM     32  C   UNL A   1      39.234  25.470  28.627  1.00  0.00     0.010 A 
ATOM     33  C   UNL A   1      40.673  26.178  26.810  1.00  0.00     0.010 A 
ATOM     34  C   UNL A   1      40.140  26.399  28.089  1.00  0.00    -0.014 A 
BRANCH  34  35
ATOM     35  C   UNL A   1      40.587  27.585  28.862  1.00  0.00     0.031 A 
ATOM     36  C   UNL A   1      41.893  27.557  29.604  1.00  0.00     0.074 A 
ATOM     37  C   UNL A   1      39.767  28.649  28.971  1.00  0.00     0.049 A 
ATOM     38  N   UNL A   1      42.399  28.451  30.414  1.00  0.00    -0.248 NA
ATOM     39  C   UNL A   1      42.732  26.360  29.428  1.00  0.00     0.031 C 
ATOM     40  C   UNL A   1      38.460  28.782  28.320  1.00  0.00     0.029 A 
ATOM     41  N   UNL A   1      39.904  29.818  29.678  1.00  0.00    -0.354 N 
ATOM     42  C   UNL A   1      43.606  27.922  30.855  1.00  0.00     0.074 A 
ATOM     43  C   UNL A   1      43.736  26.610  30.257  1.00  0.00     0.031 C 
ATOM     44  C   UNL A   1      37.926  29.970  28.645  1.00  0.00     0.029 A 
ATOM     45  C   UNL A   1      38.823  30.661  29.567  1.00  0.00     0.049 A 
ATOM     46  H   UNL A   1      40.700  30.033  30.215  1.00  0.00     0.167 HD
ATOM     47  C   UNL A   1      44.529  28.484  31.672  1.00  0.00     0.031 A 
ATOM     48  C   UNL A   1      38.567  31.844  30.156  1.00  0.00     0.031 A 
ATOM     49  C   UNL A   1      44.389  29.787  32.267  1.00  0.00     0.049 A 
ATOM     50  C   UNL A   1      39.582  32.423  31.104  1.00  0.00     0.074 A 
ATOM     51  C   UNL A   1      45.290  30.467  33.066  1.00  0.00     0.029 A 
ATOM     52  N   UNL A   1      43.274  30.603  32.138  1.00  0.00    -0.354 N 
ATOM     53  N   UNL A   1      40.751  31.941  31.452  1.00  0.00    -0.248 NA
ATOM     54  C   UNL A   1      39.244  33.705  31.738  1.00  0.00     0.031 C 
ATOM     55  C   UNL A   1      44.693  31.664  33.476  1.00  0.00     0.029 A 
ATOM     56  C   UNL A   1      43.447  31.761  32.877  1.00  0.00     0.049 A 
ATOM     57  H   UNL A   1      42.477  30.390  31.600  1.00  0.00     0.167 HD
ATOM     58  C   UNL A   1      41.296  32.868  32.331  1.00  0.00     0.074 A 
ATOM     59  C   UNL A   1      40.339  33.949  32.447  1.00  0.00     0.031 C 
ATOM     60  C   UNL A   1      42.482  32.827  32.987  1.00  0.00     0.031 A 
BRANCH  47  61
ATOM     61  C   UNL A   1      45.766  27.683  31.986  1.00  0.00    -0.014 A 
ATOM     62  C   UNL A   1      46.923  27.792  31.194  1.00  0.00     0.010 A 
ATOM     63  C   UNL A   1      45.786  26.843  33.114  1.00  0.00     0.010 A 
ATOM     64  C   UNL A   1      48.064  27.043  31.500  1.00  0.00     0.020 A 
ATOM     65  C   UNL A   1      46.934  26.115  33.441  1.00  0.00     0.020 A 
ATOM     66  C   UNL A   1      48.061  26.208  32.621  1.00  0.00     0.054 A 
BRANCH  66  67
ATOM     67  S   UNL A   1      49.561  25.264  33.003  1.00  0.00     0.124 S 
ATOM     68  O   UNL A   1      49.036  24.195  33.849  1.00  0.00    -0.237 OA
ATOM     69  O   UNL A   1      50.022  24.847  31.681  1.00  0.00    -0.237 OA
ATOM     70  O   UNL A   1      50.419  26.231  33.682  1.00  0.00    -0.744 OA
ENDBRANCH  66  67
ENDBRANCH  47  61
BRANCH  48  71
ATOM     71  C   UNL A   1      37.289  32.555  29.874  1.00  0.00    -0.014 A 
ATOM     72  C   UNL A   1      36.177  32.385  30.717  1.00  0.00     0.010 A 
ATOM     73  C   UNL A   1      37.182  33.419  28.767  1.00  0.00     0.010 A 
ATOM     74  C   UNL A   1      34.979  33.056  30.453  1.00  0.00     0.020 A 
ATOM     75  C   UNL A   1      35.996  34.115  28.519  1.00  0.00     0.020 A 
ATOM     76  C   UNL A   1      34.898  33.920  29.358  1.00  0.00     0.054 A 
BRANCH  76  77
ATOM     77  S   UNL A   1      33.350  34.822  29.069  1.00  0.00     0.124 S 
ATOM     78  O   UNL A   1      32.789  34.901  30.415  1.00  0.00    -0.237 OA
ATOM     79  O   UNL A   1      33.822  36.083  28.504  1.00  0.00    -0.237 OA
ATOM     80  O   UNL A   1      32.623  33.963  28.136  1.00  0.00    -0.744 OA
ENDBRANCH  76  77
ENDBRANCH  48  71
BRANCH  60  81
ATOM     81  C   UNL A   1      42.826  33.987  33.882  1.00  0.00    -0.014 A 
ATOM     82  C   UNL A   1      42.574  33.934  35.265  1.00  0.00     0.010 A 
ATOM     83  C   UNL A   1      43.488  35.108  33.348  1.00  0.00     0.010 A 
ATOM     84  C   UNL A   1      42.970  34.987  36.094  1.00  0.00     0.020 A 
ATOM     85  C   UNL A   1      43.910  36.149  34.179  1.00  0.00     0.020 A 
ATOM     86  C   UNL A   1      43.642  36.083  35.547  1.00  0.00     0.054 A 
BRANCH  86  87
ATOM     87  S   UNL A   1      44.215  37.396  36.661  1.00  0.00     0.124 S 
ATOM     88  O   UNL A   1      44.370  38.525  35.748  1.00  0.00    -0.237 OA
ATOM     89  O   UNL A   1      43.115  37.506  37.615  1.00  0.00    -0.237 OA
ATOM     90  O   UNL A   1      45.460  36.866  37.214  1.00  0.00    -0.744 OA
ENDBRANCH  86  87
ENDBRANCH  60  81
ENDBRANCH  34  35
ENDBRANCH  26  29
ENDBRANCH  24  25
ENDBRANCH  23  24
ENDBRANCH   1  23
TORSDOF 20
ENDMDL
MODEL 2
REMARK VINA RESULT:     -10.0      3.134      8.549
REMARK SMILES COc1cc(/C=C/C(=O)NCCCCCCNC(=O)c2ccc(-c3c4nc(c(-c5ccc(S(=O)(=O)[O-])cc5)c5ccc([nH]5)c(-c5ccc(S(=O)(=O)[O-])cc5)c5nc(c(-c6ccc(S(=O)(=O)[O-])cc6)c6ccc3[nH]6)C=C5)C=C4)cc2)cc(OC)c1O
REMARK SMILES IDX 14 1 13 2 12 3 11 4 10 5 8 6 9 7 7 9 6 10 5 11 3 12 4 13
REMARK SMILES IDX 84 14 81 15 80 16 2 17 1 18 85 19 82 21 83 22 15 23 16 24
REMARK SMILES IDX 17 25 18 26 19 28 20 29 21 30 79 31 22 32 78 33 23 34 24 35
REMARK SMILES IDX 25 36 72 37 26 38 77 39 71 40 73 41 27 42 76 43 70 44 69 45
REMARK SMILES IDX 28 47 58 48 39 49 57 50 40 51 43 52 56 53 74 54 41 55 42 56
REMARK SMILES IDX 55 58 75 59 44 60 29 61 30 62 38 63 31 64 37 65 32 66 33 67
REMARK SMILES IDX 34 68 35 69 36 70 59 71 60 72 68 73 61 74 67 75 62 76 63 77
REMARK SMILES IDX 64 78 65 79 66 80 45 81 46 82 54 83 47 84 53 85 48 86 49 87
REMARK SMILES IDX 50 88 51 89 52 90
REMARK H PARENT 10 8 85 20 17 27 73 46 43 57
REMARK Flexibility Score: inf
ROOT
ATOM      1  C   UNL A   1      35.207  22.293  24.199  1.00  0.00     0.002 C 
ENDROOT
BRANCH   1   2
ATOM      2  C   UNL A   1      34.912  21.201  25.235  1.00  0.00     0.002 C 
BRANCH   2   3
ATOM      3  C   UNL A   1      33.689  21.469  26.123  1.00  0.00     0.021 C 
BRANCH   3   4
ATOM      4  C   UNL A   1      33.210  22.921  26.067  1.00  0.00     0.116 C 
BRANCH   4   5
ATOM      5  N   UNL A   1      31.899  23.034  26.679  1.00  0.00    -0.353 N 
ATOM      6  C   UNL A   1      30.876  23.898  26.466  1.00  0.00     0.243 C 
ATOM      7  O   UNL A   1      29.836  23.773  27.112  1.00  0.00    -0.270 OA
ATOM      8  H   UNL A   1      31.719  22.360  27.376  1.00  0.00     0.163 HD
BRANCH   6   9
ATOM      9  C   UNL A   1      30.937  24.928  25.403  1.00  0.00     0.072 C 
ATOM     10  C   UNL A   1      30.407  26.159  25.460  1.00  0.00     0.014 C 
BRANCH  10  11
ATOM     11  C   UNL A   1      30.499  27.138  24.366  1.00  0.00    -0.018 A 
ATOM     12  C   UNL A   1      29.474  28.592  22.694  1.00  0.00     0.165 A 
ATOM     13  C   UNL A   1      29.375  27.596  23.677  1.00  0.00     0.058 A 
ATOM     14  C   UNL A   1      30.732  29.148  22.407  1.00  0.00     0.200 A 
ATOM     15  C   UNL A   1      31.877  28.689  23.074  1.00  0.00     0.165 A 
ATOM     16  C   UNL A   1      31.744  27.687  24.047  1.00  0.00     0.058 A 
BRANCH  12  17
ATOM     17  O   UNL A   1      28.253  28.912  22.161  1.00  0.00    -0.493 OA
ATOM     18  C   UNL A   1      27.607  30.107  22.568  1.00  0.00     0.278 C 
ENDBRANCH  12  17
BRANCH  14  19
ATOM     19  O   UNL A   1      30.833  30.190  21.527  1.00  0.00    -0.502 OA
ATOM     20  H   UNL A   1      31.442  30.144  20.817  1.00  0.00     0.293 HD
ENDBRANCH  14  19
BRANCH  15  21
ATOM     21  O   UNL A   1      33.173  29.114  22.946  1.00  0.00    -0.493 OA
ATOM     22  C   UNL A   1      34.107  28.298  22.256  1.00  0.00     0.278 C 
ENDBRANCH  15  21
ENDBRANCH  10  11
ENDBRANCH   6   9
ENDBRANCH   4   5
ENDBRANCH   3   4
ENDBRANCH   2   3
ENDBRANCH   1   2
BRANCH   1  23
ATOM     23  C   UNL A   1      36.548  23.008  24.384  1.00  0.00     0.021 C 
BRANCH  23  24
ATOM     24  C   UNL A   1      37.104  22.931  25.802  1.00  0.00     0.116 C 
BRANCH  24  25
ATOM     25  N   UNL A   1      38.123  21.897  25.921  1.00  0.00    -0.352 N 
ATOM     26  C   UNL A   1      39.453  22.023  26.248  1.00  0.00     0.251 C 
ATOM     27  H   UNL A   1      37.817  20.979  25.742  1.00  0.00     0.163 HD
ATOM     28  O   UNL A   1      40.227  21.094  26.061  1.00  0.00    -0.269 OA
BRANCH  26  29
ATOM     29  C   UNL A   1      39.938  23.299  26.814  1.00  0.00     0.039 A 
ATOM     30  C   UNL A   1      40.611  23.292  28.036  1.00  0.00     0.014 A 
ATOM     31  C   UNL A   1      39.743  24.496  26.118  1.00  0.00     0.014 A 
ATOM     32  C   UNL A   1      41.164  24.478  28.523  1.00  0.00     0.010 A 
ATOM     33  C   UNL A   1      40.351  25.662  26.572  1.00  0.00     0.010 A 
ATOM     34  C   UNL A   1      41.077  25.662  27.772  1.00  0.00    -0.014 A 
BRANCH  34  35
ATOM     35  C   UNL A   1      41.779  26.901  28.192  1.00  0.00     0.031 A 
ATOM     36  C   UNL A   1      40.996  28.075  28.708  1.00  0.00     0.074 A 
ATOM     37  C   UNL A   1      43.112  26.997  28.017  1.00  0.00     0.049 A 
ATOM     38  N   UNL A   1      41.419  29.273  29.022  1.00  0.00    -0.248 NA
ATOM     39  C   UNL A   1      39.546  27.886  28.875  1.00  0.00     0.031 C 
ATOM     40  C   UNL A   1      43.977  25.934  27.497  1.00  0.00     0.029 A 
ATOM     41  N   UNL A   1      43.972  28.043  28.244  1.00  0.00    -0.354 N 
ATOM     42  C   UNL A   1      40.290  29.984  29.409  1.00  0.00     0.074 A 
ATOM     43  C   UNL A   1      39.157  29.097  29.250  1.00  0.00     0.031 C 
ATOM     44  C   UNL A   1      45.243  26.377  27.463  1.00  0.00     0.029 A 
ATOM     45  C   UNL A   1      45.276  27.768  27.904  1.00  0.00     0.049 A 
ATOM     46  H   UNL A   1      43.684  28.908  28.615  1.00  0.00     0.167 HD
ATOM     47  C   UNL A   1      40.207  31.255  29.871  1.00  0.00     0.031 A 
ATOM     48  C   UNL A   1      46.373  28.549  27.923  1.00  0.00     0.031 A 
ATOM     49  C   UNL A   1      41.339  32.131  30.021  1.00  0.00     0.049 A 
ATOM     50  C   UNL A   1      46.246  29.975  28.386  1.00  0.00     0.074 A 
ATOM     51  C   UNL A   1      41.366  33.418  30.529  1.00  0.00     0.029 A 
ATOM     52  N   UNL A   1      42.640  31.818  29.656  1.00  0.00    -0.354 N 
ATOM     53  N   UNL A   1      45.181  30.608  28.818  1.00  0.00    -0.248 NA
ATOM     54  C   UNL A   1      47.467  30.793  28.364  1.00  0.00     0.031 C 
ATOM     55  C   UNL A   1      42.671  33.907  30.407  1.00  0.00     0.029 A 
ATOM     56  C   UNL A   1      43.470  32.901  29.887  1.00  0.00     0.049 A 
ATOM     57  H   UNL A   1      42.930  30.953  29.286  1.00  0.00     0.167 HD
ATOM     58  C   UNL A   1      45.607  31.891  29.137  1.00  0.00     0.074 A 
ATOM     59  C   UNL A   1      47.029  31.940  28.867  1.00  0.00     0.031 C 
ATOM     60  C   UNL A   1      44.884  32.937  29.608  1.00  0.00     0.031 A 
BRANCH  47  61
ATOM     61  C   UNL A   1      38.841  31.780  30.230  1.00  0.00    -0.014 A 
ATOM     62  C   UNL A   1      38.295  31.574  31.509  1.00  0.00     0.010 A 
ATOM     63  C   UNL A   1      38.111  32.529  29.288  1.00  0.00     0.010 A 
ATOM     64  C   UNL A   1      37.028  32.071  31.827  1.00  0.00     0.020 A 
ATOM     65  C   UNL A   1      36.856  33.053  29.612  1.00  0.00     0.020 A 
ATOM     66  C   UNL A   1      36.315  32.805  30.875  1.00  0.00     0.054 A 
BRANCH  66  67
ATOM     67  S   UNL A   1      34.682  33.452  31.323  1.00  0.00     0.124 S 
ATOM     68  O   UNL A   1      35.018  34.760  31.879  1.00  0.00    -0.237 OA
ATOM     69  O   UNL A   1      33.985  33.476  30.039  1.00  0.00    -0.237 OA
ATOM     70  O   UNL A   1      34.173  32.479  32.286  1.00  0.00    -0.744 OA
ENDBRANCH  66  67
ENDBRANCH  47  61
BRANCH  48  71
ATOM     71  C   UNL A   1      47.684  28.002  27.478  1.00  0.00    -0.014 A 
ATOM     72  C   UNL A   1      48.562  27.411  28.404  1.00  0.00     0.010 A 
ATOM     73  C   UNL A   1      48.056  28.053  26.121  1.00  0.00     0.010 A 
ATOM     74  C   UNL A   1      49.791  26.894  27.984  1.00  0.00     0.020 A 
ATOM     75  C   UNL A   1      49.270  27.508  25.693  1.00  0.00     0.020 A 
ATOM     76  C   UNL A   1      50.135  26.942  26.630  1.00  0.00     0.054 A 
BRANCH  76  77
ATOM     77  S   UNL A   1      51.711  26.214  26.103  1.00  0.00     0.124 S 
ATOM     78  O   UNL A   1      51.576  24.834  26.560  1.00  0.00    -0.237 OA
ATOM     79  O   UNL A   1      51.677  26.408  24.655  1.00  0.00    -0.237 OA
ATOM     80  O   UNL A   1      52.710  27.014  26.808  1.00  0.00    -0.744 OA
ENDBRANCH  76  77
ENDBRANCH  48  71
BRANCH  60  81
ATOM     81  C   UNL A   1      45.614  34.226  29.877  1.00  0.00    -0.014 A 
ATOM     82  C   UNL A   1      45.663  35.246  28.911  1.00  0.00     0.010 A 
ATOM     83  C   UNL A   1      46.185  34.453  31.143  1.00  0.00     0.010 A 
ATOM     84  C   UNL A   1      46.278  36.466  29.203  1.00  0.00     0.020 A 
ATOM     85  C   UNL A   1      46.774  35.682  31.449  1.00  0.00     0.020 A 
ATOM     86  C   UNL A   1      46.821  36.679  30.473  1.00  0.00     0.054 A 
BRANCH  86  87
ATOM     87  S   UNL A   1      47.541  38.302  30.849  1.00  0.00     0.124 S 
ATOM     88  O   UNL A   1      48.458  37.984  31.940  1.00  0.00    -0.237 OA
ATOM     89  O   UNL A   1      48.171  38.672  29.585  1.00  0.00    -0.237 OA
ATOM     90  O   UNL A   1      46.386  39.116  31.224  1.00  0.00    -0.744 OA
ENDBRANCH  86  87
ENDBRANCH  60  81
ENDBRANCH  34  35
ENDBRANCH  26  29
ENDBRANCH  24  25
ENDBRANCH  23  24
ENDBRANCH   1  23
TORSDOF 20
ENDMDL
MODEL 3
REMARK VINA RESULT:      -9.8      3.910      9.517
REMARK SMILES COc1cc(/C=C/C(=O)NCCCCCCNC(=O)c2ccc(-c3c4nc(c(-c5ccc(S(=O)(=O)[O-])cc5)c5ccc([nH]5)c(-c5ccc(S(=O)(=O)[O-])cc5)c5nc(c(-c6ccc(S(=O)(=O)[O-])cc6)c6ccc3[nH]6)C=C5)C=C4)cc2)cc(OC)c1O
REMARK SMILES IDX 14 1 13 2 12 3 11 4 10 5 8 6 9 7 7 9 6 10 5 11 3 12 4 13
REMARK SMILES IDX 84 14 81 15 80 16 2 17 1 18 85 19 82 21 83 22 15 23 16 24
REMARK SMILES IDX 17 25 18 26 19 28 20 29 21 30 79 31 22 32 78 33 23 34 24 35
REMARK SMILES IDX 25 36 72 37 26 38 77 39 71 40 73 41 27 42 76 43 70 44 69 45
REMARK SMILES IDX 28 47 58 48 39 49 57 50 40 51 43 52 56 53 74 54 41 55 42 56
REMARK SMILES IDX 55 58 75 59 44 60 29 61 30 62 38 63 31 64 37 65 32 66 33 67
REMARK SMILES IDX 34 68 35 69 36 70 59 71 60 72 68 73 61 74 67 75 62 76 63 77
REMARK SMILES IDX 64 78 65 79 66 80 45 81 46 82 54 83 47 84 53 85 48 86 49 87
REMARK SMILES IDX 50 88 51 89 52 90
REMARK H PARENT 10 8 85 20 17 27 73 46 43 57
REMARK Flexibility Score: inf
ROOT
ATOM      1  C   UNL A   1      35.018  32.605  29.201  1.00  0.00     0.002 C 
ENDROOT
BRANCH   1   2
ATOM      2  C   UNL A   1      35.657  31.768  28.086  1.00  0.00     0.002 C 
BRANCH   2   3
ATOM      3  C   UNL A   1      35.052  30.368  27.905  1.00  0.00     0.021 C 
BRANCH   3   4
ATOM      4  C   UNL A   1      33.844  30.350  26.966  1.00  0.00     0.116 C 
BRANCH   4   5
ATOM      5  N   UNL A   1      32.768  29.577  27.558  1.00  0.00    -0.353 N 
ATOM      6  C   UNL A   1      32.355  28.302  27.352  1.00  0.00     0.243 C 
ATOM      7  O   UNL A   1      31.411  27.862  28.007  1.00  0.00    -0.270 OA
ATOM      8  H   UNL A   1      32.243  30.067  28.232  1.00  0.00     0.163 HD
BRANCH   6   9
ATOM      9  C   UNL A   1      33.074  27.391  26.433  1.00  0.00     0.072 C 
ATOM     10  C   UNL A   1      32.781  26.102  26.203  1.00  0.00     0.014 C 
BRANCH  10  11
ATOM     11  C   UNL A   1      33.538  25.246  25.278  1.00  0.00    -0.018 A 
ATOM     12  C   UNL A   1      34.073  24.463  23.028  1.00  0.00     0.165 A 
ATOM     13  C   UNL A   1      33.285  25.223  23.905  1.00  0.00     0.058 A 
ATOM     14  C   UNL A   1      35.149  23.721  23.542  1.00  0.00     0.200 A 
ATOM     15  C   UNL A   1      35.410  23.715  24.920  1.00  0.00     0.165 A 
ATOM     16  C   UNL A   1      34.598  24.481  25.771  1.00  0.00     0.058 A 
BRANCH  12  17
ATOM     17  O   UNL A   1      33.671  24.600  21.725  1.00  0.00    -0.493 OA
ATOM     18  C   UNL A   1      32.673  25.553  21.399  1.00  0.00     0.278 C 
ENDBRANCH  12  17
BRANCH  14  19
ATOM     19  O   UNL A   1      35.989  23.057  22.691  1.00  0.00    -0.502 OA
ATOM     20  H   UNL A   1      36.351  22.231  22.942  1.00  0.00     0.293 HD
ENDBRANCH  14  19
BRANCH  15  21
ATOM     21  O   UNL A   1      36.411  23.075  25.601  1.00  0.00    -0.493 OA
ATOM     22  C   UNL A   1      37.581  23.794  25.956  1.00  0.00     0.278 C 
ENDBRANCH  15  21
ENDBRANCH  10  11
ENDBRANCH   6   9
ENDBRANCH   4   5
ENDBRANCH   3   4
ENDBRANCH   2   3
ENDBRANCH   1   2
BRANCH   1  23
ATOM     23  C   UNL A   1      33.917  33.562  28.735  1.00  0.00     0.021 C 
BRANCH  23  24
ATOM     24  C   UNL A   1      34.146  35.016  29.138  1.00  0.00     0.116 C 
BRANCH  24  25
ATOM     25  N   UNL A   1      33.174  35.455  30.129  1.00  0.00    -0.352 N 
ATOM     26  C   UNL A   1      33.125  35.186  31.476  1.00  0.00     0.251 C 
ATOM     27  H   UNL A   1      32.450  36.027  29.785  1.00  0.00     0.163 HD
ATOM     28  O   UNL A   1      32.111  35.422  32.118  1.00  0.00    -0.269 OA
BRANCH  26  29
ATOM     29  C   UNL A   1      34.307  34.592  32.135  1.00  0.00     0.039 A 
ATOM     30  C   UNL A   1      34.231  33.289  32.629  1.00  0.00     0.014 A 
ATOM     31  C   UNL A   1      35.494  35.322  32.239  1.00  0.00     0.014 A 
ATOM     32  C   UNL A   1      35.375  32.686  33.156  1.00  0.00     0.010 A 
ATOM     33  C   UNL A   1      36.647  34.698  32.703  1.00  0.00     0.010 A 
ATOM     34  C   UNL A   1      36.602  33.370  33.154  1.00  0.00    -0.014 A 
BRANCH  34  35
ATOM     35  C   UNL A   1      37.862  32.705  33.572  1.00  0.00     0.031 A 
ATOM     36  C   UNL A   1      38.438  32.964  34.936  1.00  0.00     0.074 A 
ATOM     37  C   UNL A   1      38.533  31.944  32.685  1.00  0.00     0.049 A 
ATOM     38  N   UNL A   1      39.576  32.560  35.439  1.00  0.00    -0.248 NA
ATOM     39  C   UNL A   1      37.640  33.802  35.846  1.00  0.00     0.031 C 
ATOM     40  C   UNL A   1      38.089  31.643  31.321  1.00  0.00     0.029 A 
ATOM     41  N   UNL A   1      39.738  31.295  32.791  1.00  0.00    -0.354 N 
ATOM     42  C   UNL A   1      39.639  33.104  36.716  1.00  0.00     0.074 A 
ATOM     43  C   UNL A   1      38.445  33.902  36.895  1.00  0.00     0.031 C 
ATOM     44  C   UNL A   1      38.999  30.856  30.727  1.00  0.00     0.029 A 
ATOM     45  C   UNL A   1      40.115  30.640  31.642  1.00  0.00     0.049 A 
ATOM     46  H   UNL A   1      40.282  31.299  33.612  1.00  0.00     0.167 HD
ATOM     47  C   UNL A   1      40.598  32.940  37.659  1.00  0.00     0.031 A 
ATOM     48  C   UNL A   1      41.240  29.960  31.348  1.00  0.00     0.031 A 
ATOM     49  C   UNL A   1      41.785  32.149  37.470  1.00  0.00     0.049 A 
ATOM     50  C   UNL A   1      42.316  29.839  32.392  1.00  0.00     0.074 A 
ATOM     51  C   UNL A   1      42.791  31.879  38.381  1.00  0.00     0.029 A 
ATOM     52  N   UNL A   1      42.134  31.511  36.289  1.00  0.00    -0.354 N 
ATOM     53  N   UNL A   1      42.324  30.299  33.621  1.00  0.00    -0.248 NA
ATOM     54  C   UNL A   1      43.533  29.109  32.011  1.00  0.00     0.031 C 
ATOM     55  C   UNL A   1      43.780  31.134  37.731  1.00  0.00     0.029 A 
ATOM     56  C   UNL A   1      43.359  30.883  36.434  1.00  0.00     0.049 A 
ATOM     57  H   UNL A   1      41.591  31.506  35.468  1.00  0.00     0.167 HD
ATOM     58  C   UNL A   1      43.538  29.898  34.165  1.00  0.00     0.074 A 
ATOM     59  C   UNL A   1      44.228  29.142  33.141  1.00  0.00     0.031 C 
ATOM     60  C   UNL A   1      44.038  30.138  35.403  1.00  0.00     0.031 A 
BRANCH  47  61
ATOM     61  C   UNL A   1      40.410  33.646  38.977  1.00  0.00    -0.014 A 
ATOM     62  C   UNL A   1      39.646  33.072  40.008  1.00  0.00     0.010 A 
ATOM     63  C   UNL A   1      41.043  34.883  39.203  1.00  0.00     0.010 A 
ATOM     64  C   UNL A   1      39.484  33.739  41.226  1.00  0.00     0.020 A 
ATOM     65  C   UNL A   1      40.908  35.540  40.429  1.00  0.00     0.020 A 
ATOM     66  C   UNL A   1      40.115  34.971  41.428  1.00  0.00     0.054 A 
BRANCH  66  67
ATOM     67  S   UNL A   1      39.900  35.803  43.024  1.00  0.00     0.124 S 
ATOM     68  O   UNL A   1      38.463  35.661  43.246  1.00  0.00    -0.237 OA
ATOM     69  O   UNL A   1      40.753  35.017  43.912  1.00  0.00    -0.237 OA
ATOM     70  O   UNL A   1      40.359  37.167  42.770  1.00  0.00    -0.744 OA
ENDBRANCH  66  67
ENDBRANCH  47  61
BRANCH  48  71
ATOM     71  C   UNL A   1      41.408  29.351  29.999  1.00  0.00    -0.014 A 
ATOM     72  C   UNL A   1      42.082  30.049  28.981  1.00  0.00     0.010 A 
ATOM     73  C   UNL A   1      40.910  28.062  29.730  1.00  0.00     0.010 A 
ATOM     74  C   UNL A   1      42.243  29.474  27.717  1.00  0.00     0.020 A 
ATOM     75  C   UNL A   1      41.097  27.473  28.476  1.00  0.00     0.020 A 
ATOM     76  C   UNL A   1      41.754  28.188  27.474  1.00  0.00     0.054 A 
BRANCH  76  77
ATOM     77  S   UNL A   1      42.025  27.443  25.841  1.00  0.00     0.124 S 
ATOM     78  O   UNL A   1      43.317  26.787  26.018  1.00  0.00    -0.237 OA
ATOM     79  O   UNL A   1      40.875  26.552  25.709  1.00  0.00    -0.237 OA
ATOM     80  O   UNL A   1      42.022  28.592  24.937  1.00  0.00    -0.744 OA
ENDBRANCH  76  77
ENDBRANCH  48  71
BRANCH  60  81
ATOM     81  C   UNL A   1      45.392  29.569  35.732  1.00  0.00    -0.014 A 
ATOM     82  C   UNL A   1      45.525  28.268  36.249  1.00  0.00     0.010 A 
ATOM     83  C   UNL A   1      46.550  30.313  35.440  1.00  0.00     0.010 A 
ATOM     84  C   UNL A   1      46.793  27.726  36.477  1.00  0.00     0.020 A 
ATOM     85  C   UNL A   1      47.819  29.762  35.639  1.00  0.00     0.020 A 
ATOM     86  C   UNL A   1      47.931  28.473  36.162  1.00  0.00     0.054 A 
BRANCH  86  87
ATOM     87  S   UNL A   1      49.562  27.712  36.393  1.00  0.00     0.124 S 
ATOM     88  O   UNL A   1      49.941  28.199  37.717  1.00  0.00    -0.237 OA
ATOM     89  O   UNL A   1      49.261  26.285  36.310  1.00  0.00    -0.237 OA
ATOM     90  O   UNL A   1      50.353  28.241  35.284  1.00  0.00    -0.744 OA
ENDBRANCH  86  87
ENDBRANCH  60  81
ENDBRANCH  34  35
ENDBRANCH  26  29
ENDBRANCH  24  25
ENDBRANCH  23  24
ENDBRANCH   1  23
TORSDOF 20
ENDMDL
