MODEL 1
REMARK VINA RESULT:     -12.2      0.000      0.000
REMARK SMILES CC(=O)Nc1ccc(/C=C2/CCc3oc(C(=O)NCCCCCCNC(=O)c4ccc(-c5c6nc(c(-c7ccc(S(=O)(=O)[O-])cc7)c7ccc([nH]7)c(-c7ccc(S(=O)(=O)[O-])cc7)c7nc(c(-c8ccc(S(=O)(=O)[O-])cc8)c8ccc5[nH]8)C=C7)C=C6)cc4)c(C)c3C2=O)cc1
REMARK SMILES IDX 22 1 21 2 20 3 19 4 18 5 16 6 17 7 15 9 9 10 10 11 11 12
REMARK SMILES IDX 91 13 12 14 90 15 92 16 13 17 88 18 14 19 89 20 8 21 5 22
REMARK SMILES IDX 6 23 94 24 7 25 93 26 4 27 1 28 2 29 3 30 23 32 24 33 25 34
REMARK SMILES IDX 26 35 27 37 28 38 29 39 87 40 30 41 86 42 31 43 32 44 33 45
REMARK SMILES IDX 80 46 34 47 85 48 79 49 81 50 35 51 84 52 78 53 77 54 36 56
REMARK SMILES IDX 66 57 47 58 65 59 48 60 51 61 64 62 82 63 49 64 50 65 63 67
REMARK SMILES IDX 83 68 52 69 37 70 38 71 46 72 39 73 45 74 40 75 41 76 42 77
REMARK SMILES IDX 43 78 44 79 67 80 68 81 76 82 69 83 75 84 70 85 71 86 72 87
REMARK SMILES IDX 73 88 74 89 53 90 54 91 62 92 55 93 61 94 56 95 57 96 58 97
REMARK SMILES IDX 59 98 60 99
REMARK H PARENT 18 8 4 31 25 36 81 55 51 66
REMARK Flexibility Score: inf
ROOT
ATOM      1  C   UNL A   1      35.985  21.559  24.662  1.00  0.00     0.002 C 
ENDROOT
BRANCH   1   2
ATOM      2  C   UNL A   1      34.915  20.515  25.028  1.00  0.00     0.002 C 
BRANCH   2   3
ATOM      3  C   UNL A   1      33.932  20.908  26.131  1.00  0.00     0.021 C 
BRANCH   3   4
ATOM      4  C   UNL A   1      32.574  21.403  25.643  1.00  0.00     0.116 C 
BRANCH   4   5
ATOM      5  N   UNL A   1      32.334  21.099  24.242  1.00  0.00    -0.349 N 
ATOM      6  C   UNL A   1      32.021  21.906  23.167  1.00  0.00     0.287 C 
ATOM      7  O   UNL A   1      31.921  21.332  22.079  1.00  0.00    -0.266 OA
ATOM      8  H   UNL A   1      32.408  20.143  24.019  1.00  0.00     0.163 HD
BRANCH   6   9
ATOM      9  C   UNL A   1      31.827  23.340  23.324  1.00  0.00     0.195 A 
ATOM     10  C   UNL A   1      31.357  28.633  25.169  1.00  0.00     0.016 C 
ATOM     11  C   UNL A   1      31.154  27.789  24.137  1.00  0.00     0.001 C 
ATOM     12  C   UNL A   1      29.749  27.425  23.665  1.00  0.00     0.048 C 
ATOM     13  C   UNL A   1      32.236  27.012  23.425  1.00  0.00     0.192 C 
ATOM     14  C   UNL A   1      29.437  25.945  23.964  1.00  0.00     0.081 C 
ATOM     15  C   UNL A   1      31.927  25.593  23.432  1.00  0.00     0.067 A 
ATOM     16  O   UNL A   1      33.216  27.507  22.913  1.00  0.00    -0.289 OA
ATOM     17  C   UNL A   1      30.654  25.152  23.683  1.00  0.00     0.116 A 
ATOM     18  C   UNL A   1      32.713  24.418  23.220  1.00  0.00     0.012 A 
ATOM     19  O   UNL A   1      30.590  23.815  23.666  1.00  0.00    -0.455 OA
ATOM     20  C   UNL A   1      34.175  24.392  22.953  1.00  0.00     0.049 C 
BRANCH  10  21
ATOM     21  C   UNL A   1      32.570  29.011  25.927  1.00  0.00    -0.025 A 
ATOM     22  C   UNL A   1      34.782  29.895  27.472  1.00  0.00     0.041 A 
ATOM     23  C   UNL A   1      34.691  28.574  27.052  1.00  0.00     0.027 A 
ATOM     24  C   UNL A   1      33.789  30.792  27.089  1.00  0.00     0.027 A 
ATOM     25  C   UNL A   1      33.580  28.134  26.327  1.00  0.00     0.010 A 
ATOM     26  C   UNL A   1      32.702  30.355  26.317  1.00  0.00     0.010 A 
BRANCH  22  27
ATOM     27  N   UNL A   1      35.909  30.247  28.227  1.00  0.00    -0.326 N 
ATOM     28  C   UNL A   1      37.680  29.627  26.605  1.00  0.00     0.114 C 
ATOM     29  C   UNL A   1      37.236  30.050  27.979  1.00  0.00     0.221 C 
ATOM     30  O   UNL A   1      38.060  30.306  28.860  1.00  0.00    -0.275 OA
ATOM     31  H   UNL A   1      35.710  30.712  29.072  1.00  0.00     0.169 HD
ENDBRANCH  22  27
ENDBRANCH  10  21
ENDBRANCH   6   9
ENDBRANCH   4   5
ENDBRANCH   3   4
ENDBRANCH   2   3
ENDBRANCH   1   2
BRANCH   1  32
ATOM     32  C   UNL A   1      36.200  22.724  25.641  1.00  0.00     0.021 C 
BRANCH  32  33
ATOM     33  C   UNL A   1      37.594  23.320  25.595  1.00  0.00     0.116 C 
BRANCH  33  34
ATOM     34  N   UNL A   1      38.638  22.414  26.096  1.00  0.00    -0.352 N 
ATOM     35  C   UNL A   1      39.855  22.744  26.682  1.00  0.00     0.251 C 
ATOM     36  H   UNL A   1      38.452  21.452  26.005  1.00  0.00     0.163 HD
ATOM     37  O   UNL A   1      40.772  21.935  26.742  1.00  0.00    -0.269 OA
BRANCH  35  38
ATOM     38  C   UNL A   1      40.002  24.098  27.245  1.00  0.00     0.039 A 
ATOM     39  C   UNL A   1      38.977  25.049  27.295  1.00  0.00     0.014 A 
ATOM     40  C   UNL A   1      41.239  24.373  27.799  1.00  0.00     0.014 A 
ATOM     41  C   UNL A   1      39.215  26.249  27.969  1.00  0.00     0.010 A 
ATOM     42  C   UNL A   1      41.346  25.367  28.718  1.00  0.00     0.010 A 
ATOM     43  C   UNL A   1      40.414  26.390  28.679  1.00  0.00    -0.014 A 
BRANCH  43  44
ATOM     44  C   UNL A   1      40.820  27.596  29.379  1.00  0.00     0.031 A 
ATOM     45  C   UNL A   1      41.849  28.431  28.719  1.00  0.00     0.074 A 
ATOM     46  C   UNL A   1      40.056  28.080  30.387  1.00  0.00     0.049 A 
ATOM     47  N   UNL A   1      43.034  28.697  29.152  1.00  0.00    -0.248 NA
ATOM     48  C   UNL A   1      41.570  28.964  27.378  1.00  0.00     0.031 C 
ATOM     49  C   UNL A   1      38.798  27.537  30.934  1.00  0.00     0.029 A 
ATOM     50  N   UNL A   1      40.157  29.270  31.023  1.00  0.00    -0.354 N 
ATOM     51  C   UNL A   1      43.594  29.580  28.238  1.00  0.00     0.074 A 
ATOM     52  C   UNL A   1      42.722  29.573  27.089  1.00  0.00     0.031 C 
ATOM     53  C   UNL A   1      38.140  28.504  31.606  1.00  0.00     0.029 A 
ATOM     54  C   UNL A   1      39.010  29.660  31.704  1.00  0.00     0.049 A 
ATOM     55  H   UNL A   1      40.976  29.817  31.005  1.00  0.00     0.167 HD
ATOM     56  C   UNL A   1      44.620  30.411  28.578  1.00  0.00     0.031 A 
ATOM     57  C   UNL A   1      38.781  30.864  32.279  1.00  0.00     0.031 A 
ATOM     58  C   UNL A   1      45.150  30.098  29.881  1.00  0.00     0.049 A 
ATOM     59  C   UNL A   1      40.115  31.474  32.516  1.00  0.00     0.074 A 
ATOM     60  C   UNL A   1      45.757  28.989  30.438  1.00  0.00     0.029 A 
ATOM     61  N   UNL A   1      44.691  30.849  30.942  1.00  0.00    -0.354 N 
ATOM     62  N   UNL A   1      40.997  30.949  33.326  1.00  0.00    -0.248 NA
ATOM     63  C   UNL A   1      40.664  32.360  31.500  1.00  0.00     0.031 C 
ATOM     64  C   UNL A   1      45.194  28.885  31.746  1.00  0.00     0.029 A 
ATOM     65  C   UNL A   1      44.335  29.972  31.938  1.00  0.00     0.049 A 
ATOM     66  H   UNL A   1      44.629  31.831  30.979  1.00  0.00     0.167 HD
ATOM     67  C   UNL A   1      42.213  31.074  32.665  1.00  0.00     0.074 A 
ATOM     68  C   UNL A   1      41.963  32.049  31.602  1.00  0.00     0.031 C 
ATOM     69  C   UNL A   1      43.223  30.169  32.850  1.00  0.00     0.031 A 
BRANCH  56  70
ATOM     70  C   UNL A   1      44.922  31.718  27.898  1.00  0.00    -0.014 A 
ATOM     71  C   UNL A   1      46.230  31.957  27.428  1.00  0.00     0.010 A 
ATOM     72  C   UNL A   1      44.039  32.816  27.929  1.00  0.00     0.010 A 
ATOM     73  C   UNL A   1      46.650  33.245  27.071  1.00  0.00     0.020 A 
ATOM     74  C   UNL A   1      44.434  34.096  27.534  1.00  0.00     0.020 A 
ATOM     75  C   UNL A   1      45.750  34.309  27.144  1.00  0.00     0.054 A 
BRANCH  75  76
ATOM     76  S   UNL A   1      46.336  35.989  26.813  1.00  0.00     0.124 S 
ATOM     77  O   UNL A   1      46.911  35.847  25.478  1.00  0.00    -0.237 OA
ATOM     78  O   UNL A   1      45.106  36.770  26.895  1.00  0.00    -0.237 OA
ATOM     79  O   UNL A   1      47.298  36.233  27.885  1.00  0.00    -0.744 OA
ENDBRANCH  75  76
ENDBRANCH  56  70
BRANCH  57  80
ATOM     80  C   UNL A   1      37.494  31.601  32.323  1.00  0.00    -0.014 A 
ATOM     81  C   UNL A   1      36.890  31.965  33.539  1.00  0.00     0.010 A 
ATOM     82  C   UNL A   1      36.975  32.173  31.140  1.00  0.00     0.010 A 
ATOM     83  C   UNL A   1      35.847  32.909  33.574  1.00  0.00     0.020 A 
ATOM     84  C   UNL A   1      35.934  33.108  31.165  1.00  0.00     0.020 A 
ATOM     85  C   UNL A   1      35.390  33.491  32.387  1.00  0.00     0.054 A 
BRANCH  85  86
ATOM     86  S   UNL A   1      34.175  34.844  32.452  1.00  0.00     0.124 S 
ATOM     87  O   UNL A   1      34.080  35.244  31.053  1.00  0.00    -0.237 OA
ATOM     88  O   UNL A   1      32.996  34.184  33.004  1.00  0.00    -0.237 OA
ATOM     89  O   UNL A   1      34.803  35.823  33.339  1.00  0.00    -0.744 OA
ENDBRANCH  85  86
ENDBRANCH  57  80
BRANCH  69  90
ATOM     90  C   UNL A   1      43.049  29.111  33.925  1.00  0.00    -0.014 A 
ATOM     91  C   UNL A   1      43.385  29.329  35.278  1.00  0.00     0.010 A 
ATOM     92  C   UNL A   1      42.357  27.932  33.601  1.00  0.00     0.010 A 
ATOM     93  C   UNL A   1      43.060  28.393  36.271  1.00  0.00     0.020 A 
ATOM     94  C   UNL A   1      42.015  26.999  34.589  1.00  0.00     0.020 A 
ATOM     95  C   UNL A   1      42.373  27.231  35.918  1.00  0.00     0.054 A 
BRANCH  95  96
ATOM     96  S   UNL A   1      41.903  26.050  37.214  1.00  0.00     0.124 S 
ATOM     97  O   UNL A   1      42.969  26.219  38.199  1.00  0.00    -0.237 OA
ATOM     98  O   UNL A   1      40.585  26.524  37.627  1.00  0.00    -0.237 OA
ATOM     99  O   UNL A   1      41.899  24.760  36.525  1.00  0.00    -0.744 OA
ENDBRANCH  95  96
ENDBRANCH  69  90
ENDBRANCH  43  44
ENDBRANCH  35  38
ENDBRANCH  33  34
ENDBRANCH  32  33
ENDBRANCH   1  32
TORSDOF 18
ENDMDL
MODEL 2
REMARK VINA RESULT:     -11.5      2.472      9.515
REMARK SMILES CC(=O)Nc1ccc(/C=C2/CCc3oc(C(=O)NCCCCCCNC(=O)c4ccc(-c5c6nc(c(-c7ccc(S(=O)(=O)[O-])cc7)c7ccc([nH]7)c(-c7ccc(S(=O)(=O)[O-])cc7)c7nc(c(-c8ccc(S(=O)(=O)[O-])cc8)c8ccc5[nH]8)C=C7)C=C6)cc4)c(C)c3C2=O)cc1
REMARK SMILES IDX 22 1 21 2 20 3 19 4 18 5 16 6 17 7 15 9 9 10 10 11 11 12
REMARK SMILES IDX 91 13 12 14 90 15 92 16 13 17 88 18 14 19 89 20 8 21 5 22
REMARK SMILES IDX 6 23 94 24 7 25 93 26 4 27 1 28 2 29 3 30 23 32 24 33 25 34
REMARK SMILES IDX 26 35 27 37 28 38 29 39 87 40 30 41 86 42 31 43 32 44 33 45
REMARK SMILES IDX 80 46 34 47 85 48 79 49 81 50 35 51 84 52 78 53 77 54 36 56
REMARK SMILES IDX 66 57 47 58 65 59 48 60 51 61 64 62 82 63 49 64 50 65 63 67
REMARK SMILES IDX 83 68 52 69 37 70 38 71 46 72 39 73 45 74 40 75 41 76 42 77
REMARK SMILES IDX 43 78 44 79 67 80 68 81 76 82 69 83 75 84 70 85 71 86 72 87
REMARK SMILES IDX 73 88 74 89 53 90 54 91 62 92 55 93 61 94 56 95 57 96 58 97
REMARK SMILES IDX 59 98 60 99
REMARK H PARENT 18 8 4 31 25 36 81 55 51 66
REMARK Flexibility Score: inf
ROOT
ATOM      1  C   UNL A   1      35.907  32.265  28.330  1.00  0.00     0.002 C 
ENDROOT
BRANCH   1   2
ATOM      2  C   UNL A   1      36.357  30.800  28.472  1.00  0.00     0.002 C 
BRANCH   2   3
ATOM      3  C   UNL A   1      36.091  29.889  27.274  1.00  0.00     0.021 C 
BRANCH   3   4
ATOM      4  C   UNL A   1      34.853  29.005  27.395  1.00  0.00     0.116 C 
BRANCH   4   5
ATOM      5  N   UNL A   1      33.613  29.756  27.298  1.00  0.00    -0.349 N 
ATOM      6  C   UNL A   1      32.501  29.596  26.497  1.00  0.00     0.287 C 
ATOM      7  O   UNL A   1      31.580  30.394  26.694  1.00  0.00    -0.266 OA
ATOM      8  H   UNL A   1      33.555  30.520  27.918  1.00  0.00     0.163 HD
BRANCH   6   9
ATOM      9  C   UNL A   1      32.434  28.546  25.491  1.00  0.00     0.195 A 
ATOM     10  C   UNL A   1      33.096  23.942  22.329  1.00  0.00     0.016 C 
ATOM     11  C   UNL A   1      32.533  25.164  22.415  1.00  0.00     0.001 C 
ATOM     12  C   UNL A   1      32.969  26.313  21.510  1.00  0.00     0.048 C 
ATOM     13  C   UNL A   1      31.534  25.587  23.467  1.00  0.00     0.192 C 
ATOM     14  C   UNL A   1      33.688  27.408  22.322  1.00  0.00     0.081 C 
ATOM     15  C   UNL A   1      32.000  26.778  24.155  1.00  0.00     0.067 A 
ATOM     16  O   UNL A   1      30.490  25.017  23.694  1.00  0.00    -0.289 OA
ATOM     17  C   UNL A   1      32.975  27.570  23.608  1.00  0.00     0.116 A 
ATOM     18  C   UNL A   1      31.653  27.389  25.400  1.00  0.00     0.012 A 
ATOM     19  O   UNL A   1      33.274  28.600  24.411  1.00  0.00    -0.455 OA
ATOM     20  C   UNL A   1      30.661  26.863  26.375  1.00  0.00     0.049 C 
BRANCH  10  21
ATOM     21  C   UNL A   1      32.994  22.732  23.174  1.00  0.00    -0.025 A 
ATOM     22  C   UNL A   1      32.787  20.294  24.615  1.00  0.00     0.041 A 
ATOM     23  C   UNL A   1      33.427  21.395  25.169  1.00  0.00     0.027 A 
ATOM     24  C   UNL A   1      32.210  20.417  23.354  1.00  0.00     0.027 A 
ATOM     25  C   UNL A   1      33.564  22.580  24.439  1.00  0.00     0.010 A 
ATOM     26  C   UNL A   1      32.305  21.626  22.648  1.00  0.00     0.010 A 
BRANCH  22  27
ATOM     27  N   UNL A   1      32.726  19.133  25.396  1.00  0.00    -0.326 N 
ATOM     28  C   UNL A   1      34.253  17.689  24.079  1.00  0.00     0.114 C 
ATOM     29  C   UNL A   1      33.240  17.889  25.173  1.00  0.00     0.221 C 
ATOM     30  O   UNL A   1      32.933  16.964  25.928  1.00  0.00    -0.275 OA
ATOM     31  H   UNL A   1      32.233  19.231  26.243  1.00  0.00     0.169 HD
ENDBRANCH  22  27
ENDBRANCH  10  21
ENDBRANCH   6   9
ENDBRANCH   4   5
ENDBRANCH   3   4
ENDBRANCH   2   3
ENDBRANCH   1   2
BRANCH   1  32
ATOM     32  C   UNL A   1      34.654  32.699  29.106  1.00  0.00     0.021 C 
BRANCH  32  33
ATOM     33  C   UNL A   1      34.801  34.027  29.825  1.00  0.00     0.116 C 
BRANCH  33  34
ATOM     34  N   UNL A   1      34.528  33.949  31.267  1.00  0.00    -0.352 N 
ATOM     35  C   UNL A   1      35.193  33.196  32.230  1.00  0.00     0.251 C 
ATOM     36  H   UNL A   1      33.780  34.498  31.594  1.00  0.00     0.163 HD
ATOM     37  O   UNL A   1      34.674  32.945  33.310  1.00  0.00    -0.269 OA
BRANCH  35  38
ATOM     38  C   UNL A   1      36.550  32.720  31.913  1.00  0.00     0.039 A 
ATOM     39  C   UNL A   1      37.629  33.555  31.604  1.00  0.00     0.014 A 
ATOM     40  C   UNL A   1      36.728  31.350  31.998  1.00  0.00     0.014 A 
ATOM     41  C   UNL A   1      38.892  32.980  31.447  1.00  0.00     0.010 A 
ATOM     42  C   UNL A   1      37.980  30.856  32.178  1.00  0.00     0.010 A 
ATOM     43  C   UNL A   1      39.049  31.620  31.741  1.00  0.00    -0.014 A 
BRANCH  43  44
ATOM     44  C   UNL A   1      40.285  30.877  31.573  1.00  0.00     0.031 A 
ATOM     45  C   UNL A   1      41.143  30.735  32.770  1.00  0.00     0.074 A 
ATOM     46  C   UNL A   1      40.454  30.089  30.485  1.00  0.00     0.049 A 
ATOM     47  N   UNL A   1      42.336  31.196  32.935  1.00  0.00    -0.248 NA
ATOM     48  C   UNL A   1      40.584  30.084  33.964  1.00  0.00     0.031 C 
ATOM     49  C   UNL A   1      39.527  29.856  29.360  1.00  0.00     0.029 A 
ATOM     50  N   UNL A   1      41.432  29.185  30.243  1.00  0.00    -0.354 N 
ATOM     51  C   UNL A   1      42.761  30.742  34.177  1.00  0.00     0.074 A 
ATOM     52  C   UNL A   1      41.590  30.214  34.833  1.00  0.00     0.031 C 
ATOM     53  C   UNL A   1      39.862  28.713  28.725  1.00  0.00     0.029 A 
ATOM     54  C   UNL A   1      41.124  28.248  29.265  1.00  0.00     0.049 A 
ATOM     55  H   UNL A   1      42.293  29.190  30.722  1.00  0.00     0.167 HD
ATOM     56  C   UNL A   1      44.084  30.642  34.491  1.00  0.00     0.031 A 
ATOM     57  C   UNL A   1      41.843  27.145  28.946  1.00  0.00     0.031 A 
ATOM     58  C   UNL A   1      44.918  31.249  33.484  1.00  0.00     0.049 A 
ATOM     59  C   UNL A   1      43.227  27.397  29.425  1.00  0.00     0.074 A 
ATOM     60  C   UNL A   1      45.052  32.529  32.982  1.00  0.00     0.029 A 
ATOM     61  N   UNL A   1      45.468  30.413  32.537  1.00  0.00    -0.354 N 
ATOM     62  N   UNL A   1      43.975  28.357  28.948  1.00  0.00    -0.248 NA
ATOM     63  C   UNL A   1      43.597  26.930  30.753  1.00  0.00     0.031 C 
ATOM     64  C   UNL A   1      45.206  32.351  31.574  1.00  0.00     0.029 A 
ATOM     65  C   UNL A   1      45.232  30.979  31.308  1.00  0.00     0.049 A 
ATOM     66  H   UNL A   1      45.941  29.567  32.709  1.00  0.00     0.167 HD
ATOM     67  C   UNL A   1      44.606  28.908  30.057  1.00  0.00     0.074 A 
ATOM     68  C   UNL A   1      44.422  27.919  31.121  1.00  0.00     0.031 C 
ATOM     69  C   UNL A   1      44.959  30.230  30.095  1.00  0.00     0.031 A 
BRANCH  56  70
ATOM     70  C   UNL A   1      44.649  29.702  35.521  1.00  0.00    -0.014 A 
ATOM     71  C   UNL A   1      44.814  28.342  35.185  1.00  0.00     0.010 A 
ATOM     72  C   UNL A   1      44.784  30.050  36.880  1.00  0.00     0.010 A 
ATOM     73  C   UNL A   1      45.039  27.372  36.170  1.00  0.00     0.020 A 
ATOM     74  C   UNL A   1      45.051  29.098  37.865  1.00  0.00     0.020 A 
ATOM     75  C   UNL A   1      45.138  27.758  37.508  1.00  0.00     0.054 A 
BRANCH  75  76
ATOM     76  S   UNL A   1      45.291  26.487  38.787  1.00  0.00     0.124 S 
ATOM     77  O   UNL A   1      44.050  26.664  39.535  1.00  0.00    -0.237 OA
ATOM     78  O   UNL A   1      45.388  25.262  37.999  1.00  0.00    -0.237 OA
ATOM     79  O   UNL A   1      46.510  26.864  39.498  1.00  0.00    -0.744 OA
ENDBRANCH  75  76
ENDBRANCH  56  70
BRANCH  57  80
ATOM     80  C   UNL A   1      41.311  25.817  28.553  1.00  0.00    -0.014 A 
ATOM     81  C   UNL A   1      40.268  25.682  27.621  1.00  0.00     0.010 A 
ATOM     82  C   UNL A   1      42.015  24.647  28.918  1.00  0.00     0.010 A 
ATOM     83  C   UNL A   1      39.978  24.436  27.035  1.00  0.00     0.020 A 
ATOM     84  C   UNL A   1      41.729  23.403  28.344  1.00  0.00     0.020 A 
ATOM     85  C   UNL A   1      40.726  23.307  27.385  1.00  0.00     0.054 A 
BRANCH  85  86
ATOM     86  S   UNL A   1      40.475  21.743  26.491  1.00  0.00     0.124 S 
ATOM     87  O   UNL A   1      41.529  21.788  25.484  1.00  0.00    -0.237 OA
ATOM     88  O   UNL A   1      40.645  20.746  27.543  1.00  0.00    -0.237 OA
ATOM     89  O   UNL A   1      39.112  21.862  25.972  1.00  0.00    -0.744 OA
ENDBRANCH  85  86
ENDBRANCH  57  80
BRANCH  69  90
ATOM     90  C   UNL A   1      44.798  31.051  28.828  1.00  0.00    -0.014 A 
ATOM     91  C   UNL A   1      43.755  31.984  28.645  1.00  0.00     0.010 A 
ATOM     92  C   UNL A   1      45.827  31.019  27.873  1.00  0.00     0.010 A 
ATOM     93  C   UNL A   1      43.729  32.842  27.536  1.00  0.00     0.020 A 
ATOM     94  C   UNL A   1      45.817  31.883  26.770  1.00  0.00     0.020 A 
ATOM     95  C   UNL A   1      44.766  32.786  26.603  1.00  0.00     0.054 A 
BRANCH  95  96
ATOM     96  S   UNL A   1      44.758  33.937  25.200  1.00  0.00     0.124 S 
ATOM     97  O   UNL A   1      44.366  33.079  24.085  1.00  0.00    -0.237 OA
ATOM     98  O   UNL A   1      43.770  34.936  25.601  1.00  0.00    -0.237 OA
ATOM     99  O   UNL A   1      46.135  34.429  25.145  1.00  0.00    -0.744 OA
ENDBRANCH  95  96
ENDBRANCH  69  90
ENDBRANCH  43  44
ENDBRANCH  35  38
ENDBRANCH  33  34
ENDBRANCH  32  33
ENDBRANCH   1  32
TORSDOF 18
ENDMDL
MODEL 3
REMARK VINA RESULT:     -11.1      2.296      4.326
REMARK SMILES CC(=O)Nc1ccc(/C=C2/CCc3oc(C(=O)NCCCCCCNC(=O)c4ccc(-c5c6nc(c(-c7ccc(S(=O)(=O)[O-])cc7)c7ccc([nH]7)c(-c7ccc(S(=O)(=O)[O-])cc7)c7nc(c(-c8ccc(S(=O)(=O)[O-])cc8)c8ccc5[nH]8)C=C7)C=C6)cc4)c(C)c3C2=O)cc1
REMARK SMILES IDX 22 1 21 2 20 3 19 4 18 5 16 6 17 7 15 9 9 10 10 11 11 12
REMARK SMILES IDX 91 13 12 14 90 15 92 16 13 17 88 18 14 19 89 20 8 21 5 22
REMARK SMILES IDX 6 23 94 24 7 25 93 26 4 27 1 28 2 29 3 30 23 32 24 33 25 34
REMARK SMILES IDX 26 35 27 37 28 38 29 39 87 40 30 41 86 42 31 43 32 44 33 45
REMARK SMILES IDX 80 46 34 47 85 48 79 49 81 50 35 51 84 52 78 53 77 54 36 56
REMARK SMILES IDX 66 57 47 58 65 59 48 60 51 61 64 62 82 63 49 64 50 65 63 67
REMARK SMILES IDX 83 68 52 69 37 70 38 71 46 72 39 73 45 74 40 75 41 76 42 77
REMARK SMILES IDX 43 78 44 79 67 80 68 81 76 82 69 83 75 84 70 85 71 86 72 87
REMARK SMILES IDX 73 88 74 89 53 90 54 91 62 92 55 93 61 94 56 95 57 96 58 97
REMARK SMILES IDX 59 98 60 99
REMARK H PARENT 18 8 4 31 25 36 81 55 51 66
REMARK Flexibility Score: inf
ROOT
ATOM      1  C   UNL A   1      41.732  23.871  27.768  1.00  0.00     0.002 C 
ENDROOT
BRANCH   1   2
ATOM      2  C   UNL A   1      40.220  23.946  28.042  1.00  0.00     0.002 C 
BRANCH   2   3
ATOM      3  C   UNL A   1      39.378  24.690  27.006  1.00  0.00     0.021 C 
BRANCH   3   4
ATOM      4  C   UNL A   1      38.296  23.854  26.329  1.00  0.00     0.116 C 
BRANCH   4   5
ATOM      5  N   UNL A   1      38.748  22.515  25.990  1.00  0.00    -0.349 N 
ATOM      6  C   UNL A   1      38.097  21.443  25.414  1.00  0.00     0.287 C 
ATOM      7  O   UNL A   1      38.789  20.439  25.219  1.00  0.00    -0.266 OA
ATOM      8  H   UNL A   1      39.691  22.340  26.213  1.00  0.00     0.163 HD
BRANCH   6   9
ATOM      9  C   UNL A   1      36.686  21.509  25.064  1.00  0.00     0.195 A 
ATOM     10  C   UNL A   1      31.183  22.611  24.690  1.00  0.00     0.016 C 
ATOM     11  C   UNL A   1      32.193  21.822  24.273  1.00  0.00     0.001 C 
ATOM     12  C   UNL A   1      32.260  20.343  24.646  1.00  0.00     0.048 C 
ATOM     13  C   UNL A   1      33.418  22.299  23.529  1.00  0.00     0.192 C 
ATOM     14  C   UNL A   1      33.438  20.073  25.603  1.00  0.00     0.081 C 
ATOM     15  C   UNL A   1      34.624  21.888  24.225  1.00  0.00     0.067 A 
ATOM     16  O   UNL A   1      33.394  22.927  22.493  1.00  0.00    -0.289 OA
ATOM     17  C   UNL A   1      34.591  20.883  25.156  1.00  0.00     0.116 A 
ATOM     18  C   UNL A   1      35.984  22.326  24.171  1.00  0.00     0.012 A 
ATOM     19  O   UNL A   1      35.800  20.678  25.694  1.00  0.00    -0.455 OA
ATOM     20  C   UNL A   1      36.503  23.436  23.328  1.00  0.00     0.049 C 
BRANCH  10  21
ATOM     21  C   UNL A   1      30.965  24.073  24.627  1.00  0.00    -0.025 A 
ATOM     22  C   UNL A   1      30.683  26.898  24.674  1.00  0.00     0.041 A 
ATOM     23  C   UNL A   1      30.483  26.183  23.499  1.00  0.00     0.027 A 
ATOM     24  C   UNL A   1      30.985  26.203  25.841  1.00  0.00     0.027 A 
ATOM     25  C   UNL A   1      30.665  24.797  23.472  1.00  0.00     0.010 A 
ATOM     26  C   UNL A   1      31.114  24.806  25.818  1.00  0.00     0.010 A 
BRANCH  22  27
ATOM     27  N   UNL A   1      30.519  28.288  24.608  1.00  0.00    -0.326 N 
ATOM     28  C   UNL A   1      32.902  28.972  24.676  1.00  0.00     0.114 C 
ATOM     29  C   UNL A   1      31.433  29.294  24.729  1.00  0.00     0.221 C 
ATOM     30  O   UNL A   1      31.043  30.461  24.792  1.00  0.00    -0.275 OA
ATOM     31  H   UNL A   1      29.594  28.587  24.448  1.00  0.00     0.169 HD
ENDBRANCH  22  27
ENDBRANCH  10  21
ENDBRANCH   6   9
ENDBRANCH   4   5
ENDBRANCH   3   4
ENDBRANCH   2   3
ENDBRANCH   1   2
BRANCH   1  32
ATOM     32  C   UNL A   1      42.270  22.590  27.112  1.00  0.00     0.021 C 
BRANCH  32  33
ATOM     33  C   UNL A   1      42.183  22.588  25.598  1.00  0.00     0.116 C 
BRANCH  33  34
ATOM     34  N   UNL A   1      43.492  22.513  24.932  1.00  0.00    -0.352 N 
ATOM     35  C   UNL A   1      44.357  23.556  24.617  1.00  0.00     0.251 C 
ATOM     36  H   UNL A   1      43.795  21.612  24.678  1.00  0.00     0.163 HD
ATOM     37  O   UNL A   1      45.235  23.420  23.775  1.00  0.00    -0.269 OA
BRANCH  35  38
ATOM     38  C   UNL A   1      44.192  24.829  25.341  1.00  0.00     0.039 A 
ATOM     39  C   UNL A   1      43.207  25.779  25.053  1.00  0.00     0.014 A 
ATOM     40  C   UNL A   1      45.059  25.018  26.402  1.00  0.00     0.014 A 
ATOM     41  C   UNL A   1      43.083  26.885  25.898  1.00  0.00     0.010 A 
ATOM     42  C   UNL A   1      44.720  25.891  27.385  1.00  0.00     0.010 A 
ATOM     43  C   UNL A   1      43.853  26.923  27.067  1.00  0.00    -0.014 A 
BRANCH  43  44
ATOM     44  C   UNL A   1      43.870  28.029  28.008  1.00  0.00     0.031 A 
ATOM     45  C   UNL A   1      44.966  29.012  27.856  1.00  0.00     0.074 A 
ATOM     46  C   UNL A   1      42.765  28.309  28.738  1.00  0.00     0.049 A 
ATOM     47  N   UNL A   1      45.901  29.276  28.704  1.00  0.00    -0.248 NA
ATOM     48  C   UNL A   1      45.100  29.727  26.579  1.00  0.00     0.031 C 
ATOM     49  C   UNL A   1      41.461  27.617  28.741  1.00  0.00     0.029 A 
ATOM     50  N   UNL A   1      42.518  29.392  29.511  1.00  0.00    -0.354 N 
ATOM     51  C   UNL A   1      46.639  30.319  28.160  1.00  0.00     0.074 A 
ATOM     52  C   UNL A   1      46.210  30.438  26.788  1.00  0.00     0.031 C 
ATOM     53  C   UNL A   1      40.517  28.432  29.256  1.00  0.00     0.029 A 
ATOM     54  C   UNL A   1      41.175  29.607  29.793  1.00  0.00     0.049 A 
ATOM     55  H   UNL A   1      43.232  29.981  29.848  1.00  0.00     0.167 HD
ATOM     56  C   UNL A   1      47.396  31.145  28.936  1.00  0.00     0.031 A 
ATOM     57  C   UNL A   1      40.639  30.694  30.396  1.00  0.00     0.031 A 
ATOM     58  C   UNL A   1      47.486  30.668  30.293  1.00  0.00     0.049 A 
ATOM     59  C   UNL A   1      41.742  31.335  31.157  1.00  0.00     0.074 A 
ATOM     60  C   UNL A   1      47.985  29.523  30.885  1.00  0.00     0.029 A 
ATOM     61  N   UNL A   1      46.620  31.221  31.211  1.00  0.00    -0.354 N 
ATOM     62  N   UNL A   1      42.350  30.744  32.151  1.00  0.00    -0.248 NA
ATOM     63  C   UNL A   1      42.504  32.396  30.514  1.00  0.00     0.031 C 
ATOM     64  C   UNL A   1      47.028  29.189  31.890  1.00  0.00     0.029 A 
ATOM     65  C   UNL A   1      46.044  30.182  31.904  1.00  0.00     0.049 A 
ATOM     66  H   UNL A   1      46.445  32.180  31.345  1.00  0.00     0.167 HD
ATOM     67  C   UNL A   1      43.697  31.038  31.977  1.00  0.00     0.074 A 
ATOM     68  C   UNL A   1      43.717  32.147  31.022  1.00  0.00     0.031 C 
ATOM     69  C   UNL A   1      44.676  30.174  32.388  1.00  0.00     0.031 A 
BRANCH  56  70
ATOM     70  C   UNL A   1      47.768  32.556  28.571  1.00  0.00    -0.014 A 
ATOM     71  C   UNL A   1      46.798  33.572  28.694  1.00  0.00     0.010 A 
ATOM     72  C   UNL A   1      48.950  32.877  27.873  1.00  0.00     0.010 A 
ATOM     73  C   UNL A   1      46.976  34.824  28.093  1.00  0.00     0.020 A 
ATOM     74  C   UNL A   1      49.158  34.137  27.308  1.00  0.00     0.020 A 
ATOM     75  C   UNL A   1      48.151  35.090  27.387  1.00  0.00     0.054 A 
BRANCH  75  76
ATOM     76  S   UNL A   1      48.315  36.658  26.500  1.00  0.00     0.124 S 
ATOM     77  O   UNL A   1      47.026  36.754  25.820  1.00  0.00    -0.237 OA
ATOM     78  O   UNL A   1      48.532  37.610  27.586  1.00  0.00    -0.237 OA
ATOM     79  O   UNL A   1      49.467  36.439  25.629  1.00  0.00    -0.744 OA
ENDBRANCH  75  76
ENDBRANCH  56  70
BRANCH  57  80
ATOM     80  C   UNL A   1      39.341  31.341  30.080  1.00  0.00    -0.014 A 
ATOM     81  C   UNL A   1      38.128  30.633  30.133  1.00  0.00     0.010 A 
ATOM     82  C   UNL A   1      39.271  32.747  29.965  1.00  0.00     0.010 A 
ATOM     83  C   UNL A   1      36.894  31.310  30.129  1.00  0.00     0.020 A 
ATOM     84  C   UNL A   1      38.049  33.428  29.955  1.00  0.00     0.020 A 
ATOM     85  C   UNL A   1      36.864  32.707  30.062  1.00  0.00     0.054 A 
BRANCH  85  86
ATOM     86  S   UNL A   1      35.282  33.586  30.246  1.00  0.00     0.124 S 
ATOM     87  O   UNL A   1      35.528  34.428  31.412  1.00  0.00    -0.237 OA
ATOM     88  O   UNL A   1      35.160  34.288  28.972  1.00  0.00    -0.237 OA
ATOM     89  O   UNL A   1      34.314  32.508  30.450  1.00  0.00    -0.744 OA
ENDBRANCH  85  86
ENDBRANCH  57  80
BRANCH  69  90
ATOM     90  C   UNL A   1      44.264  28.956  33.196  1.00  0.00    -0.014 A 
ATOM     91  C   UNL A   1      44.259  28.936  34.607  1.00  0.00     0.010 A 
ATOM     92  C   UNL A   1      43.690  27.867  32.521  1.00  0.00     0.010 A 
ATOM     93  C   UNL A   1      43.717  27.856  35.320  1.00  0.00     0.020 A 
ATOM     94  C   UNL A   1      43.133  26.791  33.225  1.00  0.00     0.020 A 
ATOM     95  C   UNL A   1      43.155  26.787  34.620  1.00  0.00     0.054 A 
BRANCH  95  96
ATOM     96  S   UNL A   1      42.404  25.419  35.548  1.00  0.00     0.124 S 
ATOM     97  O   UNL A   1      42.823  24.248  34.782  1.00  0.00    -0.237 OA
ATOM     98  O   UNL A   1      43.006  25.552  36.872  1.00  0.00    -0.237 OA
ATOM     99  O   UNL A   1      40.971  25.710  35.497  1.00  0.00    -0.744 OA
ENDBRANCH  95  96
ENDBRANCH  69  90
ENDBRANCH  43  44
ENDBRANCH  35  38
ENDBRANCH  33  34
ENDBRANCH  32  33
ENDBRANCH   1  32
TORSDOF 18
ENDMDL
