MODEL 1
REMARK VINA RESULT:     -10.0      0.000      0.000
REMARK SMILES C[C@H](c1cccc(-c2cc(C(=O)NCCCCCCNC(=O)c3ccc(-c4c5nc(c(-c6ccc(S(=O)(=O)[O-])cc6)c6ccc([nH]6)c(-c6ccc(S(=O)(=O)[O-])cc6)c6nc(c(-c7ccc(S(=O)(=O)[O-])cc7)c7ccc4[nH]7)C=C6)C=C5)cc3)cc(S(=O)(=O)N3CCOCC3)c2)c1)[NH+](C)C
REMARK SMILES IDX 16 1 15 2 14 3 13 4 11 5 12 6 10 8 8 9 9 10 94 11 84 12
REMARK SMILES IDX 83 13 7 14 3 15 4 16 95 17 5 18 6 19 2 20 1 21 96 22 97 23
REMARK SMILES IDX 98 24 85 26 86 27 87 28 88 29 89 30 93 31 90 32 92 33 91 34
REMARK SMILES IDX 17 35 18 36 19 37 20 38 21 39 22 41 23 42 24 43 82 44 25 45
REMARK SMILES IDX 81 46 26 47 27 48 28 49 75 50 29 51 80 52 74 53 76 54 30 55
REMARK SMILES IDX 79 56 73 57 72 58 31 60 61 61 42 62 60 63 43 64 46 65 59 66
REMARK SMILES IDX 77 67 44 68 45 69 58 71 78 72 47 73 32 74 33 75 41 76 34 77
REMARK SMILES IDX 40 78 35 79 36 80 37 81 38 82 39 83 62 84 63 85 71 86 64 87
REMARK SMILES IDX 70 88 65 89 66 90 67 91 68 92 69 93 48 94 49 95 57 96 50 97
REMARK SMILES IDX 56 98 51 99 52 100 53 101 54 102 55 103
REMARK H PARENT 13 7 96 25 20 40 76 59 46 70
REMARK Flexibility Score: inf
ROOT
ATOM      1  C   UNL A   1      45.347  24.209  33.869  1.00  0.00     0.002 C 
ENDROOT
BRANCH   1   2
ATOM      2  C   UNL A   1      45.140  23.020  34.801  1.00  0.00     0.021 C 
BRANCH   2   3
ATOM      3  C   UNL A   1      46.213  21.941  34.789  1.00  0.00     0.116 C 
BRANCH   3   4
ATOM      4  N   UNL A   1      45.729  20.579  34.617  1.00  0.00    -0.352 N 
ATOM      5  C   UNL A   1      45.744  19.519  35.502  1.00  0.00     0.251 C 
ATOM      6  O   UNL A   1      45.287  18.431  35.159  1.00  0.00    -0.269 OA
ATOM      7  H   UNL A   1      45.330  20.384  33.738  1.00  0.00     0.163 HD
BRANCH   5   8
ATOM      8  C   UNL A   1      46.369  19.656  36.844  1.00  0.00     0.041 A 
ATOM      9  C   UNL A   1      46.796  18.691  39.046  1.00  0.00    -0.016 A 
ATOM     10  C   UNL A   1      46.101  18.683  37.828  1.00  0.00     0.022 A 
ATOM     11  C   UNL A   1      47.818  19.642  39.203  1.00  0.00     0.030 A 
ATOM     12  C   UNL A   1      48.055  20.625  38.254  1.00  0.00     0.084 A 
ATOM     13  C   UNL A   1      47.257  20.696  37.122  1.00  0.00     0.035 A 
BRANCH   9  14
ATOM     14  C   UNL A   1      46.530  17.759  40.158  1.00  0.00    -0.018 A 
ATOM     15  C   UNL A   1      44.851  16.485  41.458  1.00  0.00     0.010 A 
ATOM     16  C   UNL A   1      45.868  16.096  42.338  1.00  0.00     0.010 A 
ATOM     17  C   UNL A   1      45.210  17.309  40.380  1.00  0.00     0.018 A 
ATOM     18  C   UNL A   1      47.185  16.525  42.142  1.00  0.00     0.001 A 
ATOM     19  C   UNL A   1      47.516  17.347  41.060  1.00  0.00     0.009 A 
BRANCH  15  20
ATOM     20  C   UNL A   1      43.395  16.087  41.720  1.00  0.00     0.211 C 
ATOM     21  C   UNL A   1      42.578  16.125  40.414  1.00  0.00     0.081 C 
BRANCH  20  22
ATOM     22  N   UNL A   1      43.235  14.857  42.535  1.00  0.00    -0.334 N 
ATOM     23  C   UNL A   1      42.956  15.171  43.939  1.00  0.00     0.333 C 
ATOM     24  C   UNL A   1      42.237  13.902  42.050  1.00  0.00     0.333 C 
ATOM     25  H   UNL A   1      44.139  14.393  42.444  1.00  0.00     0.348 HD
ENDBRANCH  20  22
ENDBRANCH  15  20
ENDBRANCH   9  14
BRANCH  12  26
ATOM     26  S   UNL A   1      49.460  21.708  38.337  1.00  0.00     0.243 S 
ATOM     27  O   UNL A   1      48.922  23.040  38.173  1.00  0.00    -0.207 OA
ATOM     28  O   UNL A   1      50.190  21.314  39.522  1.00  0.00    -0.207 OA
BRANCH  26  29
ATOM     29  N   UNL A   1      50.382  21.340  36.998  1.00  0.00    -0.193 NA
ATOM     30  C   UNL A   1      50.870  22.364  36.054  1.00  0.00     0.131 C 
ATOM     31  C   UNL A   1      50.809  19.961  36.708  1.00  0.00     0.131 C 
ATOM     32  C   UNL A   1      50.666  21.913  34.598  1.00  0.00     0.177 C 
ATOM     33  C   UNL A   1      50.509  19.635  35.248  1.00  0.00     0.177 C 
ATOM     34  O   UNL A   1      51.126  20.575  34.358  1.00  0.00    -0.379 OA
ENDBRANCH  26  29
ENDBRANCH  12  26
ENDBRANCH   5   8
ENDBRANCH   3   4
ENDBRANCH   2   3
ENDBRANCH   1   2
BRANCH   1  35
ATOM     35  C   UNL A   1      46.486  25.171  34.213  1.00  0.00     0.002 C 
BRANCH  35  36
ATOM     36  C   UNL A   1      47.646  24.615  35.044  1.00  0.00     0.021 C 
BRANCH  36  37
ATOM     37  C   UNL A   1      48.624  25.629  35.629  1.00  0.00     0.116 C 
BRANCH  37  38
ATOM     38  N   UNL A   1      48.525  25.761  37.072  1.00  0.00    -0.352 N 
ATOM     39  C   UNL A   1      47.614  26.444  37.839  1.00  0.00     0.251 C 
ATOM     40  H   UNL A   1      49.221  25.285  37.580  1.00  0.00     0.163 HD
ATOM     41  O   UNL A   1      47.774  26.492  39.057  1.00  0.00    -0.269 OA
BRANCH  39  42
ATOM     42  C   UNL A   1      46.467  27.150  37.221  1.00  0.00     0.039 A 
ATOM     43  C   UNL A   1      46.717  28.346  36.541  1.00  0.00     0.014 A 
ATOM     44  C   UNL A   1      45.156  26.674  37.326  1.00  0.00     0.014 A 
ATOM     45  C   UNL A   1      45.670  29.027  35.914  1.00  0.00     0.010 A 
ATOM     46  C   UNL A   1      44.120  27.324  36.652  1.00  0.00     0.010 A 
ATOM     47  C   UNL A   1      44.367  28.505  35.936  1.00  0.00    -0.014 A 
BRANCH  47  48
ATOM     48  C   UNL A   1      43.271  29.176  35.189  1.00  0.00     0.031 A 
ATOM     49  C   UNL A   1      42.905  28.741  33.796  1.00  0.00     0.074 A 
ATOM     50  C   UNL A   1      42.627  30.216  35.756  1.00  0.00     0.049 A 
ATOM     51  N   UNL A   1      41.976  29.211  33.004  1.00  0.00    -0.248 NA
ATOM     52  C   UNL A   1      43.698  27.648  33.210  1.00  0.00     0.031 C 
ATOM     53  C   UNL A   1      42.920  30.773  37.079  1.00  0.00     0.029 A 
ATOM     54  N   UNL A   1      41.595  30.993  35.291  1.00  0.00    -0.354 N 
ATOM     55  C   UNL A   1      42.079  28.486  31.823  1.00  0.00     0.074 A 
ATOM     56  C   UNL A   1      43.186  27.569  31.990  1.00  0.00     0.031 C 
ATOM     57  C   UNL A   1      42.071  31.784  37.329  1.00  0.00     0.029 A 
ATOM     58  C   UNL A   1      41.193  31.964  36.177  1.00  0.00     0.049 A 
ATOM     59  H   UNL A   1      41.181  30.865  34.406  1.00  0.00     0.167 HD
ATOM     60  C   UNL A   1      41.313  28.564  30.706  1.00  0.00     0.031 A 
ATOM     61  C   UNL A   1      40.225  32.894  36.078  1.00  0.00     0.031 A 
ATOM     62  C   UNL A   1      40.205  29.468  30.543  1.00  0.00     0.049 A 
ATOM     63  C   UNL A   1      39.374  32.947  34.841  1.00  0.00     0.074 A 
ATOM     64  C   UNL A   1      39.331  29.575  29.475  1.00  0.00     0.029 A 
ATOM     65  N   UNL A   1      39.819  30.424  31.470  1.00  0.00    -0.354 N 
ATOM     66  N   UNL A   1      39.441  32.201  33.765  1.00  0.00    -0.248 NA
ATOM     67  C   UNL A   1      38.309  33.957  34.813  1.00  0.00     0.031 C 
ATOM     68  C   UNL A   1      38.441  30.623  29.739  1.00  0.00     0.029 A 
ATOM     69  C   UNL A   1      38.733  31.139  30.991  1.00  0.00     0.049 A 
ATOM     70  H   UNL A   1      40.253  30.573  32.341  1.00  0.00     0.167 HD
ATOM     71  C   UNL A   1      38.417  32.642  32.936  1.00  0.00     0.074 A 
ATOM     72  C   UNL A   1      37.734  33.706  33.644  1.00  0.00     0.031 C 
ATOM     73  C   UNL A   1      38.073  32.207  31.699  1.00  0.00     0.031 A 
BRANCH  60  74
ATOM     74  C   UNL A   1      41.657  27.642  29.567  1.00  0.00    -0.014 A 
ATOM     75  C   UNL A   1      40.781  26.612  29.179  1.00  0.00     0.010 A 
ATOM     76  C   UNL A   1      42.856  27.826  28.855  1.00  0.00     0.010 A 
ATOM     77  C   UNL A   1      41.119  25.755  28.129  1.00  0.00     0.020 A 
ATOM     78  C   UNL A   1      43.187  26.985  27.788  1.00  0.00     0.020 A 
ATOM     79  C   UNL A   1      42.324  25.942  27.445  1.00  0.00     0.054 A 
BRANCH  79  80
ATOM     80  S   UNL A   1      42.736  24.822  26.078  1.00  0.00     0.124 S 
ATOM     81  O   UNL A   1      42.274  25.582  24.918  1.00  0.00    -0.237 OA
ATOM     82  O   UNL A   1      44.186  24.684  26.198  1.00  0.00    -0.237 OA
ATOM     83  O   UNL A   1      41.972  23.615  26.377  1.00  0.00    -0.744 OA
ENDBRANCH  79  80
ENDBRANCH  60  74
BRANCH  61  84
ATOM     84  C   UNL A   1      39.995  33.841  37.202  1.00  0.00    -0.014 A 
ATOM     85  C   UNL A   1      40.736  35.032  37.290  1.00  0.00     0.010 A 
ATOM     86  C   UNL A   1      39.017  33.567  38.174  1.00  0.00     0.010 A 
ATOM     87  C   UNL A   1      40.511  35.928  38.339  1.00  0.00     0.020 A 
ATOM     88  C   UNL A   1      38.774  34.471  39.212  1.00  0.00     0.020 A 
ATOM     89  C   UNL A   1      39.530  35.642  39.293  1.00  0.00     0.054 A 
BRANCH  89  90
ATOM     90  S   UNL A   1      39.207  36.849  40.610  1.00  0.00     0.124 S 
ATOM     91  O   UNL A   1      40.546  37.361  40.887  1.00  0.00    -0.237 OA
ATOM     92  O   UNL A   1      38.291  37.787  39.966  1.00  0.00    -0.237 OA
ATOM     93  O   UNL A   1      38.613  36.041  41.671  1.00  0.00    -0.744 OA
ENDBRANCH  89  90
ENDBRANCH  61  84
BRANCH  73  94
ATOM     94  C   UNL A   1      36.899  32.877  31.040  1.00  0.00    -0.014 A 
ATOM     95  C   UNL A   1      37.087  33.859  30.052  1.00  0.00     0.010 A 
ATOM     96  C   UNL A   1      35.591  32.509  31.403  1.00  0.00     0.010 A 
ATOM     97  C   UNL A   1      35.987  34.492  29.466  1.00  0.00     0.020 A 
ATOM     98  C   UNL A   1      34.488  33.124  30.803  1.00  0.00     0.020 A 
ATOM     99  C   UNL A   1      34.694  34.125  29.852  1.00  0.00     0.054 A 
BRANCH  99 100
ATOM    100  S   UNL A   1      33.279  34.947  29.069  1.00  0.00     0.124 S 
ATOM    101  O   UNL A   1      32.424  35.235  30.217  1.00  0.00    -0.237 OA
ATOM    102  O   UNL A   1      33.890  36.111  28.433  1.00  0.00    -0.237 OA
ATOM    103  O   UNL A   1      32.764  33.939  28.145  1.00  0.00    -0.744 OA
ENDBRANCH  99 100
ENDBRANCH  73  94
ENDBRANCH  47  48
ENDBRANCH  39  42
ENDBRANCH  37  38
ENDBRANCH  36  37
ENDBRANCH  35  36
ENDBRANCH   1  35
TORSDOF 21
ENDMDL
MODEL 2
REMARK VINA RESULT:      -9.7      5.643     14.079
REMARK SMILES C[C@H](c1cccc(-c2cc(C(=O)NCCCCCCNC(=O)c3ccc(-c4c5nc(c(-c6ccc(S(=O)(=O)[O-])cc6)c6ccc([nH]6)c(-c6ccc(S(=O)(=O)[O-])cc6)c6nc(c(-c7ccc(S(=O)(=O)[O-])cc7)c7ccc4[nH]7)C=C6)C=C5)cc3)cc(S(=O)(=O)N3CCOCC3)c2)c1)[NH+](C)C
REMARK SMILES IDX 16 1 15 2 14 3 13 4 11 5 12 6 10 8 8 9 9 10 94 11 84 12
REMARK SMILES IDX 83 13 7 14 3 15 4 16 95 17 5 18 6 19 2 20 1 21 96 22 97 23
REMARK SMILES IDX 98 24 85 26 86 27 87 28 88 29 89 30 93 31 90 32 92 33 91 34
REMARK SMILES IDX 17 35 18 36 19 37 20 38 21 39 22 41 23 42 24 43 82 44 25 45
REMARK SMILES IDX 81 46 26 47 27 48 28 49 75 50 29 51 80 52 74 53 76 54 30 55
REMARK SMILES IDX 79 56 73 57 72 58 31 60 61 61 42 62 60 63 43 64 46 65 59 66
REMARK SMILES IDX 77 67 44 68 45 69 58 71 78 72 47 73 32 74 33 75 41 76 34 77
REMARK SMILES IDX 40 78 35 79 36 80 37 81 38 82 39 83 62 84 63 85 71 86 64 87
REMARK SMILES IDX 70 88 65 89 66 90 67 91 68 92 69 93 48 94 49 95 57 96 50 97
REMARK SMILES IDX 56 98 51 99 52 100 53 101 54 102 55 103
REMARK H PARENT 13 7 96 25 20 40 76 59 46 70
REMARK Flexibility Score: inf
ROOT
ATOM      1  C   UNL A   1      46.312  29.253  26.684  1.00  0.00     0.002 C 
ENDROOT
BRANCH   1   2
ATOM      2  C   UNL A   1      45.430  30.421  27.110  1.00  0.00     0.021 C 
BRANCH   2   3
ATOM      3  C   UNL A   1      45.853  31.808  26.646  1.00  0.00     0.116 C 
BRANCH   3   4
ATOM      4  N   UNL A   1      45.106  32.345  25.518  1.00  0.00    -0.352 N 
ATOM      5  C   UNL A   1      44.234  33.414  25.465  1.00  0.00     0.251 C 
ATOM      6  O   UNL A   1      43.691  33.707  24.402  1.00  0.00    -0.269 OA
ATOM      7  H   UNL A   1      45.244  31.875  24.664  1.00  0.00     0.163 HD
BRANCH   5   8
ATOM      8  C   UNL A   1      43.890  34.177  26.694  1.00  0.00     0.041 A 
ATOM      9  C   UNL A   1      42.999  36.221  27.689  1.00  0.00    -0.016 A 
ATOM     10  C   UNL A   1      43.485  35.522  26.575  1.00  0.00     0.022 A 
ATOM     11  C   UNL A   1      42.852  35.506  28.890  1.00  0.00     0.030 A 
ATOM     12  C   UNL A   1      43.288  34.196  29.019  1.00  0.00     0.084 A 
ATOM     13  C   UNL A   1      43.905  33.567  27.949  1.00  0.00     0.035 A 
BRANCH   9  14
ATOM     14  C   UNL A   1      42.622  37.647  27.674  1.00  0.00    -0.018 A 
ATOM     15  C   UNL A   1      42.476  39.781  28.922  1.00  0.00     0.010 A 
ATOM     16  C   UNL A   1      41.814  40.345  27.824  1.00  0.00     0.010 A 
ATOM     17  C   UNL A   1      42.870  38.438  28.818  1.00  0.00     0.018 A 
ATOM     18  C   UNL A   1      41.556  39.586  26.678  1.00  0.00     0.001 A 
ATOM     19  C   UNL A   1      41.959  38.249  26.600  1.00  0.00     0.009 A 
BRANCH  15  20
ATOM     20  C   UNL A   1      42.683  40.586  30.210  1.00  0.00     0.211 C 
ATOM     21  C   UNL A   1      43.658  39.858  31.153  1.00  0.00     0.081 C 
BRANCH  20  22
ATOM     22  N   UNL A   1      42.963  42.027  29.992  1.00  0.00    -0.334 N 
ATOM     23  C   UNL A   1      42.544  42.839  31.137  1.00  0.00     0.333 C 
ATOM     24  C   UNL A   1      44.348  42.357  29.651  1.00  0.00     0.333 C 
ATOM     25  H   UNL A   1      42.407  42.254  29.167  1.00  0.00     0.348 HD
ENDBRANCH  20  22
ENDBRANCH  15  20
ENDBRANCH   9  14
BRANCH  12  26
ATOM     26  S   UNL A   1      42.936  33.214  30.457  1.00  0.00     0.243 S 
ATOM     27  O   UNL A   1      41.507  33.321  30.648  1.00  0.00    -0.207 OA
ATOM     28  O   UNL A   1      43.590  31.944  30.233  1.00  0.00    -0.207 OA
BRANCH  26  29
ATOM     29  N   UNL A   1      43.699  33.991  31.719  1.00  0.00    -0.193 NA
ATOM     30  C   UNL A   1      44.924  33.470  32.358  1.00  0.00     0.131 C 
ATOM     31  C   UNL A   1      43.218  35.281  32.238  1.00  0.00     0.131 C 
ATOM     32  C   UNL A   1      44.828  33.558  33.890  1.00  0.00     0.177 C 
ATOM     33  C   UNL A   1      43.129  35.213  33.761  1.00  0.00     0.177 C 
ATOM     34  O   UNL A   1      44.384  34.844  34.348  1.00  0.00    -0.379 OA
ENDBRANCH  26  29
ENDBRANCH  12  26
ENDBRANCH   5   8
ENDBRANCH   3   4
ENDBRANCH   2   3
ENDBRANCH   1   2
BRANCH   1  35
ATOM     35  C   UNL A   1      45.952  27.872  27.237  1.00  0.00     0.002 C 
BRANCH  35  36
ATOM     36  C   UNL A   1      45.553  26.794  26.226  1.00  0.00     0.021 C 
BRANCH  36  37
ATOM     37  C   UNL A   1      44.757  27.251  25.007  1.00  0.00     0.116 C 
BRANCH  37  38
ATOM     38  N   UNL A   1      43.576  26.445  24.754  1.00  0.00    -0.352 N 
ATOM     39  C   UNL A   1      42.450  26.260  25.518  1.00  0.00     0.251 C 
ATOM     40  H   UNL A   1      43.584  25.954  23.901  1.00  0.00     0.163 HD
ATOM     41  O   UNL A   1      41.600  25.453  25.145  1.00  0.00    -0.269 OA
BRANCH  39  42
ATOM     42  C   UNL A   1      42.261  26.987  26.795  1.00  0.00     0.039 A 
ATOM     43  C   UNL A   1      42.399  28.379  26.789  1.00  0.00     0.014 A 
ATOM     44  C   UNL A   1      41.985  26.324  27.995  1.00  0.00     0.014 A 
ATOM     45  C   UNL A   1      42.197  29.107  27.965  1.00  0.00     0.010 A 
ATOM     46  C   UNL A   1      41.726  27.056  29.156  1.00  0.00     0.010 A 
ATOM     47  C   UNL A   1      41.826  28.456  29.152  1.00  0.00    -0.014 A 
BRANCH  47  48
ATOM     48  C   UNL A   1      41.516  29.236  30.378  1.00  0.00     0.031 A 
ATOM     49  C   UNL A   1      42.361  29.098  31.616  1.00  0.00     0.074 A 
ATOM     50  C   UNL A   1      40.438  30.045  30.390  1.00  0.00     0.049 A 
ATOM     51  N   UNL A   1      42.237  29.704  32.769  1.00  0.00    -0.248 NA
ATOM     52  C   UNL A   1      43.478  28.142  31.556  1.00  0.00     0.031 C 
ATOM     53  C   UNL A   1      39.506  30.229  29.275  1.00  0.00     0.029 A 
ATOM     54  N   UNL A   1      39.942  30.863  31.375  1.00  0.00    -0.354 N 
ATOM     55  C   UNL A   1      43.246  29.196  33.577  1.00  0.00     0.074 A 
ATOM     56  C   UNL A   1      43.951  28.204  32.794  1.00  0.00     0.031 C 
ATOM     57  C   UNL A   1      38.567  31.122  29.630  1.00  0.00     0.029 A 
ATOM     58  C   UNL A   1      38.814  31.554  31.002  1.00  0.00     0.049 A 
ATOM     59  H   UNL A   1      40.357  30.947  32.265  1.00  0.00     0.167 HD
ATOM     60  C   UNL A   1      43.568  29.533  34.850  1.00  0.00     0.031 A 
ATOM     61  C   UNL A   1      38.062  32.438  31.684  1.00  0.00     0.031 A 
ATOM     62  C   UNL A   1      42.875  30.527  35.628  1.00  0.00     0.049 A 
ATOM     63  C   UNL A   1      38.452  32.814  33.085  1.00  0.00     0.074 A 
ATOM     64  C   UNL A   1      43.168  30.983  36.902  1.00  0.00     0.029 A 
ATOM     65  N   UNL A   1      41.748  31.217  35.208  1.00  0.00    -0.354 N 
ATOM     66  N   UNL A   1      39.456  32.375  33.805  1.00  0.00    -0.248 NA
ATOM     67  C   UNL A   1      37.614  33.815  33.759  1.00  0.00     0.031 C 
ATOM     68  C   UNL A   1      42.194  31.920  37.267  1.00  0.00     0.029 A 
ATOM     69  C   UNL A   1      41.320  32.079  36.205  1.00  0.00     0.049 A 
ATOM     70  H   UNL A   1      41.314  31.109  34.330  1.00  0.00     0.167 HD
ATOM     71  C   UNL A   1      39.381  33.058  35.013  1.00  0.00     0.074 A 
ATOM     72  C   UNL A   1      38.244  33.952  34.918  1.00  0.00     0.031 C 
ATOM     73  C   UNL A   1      40.179  32.952  36.104  1.00  0.00     0.031 A 
BRANCH  60  74
ATOM     74  C   UNL A   1      44.727  28.811  35.484  1.00  0.00    -0.014 A 
ATOM     75  C   UNL A   1      44.522  27.662  36.271  1.00  0.00     0.010 A 
ATOM     76  C   UNL A   1      46.040  29.266  35.267  1.00  0.00     0.010 A 
ATOM     77  C   UNL A   1      45.605  27.009  36.864  1.00  0.00     0.020 A 
ATOM     78  C   UNL A   1      47.129  28.602  35.840  1.00  0.00     0.020 A 
ATOM     79  C   UNL A   1      46.902  27.488  36.652  1.00  0.00     0.054 A 
BRANCH  79  80
ATOM     80  S   UNL A   1      48.293  26.618  37.425  1.00  0.00     0.124 S 
ATOM     81  O   UNL A   1      48.660  27.535  38.501  1.00  0.00    -0.237 OA
ATOM     82  O   UNL A   1      47.688  25.358  37.855  1.00  0.00    -0.237 OA
ATOM     83  O   UNL A   1      49.270  26.499  36.347  1.00  0.00    -0.744 OA
ENDBRANCH  79  80
ENDBRANCH  60  74
BRANCH  61  84
ATOM     84  C   UNL A   1      36.871  33.049  31.034  1.00  0.00    -0.014 A 
ATOM     85  C   UNL A   1      35.580  32.767  31.511  1.00  0.00     0.010 A 
ATOM     86  C   UNL A   1      37.026  33.933  29.952  1.00  0.00     0.010 A 
ATOM     87  C   UNL A   1      34.461  33.350  30.910  1.00  0.00     0.020 A 
ATOM     88  C   UNL A   1      35.911  34.535  29.361  1.00  0.00     0.020 A 
ATOM     89  C   UNL A   1      34.635  34.232  29.839  1.00  0.00     0.054 A 
BRANCH  89  90
ATOM     90  S   UNL A   1      33.175  35.030  29.112  1.00  0.00     0.124 S 
ATOM     91  O   UNL A   1      32.307  35.190  30.275  1.00  0.00    -0.237 OA
ATOM     92  O   UNL A   1      33.729  36.265  28.561  1.00  0.00    -0.237 OA
ATOM     93  O   UNL A   1      32.720  34.063  28.117  1.00  0.00    -0.744 OA
ENDBRANCH  89  90
ENDBRANCH  61  84
BRANCH  73  94
ATOM     94  C   UNL A   1      39.854  33.836  37.276  1.00  0.00    -0.014 A 
ATOM     95  C   UNL A   1      39.055  33.369  38.335  1.00  0.00     0.010 A 
ATOM     96  C   UNL A   1      40.366  35.144  37.328  1.00  0.00     0.010 A 
ATOM     97  C   UNL A   1      38.740  34.210  39.407  1.00  0.00     0.020 A 
ATOM     98  C   UNL A   1      40.072  35.981  38.408  1.00  0.00     0.020 A 
ATOM     99  C   UNL A   1      39.245  35.514  39.432  1.00  0.00     0.054 A 
BRANCH  99 100
ATOM    100  S   UNL A   1      38.838  36.585  40.838  1.00  0.00     0.124 S 
ATOM    101  O   UNL A   1      38.267  37.752  40.174  1.00  0.00    -0.237 OA
ATOM    102  O   UNL A   1      37.894  35.773  41.603  1.00  0.00    -0.237 OA
ATOM    103  O   UNL A   1      40.128  36.805  41.488  1.00  0.00    -0.744 OA
ENDBRANCH  99 100
ENDBRANCH  73  94
ENDBRANCH  47  48
ENDBRANCH  39  42
ENDBRANCH  37  38
ENDBRANCH  36  37
ENDBRANCH  35  36
ENDBRANCH   1  35
TORSDOF 21
ENDMDL
MODEL 3
REMARK VINA RESULT:      -9.6      5.270     12.990
REMARK SMILES C[C@H](c1cccc(-c2cc(C(=O)NCCCCCCNC(=O)c3ccc(-c4c5nc(c(-c6ccc(S(=O)(=O)[O-])cc6)c6ccc([nH]6)c(-c6ccc(S(=O)(=O)[O-])cc6)c6nc(c(-c7ccc(S(=O)(=O)[O-])cc7)c7ccc4[nH]7)C=C6)C=C5)cc3)cc(S(=O)(=O)N3CCOCC3)c2)c1)[NH+](C)C
REMARK SMILES IDX 16 1 15 2 14 3 13 4 11 5 12 6 10 8 8 9 9 10 94 11 84 12
REMARK SMILES IDX 83 13 7 14 3 15 4 16 95 17 5 18 6 19 2 20 1 21 96 22 97 23
REMARK SMILES IDX 98 24 85 26 86 27 87 28 88 29 89 30 93 31 90 32 92 33 91 34
REMARK SMILES IDX 17 35 18 36 19 37 20 38 21 39 22 41 23 42 24 43 82 44 25 45
REMARK SMILES IDX 81 46 26 47 27 48 28 49 75 50 29 51 80 52 74 53 76 54 30 55
REMARK SMILES IDX 79 56 73 57 72 58 31 60 61 61 42 62 60 63 43 64 46 65 59 66
REMARK SMILES IDX 77 67 44 68 45 69 58 71 78 72 47 73 32 74 33 75 41 76 34 77
REMARK SMILES IDX 40 78 35 79 36 80 37 81 38 82 39 83 62 84 63 85 71 86 64 87
REMARK SMILES IDX 70 88 65 89 66 90 67 91 68 92 69 93 48 94 49 95 57 96 50 97
REMARK SMILES IDX 56 98 51 99 52 100 53 101 54 102 55 103
REMARK H PARENT 13 7 96 25 20 40 76 59 46 70
REMARK Flexibility Score: inf
ROOT
ATOM      1  C   UNL A   1      46.447  33.401  36.237  1.00  0.00     0.002 C 
ENDROOT
BRANCH   1   2
ATOM      2  C   UNL A   1      46.788  34.829  35.824  1.00  0.00     0.021 C 
BRANCH   2   3
ATOM      3  C   UNL A   1      45.645  35.685  35.298  1.00  0.00     0.116 C 
BRANCH   3   4
ATOM      4  N   UNL A   1      45.959  36.500  34.134  1.00  0.00    -0.352 N 
ATOM      5  C   UNL A   1      45.539  36.369  32.825  1.00  0.00     0.251 C 
ATOM      6  O   UNL A   1      45.929  37.168  31.976  1.00  0.00    -0.269 OA
ATOM      7  H   UNL A   1      46.563  37.259  34.305  1.00  0.00     0.163 HD
BRANCH   5   8
ATOM      8  C   UNL A   1      44.672  35.233  32.414  1.00  0.00     0.041 A 
ATOM      9  C   UNL A   1      42.449  34.433  31.798  1.00  0.00    -0.016 A 
ATOM     10  C   UNL A   1      43.278  35.428  32.335  1.00  0.00     0.022 A 
ATOM     11  C   UNL A   1      43.069  33.289  31.269  1.00  0.00     0.030 A 
ATOM     12  C   UNL A   1      44.434  33.077  31.383  1.00  0.00     0.084 A 
ATOM     13  C   UNL A   1      45.221  34.002  32.052  1.00  0.00     0.035 A 
BRANCH   9  14
ATOM     14  C   UNL A   1      40.978  34.521  31.742  1.00  0.00    -0.018 A 
ATOM     15  C   UNL A   1      38.840  34.572  32.994  1.00  0.00     0.010 A 
ATOM     16  C   UNL A   1      38.157  34.539  31.772  1.00  0.00     0.010 A 
ATOM     17  C   UNL A   1      40.243  34.566  32.949  1.00  0.00     0.018 A 
ATOM     18  C   UNL A   1      38.857  34.496  30.562  1.00  0.00     0.001 A 
ATOM     19  C   UNL A   1      40.256  34.491  30.546  1.00  0.00     0.009 A 
BRANCH  15  20
ATOM     20  C   UNL A   1      38.075  34.532  34.320  1.00  0.00     0.211 C 
ATOM     21  C   UNL A   1      36.558  34.440  34.070  1.00  0.00     0.081 C 
BRANCH  20  22
ATOM     22  N   UNL A   1      38.617  33.568  35.310  1.00  0.00    -0.334 N 
ATOM     23  C   UNL A   1      39.164  34.249  36.486  1.00  0.00     0.333 C 
ATOM     24  C   UNL A   1      37.689  32.524  35.748  1.00  0.00     0.333 C 
ATOM     25  H   UNL A   1      39.357  33.091  34.794  1.00  0.00     0.348 HD
ENDBRANCH  20  22
ENDBRANCH  15  20
ENDBRANCH   9  14
BRANCH  12  26
ATOM     26  S   UNL A   1      45.262  31.742  30.554  1.00  0.00     0.243 S 
ATOM     27  O   UNL A   1      46.584  32.244  30.254  1.00  0.00    -0.207 OA
ATOM     28  O   UNL A   1      45.052  30.576  31.384  1.00  0.00    -0.207 OA
BRANCH  26  29
ATOM     29  N   UNL A   1      44.436  31.532  29.122  1.00  0.00    -0.193 NA
ATOM     30  C   UNL A   1      43.951  30.216  28.661  1.00  0.00     0.131 C 
ATOM     31  C   UNL A   1      44.095  32.669  28.252  1.00  0.00     0.131 C 
ATOM     32  C   UNL A   1      44.258  30.007  27.169  1.00  0.00     0.177 C 
ATOM     33  C   UNL A   1      44.491  32.343  26.814  1.00  0.00     0.177 C 
ATOM     34  O   UNL A   1      43.879  31.129  26.358  1.00  0.00    -0.379 OA
ENDBRANCH  26  29
ENDBRANCH  12  26
ENDBRANCH   5   8
ENDBRANCH   3   4
ENDBRANCH   2   3
ENDBRANCH   1   2
BRANCH   1  35
ATOM     35  C   UNL A   1      46.348  33.117  37.737  1.00  0.00     0.002 C 
BRANCH  35  36
ATOM     36  C   UNL A   1      45.814  34.240  38.630  1.00  0.00     0.021 C 
BRANCH  36  37
ATOM     37  C   UNL A   1      44.763  33.858  39.667  1.00  0.00     0.116 C 
BRANCH  37  38
ATOM     38  N   UNL A   1      43.545  34.642  39.571  1.00  0.00    -0.352 N 
ATOM     39  C   UNL A   1      42.518  34.576  38.661  1.00  0.00     0.251 C 
ATOM     40  H   UNL A   1      43.438  35.329  40.267  1.00  0.00     0.163 HD
ATOM     41  O   UNL A   1      41.614  35.407  38.718  1.00  0.00    -0.269 OA
BRANCH  39  42
ATOM     42  C   UNL A   1      42.502  33.545  37.596  1.00  0.00     0.039 A 
ATOM     43  C   UNL A   1      42.907  33.919  36.310  1.00  0.00     0.014 A 
ATOM     44  C   UNL A   1      42.069  32.237  37.833  1.00  0.00     0.014 A 
ATOM     45  C   UNL A   1      42.940  32.970  35.284  1.00  0.00     0.010 A 
ATOM     46  C   UNL A   1      42.157  31.277  36.822  1.00  0.00     0.010 A 
ATOM     47  C   UNL A   1      42.597  31.634  35.538  1.00  0.00    -0.014 A 
BRANCH  47  48
ATOM     48  C   UNL A   1      42.723  30.604  34.473  1.00  0.00     0.031 A 
ATOM     49  C   UNL A   1      41.700  30.499  33.375  1.00  0.00     0.074 A 
ATOM     50  C   UNL A   1      43.748  29.730  34.520  1.00  0.00     0.049 A 
ATOM     51  N   UNL A   1      41.657  29.666  32.367  1.00  0.00    -0.248 NA
ATOM     52  C   UNL A   1      40.569  31.439  33.426  1.00  0.00     0.031 C 
ATOM     53  C   UNL A   1      44.778  29.689  35.560  1.00  0.00     0.029 A 
ATOM     54  N   UNL A   1      44.090  28.704  33.674  1.00  0.00    -0.354 N 
ATOM     55  C   UNL A   1      40.493  29.968  31.672  1.00  0.00     0.074 A 
ATOM     56  C   UNL A   1      39.838  31.036  32.395  1.00  0.00     0.031 C 
ATOM     57  C   UNL A   1      45.650  28.706  35.277  1.00  0.00     0.029 A 
ATOM     58  C   UNL A   1      45.228  28.033  34.053  1.00  0.00     0.049 A 
ATOM     59  H   UNL A   1      43.569  28.472  32.870  1.00  0.00     0.167 HD
ATOM     60  C   UNL A   1      40.017  29.417  30.527  1.00  0.00     0.031 A 
ATOM     61  C   UNL A   1      45.865  26.993  33.481  1.00  0.00     0.031 A 
ATOM     62  C   UNL A   1      40.672  28.361  29.800  1.00  0.00     0.049 A 
ATOM     63  C   UNL A   1      45.332  26.415  32.201  1.00  0.00     0.074 A 
ATOM     64  C   UNL A   1      40.301  27.784  28.598  1.00  0.00     0.029 A 
ATOM     65  N   UNL A   1      41.832  27.719  30.208  1.00  0.00    -0.354 N 
ATOM     66  N   UNL A   1      44.268  26.765  31.520  1.00  0.00    -0.248 NA
ATOM     67  C   UNL A   1      46.096  25.310  31.606  1.00  0.00     0.031 C 
ATOM     68  C   UNL A   1      41.215  26.766  28.299  1.00  0.00     0.029 A 
ATOM     69  C   UNL A   1      42.179  26.739  29.293  1.00  0.00     0.049 A 
ATOM     70  H   UNL A   1      42.335  27.930  31.028  1.00  0.00     0.167 HD
ATOM     71  C   UNL A   1      44.241  25.934  30.407  1.00  0.00     0.074 A 
ATOM     72  C   UNL A   1      45.407  25.077  30.496  1.00  0.00     0.031 C 
ATOM     73  C   UNL A   1      43.333  25.883  29.402  1.00  0.00     0.031 A 
BRANCH  60  74
ATOM     74  C   UNL A   1      38.715  29.951  29.993  1.00  0.00    -0.014 A 
ATOM     75  C   UNL A   1      38.671  31.145  29.251  1.00  0.00     0.010 A 
ATOM     76  C   UNL A   1      37.524  29.234  30.208  1.00  0.00     0.010 A 
ATOM     77  C   UNL A   1      37.453  31.636  28.773  1.00  0.00     0.020 A 
ATOM     78  C   UNL A   1      36.306  29.710  29.711  1.00  0.00     0.020 A 
ATOM     79  C   UNL A   1      36.277  30.919  29.013  1.00  0.00     0.054 A 
BRANCH  79  80
ATOM     80  S   UNL A   1      34.710  31.572  28.373  1.00  0.00     0.124 S 
ATOM     81  O   UNL A   1      35.170  32.511  27.353  1.00  0.00    -0.237 OA
ATOM     82  O   UNL A   1      34.044  30.374  27.866  1.00  0.00    -0.237 OA
ATOM     83  O   UNL A   1      34.084  32.180  29.544  1.00  0.00    -0.744 OA
ENDBRANCH  79  80
ENDBRANCH  60  74
BRANCH  61  84
ATOM     84  C   UNL A   1      47.098  26.448  34.110  1.00  0.00    -0.014 A 
ATOM     85  C   UNL A   1      48.360  26.942  33.741  1.00  0.00     0.010 A 
ATOM     86  C   UNL A   1      47.011  25.450  35.097  1.00  0.00     0.010 A 
ATOM     87  C   UNL A   1      49.518  26.439  34.340  1.00  0.00     0.020 A 
ATOM     88  C   UNL A   1      48.166  24.960  35.714  1.00  0.00     0.020 A 
ATOM     89  C   UNL A   1      49.413  25.452  35.324  1.00  0.00     0.054 A 
BRANCH  89  90
ATOM     90  S   UNL A   1      50.923  24.857  36.138  1.00  0.00     0.124 S 
ATOM     91  O   UNL A   1      50.387  23.939  37.138  1.00  0.00    -0.237 OA
ATOM     92  O   UNL A   1      51.656  24.237  35.037  1.00  0.00    -0.237 OA
ATOM     93  O   UNL A   1      51.527  26.078  36.666  1.00  0.00    -0.744 OA
ENDBRANCH  89  90
ENDBRANCH  61  84
BRANCH  73  94
ATOM     94  C   UNL A   1      43.573  24.872  28.315  1.00  0.00    -0.014 A 
ATOM     95  C   UNL A   1      44.322  25.205  27.171  1.00  0.00     0.010 A 
ATOM     96  C   UNL A   1      43.058  23.571  28.443  1.00  0.00     0.010 A 
ATOM     97  C   UNL A   1      44.517  24.264  26.156  1.00  0.00     0.020 A 
ATOM     98  C   UNL A   1      43.270  22.620  27.440  1.00  0.00     0.020 A 
ATOM     99  C   UNL A   1      43.983  22.980  26.294  1.00  0.00     0.054 A 
BRANCH  99 100
ATOM    100  S   UNL A   1      44.259  21.768  24.973  1.00  0.00     0.124 S 
ATOM    101  O   UNL A   1      43.992  22.560  23.775  1.00  0.00    -0.237 OA
ATOM    102  O   UNL A   1      45.654  21.382  25.172  1.00  0.00    -0.237 OA
ATOM    103  O   UNL A   1      43.283  20.719  25.258  1.00  0.00    -0.744 OA
ENDBRANCH  99 100
ENDBRANCH  73  94
ENDBRANCH  47  48
ENDBRANCH  39  42
ENDBRANCH  37  38
ENDBRANCH  36  37
ENDBRANCH  35  36
ENDBRANCH   1  35
TORSDOF 21
ENDMDL
