MODEL 1
REMARK VINA RESULT:     -11.6      0.000      0.000
REMARK SMILES CC1(C)CSC[C@H]([NH2+][C@H](C(=O)NCCCCCCNC(=O)c2ccc(-c3c4nc(c(-c5ccc(S(=O)(=O)[O-])cc5)c5ccc([nH]5)c(-c5ccc(S(=O)(=O)[O-])cc5)c5nc(c(-c6ccc(S(=O)(=O)[O-])cc6)c6ccc3[nH]6)C=C5)C=C4)cc2)c2ccccc2)C1
REMARK SMILES IDX 16 1 15 2 14 3 13 4 12 5 10 6 11 7 9 9 8 10 7 13 1 14 2 15
REMARK SMILES IDX 3 16 4 17 88 18 5 19 6 20 82 21 83 22 87 23 84 24 86 25
REMARK SMILES IDX 85 26 17 27 18 28 19 29 20 30 21 32 22 33 23 34 81 35 24 36
REMARK SMILES IDX 80 37 25 38 26 39 27 40 74 41 28 42 79 43 73 44 75 45 29 46
REMARK SMILES IDX 78 47 72 48 71 49 30 51 60 52 41 53 59 54 42 55 45 56 58 57
REMARK SMILES IDX 76 58 43 59 44 60 57 62 77 63 46 64 31 65 32 66 40 67 33 68
REMARK SMILES IDX 39 69 34 70 35 71 36 72 37 73 38 74 61 75 62 76 70 77 63 78
REMARK SMILES IDX 69 79 64 80 65 81 66 82 67 83 68 84 47 85 48 86 56 87 49 88
REMARK SMILES IDX 55 89 50 90 51 91 52 92 53 93 54 94
REMARK H PARENT 12 8 8 11 8 12 19 31 75 50 45 61
REMARK Flexibility Score: inf
ROOT
ATOM      1  C   UNL A   1      38.026  23.737  26.239  1.00  0.00     0.002 C 
ENDROOT
BRANCH   1   2
ATOM      2  C   UNL A   1      36.902  23.325  25.279  1.00  0.00     0.002 C 
BRANCH   2   3
ATOM      3  C   UNL A   1      37.039  21.990  24.534  1.00  0.00     0.021 C 
BRANCH   3   4
ATOM      4  C   UNL A   1      36.244  20.797  25.090  1.00  0.00     0.116 C 
BRANCH   4   5
ATOM      5  N   UNL A   1      35.339  21.188  26.157  1.00  0.00    -0.351 N 
ATOM      6  C   UNL A   1      34.000  21.060  26.361  1.00  0.00     0.283 C 
ATOM      7  O   UNL A   1      33.630  21.396  27.501  1.00  0.00    -0.268 OA
ATOM      8  H   UNL A   1      35.797  21.647  26.898  1.00  0.00     0.163 HD
BRANCH   6   9
ATOM      9  C   UNL A   1      32.934  20.527  25.348  1.00  0.00     0.304 C 
BRANCH   9  10
ATOM     10  N   UNL A   1      32.478  21.509  24.352  1.00  0.00    -0.329 N 
ATOM     11  H   UNL A   1      32.952  21.235  23.492  1.00  0.00     0.347 HD
ATOM     12  H   UNL A   1      31.476  21.438  24.533  1.00  0.00     0.347 HD
BRANCH  10  13
ATOM     13  C   UNL A   1      32.584  22.978  24.374  1.00  0.00     0.193 C 
ATOM     14  C   UNL A   1      32.591  26.088  25.336  1.00  0.00     0.012 C 
ATOM     15  C   UNL A   1      31.362  25.267  24.910  1.00  0.00    -0.021 C 
ATOM     16  C   UNL A   1      30.156  25.752  25.752  1.00  0.00     0.012 C 
ATOM     17  C   UNL A   1      31.025  25.457  23.435  1.00  0.00     0.076 C 
ATOM     18  C   UNL A   1      31.535  23.763  25.181  1.00  0.00     0.073 C 
ATOM     19  S   UNL A   1      32.415  25.092  22.333  1.00  0.00    -0.155 SA
ATOM     20  C   UNL A   1      32.905  23.451  22.932  1.00  0.00     0.134 C 
ENDBRANCH  10  13
ENDBRANCH   9  10
BRANCH   9  21
ATOM     21  C   UNL A   1      33.032  19.055  24.957  1.00  0.00     0.019 A 
ATOM     22  C   UNL A   1      32.724  18.014  25.845  1.00  0.00     0.010 A 
ATOM     23  C   UNL A   1      33.391  18.705  23.640  1.00  0.00     0.010 A 
ATOM     24  C   UNL A   1      32.862  16.675  25.458  1.00  0.00     0.001 A 
ATOM     25  C   UNL A   1      33.571  17.371  23.266  1.00  0.00     0.001 A 
ATOM     26  C   UNL A   1      33.314  16.356  24.180  1.00  0.00     0.000 A 
ENDBRANCH   9  21
ENDBRANCH   6   9
ENDBRANCH   4   5
ENDBRANCH   3   4
ENDBRANCH   2   3
ENDBRANCH   1   2
BRANCH   1  27
ATOM     27  C   UNL A   1      39.088  22.700  26.622  1.00  0.00     0.021 C 
BRANCH  27  28
ATOM     28  C   UNL A   1      40.444  23.194  27.120  1.00  0.00     0.116 C 
BRANCH  28  29
ATOM     29  N   UNL A   1      41.142  23.980  26.121  1.00  0.00    -0.352 N 
ATOM     30  C   UNL A   1      41.471  25.314  26.099  1.00  0.00     0.251 C 
ATOM     31  H   UNL A   1      41.428  23.474  25.326  1.00  0.00     0.163 HD
ATOM     32  O   UNL A   1      41.872  25.799  25.042  1.00  0.00    -0.269 OA
BRANCH  30  33
ATOM     33  C   UNL A   1      41.353  26.187  27.299  1.00  0.00     0.039 A 
ATOM     34  C   UNL A   1      40.240  26.014  28.133  1.00  0.00     0.014 A 
ATOM     35  C   UNL A   1      42.239  27.236  27.561  1.00  0.00     0.014 A 
ATOM     36  C   UNL A   1      40.031  26.863  29.227  1.00  0.00     0.010 A 
ATOM     37  C   UNL A   1      42.057  28.054  28.686  1.00  0.00     0.010 A 
ATOM     38  C   UNL A   1      40.943  27.888  29.524  1.00  0.00    -0.014 A 
BRANCH  38  39
ATOM     39  C   UNL A   1      40.720  28.787  30.692  1.00  0.00     0.031 A 
ATOM     40  C   UNL A   1      41.585  28.687  31.924  1.00  0.00     0.074 A 
ATOM     41  C   UNL A   1      39.725  29.698  30.661  1.00  0.00     0.049 A 
ATOM     42  N   UNL A   1      41.552  29.408  33.018  1.00  0.00    -0.248 NA
ATOM     43  C   UNL A   1      42.610  27.632  31.934  1.00  0.00     0.031 C 
ATOM     44  C   UNL A   1      38.790  29.887  29.550  1.00  0.00     0.029 A 
ATOM     45  N   UNL A   1      39.336  30.636  31.586  1.00  0.00    -0.354 N 
ATOM     46  C   UNL A   1      42.537  28.887  33.851  1.00  0.00     0.074 A 
ATOM     47  C   UNL A   1      43.123  27.763  33.150  1.00  0.00     0.031 C 
ATOM     48  C   UNL A   1      37.957  30.899  29.846  1.00  0.00     0.029 A 
ATOM     49  C   UNL A   1      38.277  31.412  31.176  1.00  0.00     0.049 A 
ATOM     50  H   UNL A   1      39.776  30.744  32.460  1.00  0.00     0.167 HD
ATOM     51  C   UNL A   1      42.931  29.309  35.078  1.00  0.00     0.031 A 
ATOM     52  C   UNL A   1      37.634  32.425  31.791  1.00  0.00     0.031 A 
ATOM     53  C   UNL A   1      42.359  30.430  35.778  1.00  0.00     0.049 A 
ATOM     54  C   UNL A   1      38.089  32.879  33.151  1.00  0.00     0.074 A 
ATOM     55  C   UNL A   1      42.735  30.965  36.999  1.00  0.00     0.029 A 
ATOM     56  N   UNL A   1      41.288  31.185  35.326  1.00  0.00    -0.354 N 
ATOM     57  N   UNL A   1      39.069  32.415  33.888  1.00  0.00    -0.248 NA
ATOM     58  C   UNL A   1      37.359  34.003  33.754  1.00  0.00     0.031 C 
ATOM     59  C   UNL A   1      41.862  32.015  37.307  1.00  0.00     0.029 A 
ATOM     60  C   UNL A   1      40.975  32.167  36.253  1.00  0.00     0.049 A 
ATOM     61  H   UNL A   1      40.819  31.045  34.472  1.00  0.00     0.167 HD
ATOM     62  C   UNL A   1      39.090  33.209  35.031  1.00  0.00     0.074 A 
ATOM     63  C   UNL A   1      38.032  34.187  34.882  1.00  0.00     0.031 C 
ATOM     64  C   UNL A   1      39.918  33.135  36.102  1.00  0.00     0.031 A 
BRANCH  51  65
ATOM     65  C   UNL A   1      44.036  28.538  35.754  1.00  0.00    -0.014 A 
ATOM     66  C   UNL A   1      45.387  28.789  35.455  1.00  0.00     0.010 A 
ATOM     67  C   UNL A   1      43.721  27.569  36.724  1.00  0.00     0.010 A 
ATOM     68  C   UNL A   1      46.400  28.048  36.072  1.00  0.00     0.020 A 
ATOM     69  C   UNL A   1      44.731  26.845  37.365  1.00  0.00     0.020 A 
ATOM     70  C   UNL A   1      46.064  27.074  37.017  1.00  0.00     0.054 A 
BRANCH  70  71
ATOM     71  S   UNL A   1      47.396  26.124  37.802  1.00  0.00     0.124 S 
ATOM     72  O   UNL A   1      48.373  26.027  36.720  1.00  0.00    -0.237 OA
ATOM     73  O   UNL A   1      47.784  26.976  38.922  1.00  0.00    -0.237 OA
ATOM     74  O   UNL A   1      46.752  24.866  38.174  1.00  0.00    -0.744 OA
ENDBRANCH  70  71
ENDBRANCH  51  65
BRANCH  52  75
ATOM     75  C   UNL A   1      36.506  33.106  31.101  1.00  0.00    -0.014 A 
ATOM     76  C   UNL A   1      35.225  33.124  31.680  1.00  0.00     0.010 A 
ATOM     77  C   UNL A   1      36.714  33.767  29.876  1.00  0.00     0.010 A 
ATOM     78  C   UNL A   1      34.170  33.786  31.044  1.00  0.00     0.020 A 
ATOM     79  C   UNL A   1      35.667  34.450  29.250  1.00  0.00     0.020 A 
ATOM     80  C   UNL A   1      34.399  34.449  29.835  1.00  0.00     0.054 A 
BRANCH  80  81
ATOM     81  S   UNL A   1      33.036  35.368  29.067  1.00  0.00     0.124 S 
ATOM     82  O   UNL A   1      33.728  36.526  28.508  1.00  0.00    -0.237 OA
ATOM     83  O   UNL A   1      32.517  34.411  28.094  1.00  0.00    -0.237 OA
ATOM     84  O   UNL A   1      32.142  35.651  30.187  1.00  0.00    -0.744 OA
ENDBRANCH  80  81
ENDBRANCH  52  75
BRANCH  64  85
ATOM     85  C   UNL A   1      39.737  34.158  37.192  1.00  0.00    -0.014 A 
ATOM     86  C   UNL A   1      39.020  33.857  38.364  1.00  0.00     0.010 A 
ATOM     87  C   UNL A   1      40.335  35.425  37.062  1.00  0.00     0.010 A 
ATOM     88  C   UNL A   1      38.880  34.815  39.373  1.00  0.00     0.020 A 
ATOM     89  C   UNL A   1      40.218  36.377  38.079  1.00  0.00     0.020 A 
ATOM     90  C   UNL A   1      39.478  36.071  39.223  1.00  0.00     0.054 A 
BRANCH  90  91
ATOM     91  S   UNL A   1      39.318  37.283  40.563  1.00  0.00     0.124 S 
ATOM     92  O   UNL A   1      38.840  36.454  41.666  1.00  0.00    -0.237 OA
ATOM     93  O   UNL A   1      40.680  37.791  40.704  1.00  0.00    -0.237 OA
ATOM     94  O   UNL A   1      38.352  38.247  40.043  1.00  0.00    -0.744 OA
ENDBRANCH  90  91
ENDBRANCH  64  85
ENDBRANCH  38  39
ENDBRANCH  30  33
ENDBRANCH  28  29
ENDBRANCH  27  28
ENDBRANCH   1  27
TORSDOF 19
ENDMDL
MODEL 2
REMARK VINA RESULT:     -11.2      6.424     11.981
REMARK SMILES CC1(C)CSC[C@H]([NH2+][C@H](C(=O)NCCCCCCNC(=O)c2ccc(-c3c4nc(c(-c5ccc(S(=O)(=O)[O-])cc5)c5ccc([nH]5)c(-c5ccc(S(=O)(=O)[O-])cc5)c5nc(c(-c6ccc(S(=O)(=O)[O-])cc6)c6ccc3[nH]6)C=C5)C=C4)cc2)c2ccccc2)C1
REMARK SMILES IDX 16 1 15 2 14 3 13 4 12 5 10 6 11 7 9 9 8 10 7 13 1 14 2 15
REMARK SMILES IDX 3 16 4 17 88 18 5 19 6 20 82 21 83 22 87 23 84 24 86 25
REMARK SMILES IDX 85 26 17 27 18 28 19 29 20 30 21 32 22 33 23 34 81 35 24 36
REMARK SMILES IDX 80 37 25 38 26 39 27 40 74 41 28 42 79 43 73 44 75 45 29 46
REMARK SMILES IDX 78 47 72 48 71 49 30 51 60 52 41 53 59 54 42 55 45 56 58 57
REMARK SMILES IDX 76 58 43 59 44 60 57 62 77 63 46 64 31 65 32 66 40 67 33 68
REMARK SMILES IDX 39 69 34 70 35 71 36 72 37 73 38 74 61 75 62 76 70 77 63 78
REMARK SMILES IDX 69 79 64 80 65 81 66 82 67 83 68 84 47 85 48 86 56 87 49 88
REMARK SMILES IDX 55 89 50 90 51 91 52 92 53 93 54 94
REMARK H PARENT 12 8 8 11 8 12 19 31 75 50 45 61
REMARK Flexibility Score: inf
ROOT
ATOM      1  C   UNL A   1      35.254  29.905  27.334  1.00  0.00     0.002 C 
ENDROOT
BRANCH   1   2
ATOM      2  C   UNL A   1      34.109  28.918  27.074  1.00  0.00     0.002 C 
BRANCH   2   3
ATOM      3  C   UNL A   1      32.676  29.465  27.035  1.00  0.00     0.021 C 
BRANCH   3   4
ATOM      4  C   UNL A   1      32.227  30.152  25.734  1.00  0.00     0.116 C 
BRANCH   4   5
ATOM      5  N   UNL A   1      32.949  29.660  24.574  1.00  0.00    -0.351 N 
ATOM      6  C   UNL A   1      32.652  28.793  23.568  1.00  0.00     0.283 C 
ATOM      7  O   UNL A   1      33.505  28.762  22.663  1.00  0.00    -0.268 OA
ATOM      8  H   UNL A   1      33.855  30.037  24.499  1.00  0.00     0.163 HD
BRANCH   6   9
ATOM      9  C   UNL A   1      31.379  27.894  23.438  1.00  0.00     0.304 C 
BRANCH   9  10
ATOM     10  N   UNL A   1      31.299  26.787  24.403  1.00  0.00    -0.329 N 
ATOM     11  H   UNL A   1      31.679  27.177  25.266  1.00  0.00     0.347 HD
ATOM     12  H   UNL A   1      30.326  26.528  24.241  1.00  0.00     0.347 HD
BRANCH  10  13
ATOM     13  C   UNL A   1      31.885  25.437  24.326  1.00  0.00     0.193 C 
ATOM     14  C   UNL A   1      33.240  22.580  25.097  1.00  0.00     0.012 C 
ATOM     15  C   UNL A   1      33.979  23.910  24.877  1.00  0.00    -0.021 C 
ATOM     16  C   UNL A   1      35.196  23.938  25.833  1.00  0.00     0.012 C 
ATOM     17  C   UNL A   1      34.489  24.056  23.447  1.00  0.00     0.076 C 
ATOM     18  C   UNL A   1      33.106  25.132  25.211  1.00  0.00     0.073 C 
ATOM     19  S   UNL A   1      33.186  23.868  22.203  1.00  0.00    -0.155 SA
ATOM     20  C   UNL A   1      31.942  25.031  22.830  1.00  0.00     0.134 C 
ENDBRANCH  10  13
ENDBRANCH   9  10
BRANCH   9  21
ATOM     21  C   UNL A   1      30.096  28.580  22.978  1.00  0.00     0.019 A 
ATOM     22  C   UNL A   1      28.821  28.137  23.359  1.00  0.00     0.010 A 
ATOM     23  C   UNL A   1      30.172  29.742  22.182  1.00  0.00     0.010 A 
ATOM     24  C   UNL A   1      27.668  28.773  22.886  1.00  0.00     0.001 A 
ATOM     25  C   UNL A   1      29.022  30.350  21.674  1.00  0.00     0.001 A 
ATOM     26  C   UNL A   1      27.769  29.859  22.019  1.00  0.00     0.000 A 
ENDBRANCH   9  21
ENDBRANCH   6   9
ENDBRANCH   4   5
ENDBRANCH   3   4
ENDBRANCH   2   3
ENDBRANCH   1   2
BRANCH   1  27
ATOM     27  C   UNL A   1      34.938  31.240  28.017  1.00  0.00     0.021 C 
BRANCH  27  28
ATOM     28  C   UNL A   1      35.950  31.810  29.009  1.00  0.00     0.116 C 
BRANCH  28  29
ATOM     29  N   UNL A   1      35.865  31.171  30.308  1.00  0.00    -0.352 N 
ATOM     30  C   UNL A   1      36.670  30.224  30.895  1.00  0.00     0.251 C 
ATOM     31  H   UNL A   1      35.104  31.463  30.861  1.00  0.00     0.163 HD
ATOM     32  O   UNL A   1      36.271  29.673  31.920  1.00  0.00    -0.269 OA
BRANCH  30  33
ATOM     33  C   UNL A   1      37.995  29.841  30.335  1.00  0.00     0.039 A 
ATOM     34  C   UNL A   1      38.990  29.421  31.227  1.00  0.00     0.014 A 
ATOM     35  C   UNL A   1      38.316  29.990  28.982  1.00  0.00     0.014 A 
ATOM     36  C   UNL A   1      40.281  29.130  30.767  1.00  0.00     0.010 A 
ATOM     37  C   UNL A   1      39.594  29.650  28.515  1.00  0.00     0.010 A 
ATOM     38  C   UNL A   1      40.597  29.231  29.404  1.00  0.00    -0.014 A 
BRANCH  38  39
ATOM     39  C   UNL A   1      41.971  28.917  28.917  1.00  0.00     0.031 A 
ATOM     40  C   UNL A   1      42.317  27.540  28.407  1.00  0.00     0.074 A 
ATOM     41  C   UNL A   1      42.928  29.868  28.941  1.00  0.00     0.049 A 
ATOM     42  N   UNL A   1      43.451  27.100  27.919  1.00  0.00    -0.248 NA
ATOM     43  C   UNL A   1      41.257  26.522  28.466  1.00  0.00     0.031 C 
ATOM     44  C   UNL A   1      42.747  31.234  29.436  1.00  0.00     0.029 A 
ATOM     45  N   UNL A   1      44.240  29.832  28.538  1.00  0.00    -0.354 N 
ATOM     46  C   UNL A   1      43.247  25.756  27.627  1.00  0.00     0.074 A 
ATOM     47  C   UNL A   1      41.892  25.442  28.031  1.00  0.00     0.031 C 
ATOM     48  C   UNL A   1      43.895  31.913  29.279  1.00  0.00     0.029 A 
ATOM     49  C   UNL A   1      44.902  31.027  28.700  1.00  0.00     0.049 A 
ATOM     50  H   UNL A   1      44.668  29.026  28.166  1.00  0.00     0.167 HD
ATOM     51  C   UNL A   1      44.099  24.863  27.063  1.00  0.00     0.031 A 
ATOM     52  C   UNL A   1      46.172  31.379  28.415  1.00  0.00     0.031 A 
ATOM     53  C   UNL A   1      45.445  25.169  26.651  1.00  0.00     0.049 A 
ATOM     54  C   UNL A   1      47.100  30.375  27.787  1.00  0.00     0.074 A 
ATOM     55  C   UNL A   1      46.359  24.344  26.016  1.00  0.00     0.029 A 
ATOM     56  N   UNL A   1      46.073  26.391  26.836  1.00  0.00    -0.354 N 
ATOM     57  N   UNL A   1      46.862  29.129  27.456  1.00  0.00    -0.248 NA
ATOM     58  C   UNL A   1      48.463  30.832  27.481  1.00  0.00     0.031 C 
ATOM     59  C   UNL A   1      47.556  25.052  25.859  1.00  0.00     0.029 A 
ATOM     60  C   UNL A   1      47.370  26.335  26.349  1.00  0.00     0.049 A 
ATOM     61  H   UNL A   1      45.660  27.181  27.251  1.00  0.00     0.167 HD
ATOM     62  C   UNL A   1      48.038  28.661  26.878  1.00  0.00     0.074 A 
ATOM     63  C   UNL A   1      48.981  29.760  26.895  1.00  0.00     0.031 C 
ATOM     64  C   UNL A   1      48.306  27.431  26.372  1.00  0.00     0.031 A 
BRANCH  51  65
ATOM     65  C   UNL A   1      43.599  23.455  26.868  1.00  0.00    -0.014 A 
ATOM     66  C   UNL A   1      43.218  22.659  27.963  1.00  0.00     0.010 A 
ATOM     67  C   UNL A   1      43.479  22.929  25.569  1.00  0.00     0.010 A 
ATOM     68  C   UNL A   1      42.779  21.346  27.768  1.00  0.00     0.020 A 
ATOM     69  C   UNL A   1      43.014  21.626  25.366  1.00  0.00     0.020 A 
ATOM     70  C   UNL A   1      42.689  20.834  26.470  1.00  0.00     0.054 A 
BRANCH  70  71
ATOM     71  S   UNL A   1      42.120  19.126  26.243  1.00  0.00     0.124 S 
ATOM     72  O   UNL A   1      42.341  18.558  27.569  1.00  0.00    -0.237 OA
ATOM     73  O   UNL A   1      40.722  19.300  25.860  1.00  0.00    -0.237 OA
ATOM     74  O   UNL A   1      42.991  18.608  25.190  1.00  0.00    -0.744 OA
ENDBRANCH  70  71
ENDBRANCH  51  65
BRANCH  52  75
ATOM     75  C   UNL A   1      46.629  32.767  28.690  1.00  0.00    -0.014 A 
ATOM     76  C   UNL A   1      46.479  33.772  27.718  1.00  0.00     0.010 A 
ATOM     77  C   UNL A   1      47.189  33.098  29.937  1.00  0.00     0.010 A 
ATOM     78  C   UNL A   1      46.885  35.082  27.986  1.00  0.00     0.020 A 
ATOM     79  C   UNL A   1      47.575  34.413  30.216  1.00  0.00     0.020 A 
ATOM     80  C   UNL A   1      47.426  35.396  29.236  1.00  0.00     0.054 A 
BRANCH  80  81
ATOM     81  S   UNL A   1      47.875  37.118  29.591  1.00  0.00     0.124 S 
ATOM     82  O   UNL A   1      48.633  37.486  28.399  1.00  0.00    -0.237 OA
ATOM     83  O   UNL A   1      46.572  37.762  29.736  1.00  0.00    -0.237 OA
ATOM     84  O   UNL A   1      48.652  37.021  30.824  1.00  0.00    -0.744 OA
ENDBRANCH  80  81
ENDBRANCH  52  75
BRANCH  64  85
ATOM     85  C   UNL A   1      49.667  27.210  25.767  1.00  0.00    -0.014 A 
ATOM     86  C   UNL A   1      50.732  26.700  26.531  1.00  0.00     0.010 A 
ATOM     87  C   UNL A   1      49.869  27.472  24.399  1.00  0.00     0.010 A 
ATOM     88  C   UNL A   1      51.982  26.484  25.944  1.00  0.00     0.020 A 
ATOM     89  C   UNL A   1      51.111  27.235  23.804  1.00  0.00     0.020 A 
ATOM     90  C   UNL A   1      52.165  26.755  24.584  1.00  0.00     0.054 A 
BRANCH  90  91
ATOM     91  S   UNL A   1      53.785  26.427  23.835  1.00  0.00     0.124 S 
ATOM     92  O   UNL A   1      54.481  27.693  24.053  1.00  0.00    -0.237 OA
ATOM     93  O   UNL A   1      54.279  25.296  24.615  1.00  0.00    -0.237 OA
ATOM     94  O   UNL A   1      53.466  26.123  22.443  1.00  0.00    -0.744 OA
ENDBRANCH  90  91
ENDBRANCH  64  85
ENDBRANCH  38  39
ENDBRANCH  30  33
ENDBRANCH  28  29
ENDBRANCH  27  28
ENDBRANCH   1  27
TORSDOF 19
ENDMDL
MODEL 3
REMARK VINA RESULT:     -11.2      6.452     12.459
REMARK SMILES CC1(C)CSC[C@H]([NH2+][C@H](C(=O)NCCCCCCNC(=O)c2ccc(-c3c4nc(c(-c5ccc(S(=O)(=O)[O-])cc5)c5ccc([nH]5)c(-c5ccc(S(=O)(=O)[O-])cc5)c5nc(c(-c6ccc(S(=O)(=O)[O-])cc6)c6ccc3[nH]6)C=C5)C=C4)cc2)c2ccccc2)C1
REMARK SMILES IDX 16 1 15 2 14 3 13 4 12 5 10 6 11 7 9 9 8 10 7 13 1 14 2 15
REMARK SMILES IDX 3 16 4 17 88 18 5 19 6 20 82 21 83 22 87 23 84 24 86 25
REMARK SMILES IDX 85 26 17 27 18 28 19 29 20 30 21 32 22 33 23 34 81 35 24 36
REMARK SMILES IDX 80 37 25 38 26 39 27 40 74 41 28 42 79 43 73 44 75 45 29 46
REMARK SMILES IDX 78 47 72 48 71 49 30 51 60 52 41 53 59 54 42 55 45 56 58 57
REMARK SMILES IDX 76 58 43 59 44 60 57 62 77 63 46 64 31 65 32 66 40 67 33 68
REMARK SMILES IDX 39 69 34 70 35 71 36 72 37 73 38 74 61 75 62 76 70 77 63 78
REMARK SMILES IDX 69 79 64 80 65 81 66 82 67 83 68 84 47 85 48 86 56 87 49 88
REMARK SMILES IDX 55 89 50 90 51 91 52 92 53 93 54 94
REMARK H PARENT 12 8 8 11 8 12 19 31 75 50 45 61
REMARK Flexibility Score: inf
ROOT
ATOM      1  C   UNL A   1      35.352  31.693  27.971  1.00  0.00     0.002 C 
ENDROOT
BRANCH   1   2
ATOM      2  C   UNL A   1      33.859  31.595  27.634  1.00  0.00     0.002 C 
BRANCH   2   3
ATOM      3  C   UNL A   1      33.306  30.239  27.175  1.00  0.00     0.021 C 
BRANCH   3   4
ATOM      4  C   UNL A   1      32.308  30.253  26.006  1.00  0.00     0.116 C 
BRANCH   4   5
ATOM      5  N   UNL A   1      32.908  29.794  24.765  1.00  0.00    -0.351 N 
ATOM      6  C   UNL A   1      32.424  29.212  23.634  1.00  0.00     0.283 C 
ATOM      7  O   UNL A   1      33.263  29.117  22.719  1.00  0.00    -0.268 OA
ATOM      8  H   UNL A   1      33.882  29.937  24.735  1.00  0.00     0.163 HD
BRANCH   6   9
ATOM      9  C   UNL A   1      30.969  28.699  23.381  1.00  0.00     0.304 C 
BRANCH   9  10
ATOM     10  N   UNL A   1      30.546  27.582  24.241  1.00  0.00    -0.329 N 
ATOM     11  H   UNL A   1      30.076  28.033  25.027  1.00  0.00     0.347 HD
ATOM     12  H   UNL A   1      30.098  27.014  23.523  1.00  0.00     0.347 HD
BRANCH  10  13
ATOM     13  C   UNL A   1      31.359  26.523  24.863  1.00  0.00     0.193 C 
ATOM     14  C   UNL A   1      33.820  24.548  25.661  1.00  0.00     0.012 C 
ATOM     15  C   UNL A   1      32.873  24.387  24.459  1.00  0.00    -0.021 C 
ATOM     16  C   UNL A   1      33.685  23.761  23.300  1.00  0.00     0.012 C 
ATOM     17  C   UNL A   1      31.697  23.468  24.772  1.00  0.00     0.076 C 
ATOM     18  C   UNL A   1      32.321  25.732  23.959  1.00  0.00     0.073 C 
ATOM     19  S   UNL A   1      30.754  23.987  26.228  1.00  0.00    -0.155 SA
ATOM     20  C   UNL A   1      30.443  25.730  25.831  1.00  0.00     0.134 C 
ENDBRANCH  10  13
ENDBRANCH   9  10
BRANCH   9  21
ATOM     21  C   UNL A   1      29.941  29.737  22.942  1.00  0.00     0.019 A 
ATOM     22  C   UNL A   1      29.453  29.811  21.629  1.00  0.00     0.010 A 
ATOM     23  C   UNL A   1      29.404  30.633  23.889  1.00  0.00     0.010 A 
ATOM     24  C   UNL A   1      28.536  30.801  21.257  1.00  0.00     0.001 A 
ATOM     25  C   UNL A   1      28.523  31.648  23.510  1.00  0.00     0.001 A 
ATOM     26  C   UNL A   1      28.096  31.738  22.190  1.00  0.00     0.000 A 
ENDBRANCH   9  21
ENDBRANCH   6   9
ENDBRANCH   4   5
ENDBRANCH   3   4
ENDBRANCH   2   3
ENDBRANCH   1   2
BRANCH   1  27
ATOM     27  C   UNL A   1      35.920  33.042  28.424  1.00  0.00     0.021 C 
BRANCH  27  28
ATOM     28  C   UNL A   1      36.763  33.089  29.697  1.00  0.00     0.116 C 
BRANCH  28  29
ATOM     29  N   UNL A   1      36.334  32.109  30.676  1.00  0.00    -0.352 N 
ATOM     30  C   UNL A   1      36.816  30.853  30.957  1.00  0.00     0.251 C 
ATOM     31  H   UNL A   1      35.570  32.389  31.231  1.00  0.00     0.163 HD
ATOM     32  O   UNL A   1      36.147  30.121  31.685  1.00  0.00    -0.269 OA
BRANCH  30  33
ATOM     33  C   UNL A   1      38.105  30.350  30.410  1.00  0.00     0.039 A 
ATOM     34  C   UNL A   1      39.153  30.111  31.309  1.00  0.00     0.014 A 
ATOM     35  C   UNL A   1      38.345  30.215  29.039  1.00  0.00     0.014 A 
ATOM     36  C   UNL A   1      40.415  29.720  30.844  1.00  0.00     0.010 A 
ATOM     37  C   UNL A   1      39.593  29.773  28.577  1.00  0.00     0.010 A 
ATOM     38  C   UNL A   1      40.648  29.535  29.472  1.00  0.00    -0.014 A 
BRANCH  38  39
ATOM     39  C   UNL A   1      41.992  29.113  28.980  1.00  0.00     0.031 A 
ATOM     40  C   UNL A   1      43.148  30.082  28.955  1.00  0.00     0.074 A 
ATOM     41  C   UNL A   1      42.181  27.852  28.539  1.00  0.00     0.049 A 
ATOM     42  N   UNL A   1      44.390  29.878  28.588  1.00  0.00    -0.248 NA
ATOM     43  C   UNL A   1      42.870  31.462  29.382  1.00  0.00     0.031 C 
ATOM     44  C   UNL A   1      41.148  26.817  28.476  1.00  0.00     0.029 A 
ATOM     45  N   UNL A   1      43.308  27.227  28.063  1.00  0.00    -0.354 N 
ATOM     46  C   UNL A   1      45.036  31.101  28.726  1.00  0.00     0.074 A 
ATOM     47  C   UNL A   1      44.039  32.052  29.172  1.00  0.00     0.031 C 
ATOM     48  C   UNL A   1      41.696  25.678  28.019  1.00  0.00     0.029 A 
ATOM     49  C   UNL A   1      43.110  25.908  27.729  1.00  0.00     0.049 A 
ATOM     50  H   UNL A   1      44.177  27.681  27.970  1.00  0.00     0.167 HD
ATOM     51  C   UNL A   1      46.341  31.408  28.516  1.00  0.00     0.031 A 
ATOM     52  C   UNL A   1      43.962  24.981  27.247  1.00  0.00     0.031 A 
ATOM     53  C   UNL A   1      47.341  30.467  28.081  1.00  0.00     0.049 A 
ATOM     54  C   UNL A   1      45.405  25.342  27.024  1.00  0.00     0.074 A 
ATOM     55  C   UNL A   1      48.698  30.675  27.900  1.00  0.00     0.029 A 
ATOM     56  N   UNL A   1      47.094  29.142  27.753  1.00  0.00    -0.354 N 
ATOM     57  N   UNL A   1      46.009  26.487  27.228  1.00  0.00    -0.248 NA
ATOM     58  C   UNL A   1      46.285  24.277  26.520  1.00  0.00     0.031 C 
ATOM     59  C   UNL A   1      49.264  29.489  27.418  1.00  0.00     0.029 A 
ATOM     60  C   UNL A   1      48.269  28.528  27.349  1.00  0.00     0.049 A 
ATOM     61  H   UNL A   1      46.215  28.703  27.801  1.00  0.00     0.167 HD
ATOM     62  C   UNL A   1      47.344  26.274  26.903  1.00  0.00     0.074 A 
ATOM     63  C   UNL A   1      47.462  24.888  26.498  1.00  0.00     0.031 C 
ATOM     64  C   UNL A   1      48.380  27.149  26.944  1.00  0.00     0.031 A 
BRANCH  51  65
ATOM     65  C   UNL A   1      46.762  32.837  28.746  1.00  0.00    -0.014 A 
ATOM     66  C   UNL A   1      47.219  33.269  30.004  1.00  0.00     0.010 A 
ATOM     67  C   UNL A   1      46.730  33.755  27.680  1.00  0.00     0.010 A 
ATOM     68  C   UNL A   1      47.583  34.603  30.207  1.00  0.00     0.020 A 
ATOM     69  C   UNL A   1      47.119  35.085  27.871  1.00  0.00     0.020 A 
ATOM     70  C   UNL A   1      47.521  35.505  29.141  1.00  0.00     0.054 A 
BRANCH  70  71
ATOM     71  S   UNL A   1      47.996  37.233  29.430  1.00  0.00     0.124 S 
ATOM     72  O   UNL A   1      46.800  37.767  30.076  1.00  0.00    -0.237 OA
ATOM     73  O   UNL A   1      49.169  37.105  30.290  1.00  0.00    -0.237 OA
ATOM     74  O   UNL A   1      48.263  37.748  28.089  1.00  0.00    -0.744 OA
ENDBRANCH  70  71
ENDBRANCH  51  65
BRANCH  52  75
ATOM     75  C   UNL A   1      43.473  23.602  26.977  1.00  0.00    -0.014 A 
ATOM     76  C   UNL A   1      43.253  23.172  25.657  1.00  0.00     0.010 A 
ATOM     77  C   UNL A   1      43.255  22.704  28.037  1.00  0.00     0.010 A 
ATOM     78  C   UNL A   1      42.818  21.867  25.402  1.00  0.00     0.020 A 
ATOM     79  C   UNL A   1      42.843  21.392  27.783  1.00  0.00     0.020 A 
ATOM     80  C   UNL A   1      42.620  20.984  26.466  1.00  0.00     0.054 A 
BRANCH  80  81
ATOM     81  S   UNL A   1      42.131  19.274  26.108  1.00  0.00     0.124 S 
ATOM     82  O   UNL A   1      42.925  18.974  24.919  1.00  0.00    -0.237 OA
ATOM     83  O   UNL A   1      42.524  18.570  27.325  1.00  0.00    -0.237 OA
ATOM     84  O   UNL A   1      40.689  19.370  25.892  1.00  0.00    -0.744 OA
ENDBRANCH  80  81
ENDBRANCH  52  75
BRANCH  64  85
ATOM     85  C   UNL A   1      49.743  26.631  26.568  1.00  0.00    -0.014 A 
ATOM     86  C   UNL A   1      50.614  26.098  27.533  1.00  0.00     0.010 A 
ATOM     87  C   UNL A   1      50.138  26.635  25.217  1.00  0.00     0.010 A 
ATOM     88  C   UNL A   1      51.867  25.604  27.160  1.00  0.00     0.020 A 
ATOM     89  C   UNL A   1      51.381  26.121  24.836  1.00  0.00     0.020 A 
ATOM     90  C   UNL A   1      52.244  25.621  25.813  1.00  0.00     0.054 A 
BRANCH  90  91
ATOM     91  S   UNL A   1      53.858  24.938  25.346  1.00  0.00     0.124 S 
ATOM     92  O   UNL A   1      54.321  25.903  24.351  1.00  0.00    -0.237 OA
ATOM     93  O   UNL A   1      54.589  24.940  26.610  1.00  0.00    -0.237 OA
ATOM     94  O   UNL A   1      53.534  23.612  24.824  1.00  0.00    -0.744 OA
ENDBRANCH  90  91
ENDBRANCH  64  85
ENDBRANCH  38  39
ENDBRANCH  30  33
ENDBRANCH  28  29
ENDBRANCH  27  28
ENDBRANCH   1  27
TORSDOF 19
ENDMDL
