MODEL 1
REMARK VINA RESULT:     -10.3      0.000      0.000
REMARK SMILES C/C=C/c1cncc(-c2ccc([C@@H](C)C(=O)NCCCCCCNC(=O)c3ccc(-c4c5nc(c(-c6ccc(S(=O)(=O)[O-])cc6)c6ccc([nH]6)c(-c6ccc(S(=O)(=O)[O-])cc6)c6nc(c(-c7ccc(S(=O)(=O)[O-])cc7)c7ccc4[nH]7)C=C6)C=C5)cc3)cc2)c1
REMARK SMILES IDX 20 1 19 2 18 3 17 4 15 5 16 6 13 8 14 9 12 10 9 11 10 12
REMARK SMILES IDX 88 13 11 14 87 15 8 16 4 17 5 18 89 19 6 20 7 21 3 22 1 23
REMARK SMILES IDX 2 24 21 25 22 26 23 27 24 28 25 29 26 31 27 32 28 33 86 34
REMARK SMILES IDX 29 35 85 36 30 37 31 38 32 39 79 40 33 41 84 42 78 43 80 44
REMARK SMILES IDX 34 45 83 46 77 47 76 48 35 50 65 51 46 52 64 53 47 54 50 55
REMARK SMILES IDX 63 56 81 57 48 58 49 59 62 61 82 62 51 63 36 64 37 65 45 66
REMARK SMILES IDX 38 67 44 68 39 69 40 70 41 71 42 72 43 73 66 74 67 75 75 76
REMARK SMILES IDX 68 77 74 78 69 79 70 80 71 81 72 82 73 83 52 84 53 85 61 86
REMARK SMILES IDX 54 87 60 88 55 89 56 90 57 91 58 92 59 93
REMARK H PARENT 17 7 24 30 80 49 50 60
REMARK Flexibility Score: inf
ROOT
ATOM      1  C   UNL A   1      31.054  26.477  26.138  1.00  0.00     0.002 C 
ENDROOT
BRANCH   1   2
ATOM      2  C   UNL A   1      31.709  25.220  25.558  1.00  0.00     0.021 C 
BRANCH   2   3
ATOM      3  C   UNL A   1      31.234  24.872  24.145  1.00  0.00     0.116 C 
BRANCH   3   4
ATOM      4  N   UNL A   1      32.035  25.531  23.135  1.00  0.00    -0.356 N 
ATOM      5  C   UNL A   1      33.128  25.118  22.440  1.00  0.00     0.227 C 
ATOM      6  O   UNL A   1      33.662  25.957  21.703  1.00  0.00    -0.274 OA
ATOM      7  H   UNL A   1      31.735  26.442  22.912  1.00  0.00     0.163 HD
BRANCH   5   8
ATOM      8  C   UNL A   1      33.696  23.692  22.508  1.00  0.00     0.105 C 
ATOM      9  C   UNL A   1      32.625  22.600  22.580  1.00  0.00     0.023 C 
BRANCH   8  10
ATOM     10  C   UNL A   1      34.866  23.540  23.470  1.00  0.00    -0.036 A 
ATOM     11  C   UNL A   1      37.141  23.263  25.185  1.00  0.00    -0.017 A 
ATOM     12  C   UNL A   1      36.078  24.123  25.498  1.00  0.00     0.009 A 
ATOM     13  C   UNL A   1      37.032  22.532  23.993  1.00  0.00     0.009 A 
ATOM     14  C   UNL A   1      34.950  24.232  24.678  1.00  0.00     0.005 A 
ATOM     15  C   UNL A   1      35.925  22.679  23.142  1.00  0.00     0.005 A 
BRANCH  11  16
ATOM     16  C   UNL A   1      38.303  23.132  26.092  1.00  0.00     0.001 A 
ATOM     17  C   UNL A   1      40.215  21.912  27.001  1.00  0.00    -0.007 A 
ATOM     18  C   UNL A   1      40.454  23.008  27.823  1.00  0.00     0.119 A 
ATOM     19  C   UNL A   1      39.120  21.989  26.129  1.00  0.00     0.020 A 
ATOM     20  N   UNL A   1      39.702  24.128  27.835  1.00  0.00    -0.263 NA
ATOM     21  C   UNL A   1      38.654  24.157  26.979  1.00  0.00     0.119 A 
BRANCH  17  22
ATOM     22  C   UNL A   1      41.058  20.719  27.134  1.00  0.00     0.005 C 
ATOM     23  C   UNL A   1      42.476  18.854  26.277  1.00  0.00     0.035 C 
ATOM     24  C   UNL A   1      41.599  20.052  26.103  1.00  0.00    -0.030 C 
ENDBRANCH  17  22
ENDBRANCH  11  16
ENDBRANCH   8  10
ENDBRANCH   5   8
ENDBRANCH   3   4
ENDBRANCH   2   3
ENDBRANCH   1   2
BRANCH   1  25
ATOM     25  C   UNL A   1      32.032  27.576  26.574  1.00  0.00     0.002 C 
BRANCH  25  26
ATOM     26  C   UNL A   1      33.146  27.901  25.574  1.00  0.00     0.021 C 
BRANCH  26  27
ATOM     27  C   UNL A   1      34.319  28.685  26.159  1.00  0.00     0.116 C 
BRANCH  27  28
ATOM     28  N   UNL A   1      33.892  29.966  26.699  1.00  0.00    -0.352 N 
ATOM     29  C   UNL A   1      34.426  30.702  27.728  1.00  0.00     0.251 C 
ATOM     30  H   UNL A   1      33.106  30.365  26.262  1.00  0.00     0.163 HD
ATOM     31  O   UNL A   1      33.788  31.636  28.206  1.00  0.00    -0.269 OA
BRANCH  29  32
ATOM     32  C   UNL A   1      35.762  30.364  28.264  1.00  0.00     0.039 A 
ATOM     33  C   UNL A   1      36.895  30.925  27.670  1.00  0.00     0.014 A 
ATOM     34  C   UNL A   1      35.898  29.471  29.332  1.00  0.00     0.014 A 
ATOM     35  C   UNL A   1      38.161  30.633  28.181  1.00  0.00     0.010 A 
ATOM     36  C   UNL A   1      37.155  29.234  29.881  1.00  0.00     0.010 A 
ATOM     37  C   UNL A   1      38.299  29.808  29.309  1.00  0.00    -0.014 A 
BRANCH  37  38
ATOM     38  C   UNL A   1      39.632  29.533  29.905  1.00  0.00     0.031 A 
ATOM     39  C   UNL A   1      40.082  30.281  31.131  1.00  0.00     0.074 A 
ATOM     40  C   UNL A   1      40.459  28.651  29.310  1.00  0.00     0.049 A 
ATOM     41  N   UNL A   1      41.229  30.223  31.757  1.00  0.00    -0.248 NA
ATOM     42  C   UNL A   1      39.126  31.235  31.718  1.00  0.00     0.031 C 
ATOM     43  C   UNL A   1      40.151  27.883  28.101  1.00  0.00     0.029 A 
ATOM     44  N   UNL A   1      41.731  28.253  29.639  1.00  0.00    -0.354 N 
ATOM     45  C   UNL A   1      41.138  31.136  32.801  1.00  0.00     0.074 A 
ATOM     46  C   UNL A   1      39.843  31.772  32.694  1.00  0.00     0.031 C 
ATOM     47  C   UNL A   1      41.191  27.087  27.809  1.00  0.00     0.029 A 
ATOM     48  C   UNL A   1      42.256  27.316  28.781  1.00  0.00     0.049 A 
ATOM     49  H   UNL A   1      42.221  28.605  30.417  1.00  0.00     0.167 HD
ATOM     50  C   UNL A   1      42.040  31.407  33.775  1.00  0.00     0.031 A 
ATOM     51  C   UNL A   1      43.459  26.711  28.774  1.00  0.00     0.031 A 
ATOM     52  C   UNL A   1      43.326  30.769  33.881  1.00  0.00     0.049 A 
ATOM     53  C   UNL A   1      44.455  27.044  29.850  1.00  0.00     0.074 A 
ATOM     54  C   UNL A   1      44.298  30.948  34.851  1.00  0.00     0.029 A 
ATOM     55  N   UNL A   1      43.820  29.829  32.990  1.00  0.00    -0.354 N 
ATOM     56  N   UNL A   1      44.332  27.881  30.854  1.00  0.00    -0.248 NA
ATOM     57  C   UNL A   1      45.745  26.344  29.800  1.00  0.00     0.031 C 
ATOM     58  C   UNL A   1      45.397  30.150  34.520  1.00  0.00     0.029 A 
ATOM     59  C   UNL A   1      45.088  29.430  33.377  1.00  0.00     0.049 A 
ATOM     60  H   UNL A   1      43.340  29.494  32.199  1.00  0.00     0.167 HD
ATOM     61  C   UNL A   1      45.520  27.787  31.571  1.00  0.00     0.074 A 
ATOM     62  C   UNL A   1      46.341  26.804  30.893  1.00  0.00     0.031 C 
ATOM     63  C   UNL A   1      45.895  28.452  32.691  1.00  0.00     0.031 A 
BRANCH  50  64
ATOM     64  C   UNL A   1      41.665  32.442  34.804  1.00  0.00    -0.014 A 
ATOM     65  C   UNL A   1      40.957  32.083  35.965  1.00  0.00     0.010 A 
ATOM     66  C   UNL A   1      42.058  33.781  34.629  1.00  0.00     0.010 A 
ATOM     67  C   UNL A   1      40.615  33.050  36.913  1.00  0.00     0.020 A 
ATOM     68  C   UNL A   1      41.742  34.747  35.590  1.00  0.00     0.020 A 
ATOM     69  C   UNL A   1      41.007  34.378  36.718  1.00  0.00     0.054 A 
BRANCH  69  70
ATOM     70  S   UNL A   1      40.569  35.606  37.978  1.00  0.00     0.124 S 
ATOM     71  O   UNL A   1      41.884  36.039  38.447  1.00  0.00    -0.237 OA
ATOM     72  O   UNL A   1      39.820  36.599  37.212  1.00  0.00    -0.237 OA
ATOM     73  O   UNL A   1      39.782  34.847  38.946  1.00  0.00    -0.744 OA
ENDBRANCH  69  70
ENDBRANCH  50  64
BRANCH  51  74
ATOM     74  C   UNL A   1      43.778  25.708  27.721  1.00  0.00    -0.014 A 
ATOM     75  C   UNL A   1      44.180  26.126  26.440  1.00  0.00     0.010 A 
ATOM     76  C   UNL A   1      43.705  24.331  27.999  1.00  0.00     0.010 A 
ATOM     77  C   UNL A   1      44.491  25.188  25.453  1.00  0.00     0.020 A 
ATOM     78  C   UNL A   1      44.042  23.389  27.022  1.00  0.00     0.020 A 
ATOM     79  C   UNL A   1      44.424  23.823  25.752  1.00  0.00     0.054 A 
BRANCH  79  80
ATOM     80  S   UNL A   1      44.893  22.624  24.474  1.00  0.00     0.124 S 
ATOM     81  O   UNL A   1      45.204  21.440  25.269  1.00  0.00    -0.237 OA
ATOM     82  O   UNL A   1      43.683  22.541  23.659  1.00  0.00    -0.237 OA
ATOM     83  O   UNL A   1      46.035  23.255  23.817  1.00  0.00    -0.744 OA
ENDBRANCH  79  80
ENDBRANCH  51  74
BRANCH  63  84
ATOM     84  C   UNL A   1      47.241  28.119  33.278  1.00  0.00    -0.014 A 
ATOM     85  C   UNL A   1      47.384  27.114  34.252  1.00  0.00     0.010 A 
ATOM     86  C   UNL A   1      48.386  28.785  32.805  1.00  0.00     0.010 A 
ATOM     87  C   UNL A   1      48.647  26.804  34.764  1.00  0.00     0.020 A 
ATOM     88  C   UNL A   1      49.653  28.458  33.294  1.00  0.00     0.020 A 
ATOM     89  C   UNL A   1      49.773  27.477  34.281  1.00  0.00     0.054 A 
BRANCH  89  90
ATOM     90  S   UNL A   1      51.405  27.024  34.928  1.00  0.00     0.124 S 
ATOM     91  O   UNL A   1      51.631  25.725  34.300  1.00  0.00    -0.237 OA
ATOM     92  O   UNL A   1      52.255  28.111  34.446  1.00  0.00    -0.237 OA
ATOM     93  O   UNL A   1      51.208  26.990  36.376  1.00  0.00    -0.744 OA
ENDBRANCH  89  90
ENDBRANCH  63  84
ENDBRANCH  37  38
ENDBRANCH  29  32
ENDBRANCH  27  28
ENDBRANCH  26  27
ENDBRANCH  25  26
ENDBRANCH   1  25
TORSDOF 19
ENDMDL
MODEL 2
REMARK VINA RESULT:     -10.2      2.846     10.100
REMARK SMILES C/C=C/c1cncc(-c2ccc([C@@H](C)C(=O)NCCCCCCNC(=O)c3ccc(-c4c5nc(c(-c6ccc(S(=O)(=O)[O-])cc6)c6ccc([nH]6)c(-c6ccc(S(=O)(=O)[O-])cc6)c6nc(c(-c7ccc(S(=O)(=O)[O-])cc7)c7ccc4[nH]7)C=C6)C=C5)cc3)cc2)c1
REMARK SMILES IDX 20 1 19 2 18 3 17 4 15 5 16 6 13 8 14 9 12 10 9 11 10 12
REMARK SMILES IDX 88 13 11 14 87 15 8 16 4 17 5 18 89 19 6 20 7 21 3 22 1 23
REMARK SMILES IDX 2 24 21 25 22 26 23 27 24 28 25 29 26 31 27 32 28 33 86 34
REMARK SMILES IDX 29 35 85 36 30 37 31 38 32 39 79 40 33 41 84 42 78 43 80 44
REMARK SMILES IDX 34 45 83 46 77 47 76 48 35 50 65 51 46 52 64 53 47 54 50 55
REMARK SMILES IDX 63 56 81 57 48 58 49 59 62 61 82 62 51 63 36 64 37 65 45 66
REMARK SMILES IDX 38 67 44 68 39 69 40 70 41 71 42 72 43 73 66 74 67 75 75 76
REMARK SMILES IDX 68 77 74 78 69 79 70 80 71 81 72 82 73 83 52 84 53 85 61 86
REMARK SMILES IDX 54 87 60 88 55 89 56 90 57 91 58 92 59 93
REMARK H PARENT 17 7 24 30 80 49 50 60
REMARK Flexibility Score: inf
ROOT
ATOM      1  C   UNL A   1      44.994  24.798  28.390  1.00  0.00     0.002 C 
ENDROOT
BRANCH   1   2
ATOM      2  C   UNL A   1      44.303  23.571  28.994  1.00  0.00     0.021 C 
BRANCH   2   3
ATOM      3  C   UNL A   1      42.870  23.364  28.499  1.00  0.00     0.116 C 
BRANCH   3   4
ATOM      4  N   UNL A   1      42.832  23.075  27.080  1.00  0.00    -0.356 N 
ATOM      5  C   UNL A   1      42.005  22.287  26.343  1.00  0.00     0.227 C 
ATOM      6  O   UNL A   1      42.289  22.160  25.145  1.00  0.00    -0.274 OA
ATOM      7  H   UNL A   1      43.530  23.531  26.556  1.00  0.00     0.163 HD
BRANCH   5   8
ATOM      8  C   UNL A   1      40.759  21.589  26.910  1.00  0.00     0.105 C 
ATOM      9  C   UNL A   1      40.870  20.064  26.958  1.00  0.00     0.023 C 
BRANCH   8  10
ATOM     10  C   UNL A   1      39.446  22.144  26.377  1.00  0.00    -0.036 A 
ATOM     11  C   UNL A   1      36.922  23.086  25.408  1.00  0.00    -0.017 A 
ATOM     12  C   UNL A   1      37.761  23.891  26.193  1.00  0.00     0.009 A 
ATOM     13  C   UNL A   1      37.384  21.796  25.109  1.00  0.00     0.009 A 
ATOM     14  C   UNL A   1      39.010  23.443  26.637  1.00  0.00     0.005 A 
ATOM     15  C   UNL A   1      38.614  21.326  25.597  1.00  0.00     0.005 A 
BRANCH  11  16
ATOM     16  C   UNL A   1      35.625  23.599  24.914  1.00  0.00     0.001 A 
ATOM     17  C   UNL A   1      33.853  25.279  24.823  1.00  0.00    -0.007 A 
ATOM     18  C   UNL A   1      33.198  24.460  23.911  1.00  0.00     0.119 A 
ATOM     19  C   UNL A   1      35.084  24.829  25.324  1.00  0.00     0.020 A 
ATOM     20  N   UNL A   1      33.667  23.269  23.485  1.00  0.00    -0.263 NA
ATOM     21  C   UNL A   1      34.855  22.874  23.997  1.00  0.00     0.119 A 
BRANCH  17  22
ATOM     22  C   UNL A   1      33.206  26.518  25.268  1.00  0.00     0.005 C 
ATOM     23  C   UNL A   1      32.965  28.548  26.698  1.00  0.00     0.035 C 
ATOM     24  C   UNL A   1      33.635  27.276  26.289  1.00  0.00    -0.030 C 
ENDBRANCH  17  22
ENDBRANCH  11  16
ENDBRANCH   8  10
ENDBRANCH   5   8
ENDBRANCH   3   4
ENDBRANCH   2   3
ENDBRANCH   1   2
BRANCH   1  25
ATOM     25  C   UNL A   1      46.038  24.489  27.310  1.00  0.00     0.002 C 
BRANCH  25  26
ATOM     26  C   UNL A   1      45.697  24.988  25.902  1.00  0.00     0.021 C 
BRANCH  26  27
ATOM     27  C   UNL A   1      44.787  26.214  25.864  1.00  0.00     0.116 C 
BRANCH  27  28
ATOM     28  N   UNL A   1      43.563  25.951  25.123  1.00  0.00    -0.352 N 
ATOM     29  C   UNL A   1      42.256  26.148  25.495  1.00  0.00     0.251 C 
ATOM     30  H   UNL A   1      43.691  25.577  24.221  1.00  0.00     0.163 HD
ATOM     31  O   UNL A   1      41.352  25.639  24.841  1.00  0.00    -0.269 OA
BRANCH  29  32
ATOM     32  C   UNL A   1      41.943  26.965  26.687  1.00  0.00     0.039 A 
ATOM     33  C   UNL A   1      41.201  26.396  27.726  1.00  0.00     0.014 A 
ATOM     34  C   UNL A   1      42.353  28.299  26.767  1.00  0.00     0.014 A 
ATOM     35  C   UNL A   1      40.919  27.148  28.867  1.00  0.00     0.010 A 
ATOM     36  C   UNL A   1      42.128  29.025  27.934  1.00  0.00     0.010 A 
ATOM     37  C   UNL A   1      41.404  28.460  28.993  1.00  0.00    -0.014 A 
BRANCH  37  38
ATOM     38  C   UNL A   1      41.166  29.256  30.224  1.00  0.00     0.031 A 
ATOM     39  C   UNL A   1      42.054  29.075  31.426  1.00  0.00     0.074 A 
ATOM     40  C   UNL A   1      40.117  30.100  30.279  1.00  0.00     0.049 A 
ATOM     41  N   UNL A   1      41.966  29.633  32.606  1.00  0.00    -0.248 NA
ATOM     42  C   UNL A   1      43.173  28.128  31.292  1.00  0.00     0.031 C 
ATOM     43  C   UNL A   1      39.167  30.343  29.191  1.00  0.00     0.029 A 
ATOM     44  N   UNL A   1      39.672  30.910  31.294  1.00  0.00    -0.354 N 
ATOM     45  C   UNL A   1      43.008  29.098  33.356  1.00  0.00     0.074 A 
ATOM     46  C   UNL A   1      43.682  28.134  32.515  1.00  0.00     0.031 C 
ATOM     47  C   UNL A   1      38.271  31.261  29.587  1.00  0.00     0.029 A 
ATOM     48  C   UNL A   1      38.554  31.642  30.967  1.00  0.00     0.049 A 
ATOM     49  H   UNL A   1      40.111  30.962  32.174  1.00  0.00     0.167 HD
ATOM     50  C   UNL A   1      43.383  29.397  34.623  1.00  0.00     0.031 A 
ATOM     51  C   UNL A   1      37.837  32.517  31.696  1.00  0.00     0.031 A 
ATOM     52  C   UNL A   1      42.713  30.360  35.457  1.00  0.00     0.049 A 
ATOM     53  C   UNL A   1      38.257  32.816  33.108  1.00  0.00     0.074 A 
ATOM     54  C   UNL A   1      43.037  30.761  36.741  1.00  0.00     0.029 A 
ATOM     55  N   UNL A   1      41.584  31.077  35.088  1.00  0.00    -0.354 N 
ATOM     56  N   UNL A   1      39.271  32.331  33.785  1.00  0.00    -0.248 NA
ATOM     57  C   UNL A   1      37.445  33.789  33.851  1.00  0.00     0.031 C 
ATOM     58  C   UNL A   1      42.077  31.684  37.166  1.00  0.00     0.029 A 
ATOM     59  C   UNL A   1      41.188  31.903  36.126  1.00  0.00     0.049 A 
ATOM     60  H   UNL A   1      41.130  31.007  34.217  1.00  0.00     0.167 HD
ATOM     61  C   UNL A   1      39.234  32.960  35.024  1.00  0.00     0.074 A 
ATOM     62  C   UNL A   1      38.106  33.869  34.998  1.00  0.00     0.031 C 
ATOM     63  C   UNL A   1      40.062  32.801  36.086  1.00  0.00     0.031 A 
BRANCH  50  64
ATOM     64  C   UNL A   1      44.577  28.670  35.185  1.00  0.00    -0.014 A 
ATOM     65  C   UNL A   1      44.424  27.454  35.876  1.00  0.00     0.010 A 
ATOM     66  C   UNL A   1      45.871  29.186  34.988  1.00  0.00     0.010 A 
ATOM     67  C   UNL A   1      45.538  26.788  36.393  1.00  0.00     0.020 A 
ATOM     68  C   UNL A   1      46.991  28.507  35.479  1.00  0.00     0.020 A 
ATOM     69  C   UNL A   1      46.815  27.321  36.194  1.00  0.00     0.054 A 
BRANCH  69  70
ATOM     70  S   UNL A   1      48.244  26.421  36.855  1.00  0.00     0.124 S 
ATOM     71  O   UNL A   1      47.611  25.503  37.800  1.00  0.00    -0.237 OA
ATOM     72  O   UNL A   1      48.812  25.798  35.662  1.00  0.00    -0.237 OA
ATOM     73  O   UNL A   1      49.065  27.467  37.459  1.00  0.00    -0.744 OA
ENDBRANCH  69  70
ENDBRANCH  50  64
BRANCH  51  74
ATOM     74  C   UNL A   1      36.655  33.192  31.090  1.00  0.00    -0.014 A 
ATOM     75  C   UNL A   1      35.521  33.475  31.870  1.00  0.00     0.010 A 
ATOM     76  C   UNL A   1      36.668  33.576  29.736  1.00  0.00     0.010 A 
ATOM     77  C   UNL A   1      34.416  34.120  31.308  1.00  0.00     0.020 A 
ATOM     78  C   UNL A   1      35.575  34.245  29.176  1.00  0.00     0.020 A 
ATOM     79  C   UNL A   1      34.452  34.504  29.964  1.00  0.00     0.054 A 
BRANCH  79  80
ATOM     80  S   UNL A   1      33.031  35.394  29.271  1.00  0.00     0.124 S 
ATOM     81  O   UNL A   1      32.600  34.495  28.205  1.00  0.00    -0.237 OA
ATOM     82  O   UNL A   1      32.132  35.495  30.418  1.00  0.00    -0.237 OA
ATOM     83  O   UNL A   1      33.606  36.662  28.827  1.00  0.00    -0.744 OA
ENDBRANCH  79  80
ENDBRANCH  51  74
BRANCH  63  84
ATOM     84  C   UNL A   1      39.802  33.652  37.301  1.00  0.00    -0.014 A 
ATOM     85  C   UNL A   1      40.221  34.993  37.357  1.00  0.00     0.010 A 
ATOM     86  C   UNL A   1      39.078  33.114  38.380  1.00  0.00     0.010 A 
ATOM     87  C   UNL A   1      39.946  35.772  38.484  1.00  0.00     0.020 A 
ATOM     88  C   UNL A   1      38.777  33.897  39.497  1.00  0.00     0.020 A 
ATOM     89  C   UNL A   1      39.225  35.218  39.547  1.00  0.00     0.054 A 
BRANCH  89  90
ATOM     90  S   UNL A   1      38.841  36.263  40.979  1.00  0.00     0.124 S 
ATOM     91  O   UNL A   1      38.522  37.540  40.347  1.00  0.00    -0.237 OA
ATOM     92  O   UNL A   1      37.711  35.565  41.591  1.00  0.00    -0.237 OA
ATOM     93  O   UNL A   1      40.074  36.246  41.762  1.00  0.00    -0.744 OA
ENDBRANCH  89  90
ENDBRANCH  63  84
ENDBRANCH  37  38
ENDBRANCH  29  32
ENDBRANCH  27  28
ENDBRANCH  26  27
ENDBRANCH  25  26
ENDBRANCH   1  25
TORSDOF 19
ENDMDL
MODEL 3
REMARK VINA RESULT:     -10.1      3.744     10.943
REMARK SMILES C/C=C/c1cncc(-c2ccc([C@@H](C)C(=O)NCCCCCCNC(=O)c3ccc(-c4c5nc(c(-c6ccc(S(=O)(=O)[O-])cc6)c6ccc([nH]6)c(-c6ccc(S(=O)(=O)[O-])cc6)c6nc(c(-c7ccc(S(=O)(=O)[O-])cc7)c7ccc4[nH]7)C=C6)C=C5)cc3)cc2)c1
REMARK SMILES IDX 20 1 19 2 18 3 17 4 15 5 16 6 13 8 14 9 12 10 9 11 10 12
REMARK SMILES IDX 88 13 11 14 87 15 8 16 4 17 5 18 89 19 6 20 7 21 3 22 1 23
REMARK SMILES IDX 2 24 21 25 22 26 23 27 24 28 25 29 26 31 27 32 28 33 86 34
REMARK SMILES IDX 29 35 85 36 30 37 31 38 32 39 79 40 33 41 84 42 78 43 80 44
REMARK SMILES IDX 34 45 83 46 77 47 76 48 35 50 65 51 46 52 64 53 47 54 50 55
REMARK SMILES IDX 63 56 81 57 48 58 49 59 62 61 82 62 51 63 36 64 37 65 45 66
REMARK SMILES IDX 38 67 44 68 39 69 40 70 41 71 42 72 43 73 66 74 67 75 75 76
REMARK SMILES IDX 68 77 74 78 69 79 70 80 71 81 72 82 73 83 52 84 53 85 61 86
REMARK SMILES IDX 54 87 60 88 55 89 56 90 57 91 58 92 59 93
REMARK H PARENT 17 7 24 30 80 49 50 60
REMARK Flexibility Score: inf
ROOT
ATOM      1  C   UNL A   1      43.151  23.305  25.152  1.00  0.00     0.002 C 
ENDROOT
BRANCH   1   2
ATOM      2  C   UNL A   1      43.856  24.137  26.228  1.00  0.00     0.021 C 
BRANCH   2   3
ATOM      3  C   UNL A   1      45.340  23.801  26.393  1.00  0.00     0.116 C 
BRANCH   3   4
ATOM      4  N   UNL A   1      46.103  24.160  25.216  1.00  0.00    -0.356 N 
ATOM      5  C   UNL A   1      47.134  25.030  25.040  1.00  0.00     0.227 C 
ATOM      6  O   UNL A   1      47.520  25.199  23.876  1.00  0.00    -0.274 OA
ATOM      7  H   UNL A   1      45.826  23.691  24.396  1.00  0.00     0.163 HD
BRANCH   5   8
ATOM      8  C   UNL A   1      47.833  25.770  26.191  1.00  0.00     0.105 C 
ATOM      9  C   UNL A   1      48.169  24.879  27.389  1.00  0.00     0.023 C 
BRANCH   8  10
ATOM     10  C   UNL A   1      47.214  27.121  26.521  1.00  0.00    -0.036 A 
ATOM     11  C   UNL A   1      46.122  29.712  27.060  1.00  0.00    -0.017 A 
ATOM     12  C   UNL A   1      45.304  28.584  26.891  1.00  0.00     0.009 A 
ATOM     13  C   UNL A   1      47.507  29.508  26.964  1.00  0.00     0.009 A 
ATOM     14  C   UNL A   1      45.840  27.312  26.663  1.00  0.00     0.005 A 
ATOM     15  C   UNL A   1      48.043  28.242  26.683  1.00  0.00     0.005 A 
BRANCH  11  16
ATOM     16  C   UNL A   1      45.533  31.039  27.345  1.00  0.00     0.001 A 
ATOM     17  C   UNL A   1      45.478  33.175  28.531  1.00  0.00    -0.007 A 
ATOM     18  C   UNL A   1      44.351  33.499  27.783  1.00  0.00     0.119 A 
ATOM     19  C   UNL A   1      46.066  31.923  28.299  1.00  0.00     0.020 A 
ATOM     20  N   UNL A   1      43.794  32.689  26.859  1.00  0.00    -0.263 NA
ATOM     21  C   UNL A   1      44.393  31.491  26.670  1.00  0.00     0.119 A 
BRANCH  17  22
ATOM     22  C   UNL A   1      45.946  34.107  29.562  1.00  0.00     0.005 C 
ATOM     23  C   UNL A   1      47.020  36.202  30.386  1.00  0.00     0.035 C 
ATOM     24  C   UNL A   1      46.580  35.262  29.310  1.00  0.00    -0.030 C 
ENDBRANCH  17  22
ENDBRANCH  11  16
ENDBRANCH   8  10
ENDBRANCH   5   8
ENDBRANCH   3   4
ENDBRANCH   2   3
ENDBRANCH   1   2
BRANCH   1  25
ATOM     25  C   UNL A   1      42.365  22.097  25.678  1.00  0.00     0.002 C 
BRANCH  25  26
ATOM     26  C   UNL A   1      41.954  22.169  27.152  1.00  0.00     0.021 C 
BRANCH  26  27
ATOM     27  C   UNL A   1      40.619  21.502  27.476  1.00  0.00     0.116 C 
BRANCH  27  28
ATOM     28  N   UNL A   1      39.628  21.756  26.443  1.00  0.00    -0.352 N 
ATOM     29  C   UNL A   1      38.907  22.896  26.185  1.00  0.00     0.251 C 
ATOM     30  H   UNL A   1      39.449  21.001  25.838  1.00  0.00     0.163 HD
ATOM     31  O   UNL A   1      37.939  22.849  25.432  1.00  0.00    -0.269 OA
BRANCH  29  32
ATOM     32  C   UNL A   1      39.290  24.174  26.823  1.00  0.00     0.039 A 
ATOM     33  C   UNL A   1      38.865  24.438  28.127  1.00  0.00     0.014 A 
ATOM     34  C   UNL A   1      40.043  25.123  26.124  1.00  0.00     0.014 A 
ATOM     35  C   UNL A   1      39.241  25.630  28.750  1.00  0.00     0.010 A 
ATOM     36  C   UNL A   1      40.472  26.280  26.770  1.00  0.00     0.010 A 
ATOM     37  C   UNL A   1      40.071  26.548  28.086  1.00  0.00    -0.014 A 
BRANCH  37  38
ATOM     38  C   UNL A   1      40.531  27.793  28.752  1.00  0.00     0.031 A 
ATOM     39  C   UNL A   1      41.916  27.871  29.338  1.00  0.00     0.074 A 
ATOM     40  C   UNL A   1      39.684  28.834  28.878  1.00  0.00     0.049 A 
ATOM     41  N   UNL A   1      42.473  28.847  30.008  1.00  0.00    -0.248 NA
ATOM     42  C   UNL A   1      42.779  26.691  29.168  1.00  0.00     0.031 C 
ATOM     43  C   UNL A   1      38.308  28.871  28.379  1.00  0.00     0.029 A 
ATOM     44  N   UNL A   1      39.854  30.060  29.470  1.00  0.00    -0.354 N 
ATOM     45  C   UNL A   1      43.743  28.396  30.348  1.00  0.00     0.074 A 
ATOM     46  C   UNL A   1      43.856  27.041  29.855  1.00  0.00     0.031 C 
ATOM     47  C   UNL A   1      37.771  30.069  28.657  1.00  0.00     0.029 A 
ATOM     48  C   UNL A   1      38.746  30.870  29.391  1.00  0.00     0.049 A 
ATOM     49  H   UNL A   1      40.692  30.335  29.908  1.00  0.00     0.167 HD
ATOM     50  C   UNL A   1      44.735  29.057  30.992  1.00  0.00     0.031 A 
ATOM     51  C   UNL A   1      38.535  32.114  29.861  1.00  0.00     0.031 A 
ATOM     52  C   UNL A   1      44.621  30.407  31.478  1.00  0.00     0.049 A 
ATOM     53  C   UNL A   1      39.641  32.820  30.594  1.00  0.00     0.074 A 
ATOM     54  C   UNL A   1      45.581  31.178  32.111  1.00  0.00     0.029 A 
ATOM     55  N   UNL A   1      43.481  31.190  31.381  1.00  0.00    -0.354 N 
ATOM     56  N   UNL A   1      40.851  32.391  30.868  1.00  0.00    -0.248 NA
ATOM     57  C   UNL A   1      39.359  34.180  31.072  1.00  0.00     0.031 C 
ATOM     58  C   UNL A   1      45.005  32.409  32.440  1.00  0.00     0.029 A 
ATOM     59  C   UNL A   1      43.705  32.428  31.958  1.00  0.00     0.049 A 
ATOM     60  H   UNL A   1      42.635  30.907  30.964  1.00  0.00     0.167 HD
ATOM     61  C   UNL A   1      41.483  33.440  31.526  1.00  0.00     0.074 A 
ATOM     62  C   UNL A   1      40.527  34.527  31.597  1.00  0.00     0.031 C 
ATOM     63  C   UNL A   1      42.743  33.499  32.024  1.00  0.00     0.031 A 
BRANCH  50  64
ATOM     64  C   UNL A   1      46.033  28.324  31.210  1.00  0.00    -0.014 A 
ATOM     65  C   UNL A   1      46.247  27.563  32.374  1.00  0.00     0.010 A 
ATOM     66  C   UNL A   1      47.036  28.361  30.225  1.00  0.00     0.010 A 
ATOM     67  C   UNL A   1      47.454  26.886  32.567  1.00  0.00     0.020 A 
ATOM     68  C   UNL A   1      48.234  27.662  30.401  1.00  0.00     0.020 A 
ATOM     69  C   UNL A   1      48.442  26.942  31.579  1.00  0.00     0.054 A 
BRANCH  69  70
ATOM     70  S   UNL A   1      49.989  26.034  31.846  1.00  0.00     0.124 S 
ATOM     71  O   UNL A   1      50.119  25.287  30.597  1.00  0.00    -0.237 OA
ATOM     72  O   UNL A   1      50.962  27.107  32.039  1.00  0.00    -0.237 OA
ATOM     73  O   UNL A   1      49.716  25.224  33.030  1.00  0.00    -0.744 OA
ENDBRANCH  69  70
ENDBRANCH  50  64
BRANCH  51  74
ATOM     74  C   UNL A   1      37.224  32.781  29.628  1.00  0.00    -0.014 A 
ATOM     75  C   UNL A   1      36.275  32.863  30.661  1.00  0.00     0.010 A 
ATOM     76  C   UNL A   1      36.928  33.360  28.380  1.00  0.00     0.010 A 
ATOM     77  C   UNL A   1      35.049  33.499  30.449  1.00  0.00     0.020 A 
ATOM     78  C   UNL A   1      35.713  34.021  28.172  1.00  0.00     0.020 A 
ATOM     79  C   UNL A   1      34.777  34.077  29.206  1.00  0.00     0.054 A 
BRANCH  79  80
ATOM     80  S   UNL A   1      33.205  34.952  28.973  1.00  0.00     0.124 S 
ATOM     81  O   UNL A   1      32.523  34.098  28.006  1.00  0.00    -0.237 OA
ATOM     82  O   UNL A   1      32.644  34.957  30.322  1.00  0.00    -0.237 OA
ATOM     83  O   UNL A   1      33.614  36.262  28.473  1.00  0.00    -0.744 OA
ENDBRANCH  79  80
ENDBRANCH  51  74
BRANCH  63  84
ATOM     84  C   UNL A   1      43.177  34.792  32.662  1.00  0.00    -0.014 A 
ATOM     85  C   UNL A   1      43.561  35.898  31.882  1.00  0.00     0.010 A 
ATOM     86  C   UNL A   1      43.146  34.916  34.062  1.00  0.00     0.010 A 
ATOM     87  C   UNL A   1      43.936  37.097  32.496  1.00  0.00     0.020 A 
ATOM     88  C   UNL A   1      43.493  36.122  34.678  1.00  0.00     0.020 A 
ATOM     89  C   UNL A   1      43.898  37.201  33.890  1.00  0.00     0.054 A 
BRANCH  89  90
ATOM     90  S   UNL A   1      44.345  38.781  34.659  1.00  0.00     0.124 S 
ATOM     91  O   UNL A   1      44.229  38.470  36.081  1.00  0.00    -0.237 OA
ATOM     92  O   UNL A   1      45.705  39.001  34.173  1.00  0.00    -0.237 OA
ATOM     93  O   UNL A   1      43.346  39.714  34.142  1.00  0.00    -0.744 OA
ENDBRANCH  89  90
ENDBRANCH  63  84
ENDBRANCH  37  38
ENDBRANCH  29  32
ENDBRANCH  27  28
ENDBRANCH  26  27
ENDBRANCH  25  26
ENDBRANCH   1  25
TORSDOF 19
ENDMDL
