MODEL 1
REMARK VINA RESULT:      -8.1      0.000      0.000
REMARK SMILES CCCCCCNC(=O)Oc1cccc(-c2ccc([C@@H](C)C(=O)NCCCCCCNC(=O)c3ccc(-c4c5nc(c(-c6ccc(S(=O)(=O)[O-])cc6)c6ccc([nH]6)c(-c6ccc(S(=O)(=O)[O-])cc6)c6nc(c(-c7ccc(S(=O)(=O)[O-])cc7)c7ccc4[nH]7)C=C6)C=C5)cc3)cc2N)c1
REMARK SMILES IDX 22 1 23 2 24 3 20 5 21 6 19 7 16 8 17 9 95 10 18 11 94 12
REMARK SMILES IDX 15 13 11 14 12 15 97 16 13 17 14 18 10 19 8 20 7 21 9 23
REMARK SMILES IDX 6 24 5 25 4 26 3 27 2 28 1 29 96 30 25 33 26 34 27 35 28 36
REMARK SMILES IDX 29 37 30 38 31 39 32 40 33 42 34 43 35 44 93 45 36 46 92 47
REMARK SMILES IDX 37 48 38 49 39 50 86 51 40 52 91 53 85 54 87 55 41 56 90 57
REMARK SMILES IDX 84 58 83 59 42 61 72 62 53 63 71 64 54 65 57 66 70 67 88 68
REMARK SMILES IDX 55 69 56 70 69 72 89 73 58 74 43 75 44 76 52 77 45 78 51 79
REMARK SMILES IDX 46 80 47 81 48 82 49 83 50 84 73 85 74 86 82 87 75 88 81 89
REMARK SMILES IDX 76 90 77 91 78 92 79 93 80 94 59 95 60 96 68 97 61 98 67 99
REMARK SMILES IDX 62 100 63 101 64 102 65 103 66 104
REMARK H PARENT 24 4 7 22 96 31 96 32 31 41 87 60 57 71
REMARK Flexibility Score: inf
ROOT
ATOM      1  C   UNL A   1      36.547  32.464  29.177  1.00  0.00     0.227 C 
ATOM      2  O   UNL A   1      35.767  32.732  28.253  1.00  0.00    -0.274 OA
ATOM      3  N   UNL A   1      37.529  33.373  29.417  1.00  0.00    -0.356 N 
ATOM      4  H   UNL A   1      37.467  34.190  28.871  1.00  0.00     0.163 HD
ENDROOT
BRANCH   1   5
ATOM      5  C   UNL A   1      36.349  31.180  29.996  1.00  0.00     0.105 C 
ATOM      6  C   UNL A   1      36.120  31.418  31.489  1.00  0.00     0.023 C 
BRANCH   5   7
ATOM      7  C   UNL A   1      37.322  30.063  29.652  1.00  0.00    -0.034 A 
ATOM      8  C   UNL A   1      39.300  28.110  29.001  1.00  0.00     0.005 A 
ATOM      9  C   UNL A   1      38.531  28.026  30.175  1.00  0.00     0.011 A 
ATOM     10  C   UNL A   1      38.982  29.139  28.085  1.00  0.00     0.040 A 
ATOM     11  C   UNL A   1      37.528  28.952  30.467  1.00  0.00     0.005 A 
ATOM     12  C   UNL A   1      38.064  30.137  28.460  1.00  0.00     0.030 A 
BRANCH   8  13
ATOM     13  C   UNL A   1      40.389  27.126  28.788  1.00  0.00    -0.013 A 
ATOM     14  C   UNL A   1      41.297  25.173  27.657  1.00  0.00     0.133 A 
ATOM     15  C   UNL A   1      42.481  25.263  28.381  1.00  0.00     0.047 A 
ATOM     16  C   UNL A   1      40.264  26.094  27.844  1.00  0.00     0.056 A 
ATOM     17  C   UNL A   1      42.639  26.298  29.297  1.00  0.00     0.004 A 
ATOM     18  C   UNL A   1      41.599  27.210  29.505  1.00  0.00     0.009 A 
BRANCH  14  19
ATOM     19  O   UNL A   1      41.122  24.035  26.853  1.00  0.00    -0.410 OA
BRANCH  19  20
ATOM     20  C   UNL A   1      40.424  22.957  27.371  1.00  0.00     0.412 C 
ATOM     21  N   UNL A   1      39.150  22.865  26.880  1.00  0.00    -0.321 N 
ATOM     22  H   UNL A   1      38.591  22.138  27.238  1.00  0.00     0.167 HD
ATOM     23  O   UNL A   1      40.844  22.143  28.183  1.00  0.00    -0.224 OA
BRANCH  21  24
ATOM     24  C   UNL A   1      38.537  23.728  25.890  1.00  0.00     0.119 C 
BRANCH  24  25
ATOM     25  C   UNL A   1      37.027  23.505  25.797  1.00  0.00     0.021 C 
BRANCH  25  26
ATOM     26  C   UNL A   1      36.565  22.745  24.547  1.00  0.00     0.002 C 
BRANCH  26  27
ATOM     27  C   UNL A   1      35.050  22.715  24.316  1.00  0.00    -0.000 C 
BRANCH  27  28
ATOM     28  C   UNL A   1      34.320  21.508  24.912  1.00  0.00    -0.003 C 
ATOM     29  C   UNL A   1      35.189  20.264  25.002  1.00  0.00     0.004 C 
ENDBRANCH  27  28
ENDBRANCH  26  27
ENDBRANCH  25  26
ENDBRANCH  24  25
ENDBRANCH  21  24
ENDBRANCH  19  20
ENDBRANCH  14  19
ENDBRANCH   8  13
BRANCH  10  30
ATOM     30  N   UNL A   1      39.630  29.276  26.854  1.00  0.00    -0.398 N 
ATOM     31  H   UNL A   1      39.289  29.914  26.187  1.00  0.00     0.156 HD
ATOM     32  H   UNL A   1      40.427  28.734  26.654  1.00  0.00     0.156 HD
ENDBRANCH  10  30
ENDBRANCH   5   7
ENDBRANCH   1   5
BRANCH   3  33
ATOM     33  C   UNL A   1      38.650  33.357  30.333  1.00  0.00     0.116 C 
BRANCH  33  34
ATOM     34  C   UNL A   1      38.671  34.607  31.218  1.00  0.00     0.021 C 
BRANCH  34  35
ATOM     35  C   UNL A   1      37.651  34.570  32.359  1.00  0.00     0.002 C 
BRANCH  35  36
ATOM     36  C   UNL A   1      38.170  33.969  33.673  1.00  0.00     0.002 C 
BRANCH  36  37
ATOM     37  C   UNL A   1      37.140  33.874  34.804  1.00  0.00     0.021 C 
BRANCH  37  38
ATOM     38  C   UNL A   1      37.685  34.212  36.189  1.00  0.00     0.116 C 
BRANCH  38  39
ATOM     39  N   UNL A   1      37.450  33.132  37.136  1.00  0.00    -0.352 N 
ATOM     40  C   UNL A   1      37.907  31.838  37.119  1.00  0.00     0.251 C 
ATOM     41  H   UNL A   1      36.878  33.365  37.904  1.00  0.00     0.163 HD
ATOM     42  O   UNL A   1      37.401  31.001  37.861  1.00  0.00    -0.269 OA
BRANCH  40  43
ATOM     43  C   UNL A   1      39.002  31.453  36.203  1.00  0.00     0.039 A 
ATOM     44  C   UNL A   1      38.705  30.683  35.075  1.00  0.00     0.014 A 
ATOM     45  C   UNL A   1      40.322  31.826  36.471  1.00  0.00     0.014 A 
ATOM     46  C   UNL A   1      39.724  30.337  34.186  1.00  0.00     0.010 A 
ATOM     47  C   UNL A   1      41.324  31.540  35.548  1.00  0.00     0.010 A 
ATOM     48  C   UNL A   1      41.038  30.790  34.398  1.00  0.00    -0.014 A 
BRANCH  48  49
ATOM     49  C   UNL A   1      42.119  30.498  33.424  1.00  0.00     0.031 A 
ATOM     50  C   UNL A   1      42.476  31.503  32.361  1.00  0.00     0.074 A 
ATOM     51  C   UNL A   1      42.737  29.301  33.456  1.00  0.00     0.049 A 
ATOM     52  N   UNL A   1      43.349  31.403  31.392  1.00  0.00    -0.248 NA
ATOM     53  C   UNL A   1      41.740  32.779  32.376  1.00  0.00     0.031 C 
ATOM     54  C   UNL A   1      42.454  28.229  34.414  1.00  0.00     0.029 A 
ATOM     55  N   UNL A   1      43.726  28.781  32.659  1.00  0.00    -0.354 N 
ATOM     56  C   UNL A   1      43.259  32.590  30.676  1.00  0.00     0.074 A 
ATOM     57  C   UNL A   1      42.212  33.377  31.291  1.00  0.00     0.031 C 
ATOM     58  C   UNL A   1      43.269  27.191  34.165  1.00  0.00     0.029 A 
ATOM     59  C   UNL A   1      44.100  27.504  33.007  1.00  0.00     0.049 A 
ATOM     60  H   UNL A   1      44.129  29.275  31.910  1.00  0.00     0.167 HD
ATOM     61  C   UNL A   1      43.993  32.999  29.612  1.00  0.00     0.031 A 
ATOM     62  C   UNL A   1      45.006  26.674  32.453  1.00  0.00     0.031 A 
ATOM     63  C   UNL A   1      45.037  32.215  29.006  1.00  0.00     0.049 A 
ATOM     64  C   UNL A   1      45.795  27.143  31.261  1.00  0.00     0.074 A 
ATOM     65  C   UNL A   1      45.873  32.559  27.958  1.00  0.00     0.029 A 
ATOM     66  N   UNL A   1      45.387  30.928  29.389  1.00  0.00    -0.354 N 
ATOM     67  N   UNL A   1      45.738  28.295  30.636  1.00  0.00    -0.248 NA
ATOM     68  C   UNL A   1      46.778  26.201  30.706  1.00  0.00     0.031 C 
ATOM     69  C   UNL A   1      46.692  31.463  27.672  1.00  0.00     0.029 A 
ATOM     70  C   UNL A   1      46.408  30.456  28.581  1.00  0.00     0.049 A 
ATOM     71  H   UNL A   1      44.971  30.426  30.126  1.00  0.00     0.167 HD
ATOM     72  C   UNL A   1      46.696  28.227  29.631  1.00  0.00     0.074 A 
ATOM     73  C   UNL A   1      47.327  26.927  29.741  1.00  0.00     0.031 C 
ATOM     74  C   UNL A   1      47.023  29.158  28.701  1.00  0.00     0.031 A 
BRANCH  61  75
ATOM     75  C   UNL A   1      43.686  34.355  29.031  1.00  0.00    -0.014 A 
ATOM     76  C   UNL A   1      42.778  34.499  27.966  1.00  0.00     0.010 A 
ATOM     77  C   UNL A   1      44.279  35.504  29.584  1.00  0.00     0.010 A 
ATOM     78  C   UNL A   1      42.502  35.763  27.438  1.00  0.00     0.020 A 
ATOM     79  C   UNL A   1      43.983  36.774  29.076  1.00  0.00     0.020 A 
ATOM     80  C   UNL A   1      43.109  36.892  27.995  1.00  0.00     0.054 A 
BRANCH  80  81
ATOM     81  S   UNL A   1      42.714  38.522  27.302  1.00  0.00     0.124 S 
ATOM     82  O   UNL A   1      41.527  38.229  26.501  1.00  0.00    -0.237 OA
ATOM     83  O   UNL A   1      42.482  39.330  28.496  1.00  0.00    -0.237 OA
ATOM     84  O   UNL A   1      43.908  38.874  26.539  1.00  0.00    -0.744 OA
ENDBRANCH  80  81
ENDBRANCH  61  75
BRANCH  62  85
ATOM     85  C   UNL A   1      45.221  25.318  33.029  1.00  0.00    -0.014 A 
ATOM     86  C   UNL A   1      46.230  25.100  33.983  1.00  0.00     0.010 A 
ATOM     87  C   UNL A   1      44.405  24.241  32.636  1.00  0.00     0.010 A 
ATOM     88  C   UNL A   1      46.433  23.826  34.520  1.00  0.00     0.020 A 
ATOM     89  C   UNL A   1      44.586  22.972  33.194  1.00  0.00     0.020 A 
ATOM     90  C   UNL A   1      45.607  22.769  34.124  1.00  0.00     0.054 A 
BRANCH  90  91
ATOM     91  S   UNL A   1      45.855  21.136  34.873  1.00  0.00     0.124 S 
ATOM     92  O   UNL A   1      44.529  20.539  34.746  1.00  0.00    -0.237 OA
ATOM     93  O   UNL A   1      46.895  20.556  34.028  1.00  0.00    -0.237 OA
ATOM     94  O   UNL A   1      46.275  21.447  36.238  1.00  0.00    -0.744 OA
ENDBRANCH  90  91
ENDBRANCH  62  85
BRANCH  74  95
ATOM     95  C   UNL A   1      48.135  28.818  27.744  1.00  0.00    -0.014 A 
ATOM     96  C   UNL A   1      47.888  28.088  26.568  1.00  0.00     0.010 A 
ATOM     97  C   UNL A   1      49.437  29.286  27.999  1.00  0.00     0.010 A 
ATOM     98  C   UNL A   1      48.928  27.805  25.681  1.00  0.00     0.020 A 
ATOM     99  C   UNL A   1      50.475  29.031  27.099  1.00  0.00     0.020 A 
ATOM    100  C   UNL A   1      50.217  28.279  25.952  1.00  0.00     0.054 A 
BRANCH 100 101
ATOM    101  S   UNL A   1      51.541  27.938  24.760  1.00  0.00     0.124 S 
ATOM    102  O   UNL A   1      52.735  28.050  25.592  1.00  0.00    -0.237 OA
ATOM    103  O   UNL A   1      51.219  26.589  24.301  1.00  0.00    -0.237 OA
ATOM    104  O   UNL A   1      51.380  28.986  23.755  1.00  0.00    -0.744 OA
ENDBRANCH 100 101
ENDBRANCH  74  95
ENDBRANCH  48  49
ENDBRANCH  40  43
ENDBRANCH  38  39
ENDBRANCH  37  38
ENDBRANCH  36  37
ENDBRANCH  35  36
ENDBRANCH  34  35
ENDBRANCH  33  34
ENDBRANCH   3  33
TORSDOF 26
ENDMDL
MODEL 2
REMARK VINA RESULT:      -7.9      3.941      6.243
REMARK SMILES CCCCCCNC(=O)Oc1cccc(-c2ccc([C@@H](C)C(=O)NCCCCCCNC(=O)c3ccc(-c4c5nc(c(-c6ccc(S(=O)(=O)[O-])cc6)c6ccc([nH]6)c(-c6ccc(S(=O)(=O)[O-])cc6)c6nc(c(-c7ccc(S(=O)(=O)[O-])cc7)c7ccc4[nH]7)C=C6)C=C5)cc3)cc2N)c1
REMARK SMILES IDX 22 1 23 2 24 3 20 5 21 6 19 7 16 8 17 9 95 10 18 11 94 12
REMARK SMILES IDX 15 13 11 14 12 15 97 16 13 17 14 18 10 19 8 20 7 21 9 23
REMARK SMILES IDX 6 24 5 25 4 26 3 27 2 28 1 29 96 30 25 33 26 34 27 35 28 36
REMARK SMILES IDX 29 37 30 38 31 39 32 40 33 42 34 43 35 44 93 45 36 46 92 47
REMARK SMILES IDX 37 48 38 49 39 50 86 51 40 52 91 53 85 54 87 55 41 56 90 57
REMARK SMILES IDX 84 58 83 59 42 61 72 62 53 63 71 64 54 65 57 66 70 67 88 68
REMARK SMILES IDX 55 69 56 70 69 72 89 73 58 74 43 75 44 76 52 77 45 78 51 79
REMARK SMILES IDX 46 80 47 81 48 82 49 83 50 84 73 85 74 86 82 87 75 88 81 89
REMARK SMILES IDX 76 90 77 91 78 92 79 93 80 94 59 95 60 96 68 97 61 98 67 99
REMARK SMILES IDX 62 100 63 101 64 102 65 103 66 104
REMARK H PARENT 24 4 7 22 96 31 96 32 31 41 87 60 57 71
REMARK Flexibility Score: inf
ROOT
ATOM      1  C   UNL A   1      34.066  35.495  28.600  1.00  0.00     0.227 C 
ATOM      2  O   UNL A   1      34.484  36.502  28.012  1.00  0.00    -0.274 OA
ATOM      3  N   UNL A   1      33.896  35.609  29.944  1.00  0.00    -0.356 N 
ATOM      4  H   UNL A   1      34.056  36.515  30.296  1.00  0.00     0.163 HD
ENDROOT
BRANCH   1   5
ATOM      5  C   UNL A   1      33.741  34.224  27.800  1.00  0.00     0.105 C 
ATOM      6  C   UNL A   1      32.270  33.812  27.852  1.00  0.00     0.023 C 
BRANCH   5   7
ATOM      7  C   UNL A   1      34.746  33.097  27.982  1.00  0.00    -0.034 A 
ATOM      8  C   UNL A   1      36.644  31.035  28.524  1.00  0.00     0.005 A 
ATOM      9  C   UNL A   1      35.365  30.752  28.015  1.00  0.00     0.011 A 
ATOM     10  C   UNL A   1      37.008  32.395  28.654  1.00  0.00     0.040 A 
ATOM     11  C   UNL A   1      34.456  31.764  27.700  1.00  0.00     0.005 A 
ATOM     12  C   UNL A   1      36.034  33.392  28.461  1.00  0.00     0.030 A 
BRANCH   8  13
ATOM     13  C   UNL A   1      37.533  29.907  28.893  1.00  0.00    -0.013 A 
ATOM     14  C   UNL A   1      39.363  28.388  28.381  1.00  0.00     0.133 A 
ATOM     15  C   UNL A   1      39.231  27.760  29.615  1.00  0.00     0.047 A 
ATOM     16  C   UNL A   1      38.536  29.454  28.021  1.00  0.00     0.056 A 
ATOM     17  C   UNL A   1      38.266  28.214  30.507  1.00  0.00     0.004 A 
ATOM     18  C   UNL A   1      37.419  29.267  30.144  1.00  0.00     0.009 A 
BRANCH  14  19
ATOM     19  O   UNL A   1      40.247  27.807  27.458  1.00  0.00    -0.410 OA
BRANCH  19  20
ATOM     20  C   UNL A   1      41.536  28.307  27.369  1.00  0.00     0.412 C 
ATOM     21  N   UNL A   1      42.484  27.396  27.752  1.00  0.00    -0.321 N 
ATOM     22  H   UNL A   1      43.419  27.704  27.745  1.00  0.00     0.167 HD
ATOM     23  O   UNL A   1      41.856  29.428  26.999  1.00  0.00    -0.224 OA
BRANCH  21  24
ATOM     24  C   UNL A   1      42.254  26.028  28.170  1.00  0.00     0.119 C 
BRANCH  24  25
ATOM     25  C   UNL A   1      43.545  25.208  28.168  1.00  0.00     0.021 C 
BRANCH  25  26
ATOM     26  C   UNL A   1      43.342  23.687  28.152  1.00  0.00     0.002 C 
BRANCH  26  27
ATOM     27  C   UNL A   1      41.899  23.213  28.348  1.00  0.00    -0.000 C 
BRANCH  27  28
ATOM     28  C   UNL A   1      41.167  22.792  27.071  1.00  0.00    -0.003 C 
ATOM     29  C   UNL A   1      42.082  22.154  26.037  1.00  0.00     0.004 C 
ENDBRANCH  27  28
ENDBRANCH  26  27
ENDBRANCH  25  26
ENDBRANCH  24  25
ENDBRANCH  21  24
ENDBRANCH  19  20
ENDBRANCH  14  19
ENDBRANCH   8  13
BRANCH  10  30
ATOM     30  N   UNL A   1      38.277  32.796  29.082  1.00  0.00    -0.398 N 
ATOM     31  H   UNL A   1      38.984  32.980  28.422  1.00  0.00     0.156 HD
ATOM     32  H   UNL A   1      38.465  32.892  30.043  1.00  0.00     0.156 HD
ENDBRANCH  10  30
ENDBRANCH   5   7
ENDBRANCH   1   5
BRANCH   3  33
ATOM     33  C   UNL A   1      33.521  34.640  30.951  1.00  0.00     0.116 C 
BRANCH  33  34
ATOM     34  C   UNL A   1      34.739  34.144  31.736  1.00  0.00     0.021 C 
BRANCH  34  35
ATOM     35  C   UNL A   1      34.849  32.619  31.805  1.00  0.00     0.002 C 
BRANCH  35  36
ATOM     36  C   UNL A   1      36.061  32.091  32.584  1.00  0.00     0.002 C 
BRANCH  36  37
ATOM     37  C   UNL A   1      36.312  32.760  33.941  1.00  0.00     0.021 C 
BRANCH  37  38
ATOM     38  C   UNL A   1      37.564  32.274  34.666  1.00  0.00     0.116 C 
BRANCH  38  39
ATOM     39  N   UNL A   1      37.727  30.833  34.549  1.00  0.00    -0.352 N 
ATOM     40  C   UNL A   1      38.601  30.111  33.776  1.00  0.00     0.251 C 
ATOM     41  H   UNL A   1      37.119  30.295  35.107  1.00  0.00     0.163 HD
ATOM     42  O   UNL A   1      38.424  28.907  33.613  1.00  0.00    -0.269 OA
BRANCH  40  43
ATOM     43  C   UNL A   1      39.750  30.784  33.134  1.00  0.00     0.039 A 
ATOM     44  C   UNL A   1      40.965  30.858  33.821  1.00  0.00     0.014 A 
ATOM     45  C   UNL A   1      39.622  31.367  31.870  1.00  0.00     0.014 A 
ATOM     46  C   UNL A   1      42.067  31.464  33.216  1.00  0.00     0.010 A 
ATOM     47  C   UNL A   1      40.739  31.909  31.240  1.00  0.00     0.010 A 
ATOM     48  C   UNL A   1      41.972  31.967  31.906  1.00  0.00    -0.014 A 
BRANCH  48  49
ATOM     49  C   UNL A   1      43.153  32.545  31.217  1.00  0.00     0.031 A 
ATOM     50  C   UNL A   1      43.463  34.013  31.343  1.00  0.00     0.074 A 
ATOM     51  C   UNL A   1      43.911  31.760  30.426  1.00  0.00     0.049 A 
ATOM     52  N   UNL A   1      44.413  34.707  30.771  1.00  0.00    -0.248 NA
ATOM     53  C   UNL A   1      42.575  34.810  32.206  1.00  0.00     0.031 C 
ATOM     54  C   UNL A   1      43.691  30.330  30.193  1.00  0.00     0.029 A 
ATOM     55  N   UNL A   1      45.015  32.053  29.666  1.00  0.00    -0.354 N 
ATOM     56  C   UNL A   1      44.232  36.018  31.192  1.00  0.00     0.074 A 
ATOM     57  C   UNL A   1      43.050  36.034  32.028  1.00  0.00     0.031 C 
ATOM     58  C   UNL A   1      44.646  29.867  29.370  1.00  0.00     0.029 A 
ATOM     59  C   UNL A   1      45.518  30.971  28.982  1.00  0.00     0.049 A 
ATOM     60  H   UNL A   1      45.410  32.953  29.614  1.00  0.00     0.167 HD
ATOM     61  C   UNL A   1      44.988  37.109  30.922  1.00  0.00     0.031 A 
ATOM     62  C   UNL A   1      46.560  30.877  28.132  1.00  0.00     0.031 A 
ATOM     63  C   UNL A   1      46.165  37.088  30.094  1.00  0.00     0.049 A 
ATOM     64  C   UNL A   1      47.374  32.106  27.834  1.00  0.00     0.074 A 
ATOM     65  C   UNL A   1      47.030  38.129  29.801  1.00  0.00     0.029 A 
ATOM     66  N   UNL A   1      46.642  35.972  29.422  1.00  0.00    -0.354 N 
ATOM     67  N   UNL A   1      47.222  33.326  28.292  1.00  0.00    -0.248 NA
ATOM     68  C   UNL A   1      48.506  31.943  26.911  1.00  0.00     0.031 C 
ATOM     69  C   UNL A   1      47.999  37.656  28.911  1.00  0.00     0.029 A 
ATOM     70  C   UNL A   1      47.774  36.305  28.696  1.00  0.00     0.049 A 
ATOM     71  H   UNL A   1      46.237  35.076  29.457  1.00  0.00     0.167 HD
ATOM     72  C   UNL A   1      48.255  34.071  27.734  1.00  0.00     0.074 A 
ATOM     73  C   UNL A   1      49.033  33.160  26.917  1.00  0.00     0.031 C 
ATOM     74  C   UNL A   1      48.535  35.389  27.885  1.00  0.00     0.031 A 
BRANCH  61  75
ATOM     75  C   UNL A   1      44.560  38.422  31.526  1.00  0.00    -0.014 A 
ATOM     76  C   UNL A   1      44.958  38.789  32.824  1.00  0.00     0.010 A 
ATOM     77  C   UNL A   1      43.785  39.320  30.770  1.00  0.00     0.010 A 
ATOM     78  C   UNL A   1      44.554  40.009  33.371  1.00  0.00     0.020 A 
ATOM     79  C   UNL A   1      43.402  40.556  31.303  1.00  0.00     0.020 A 
ATOM     80  C   UNL A   1      43.776  40.884  32.607  1.00  0.00     0.054 A 
BRANCH  80  81
ATOM     81  S   UNL A   1      43.284  42.472  33.335  1.00  0.00     0.124 S 
ATOM     82  O   UNL A   1      43.013  43.277  32.146  1.00  0.00    -0.237 OA
ATOM     83  O   UNL A   1      42.113  42.111  34.129  1.00  0.00    -0.237 OA
ATOM     84  O   UNL A   1      44.455  42.878  34.108  1.00  0.00    -0.744 OA
ENDBRANCH  80  81
ENDBRANCH  61  75
BRANCH  62  85
ATOM     85  C   UNL A   1      46.897  29.566  27.512  1.00  0.00    -0.014 A 
ATOM     86  C   UNL A   1      46.375  29.216  26.255  1.00  0.00     0.010 A 
ATOM     87  C   UNL A   1      47.756  28.667  28.172  1.00  0.00     0.010 A 
ATOM     88  C   UNL A   1      46.690  27.984  25.676  1.00  0.00     0.020 A 
ATOM     89  C   UNL A   1      48.096  27.447  27.582  1.00  0.00     0.020 A 
ATOM     90  C   UNL A   1      47.552  27.107  26.342  1.00  0.00     0.054 A 
BRANCH  90  91
ATOM     91  S   UNL A   1      47.987  25.535  25.548  1.00  0.00     0.124 S 
ATOM     92  O   UNL A   1      46.952  25.414  24.526  1.00  0.00    -0.237 OA
ATOM     93  O   UNL A   1      49.338  25.795  25.054  1.00  0.00    -0.237 OA
ATOM     94  O   UNL A   1      47.908  24.568  26.640  1.00  0.00    -0.744 OA
ENDBRANCH  90  91
ENDBRANCH  62  85
BRANCH  74  95
ATOM     95  C   UNL A   1      49.750  35.924  27.175  1.00  0.00    -0.014 A 
ATOM     96  C   UNL A   1      49.654  36.498  25.895  1.00  0.00     0.010 A 
ATOM     97  C   UNL A   1      50.999  35.901  27.824  1.00  0.00     0.010 A 
ATOM     98  C   UNL A   1      50.790  37.012  25.265  1.00  0.00     0.020 A 
ATOM     99  C   UNL A   1      52.131  36.440  27.210  1.00  0.00     0.020 A 
ATOM    100  C   UNL A   1      52.022  36.980  25.927  1.00  0.00     0.054 A 
BRANCH 100 101
ATOM    101  S   UNL A   1      53.472  37.695  25.105  1.00  0.00     0.124 S 
ATOM    102  O   UNL A   1      53.285  37.260  23.725  1.00  0.00    -0.237 OA
ATOM    103  O   UNL A   1      53.302  39.127  25.342  1.00  0.00    -0.237 OA
ATOM    104  O   UNL A   1      54.601  37.085  25.804  1.00  0.00    -0.744 OA
ENDBRANCH 100 101
ENDBRANCH  74  95
ENDBRANCH  48  49
ENDBRANCH  40  43
ENDBRANCH  38  39
ENDBRANCH  37  38
ENDBRANCH  36  37
ENDBRANCH  35  36
ENDBRANCH  34  35
ENDBRANCH  33  34
ENDBRANCH   3  33
TORSDOF 26
ENDMDL
MODEL 3
REMARK VINA RESULT:      -7.9      4.461     10.644
REMARK SMILES CCCCCCNC(=O)Oc1cccc(-c2ccc([C@@H](C)C(=O)NCCCCCCNC(=O)c3ccc(-c4c5nc(c(-c6ccc(S(=O)(=O)[O-])cc6)c6ccc([nH]6)c(-c6ccc(S(=O)(=O)[O-])cc6)c6nc(c(-c7ccc(S(=O)(=O)[O-])cc7)c7ccc4[nH]7)C=C6)C=C5)cc3)cc2N)c1
REMARK SMILES IDX 22 1 23 2 24 3 20 5 21 6 19 7 16 8 17 9 95 10 18 11 94 12
REMARK SMILES IDX 15 13 11 14 12 15 97 16 13 17 14 18 10 19 8 20 7 21 9 23
REMARK SMILES IDX 6 24 5 25 4 26 3 27 2 28 1 29 96 30 25 33 26 34 27 35 28 36
REMARK SMILES IDX 29 37 30 38 31 39 32 40 33 42 34 43 35 44 93 45 36 46 92 47
REMARK SMILES IDX 37 48 38 49 39 50 86 51 40 52 91 53 85 54 87 55 41 56 90 57
REMARK SMILES IDX 84 58 83 59 42 61 72 62 53 63 71 64 54 65 57 66 70 67 88 68
REMARK SMILES IDX 55 69 56 70 69 72 89 73 58 74 43 75 44 76 52 77 45 78 51 79
REMARK SMILES IDX 46 80 47 81 48 82 49 83 50 84 73 85 74 86 82 87 75 88 81 89
REMARK SMILES IDX 76 90 77 91 78 92 79 93 80 94 59 95 60 96 68 97 61 98 67 99
REMARK SMILES IDX 62 100 63 101 64 102 65 103 66 104
REMARK H PARENT 24 4 7 22 96 31 96 32 31 41 87 60 57 71
REMARK Flexibility Score: inf
ROOT
ATOM      1  C   UNL A   1      42.388  19.955  27.124  1.00  0.00     0.227 C 
ATOM      2  O   UNL A   1      41.883  19.232  27.995  1.00  0.00    -0.274 OA
ATOM      3  N   UNL A   1      43.125  19.324  26.171  1.00  0.00    -0.356 N 
ATOM      4  H   UNL A   1      43.116  18.342  26.237  1.00  0.00     0.163 HD
ENDROOT
BRANCH   1   5
ATOM      5  C   UNL A   1      42.133  21.470  27.147  1.00  0.00     0.105 C 
ATOM      6  C   UNL A   1      42.677  22.177  28.388  1.00  0.00     0.023 C 
BRANCH   5   7
ATOM      7  C   UNL A   1      40.729  21.874  26.724  1.00  0.00    -0.034 A 
ATOM      8  C   UNL A   1      38.182  22.780  25.807  1.00  0.00     0.005 A 
ATOM      9  C   UNL A   1      38.612  21.455  25.617  1.00  0.00     0.011 A 
ATOM     10  C   UNL A   1      39.009  23.631  26.576  1.00  0.00     0.040 A 
ATOM     11  C   UNL A   1      39.835  20.999  26.111  1.00  0.00     0.005 A 
ATOM     12  C   UNL A   1      40.294  23.192  26.946  1.00  0.00     0.030 A 
BRANCH   8  13
ATOM     13  C   UNL A   1      36.898  23.209  25.201  1.00  0.00    -0.013 A 
ATOM     14  C   UNL A   1      34.720  24.279  25.372  1.00  0.00     0.133 A 
ATOM     15  C   UNL A   1      34.458  24.035  24.028  1.00  0.00     0.047 A 
ATOM     16  C   UNL A   1      35.925  23.884  25.956  1.00  0.00     0.056 A 
ATOM     17  C   UNL A   1      35.422  23.398  23.254  1.00  0.00     0.004 A 
ATOM     18  C   UNL A   1      36.622  22.980  23.838  1.00  0.00     0.009 A 
BRANCH  14  19
ATOM     19  O   UNL A   1      33.668  24.791  26.147  1.00  0.00    -0.410 OA
BRANCH  19  20
ATOM     20  C   UNL A   1      32.392  24.287  25.951  1.00  0.00     0.412 C 
ATOM     21  N   UNL A   1      32.164  23.136  26.655  1.00  0.00    -0.321 N 
ATOM     22  H   UNL A   1      31.285  22.709  26.529  1.00  0.00     0.167 HD
ATOM     23  O   UNL A   1      31.522  24.770  25.238  1.00  0.00    -0.224 OA
BRANCH  21  24
ATOM     24  C   UNL A   1      33.080  22.478  27.564  1.00  0.00     0.119 C 
BRANCH  24  25
ATOM     25  C   UNL A   1      33.675  21.208  26.954  1.00  0.00     0.021 C 
BRANCH  25  26
ATOM     26  C   UNL A   1      33.153  20.862  25.553  1.00  0.00     0.002 C 
BRANCH  26  27
ATOM     27  C   UNL A   1      33.736  19.590  24.928  1.00  0.00    -0.000 C 
BRANCH  27  28
ATOM     28  C   UNL A   1      32.706  18.559  24.459  1.00  0.00    -0.003 C 
ATOM     29  C   UNL A   1      33.205  17.688  23.317  1.00  0.00     0.004 C 
ENDBRANCH  27  28
ENDBRANCH  26  27
ENDBRANCH  25  26
ENDBRANCH  24  25
ENDBRANCH  21  24
ENDBRANCH  19  20
ENDBRANCH  14  19
ENDBRANCH   8  13
BRANCH  10  30
ATOM     30  N   UNL A   1      38.651  24.945  26.889  1.00  0.00    -0.398 N 
ATOM     31  H   UNL A   1      38.952  25.687  26.316  1.00  0.00     0.156 HD
ATOM     32  H   UNL A   1      38.100  25.129  27.684  1.00  0.00     0.156 HD
ENDBRANCH  10  30
ENDBRANCH   5   7
ENDBRANCH   1   5
BRANCH   3  33
ATOM     33  C   UNL A   1      43.920  19.837  25.076  1.00  0.00     0.116 C 
BRANCH  33  34
ATOM     34  C   UNL A   1      44.471  21.231  25.386  1.00  0.00     0.021 C 
BRANCH  34  35
ATOM     35  C   UNL A   1      44.297  22.231  24.239  1.00  0.00     0.002 C 
BRANCH  35  36
ATOM     36  C   UNL A   1      43.478  23.480  24.588  1.00  0.00     0.002 C 
BRANCH  36  37
ATOM     37  C   UNL A   1      44.290  24.680  25.090  1.00  0.00     0.021 C 
BRANCH  37  38
ATOM     38  C   UNL A   1      44.331  24.829  26.608  1.00  0.00     0.116 C 
BRANCH  38  39
ATOM     39  N   UNL A   1      45.623  24.440  27.152  1.00  0.00    -0.352 N 
ATOM     40  C   UNL A   1      46.307  24.943  28.230  1.00  0.00     0.251 C 
ATOM     41  H   UNL A   1      46.075  23.706  26.675  1.00  0.00     0.163 HD
ATOM     42  O   UNL A   1      47.493  24.668  28.386  1.00  0.00    -0.269 OA
BRANCH  40  43
ATOM     43  C   UNL A   1      45.616  25.822  29.198  1.00  0.00     0.039 A 
ATOM     44  C   UNL A   1      44.804  25.247  30.179  1.00  0.00     0.014 A 
ATOM     45  C   UNL A   1      45.748  27.212  29.122  1.00  0.00     0.014 A 
ATOM     46  C   UNL A   1      44.170  26.063  31.118  1.00  0.00     0.010 A 
ATOM     47  C   UNL A   1      45.172  28.018  30.099  1.00  0.00     0.010 A 
ATOM     48  C   UNL A   1      44.375  27.454  31.106  1.00  0.00    -0.014 A 
BRANCH  48  49
ATOM     49  C   UNL A   1      43.772  28.329  32.142  1.00  0.00     0.031 A 
ATOM     50  C   UNL A   1      42.478  29.048  31.870  1.00  0.00     0.074 A 
ATOM     51  C   UNL A   1      44.423  28.526  33.306  1.00  0.00     0.049 A 
ATOM     52  N   UNL A   1      41.831  29.896  32.629  1.00  0.00    -0.248 NA
ATOM     53  C   UNL A   1      41.839  28.801  30.568  1.00  0.00     0.031 C 
ATOM     54  C   UNL A   1      45.704  27.916  33.673  1.00  0.00     0.029 A 
ATOM     55  N   UNL A   1      44.102  29.301  34.392  1.00  0.00    -0.354 N 
ATOM     56  C   UNL A   1      40.720  30.291  31.894  1.00  0.00     0.074 A 
ATOM     57  C   UNL A   1      40.806  29.630  30.609  1.00  0.00     0.031 C 
ATOM     58  C   UNL A   1      46.044  28.318  34.908  1.00  0.00     0.029 A 
ATOM     59  C   UNL A   1      45.033  29.246  35.403  1.00  0.00     0.049 A 
ATOM     60  H   UNL A   1      43.283  29.844  34.443  1.00  0.00     0.167 HD
ATOM     61  C   UNL A   1      39.709  31.116  32.259  1.00  0.00     0.031 A 
ATOM     62  C   UNL A   1      45.073  29.878  36.594  1.00  0.00     0.031 A 
ATOM     63  C   UNL A   1      39.625  31.768  33.540  1.00  0.00     0.049 A 
ATOM     64  C   UNL A   1      43.949  30.803  36.969  1.00  0.00     0.074 A 
ATOM     65  C   UNL A   1      38.617  32.583  34.026  1.00  0.00     0.029 A 
ATOM     66  N   UNL A   1      40.586  31.685  34.536  1.00  0.00    -0.354 N 
ATOM     67  N   UNL A   1      42.875  31.116  36.284  1.00  0.00    -0.248 NA
ATOM     68  C   UNL A   1      44.038  31.454  38.284  1.00  0.00     0.031 C 
ATOM     69  C   UNL A   1      38.993  33.034  35.295  1.00  0.00     0.029 A 
ATOM     70  C   UNL A   1      40.207  32.454  35.625  1.00  0.00     0.049 A 
ATOM     71  H   UNL A   1      41.415  31.158  34.479  1.00  0.00     0.167 HD
ATOM     72  C   UNL A   1      42.147  31.980  37.095  1.00  0.00     0.074 A 
ATOM     73  C   UNL A   1      42.896  32.126  38.328  1.00  0.00     0.031 C 
ATOM     74  C   UNL A   1      40.965  32.594  36.842  1.00  0.00     0.031 A 
BRANCH  61  75
ATOM     75  C   UNL A   1      38.614  31.366  31.255  1.00  0.00    -0.014 A 
ATOM     76  C   UNL A   1      37.475  30.542  31.202  1.00  0.00     0.010 A 
ATOM     77  C   UNL A   1      38.703  32.464  30.380  1.00  0.00     0.010 A 
ATOM     78  C   UNL A   1      36.467  30.786  30.266  1.00  0.00     0.020 A 
ATOM     79  C   UNL A   1      37.683  32.728  29.461  1.00  0.00     0.020 A 
ATOM     80  C   UNL A   1      36.579  31.876  29.398  1.00  0.00     0.054 A 
BRANCH  80  81
ATOM     81  S   UNL A   1      35.244  32.181  28.208  1.00  0.00     0.124 S 
ATOM     82  O   UNL A   1      34.105  32.428  29.090  1.00  0.00    -0.237 OA
ATOM     83  O   UNL A   1      35.732  33.344  27.471  1.00  0.00    -0.237 OA
ATOM     84  O   UNL A   1      35.177  30.943  27.437  1.00  0.00    -0.744 OA
ENDBRANCH  80  81
ENDBRANCH  61  75
BRANCH  62  85
ATOM     85  C   UNL A   1      46.215  29.644  37.520  1.00  0.00    -0.014 A 
ATOM     86  C   UNL A   1      47.321  30.512  37.522  1.00  0.00     0.010 A 
ATOM     87  C   UNL A   1      46.194  28.559  38.416  1.00  0.00     0.010 A 
ATOM     88  C   UNL A   1      48.394  30.289  38.390  1.00  0.00     0.020 A 
ATOM     89  C   UNL A   1      47.252  28.351  39.306  1.00  0.00     0.020 A 
ATOM     90  C   UNL A   1      48.351  29.211  39.279  1.00  0.00     0.054 A 
BRANCH  90  91
ATOM     91  S   UNL A   1      49.731  28.972  40.432  1.00  0.00     0.124 S 
ATOM     92  O   UNL A   1      50.371  27.775  39.896  1.00  0.00    -0.237 OA
ATOM     93  O   UNL A   1      50.485  30.215  40.283  1.00  0.00    -0.237 OA
ATOM     94  O   UNL A   1      49.071  28.806  41.725  1.00  0.00    -0.744 OA
ENDBRANCH  90  91
ENDBRANCH  62  85
BRANCH  74  95
ATOM     95  C   UNL A   1      40.390  33.461  37.931  1.00  0.00    -0.014 A 
ATOM     96  C   UNL A   1      39.398  32.976  38.801  1.00  0.00     0.010 A 
ATOM     97  C   UNL A   1      40.891  34.762  38.119  1.00  0.00     0.010 A 
ATOM     98  C   UNL A   1      38.895  33.788  39.821  1.00  0.00     0.020 A 
ATOM     99  C   UNL A   1      40.413  35.566  39.156  1.00  0.00     0.020 A 
ATOM    100  C   UNL A   1      39.407  35.079  39.993  1.00  0.00     0.054 A 
BRANCH 100 101
ATOM    101  S   UNL A   1      38.771  36.096  41.353  1.00  0.00     0.124 S 
ATOM    102  O   UNL A   1      38.491  37.361  40.681  1.00  0.00    -0.237 OA
ATOM    103  O   UNL A   1      37.598  35.345  41.794  1.00  0.00    -0.237 OA
ATOM    104  O   UNL A   1      39.877  36.128  42.307  1.00  0.00    -0.744 OA
ENDBRANCH 100 101
ENDBRANCH  74  95
ENDBRANCH  48  49
ENDBRANCH  40  43
ENDBRANCH  38  39
ENDBRANCH  37  38
ENDBRANCH  36  37
ENDBRANCH  35  36
ENDBRANCH  34  35
ENDBRANCH  33  34
ENDBRANCH   3  33
TORSDOF 26
ENDMDL
