MODEL 1
REMARK VINA RESULT:     -11.8      0.000      0.000
REMARK SMILES Cc1cc2c(=O)c3ccccc3oc2c(C(=O)NCCCCCCNC(=O)c2ccc(-c3c4nc(c(-c5ccc(S(=O)(=O)[O-])cc5)c5ccc([nH]5)c(-c5ccc(S(=O)(=O)[O-])cc5)c5nc(c(-c6ccc(S(=O)(=O)[O-])cc6)c6ccc3[nH]6)C=C5)C=C4)cc2)c1C
REMARK SMILES IDX 23 1 22 2 21 3 20 4 19 5 18 6 16 7 17 8 15 10 1 11 2 12 3 13
REMARK SMILES IDX 88 14 4 15 89 16 5 17 14 18 6 19 7 20 13 21 8 22 12 23 9 24
REMARK SMILES IDX 11 25 10 26 24 27 25 28 26 29 27 31 28 32 29 33 87 34 30 35
REMARK SMILES IDX 86 36 31 37 32 38 33 39 80 40 34 41 85 42 79 43 81 44 35 45
REMARK SMILES IDX 84 46 78 47 77 48 36 50 66 51 47 52 65 53 48 54 51 55 64 56
REMARK SMILES IDX 82 57 49 58 50 59 63 61 83 62 52 63 37 64 38 65 46 66 39 67
REMARK SMILES IDX 45 68 40 69 41 70 42 71 43 72 44 73 67 74 68 75 76 76 69 77
REMARK SMILES IDX 75 78 70 79 71 80 72 81 73 82 74 83 53 84 54 85 62 86 55 87
REMARK SMILES IDX 61 88 56 89 57 90 58 91 59 92 60 93
REMARK H PARENT 18 9 25 30 81 49 51 60
REMARK Flexibility Score: inf
ROOT
ATOM      1  C   UNL A   1      35.843  23.279  24.770  1.00  0.00     0.021 C 
ENDROOT
BRANCH   1   2
ATOM      2  C   UNL A   1      35.572  21.786  24.949  1.00  0.00     0.002 C 
BRANCH   2   3
ATOM      3  C   UNL A   1      34.775  21.419  26.206  1.00  0.00     0.002 C 
BRANCH   3   4
ATOM      4  C   UNL A   1      34.362  22.609  27.081  1.00  0.00     0.021 C 
BRANCH   4   5
ATOM      5  C   UNL A   1      33.168  22.298  27.988  1.00  0.00     0.116 C 
BRANCH   5   6
ATOM      6  N   UNL A   1      31.919  22.686  27.380  1.00  0.00    -0.352 N 
ATOM      7  C   UNL A   1      31.353  23.047  26.198  1.00  0.00     0.255 C 
ATOM      8  O   UNL A   1      30.129  22.879  26.294  1.00  0.00    -0.269 OA
ATOM      9  H   UNL A   1      31.220  22.690  28.074  1.00  0.00     0.163 HD
BRANCH   7  10
ATOM     10  C   UNL A   1      31.946  23.611  24.900  1.00  0.00     0.086 A 
ATOM     11  C   UNL A   1      33.256  22.976  21.292  1.00  0.00     0.044 C 
ATOM     12  C   UNL A   1      32.875  23.641  22.597  1.00  0.00    -0.046 A 
ATOM     13  C   UNL A   1      33.092  25.017  22.683  1.00  0.00     0.019 A 
ATOM     14  C   UNL A   1      32.323  22.920  23.708  1.00  0.00    -0.032 A 
ATOM     15  C   UNL A   1      32.757  25.701  23.838  1.00  0.00     0.066 A 
ATOM     16  C   UNL A   1      32.149  21.445  23.516  1.00  0.00     0.045 C 
ATOM     17  C   UNL A   1      33.004  27.155  23.907  1.00  0.00     0.200 A 
ATOM     18  C   UNL A   1      32.191  25.028  24.926  1.00  0.00     0.151 A 
ATOM     19  O   UNL A   1      33.528  27.767  22.985  1.00  0.00    -0.288 OA
ATOM     20  C   UNL A   1      32.590  27.844  25.130  1.00  0.00     0.065 A 
ATOM     21  O   UNL A   1      31.870  25.731  26.071  1.00  0.00    -0.455 OA
ATOM     22  C   UNL A   1      32.733  29.226  25.278  1.00  0.00     0.016 A 
ATOM     23  C   UNL A   1      32.039  27.081  26.144  1.00  0.00     0.138 A 
ATOM     24  C   UNL A   1      32.312  29.840  26.460  1.00  0.00     0.001 A 
ATOM     25  C   UNL A   1      31.622  27.693  27.327  1.00  0.00     0.048 A 
ATOM     26  C   UNL A   1      31.756  29.072  27.485  1.00  0.00     0.004 A 
ENDBRANCH   7  10
ENDBRANCH   5   6
ENDBRANCH   4   5
ENDBRANCH   3   4
ENDBRANCH   2   3
ENDBRANCH   1   2
BRANCH   1  27
ATOM     27  C   UNL A   1      37.319  23.653  24.733  1.00  0.00     0.116 C 
BRANCH  27  28
ATOM     28  N   UNL A   1      38.163  22.647  25.362  1.00  0.00    -0.352 N 
ATOM     29  C   UNL A   1      39.186  22.803  26.269  1.00  0.00     0.251 C 
ATOM     30  H   UNL A   1      37.973  21.717  25.100  1.00  0.00     0.163 HD
ATOM     31  O   UNL A   1      39.905  21.858  26.557  1.00  0.00    -0.269 OA
BRANCH  29  32
ATOM     32  C   UNL A   1      39.421  24.135  26.867  1.00  0.00     0.039 A 
ATOM     33  C   UNL A   1      40.117  25.112  26.154  1.00  0.00     0.014 A 
ATOM     34  C   UNL A   1      38.968  24.395  28.162  1.00  0.00     0.014 A 
ATOM     35  C   UNL A   1      40.516  26.276  26.798  1.00  0.00     0.010 A 
ATOM     36  C   UNL A   1      39.288  25.610  28.776  1.00  0.00     0.010 A 
ATOM     37  C   UNL A   1      40.110  26.537  28.118  1.00  0.00    -0.014 A 
BRANCH  37  38
ATOM     38  C   UNL A   1      40.571  27.787  28.777  1.00  0.00     0.031 A 
ATOM     39  C   UNL A   1      42.021  27.980  29.137  1.00  0.00     0.074 A 
ATOM     40  C   UNL A   1      39.687  28.787  28.971  1.00  0.00     0.049 A 
ATOM     41  N   UNL A   1      42.605  29.040  29.636  1.00  0.00    -0.248 NA
ATOM     42  C   UNL A   1      42.933  26.847  28.913  1.00  0.00     0.031 C 
ATOM     43  C   UNL A   1      38.260  28.716  28.644  1.00  0.00     0.029 A 
ATOM     44  N   UNL A   1      39.857  30.064  29.441  1.00  0.00    -0.354 N 
ATOM     45  C   UNL A   1      43.943  28.700  29.794  1.00  0.00     0.074 A 
ATOM     46  C   UNL A   1      44.082  27.323  29.374  1.00  0.00     0.031 C 
ATOM     47  C   UNL A   1      37.704  29.919  28.846  1.00  0.00     0.029 A 
ATOM     48  C   UNL A   1      38.712  30.827  29.386  1.00  0.00     0.049 A 
ATOM     49  H   UNL A   1      40.715  30.404  29.785  1.00  0.00     0.167 HD
ATOM     50  C   UNL A   1      44.965  29.472  30.233  1.00  0.00     0.031 A 
ATOM     51  C   UNL A   1      38.491  32.112  29.726  1.00  0.00     0.031 A 
ATOM     52  C   UNL A   1      44.820  30.847  30.634  1.00  0.00     0.049 A 
ATOM     53  C   UNL A   1      39.633  32.937  30.242  1.00  0.00     0.074 A 
ATOM     54  C   UNL A   1      45.802  31.713  31.085  1.00  0.00     0.029 A 
ATOM     55  N   UNL A   1      43.630  31.559  30.626  1.00  0.00    -0.354 N 
ATOM     56  N   UNL A   1      40.893  32.597  30.378  1.00  0.00    -0.248 NA
ATOM     57  C   UNL A   1      39.334  34.317  30.647  1.00  0.00     0.031 C 
ATOM     58  C   UNL A   1      45.195  32.929  31.408  1.00  0.00     0.029 A 
ATOM     59  C   UNL A   1      43.850  32.847  31.084  1.00  0.00     0.049 A 
ATOM     60  H   UNL A   1      42.759  31.203  30.336  1.00  0.00     0.167 HD
ATOM     61  C   UNL A   1      41.540  33.723  30.871  1.00  0.00     0.074 A 
ATOM     62  C   UNL A   1      40.537  34.763  30.991  1.00  0.00     0.031 C 
ATOM     63  C   UNL A   1      42.845  33.877  31.196  1.00  0.00     0.031 A 
BRANCH  50  64
ATOM     64  C   UNL A   1      46.345  28.866  30.303  1.00  0.00    -0.014 A 
ATOM     65  C   UNL A   1      46.795  28.292  31.507  1.00  0.00     0.010 A 
ATOM     66  C   UNL A   1      47.239  28.978  29.224  1.00  0.00     0.010 A 
ATOM     67  C   UNL A   1      48.121  27.872  31.643  1.00  0.00     0.020 A 
ATOM     68  C   UNL A   1      48.559  28.533  29.346  1.00  0.00     0.020 A 
ATOM     69  C   UNL A   1      48.998  28.004  30.563  1.00  0.00     0.054 A 
BRANCH  69  70
ATOM     70  S   UNL A   1      50.724  27.481  30.764  1.00  0.00     0.124 S 
ATOM     71  O   UNL A   1      51.026  26.905  29.458  1.00  0.00    -0.237 OA
ATOM     72  O   UNL A   1      51.403  28.736  31.075  1.00  0.00    -0.237 OA
ATOM     73  O   UNL A   1      50.662  26.528  31.870  1.00  0.00    -0.744 OA
ENDBRANCH  69  70
ENDBRANCH  50  64
BRANCH  51  74
ATOM     74  C   UNL A   1      37.126  32.682  29.548  1.00  0.00    -0.014 A 
ATOM     75  C   UNL A   1      36.714  33.156  28.286  1.00  0.00     0.010 A 
ATOM     76  C   UNL A   1      36.273  32.851  30.651  1.00  0.00     0.010 A 
ATOM     77  C   UNL A   1      35.509  33.847  28.147  1.00  0.00     0.020 A 
ATOM     78  C   UNL A   1      35.049  33.513  30.507  1.00  0.00     0.020 A 
ATOM     79  C   UNL A   1      34.692  34.036  29.262  1.00  0.00     0.054 A 
BRANCH  79  80
ATOM     80  S   UNL A   1      33.163  34.993  29.070  1.00  0.00     0.124 S 
ATOM     81  O   UNL A   1      32.453  34.220  28.056  1.00  0.00    -0.237 OA
ATOM     82  O   UNL A   1      32.588  34.949  30.413  1.00  0.00    -0.237 OA
ATOM     83  O   UNL A   1      33.635  36.307  28.641  1.00  0.00    -0.744 OA
ENDBRANCH  79  80
ENDBRANCH  51  74
BRANCH  63  84
ATOM     84  C   UNL A   1      43.300  35.216  31.713  1.00  0.00    -0.014 A 
ATOM     85  C   UNL A   1      43.086  35.548  33.064  1.00  0.00     0.010 A 
ATOM     86  C   UNL A   1      43.799  36.196  30.835  1.00  0.00     0.010 A 
ATOM     87  C   UNL A   1      43.320  36.848  33.519  1.00  0.00     0.020 A 
ATOM     88  C   UNL A   1      44.062  37.489  31.296  1.00  0.00     0.020 A 
ATOM     89  C   UNL A   1      43.793  37.813  32.628  1.00  0.00     0.054 A 
BRANCH  89  90
ATOM     90  S   UNL A   1      44.043  39.507  33.227  1.00  0.00     0.124 S 
ATOM     91  O   UNL A   1      42.679  39.929  33.533  1.00  0.00    -0.237 OA
ATOM     92  O   UNL A   1      44.916  39.316  34.382  1.00  0.00    -0.237 OA
ATOM     93  O   UNL A   1      44.665  40.183  32.091  1.00  0.00    -0.744 OA
ENDBRANCH  89  90
ENDBRANCH  63  84
ENDBRANCH  37  38
ENDBRANCH  29  32
ENDBRANCH  27  28
ENDBRANCH   1  27
TORSDOF 16
ENDMDL
MODEL 2
REMARK VINA RESULT:     -11.5      1.198      8.132
REMARK SMILES Cc1cc2c(=O)c3ccccc3oc2c(C(=O)NCCCCCCNC(=O)c2ccc(-c3c4nc(c(-c5ccc(S(=O)(=O)[O-])cc5)c5ccc([nH]5)c(-c5ccc(S(=O)(=O)[O-])cc5)c5nc(c(-c6ccc(S(=O)(=O)[O-])cc6)c6ccc3[nH]6)C=C5)C=C4)cc2)c1C
REMARK SMILES IDX 23 1 22 2 21 3 20 4 19 5 18 6 16 7 17 8 15 10 1 11 2 12 3 13
REMARK SMILES IDX 88 14 4 15 89 16 5 17 14 18 6 19 7 20 13 21 8 22 12 23 9 24
REMARK SMILES IDX 11 25 10 26 24 27 25 28 26 29 27 31 28 32 29 33 87 34 30 35
REMARK SMILES IDX 86 36 31 37 32 38 33 39 80 40 34 41 85 42 79 43 81 44 35 45
REMARK SMILES IDX 84 46 78 47 77 48 36 50 66 51 47 52 65 53 48 54 51 55 64 56
REMARK SMILES IDX 82 57 49 58 50 59 63 61 83 62 52 63 37 64 38 65 46 66 39 67
REMARK SMILES IDX 45 68 40 69 41 70 42 71 43 72 44 73 67 74 68 75 76 76 69 77
REMARK SMILES IDX 75 78 70 79 71 80 72 81 73 82 74 83 53 84 54 85 62 86 55 87
REMARK SMILES IDX 61 88 56 89 57 90 58 91 59 92 60 93
REMARK H PARENT 18 9 25 30 81 49 51 60
REMARK Flexibility Score: inf
ROOT
ATOM      1  C   UNL A   1      35.816  23.370  24.873  1.00  0.00     0.021 C 
ENDROOT
BRANCH   1   2
ATOM      2  C   UNL A   1      35.540  21.873  24.998  1.00  0.00     0.002 C 
BRANCH   2   3
ATOM      3  C   UNL A   1      34.829  21.452  26.290  1.00  0.00     0.002 C 
BRANCH   3   4
ATOM      4  C   UNL A   1      34.342  22.611  27.167  1.00  0.00     0.021 C 
BRANCH   4   5
ATOM      5  C   UNL A   1      33.127  22.243  28.024  1.00  0.00     0.116 C 
BRANCH   5   6
ATOM      6  N   UNL A   1      31.905  22.782  27.479  1.00  0.00    -0.352 N 
ATOM      7  C   UNL A   1      31.334  23.230  26.330  1.00  0.00     0.255 C 
ATOM      8  O   UNL A   1      30.103  23.200  26.479  1.00  0.00    -0.269 OA
ATOM      9  H   UNL A   1      31.243  22.851  28.205  1.00  0.00     0.163 HD
BRANCH   7  10
ATOM     10  C   UNL A   1      31.929  23.749  25.016  1.00  0.00     0.086 A 
ATOM     11  C   UNL A   1      33.221  22.998  21.423  1.00  0.00     0.044 C 
ATOM     12  C   UNL A   1      32.852  23.704  22.710  1.00  0.00    -0.046 A 
ATOM     13  C   UNL A   1      33.087  25.079  22.757  1.00  0.00     0.019 A 
ATOM     14  C   UNL A   1      32.294  23.021  23.842  1.00  0.00    -0.032 A 
ATOM     15  C   UNL A   1      32.765  25.799  23.894  1.00  0.00     0.066 A 
ATOM     16  C   UNL A   1      32.101  21.544  23.691  1.00  0.00     0.045 C 
ATOM     17  C   UNL A   1      33.031  27.250  23.922  1.00  0.00     0.200 A 
ATOM     18  C   UNL A   1      32.193  25.164  25.002  1.00  0.00     0.151 A 
ATOM     19  O   UNL A   1      33.560  27.830  22.982  1.00  0.00    -0.288 OA
ATOM     20  C   UNL A   1      32.629  27.979  25.126  1.00  0.00     0.065 A 
ATOM     21  O   UNL A   1      31.884  25.902  26.128  1.00  0.00    -0.455 OA
ATOM     22  C   UNL A   1      32.790  29.362  25.236  1.00  0.00     0.016 A 
ATOM     23  C   UNL A   1      32.071  27.251  26.163  1.00  0.00     0.138 A 
ATOM     24  C   UNL A   1      32.381  30.014  26.401  1.00  0.00     0.001 A 
ATOM     25  C   UNL A   1      31.666  27.901  27.330  1.00  0.00     0.048 A 
ATOM     26  C   UNL A   1      31.818  29.283  27.448  1.00  0.00     0.004 A 
ENDBRANCH   7  10
ENDBRANCH   5   6
ENDBRANCH   4   5
ENDBRANCH   3   4
ENDBRANCH   2   3
ENDBRANCH   1   2
BRANCH   1  27
ATOM     27  C   UNL A   1      37.291  23.732  24.757  1.00  0.00     0.116 C 
BRANCH  27  28
ATOM     28  N   UNL A   1      38.160  22.717  25.337  1.00  0.00    -0.352 N 
ATOM     29  C   UNL A   1      39.204  22.859  26.222  1.00  0.00     0.251 C 
ATOM     30  H   UNL A   1      37.972  21.793  25.054  1.00  0.00     0.163 HD
ATOM     31  O   UNL A   1      39.938  21.913  26.466  1.00  0.00    -0.269 OA
BRANCH  29  32
ATOM     32  C   UNL A   1      39.443  24.176  26.849  1.00  0.00     0.039 A 
ATOM     33  C   UNL A   1      40.197  25.145  26.186  1.00  0.00     0.014 A 
ATOM     34  C   UNL A   1      38.932  24.431  28.124  1.00  0.00     0.014 A 
ATOM     35  C   UNL A   1      40.592  26.289  26.866  1.00  0.00     0.010 A 
ATOM     36  C   UNL A   1      39.252  25.629  28.770  1.00  0.00     0.010 A 
ATOM     37  C   UNL A   1      40.128  26.544  28.167  1.00  0.00    -0.014 A 
BRANCH  37  38
ATOM     38  C   UNL A   1      40.587  27.773  28.866  1.00  0.00     0.031 A 
ATOM     39  C   UNL A   1      39.662  28.947  29.048  1.00  0.00     0.074 A 
ATOM     40  C   UNL A   1      41.819  27.791  29.414  1.00  0.00     0.049 A 
ATOM     41  N   UNL A   1      39.871  30.058  29.706  1.00  0.00    -0.248 NA
ATOM     42  C   UNL A   1      38.335  28.872  28.415  1.00  0.00     0.031 C 
ATOM     43  C   UNL A   1      42.794  26.701  29.316  1.00  0.00     0.029 A 
ATOM     44  N   UNL A   1      42.446  28.727  30.197  1.00  0.00    -0.354 N 
ATOM     45  C   UNL A   1      38.715  30.815  29.559  1.00  0.00     0.074 A 
ATOM     46  C   UNL A   1      37.818  30.054  28.718  1.00  0.00     0.031 C 
ATOM     47  C   UNL A   1      43.858  26.996  30.074  1.00  0.00     0.029 A 
ATOM     48  C   UNL A   1      43.679  28.323  30.656  1.00  0.00     0.049 A 
ATOM     49  H   UNL A   1      42.052  29.604  30.410  1.00  0.00     0.167 HD
ATOM     50  C   UNL A   1      38.422  32.025  30.091  1.00  0.00     0.031 A 
ATOM     51  C   UNL A   1      44.569  28.942  31.455  1.00  0.00     0.031 A 
ATOM     52  C   UNL A   1      39.316  32.768  30.941  1.00  0.00     0.049 A 
ATOM     53  C   UNL A   1      44.235  30.298  32.006  1.00  0.00     0.074 A 
ATOM     54  C   UNL A   1      39.104  34.000  31.534  1.00  0.00     0.029 A 
ATOM     55  N   UNL A   1      40.582  32.351  31.325  1.00  0.00    -0.354 N 
ATOM     56  N   UNL A   1      43.132  30.993  31.858  1.00  0.00    -0.248 NA
ATOM     57  C   UNL A   1      45.256  30.956  32.832  1.00  0.00     0.031 C 
ATOM     58  C   UNL A   1      40.263  34.356  32.227  1.00  0.00     0.029 A 
ATOM     59  C   UNL A   1      41.169  33.312  32.130  1.00  0.00     0.049 A 
ATOM     60  H   UNL A   1      41.001  31.499  31.065  1.00  0.00     0.167 HD
ATOM     61  C   UNL A   1      43.320  32.163  32.583  1.00  0.00     0.074 A 
ATOM     62  C   UNL A   1      44.635  32.075  33.187  1.00  0.00     0.031 C 
ATOM     63  C   UNL A   1      42.478  33.213  32.730  1.00  0.00     0.031 A 
BRANCH  50  64
ATOM     64  C   UNL A   1      37.078  32.638  29.787  1.00  0.00    -0.014 A 
ATOM     65  C   UNL A   1      36.921  33.447  28.646  1.00  0.00     0.010 A 
ATOM     66  C   UNL A   1      36.009  32.520  30.693  1.00  0.00     0.010 A 
ATOM     67  C   UNL A   1      35.735  34.154  28.433  1.00  0.00     0.020 A 
ATOM     68  C   UNL A   1      34.809  33.202  30.468  1.00  0.00     0.020 A 
ATOM     69  C   UNL A   1      34.688  34.034  29.351  1.00  0.00     0.054 A 
BRANCH  69  70
ATOM     70  S   UNL A   1      33.165  34.980  29.075  1.00  0.00     0.124 S 
ATOM     71  O   UNL A   1      32.483  34.177  28.065  1.00  0.00    -0.237 OA
ATOM     72  O   UNL A   1      32.549  34.987  30.399  1.00  0.00    -0.237 OA
ATOM     73  O   UNL A   1      33.652  36.280  28.618  1.00  0.00    -0.744 OA
ENDBRANCH  69  70
ENDBRANCH  50  64
BRANCH  51  74
ATOM     74  C   UNL A   1      45.841  28.247  31.795  1.00  0.00    -0.014 A 
ATOM     75  C   UNL A   1      46.954  28.342  30.937  1.00  0.00     0.010 A 
ATOM     76  C   UNL A   1      45.917  27.405  32.918  1.00  0.00     0.010 A 
ATOM     77  C   UNL A   1      48.089  27.558  31.155  1.00  0.00     0.020 A 
ATOM     78  C   UNL A   1      47.066  26.643  33.159  1.00  0.00     0.020 A 
ATOM     79  C   UNL A   1      48.130  26.701  32.256  1.00  0.00     0.054 A 
BRANCH  79  80
ATOM     80  S   UNL A   1      49.588  25.644  32.484  1.00  0.00     0.124 S 
ATOM     81  O   UNL A   1      50.541  26.575  33.080  1.00  0.00    -0.237 OA
ATOM     82  O   UNL A   1      49.088  24.599  33.373  1.00  0.00    -0.237 OA
ATOM     83  O   UNL A   1      49.905  25.205  31.127  1.00  0.00    -0.744 OA
ENDBRANCH  79  80
ENDBRANCH  51  74
BRANCH  63  84
ATOM     84  C   UNL A   1      42.924  34.373  33.582  1.00  0.00    -0.014 A 
ATOM     85  C   UNL A   1      43.752  35.366  33.024  1.00  0.00     0.010 A 
ATOM     86  C   UNL A   1      42.650  34.401  34.961  1.00  0.00     0.010 A 
ATOM     87  C   UNL A   1      44.335  36.340  33.838  1.00  0.00     0.020 A 
ATOM     88  C   UNL A   1      43.208  35.394  35.772  1.00  0.00     0.020 A 
ATOM     89  C   UNL A   1      44.070  36.339  35.209  1.00  0.00     0.054 A 
BRANCH  89  90
ATOM     90  S   UNL A   1      44.875  37.583  36.255  1.00  0.00     0.124 S 
ATOM     91  O   UNL A   1      43.830  37.890  37.226  1.00  0.00    -0.237 OA
ATOM     92  O   UNL A   1      46.032  36.862  36.781  1.00  0.00    -0.237 OA
ATOM     93  O   UNL A   1      45.195  38.660  35.320  1.00  0.00    -0.744 OA
ENDBRANCH  89  90
ENDBRANCH  63  84
ENDBRANCH  37  38
ENDBRANCH  29  32
ENDBRANCH  27  28
ENDBRANCH   1  27
TORSDOF 16
ENDMDL
MODEL 3
REMARK VINA RESULT:     -11.5      2.760      8.557
REMARK SMILES Cc1cc2c(=O)c3ccccc3oc2c(C(=O)NCCCCCCNC(=O)c2ccc(-c3c4nc(c(-c5ccc(S(=O)(=O)[O-])cc5)c5ccc([nH]5)c(-c5ccc(S(=O)(=O)[O-])cc5)c5nc(c(-c6ccc(S(=O)(=O)[O-])cc6)c6ccc3[nH]6)C=C5)C=C4)cc2)c1C
REMARK SMILES IDX 23 1 22 2 21 3 20 4 19 5 18 6 16 7 17 8 15 10 1 11 2 12 3 13
REMARK SMILES IDX 88 14 4 15 89 16 5 17 14 18 6 19 7 20 13 21 8 22 12 23 9 24
REMARK SMILES IDX 11 25 10 26 24 27 25 28 26 29 27 31 28 32 29 33 87 34 30 35
REMARK SMILES IDX 86 36 31 37 32 38 33 39 80 40 34 41 85 42 79 43 81 44 35 45
REMARK SMILES IDX 84 46 78 47 77 48 36 50 66 51 47 52 65 53 48 54 51 55 64 56
REMARK SMILES IDX 82 57 49 58 50 59 63 61 83 62 52 63 37 64 38 65 46 66 39 67
REMARK SMILES IDX 45 68 40 69 41 70 42 71 43 72 44 73 67 74 68 75 76 76 69 77
REMARK SMILES IDX 75 78 70 79 71 80 72 81 73 82 74 83 53 84 54 85 62 86 55 87
REMARK SMILES IDX 61 88 56 89 57 90 58 91 59 92 60 93
REMARK H PARENT 18 9 25 30 81 49 51 60
REMARK Flexibility Score: inf
ROOT
ATOM      1  C   UNL A   1      32.131  27.973  26.996  1.00  0.00     0.021 C 
ENDROOT
BRANCH   1   2
ATOM      2  C   UNL A   1      31.797  27.722  25.526  1.00  0.00     0.002 C 
BRANCH   2   3
ATOM      3  C   UNL A   1      30.900  26.506  25.265  1.00  0.00     0.002 C 
BRANCH   3   4
ATOM      4  C   UNL A   1      30.715  26.143  23.786  1.00  0.00     0.021 C 
BRANCH   4   5
ATOM      5  C   UNL A   1      31.645  25.017  23.326  1.00  0.00     0.116 C 
BRANCH   5   6
ATOM      6  N   UNL A   1      31.524  23.847  24.161  1.00  0.00    -0.352 N 
ATOM      7  C   UNL A   1      32.218  23.043  25.009  1.00  0.00     0.255 C 
ATOM      8  O   UNL A   1      31.398  22.416  25.696  1.00  0.00    -0.269 OA
ATOM      9  H   UNL A   1      30.602  23.507  24.092  1.00  0.00     0.163 HD
BRANCH   7  10
ATOM     10  C   UNL A   1      33.719  22.795  25.199  1.00  0.00     0.086 A 
ATOM     11  C   UNL A   1      37.250  24.218  26.003  1.00  0.00     0.044 C 
ATOM     12  C   UNL A   1      36.114  23.288  25.635  1.00  0.00    -0.046 A 
ATOM     13  C   UNL A   1      36.449  21.952  25.412  1.00  0.00     0.019 A 
ATOM     14  C   UNL A   1      34.754  23.729  25.510  1.00  0.00    -0.032 A 
ATOM     15  C   UNL A   1      35.465  21.035  25.085  1.00  0.00     0.066 A 
ATOM     16  C   UNL A   1      34.509  25.186  25.753  1.00  0.00     0.045 C 
ATOM     17  C   UNL A   1      35.847  19.630  24.845  1.00  0.00     0.200 A 
ATOM     18  C   UNL A   1      34.128  21.432  24.984  1.00  0.00     0.151 A 
ATOM     19  O   UNL A   1      37.012  19.257  24.893  1.00  0.00    -0.288 OA
ATOM     20  C   UNL A   1      34.767  18.687  24.550  1.00  0.00     0.065 A 
ATOM     21  O   UNL A   1      33.163  20.501  24.651  1.00  0.00    -0.455 OA
ATOM     22  C   UNL A   1      35.012  17.325  24.355  1.00  0.00     0.016 A 
ATOM     23  C   UNL A   1      33.478  19.187  24.475  1.00  0.00     0.138 A 
ATOM     24  C   UNL A   1      33.947  16.464  24.087  1.00  0.00     0.001 A 
ATOM     25  C   UNL A   1      32.413  18.327  24.202  1.00  0.00     0.048 A 
ATOM     26  C   UNL A   1      32.647  16.965  24.011  1.00  0.00     0.004 A 
ENDBRANCH   7  10
ENDBRANCH   5   6
ENDBRANCH   4   5
ENDBRANCH   3   4
ENDBRANCH   2   3
ENDBRANCH   1   2
BRANCH   1  27
ATOM     27  C   UNL A   1      33.526  28.531  27.240  1.00  0.00     0.116 C 
BRANCH  27  28
ATOM     28  N   UNL A   1      33.506  29.944  27.594  1.00  0.00    -0.352 N 
ATOM     29  C   UNL A   1      34.474  30.709  28.201  1.00  0.00     0.251 C 
ATOM     30  H   UNL A   1      32.676  30.422  27.363  1.00  0.00     0.163 HD
ATOM     31  O   UNL A   1      34.217  31.842  28.582  1.00  0.00    -0.269 OA
BRANCH  29  32
ATOM     32  C   UNL A   1      35.820  30.134  28.413  1.00  0.00     0.039 A 
ATOM     33  C   UNL A   1      36.171  29.606  29.655  1.00  0.00     0.014 A 
ATOM     34  C   UNL A   1      36.745  30.152  27.366  1.00  0.00     0.014 A 
ATOM     35  C   UNL A   1      37.494  29.266  29.906  1.00  0.00     0.010 A 
ATOM     36  C   UNL A   1      38.054  29.716  27.594  1.00  0.00     0.010 A 
ATOM     37  C   UNL A   1      38.453  29.320  28.880  1.00  0.00    -0.014 A 
BRANCH  37  38
ATOM     38  C   UNL A   1      39.861  28.962  29.192  1.00  0.00     0.031 A 
ATOM     39  C   UNL A   1      40.421  27.620  28.798  1.00  0.00     0.074 A 
ATOM     40  C   UNL A   1      40.660  29.888  29.757  1.00  0.00     0.049 A 
ATOM     41  N   UNL A   1      41.647  27.180  28.917  1.00  0.00    -0.248 NA
ATOM     42  C   UNL A   1      39.494  26.647  28.197  1.00  0.00     0.031 C 
ATOM     43  C   UNL A   1      40.228  31.229  30.164  1.00  0.00     0.029 A 
ATOM     44  N   UNL A   1      42.001  29.871  30.044  1.00  0.00    -0.354 N 
ATOM     45  C   UNL A   1      41.638  25.883  28.418  1.00  0.00     0.074 A 
ATOM     46  C   UNL A   1      40.277  25.590  28.028  1.00  0.00     0.031 C 
ATOM     47  C   UNL A   1      41.297  31.928  30.572  1.00  0.00     0.029 A 
ATOM     48  C   UNL A   1      42.476  31.070  30.526  1.00  0.00     0.049 A 
ATOM     49  H   UNL A   1      42.570  29.077  29.919  1.00  0.00     0.167 HD
ATOM     50  C   UNL A   1      42.674  25.022  28.281  1.00  0.00     0.031 A 
ATOM     51  C   UNL A   1      43.719  31.444  30.889  1.00  0.00     0.031 A 
ATOM     52  C   UNL A   1      44.030  25.328  28.657  1.00  0.00     0.049 A 
ATOM     53  C   UNL A   1      44.845  30.461  30.760  1.00  0.00     0.074 A 
ATOM     54  C   UNL A   1      45.149  24.522  28.549  1.00  0.00     0.029 A 
ATOM     55  N   UNL A   1      44.454  26.530  29.204  1.00  0.00    -0.354 N 
ATOM     56  N   UNL A   1      44.814  29.240  30.279  1.00  0.00    -0.248 NA
ATOM     57  C   UNL A   1      46.171  30.897  31.214  1.00  0.00     0.031 C 
ATOM     58  C   UNL A   1      46.238  25.213  29.085  1.00  0.00     0.029 A 
ATOM     59  C   UNL A   1      45.814  26.478  29.456  1.00  0.00     0.049 A 
ATOM     60  H   UNL A   1      43.875  27.306  29.384  1.00  0.00     0.167 HD
ATOM     61  C   UNL A   1      46.118  28.768  30.360  1.00  0.00     0.074 A 
ATOM     62  C   UNL A   1      46.918  29.840  30.918  1.00  0.00     0.031 C 
ATOM     63  C   UNL A   1      46.603  27.554  30.008  1.00  0.00     0.031 A 
BRANCH  50  64
ATOM     64  C   UNL A   1      42.404  23.659  27.694  1.00  0.00    -0.014 A 
ATOM     65  C   UNL A   1      42.146  22.569  28.548  1.00  0.00     0.010 A 
ATOM     66  C   UNL A   1      42.531  23.429  26.312  1.00  0.00     0.010 A 
ATOM     67  C   UNL A   1      42.054  21.272  28.036  1.00  0.00     0.020 A 
ATOM     68  C   UNL A   1      42.411  22.137  25.794  1.00  0.00     0.020 A 
ATOM     69  C   UNL A   1      42.197  21.063  26.662  1.00  0.00     0.054 A 
BRANCH  69  70
ATOM     70  S   UNL A   1      42.103  19.369  26.018  1.00  0.00     0.124 S 
ATOM     71  O   UNL A   1      42.954  19.441  24.835  1.00  0.00    -0.237 OA
ATOM     72  O   UNL A   1      42.627  18.577  27.128  1.00  0.00    -0.237 OA
ATOM     73  O   UNL A   1      40.677  19.185  25.754  1.00  0.00    -0.744 OA
ENDBRANCH  69  70
ENDBRANCH  50  64
BRANCH  51  74
ATOM     74  C   UNL A   1      43.941  32.835  31.375  1.00  0.00    -0.014 A 
ATOM     75  C   UNL A   1      43.845  33.131  32.750  1.00  0.00     0.010 A 
ATOM     76  C   UNL A   1      44.144  33.886  30.465  1.00  0.00     0.010 A 
ATOM     77  C   UNL A   1      43.879  34.454  33.195  1.00  0.00     0.020 A 
ATOM     78  C   UNL A   1      44.213  35.210  30.912  1.00  0.00     0.020 A 
ATOM     79  C   UNL A   1      44.046  35.486  32.271  1.00  0.00     0.054 A 
BRANCH  79  80
ATOM     80  S   UNL A   1      44.022  37.200  32.865  1.00  0.00     0.124 S 
ATOM     81  O   UNL A   1      45.312  37.300  33.541  1.00  0.00    -0.237 OA
ATOM     82  O   UNL A   1      43.899  37.966  31.627  1.00  0.00    -0.237 OA
ATOM     83  O   UNL A   1      42.852  37.241  33.738  1.00  0.00    -0.744 OA
ENDBRANCH  79  80
ENDBRANCH  51  74
BRANCH  63  84
ATOM     84  C   UNL A   1      48.074  27.289  30.195  1.00  0.00    -0.014 A 
ATOM     85  C   UNL A   1      48.517  26.624  31.354  1.00  0.00     0.010 A 
ATOM     86  C   UNL A   1      49.022  27.827  29.306  1.00  0.00     0.010 A 
ATOM     87  C   UNL A   1      49.881  26.540  31.644  1.00  0.00     0.020 A 
ATOM     88  C   UNL A   1      50.388  27.717  29.580  1.00  0.00     0.020 A 
ATOM     89  C   UNL A   1      50.807  27.100  30.761  1.00  0.00     0.054 A 
BRANCH  89  90
ATOM     90  S   UNL A   1      52.570  27.023  31.181  1.00  0.00     0.124 S 
ATOM     91  O   UNL A   1      53.169  27.851  30.139  1.00  0.00    -0.237 OA
ATOM     92  O   UNL A   1      52.606  27.583  32.529  1.00  0.00    -0.237 OA
ATOM     93  O   UNL A   1      52.879  25.597  31.099  1.00  0.00    -0.744 OA
ENDBRANCH  89  90
ENDBRANCH  63  84
ENDBRANCH  37  38
ENDBRANCH  29  32
ENDBRANCH  27  28
ENDBRANCH   1  27
TORSDOF 16
ENDMDL
