MODEL 1
REMARK VINA RESULT:     -13.9      0.000      0.000
REMARK SMILES COc1ccc(-c2[nH]nc3nc(-c4ccc(C(F)(F)F)cc4)cc(C(=O)NCCCCCCNC(=O)c4ccc(-c5c6nc(c(-c7ccc(S(=O)(=O)[O-])cc7)c7ccc([nH]7)c(-c7ccc(S(=O)(=O)[O-])cc7)c7nc(c(-c8ccc(S(=O)(=O)[O-])cc8)c8ccc5[nH]8)C=C7)C=C6)cc4)c23)cc1
REMARK SMILES IDX 31 1 30 2 29 3 28 4 27 5 25 6 26 7 24 9 7 10 8 11 97 12 9 13
REMARK SMILES IDX 10 15 11 16 23 17 12 18 6 19 3 20 4 21 99 22 5 23 98 24 2 25
REMARK SMILES IDX 1 26 13 27 14 28 22 29 15 30 21 31 16 32 17 33 18 34 19 35
REMARK SMILES IDX 20 36 32 37 33 38 34 39 35 40 36 42 37 43 38 44 96 45 39 46
REMARK SMILES IDX 95 47 40 48 41 49 42 50 89 51 43 52 94 53 88 54 90 55 44 56
REMARK SMILES IDX 93 57 87 58 86 59 45 61 75 62 56 63 74 64 57 65 60 66 73 67
REMARK SMILES IDX 91 68 58 69 59 70 72 72 92 73 61 74 46 75 47 76 55 77 48 78
REMARK SMILES IDX 54 79 49 80 50 81 51 82 52 83 53 84 76 85 77 86 85 87 78 88
REMARK SMILES IDX 84 89 79 90 80 91 81 92 82 93 83 94 62 95 63 96 71 97 64 98
REMARK SMILES IDX 70 99 65 100 66 101 67 102 68 103 69 104
REMARK H PARENT 27 8 8 14 34 41 90 60 60 71
REMARK Flexibility Score: inf
ROOT
ATOM      1  C   UNL A   1      32.024  27.486  26.443  1.00  0.00     0.002 C 
ENDROOT
BRANCH   1   2
ATOM      2  C   UNL A   1      33.183  26.803  25.697  1.00  0.00     0.002 C 
BRANCH   2   3
ATOM      3  C   UNL A   1      33.383  25.313  26.014  1.00  0.00     0.021 C 
BRANCH   3   4
ATOM      4  C   UNL A   1      32.544  24.835  27.194  1.00  0.00     0.116 C 
BRANCH   4   5
ATOM      5  N   UNL A   1      31.551  23.868  26.784  1.00  0.00    -0.352 N 
ATOM      6  C   UNL A   1      30.921  23.540  25.615  1.00  0.00     0.252 C 
ATOM      7  O   UNL A   1      30.377  22.440  25.647  1.00  0.00    -0.269 OA
ATOM      8  H   UNL A   1      31.253  23.303  27.533  1.00  0.00     0.163 HD
BRANCH   6   9
ATOM      9  C   UNL A   1      30.945  24.345  24.368  1.00  0.00     0.055 A 
ATOM     10  C   UNL A   1      32.610  23.090  22.912  1.00  0.00     0.075 A 
ATOM     11  N   UNL A   1      33.194  23.470  21.725  1.00  0.00    -0.275 N 
ATOM     12  C   UNL A   1      31.799  24.162  23.262  1.00  0.00     0.059 A 
ATOM     13  N   UNL A   1      32.869  24.693  21.292  1.00  0.00    -0.154 NA
ATOM     14  H   UNL A   1      33.809  22.883  21.229  1.00  0.00     0.190 HD
ATOM     15  C   UNL A   1      31.986  25.120  22.194  1.00  0.00     0.182 A 
ATOM     16  N   UNL A   1      31.357  26.323  22.161  1.00  0.00    -0.226 NA
ATOM     17  C   UNL A   1      30.184  25.500  24.166  1.00  0.00     0.043 A 
ATOM     18  C   UNL A   1      30.459  26.465  23.166  1.00  0.00     0.074 A 
BRANCH  10  19
ATOM     19  C   UNL A   1      32.899  21.771  23.469  1.00  0.00     0.001 A 
ATOM     20  C   UNL A   1      33.553  19.193  24.390  1.00  0.00     0.118 A 
ATOM     21  C   UNL A   1      32.552  19.370  23.433  1.00  0.00     0.047 A 
ATOM     22  C   UNL A   1      34.219  20.309  24.898  1.00  0.00     0.047 A 
ATOM     23  C   UNL A   1      32.218  20.649  22.981  1.00  0.00     0.014 A 
ATOM     24  C   UNL A   1      33.882  21.595  24.452  1.00  0.00     0.014 A 
BRANCH  20  25
ATOM     25  O   UNL A   1      33.826  17.890  24.703  1.00  0.00    -0.497 OA
ATOM     26  C   UNL A   1      32.945  16.924  24.144  1.00  0.00     0.278 C 
ENDBRANCH  20  25
ENDBRANCH  10  19
BRANCH  18  27
ATOM     27  C   UNL A   1      29.816  27.785  23.307  1.00  0.00     0.000 A 
ATOM     28  C   UNL A   1      30.523  28.921  23.713  1.00  0.00     0.011 A 
ATOM     29  C   UNL A   1      28.464  27.942  22.932  1.00  0.00     0.011 A 
ATOM     30  C   UNL A   1      29.913  30.184  23.695  1.00  0.00     0.014 A 
ATOM     31  C   UNL A   1      27.854  29.197  22.916  1.00  0.00     0.014 A 
ATOM     32  C   UNL A   1      28.577  30.337  23.284  1.00  0.00     0.056 A 
BRANCH  32  33
ATOM     33  C   UNL A   1      27.941  31.707  23.233  1.00  0.00     0.416 C 
ATOM     34  F   UNL A   1      26.833  31.799  24.017  1.00  0.00    -0.166 F 
ATOM     35  F   UNL A   1      28.787  32.692  23.637  1.00  0.00    -0.166 F 
ATOM     36  F   UNL A   1      27.537  32.060  21.978  1.00  0.00    -0.166 F 
ENDBRANCH  32  33
ENDBRANCH  18  27
ENDBRANCH   6   9
ENDBRANCH   4   5
ENDBRANCH   3   4
ENDBRANCH   2   3
ENDBRANCH   1   2
BRANCH   1  37
ATOM     37  C   UNL A   1      32.381  28.765  27.218  1.00  0.00     0.021 C 
BRANCH  37  38
ATOM     38  C   UNL A   1      33.767  29.292  26.893  1.00  0.00     0.116 C 
BRANCH  38  39
ATOM     39  N   UNL A   1      33.821  30.746  26.990  1.00  0.00    -0.352 N 
ATOM     40  C   UNL A   1      34.693  31.527  27.719  1.00  0.00     0.251 C 
ATOM     41  H   UNL A   1      33.145  31.235  26.467  1.00  0.00     0.163 HD
ATOM     42  O   UNL A   1      34.414  32.682  27.992  1.00  0.00    -0.269 OA
BRANCH  40  43
ATOM     43  C   UNL A   1      35.965  30.932  28.162  1.00  0.00     0.039 A 
ATOM     44  C   UNL A   1      36.221  29.571  27.971  1.00  0.00     0.014 A 
ATOM     45  C   UNL A   1      36.912  31.760  28.762  1.00  0.00     0.014 A 
ATOM     46  C   UNL A   1      37.468  29.066  28.328  1.00  0.00     0.010 A 
ATOM     47  C   UNL A   1      38.185  31.295  28.976  1.00  0.00     0.010 A 
ATOM     48  C   UNL A   1      38.450  29.939  28.817  1.00  0.00    -0.014 A 
BRANCH  48  49
ATOM     49  C   UNL A   1      39.799  29.461  29.088  1.00  0.00     0.031 A 
ATOM     50  C   UNL A   1      40.145  29.324  30.529  1.00  0.00     0.074 A 
ATOM     51  C   UNL A   1      40.599  28.959  28.123  1.00  0.00     0.049 A 
ATOM     52  N   UNL A   1      41.010  30.007  31.201  1.00  0.00    -0.248 NA
ATOM     53  C   UNL A   1      39.344  28.405  31.354  1.00  0.00     0.031 C 
ATOM     54  C   UNL A   1      40.279  28.713  26.711  1.00  0.00     0.029 A 
ATOM     55  N   UNL A   1      41.839  28.420  28.242  1.00  0.00    -0.354 N 
ATOM     56  C   UNL A   1      41.021  29.466  32.484  1.00  0.00     0.074 A 
ATOM     57  C   UNL A   1      39.860  28.617  32.567  1.00  0.00     0.031 C 
ATOM     58  C   UNL A   1      41.173  27.844  26.193  1.00  0.00     0.029 A 
ATOM     59  C   UNL A   1      42.218  27.615  27.175  1.00  0.00     0.049 A 
ATOM     60  H   UNL A   1      42.421  28.584  29.019  1.00  0.00     0.167 HD
ATOM     61  C   UNL A   1      42.109  29.576  33.298  1.00  0.00     0.031 A 
ATOM     62  C   UNL A   1      43.282  26.774  27.129  1.00  0.00     0.031 A 
ATOM     63  C   UNL A   1      43.057  30.536  32.791  1.00  0.00     0.049 A 
ATOM     64  C   UNL A   1      44.231  27.223  28.181  1.00  0.00     0.074 A 
ATOM     65  C   UNL A   1      43.000  31.878  32.474  1.00  0.00     0.029 A 
ATOM     66  N   UNL A   1      44.165  30.040  32.141  1.00  0.00    -0.354 N 
ATOM     67  N   UNL A   1      44.845  28.374  28.144  1.00  0.00    -0.248 NA
ATOM     68  C   UNL A   1      44.126  26.618  29.500  1.00  0.00     0.031 C 
ATOM     69  C   UNL A   1      43.749  31.995  31.266  1.00  0.00     0.029 A 
ATOM     70  C   UNL A   1      44.291  30.743  30.970  1.00  0.00     0.049 A 
ATOM     71  H   UNL A   1      44.755  29.318  32.457  1.00  0.00     0.167 HD
ATOM     72  C   UNL A   1      44.807  28.840  29.452  1.00  0.00     0.074 A 
ATOM     73  C   UNL A   1      44.437  27.675  30.257  1.00  0.00     0.031 C 
ATOM     74  C   UNL A   1      44.796  30.178  29.734  1.00  0.00     0.031 A 
BRANCH  61  75
ATOM     75  C   UNL A   1      42.505  28.548  34.332  1.00  0.00    -0.014 A 
ATOM     76  C   UNL A   1      42.708  28.969  35.664  1.00  0.00     0.010 A 
ATOM     77  C   UNL A   1      42.952  27.255  33.996  1.00  0.00     0.010 A 
ATOM     78  C   UNL A   1      43.400  28.171  36.582  1.00  0.00     0.020 A 
ATOM     79  C   UNL A   1      43.603  26.432  34.918  1.00  0.00     0.020 A 
ATOM     80  C   UNL A   1      43.859  26.912  36.196  1.00  0.00     0.054 A 
BRANCH  80  81
ATOM     81  S   UNL A   1      44.855  25.939  37.349  1.00  0.00     0.124 S 
ATOM     82  O   UNL A   1      44.284  26.324  38.637  1.00  0.00    -0.237 OA
ATOM     83  O   UNL A   1      44.579  24.571  36.917  1.00  0.00    -0.237 OA
ATOM     84  O   UNL A   1      46.218  26.404  37.102  1.00  0.00    -0.744 OA
ENDBRANCH  80  81
ENDBRANCH  61  75
BRANCH  62  85
ATOM     85  C   UNL A   1      43.350  25.443  26.472  1.00  0.00    -0.014 A 
ATOM     86  C   UNL A   1      43.987  25.272  25.229  1.00  0.00     0.010 A 
ATOM     87  C   UNL A   1      43.019  24.279  27.198  1.00  0.00     0.010 A 
ATOM     88  C   UNL A   1      44.333  23.990  24.760  1.00  0.00     0.020 A 
ATOM     89  C   UNL A   1      43.350  23.000  26.735  1.00  0.00     0.020 A 
ATOM     90  C   UNL A   1      44.029  22.863  25.529  1.00  0.00     0.054 A 
BRANCH  90  91
ATOM     91  S   UNL A   1      44.641  21.229  25.015  1.00  0.00     0.124 S 
ATOM     92  O   UNL A   1      44.608  21.329  23.559  1.00  0.00    -0.237 OA
ATOM     93  O   UNL A   1      45.970  21.183  25.618  1.00  0.00    -0.237 OA
ATOM     94  O   UNL A   1      43.669  20.302  25.596  1.00  0.00    -0.744 OA
ENDBRANCH  90  91
ENDBRANCH  62  85
BRANCH  74  95
ATOM     95  C   UNL A   1      45.094  31.168  28.629  1.00  0.00    -0.014 A 
ATOM     96  C   UNL A   1      44.140  31.625  27.698  1.00  0.00     0.010 A 
ATOM     97  C   UNL A   1      46.357  31.789  28.647  1.00  0.00     0.010 A 
ATOM     98  C   UNL A   1      44.453  32.654  26.795  1.00  0.00     0.020 A 
ATOM     99  C   UNL A   1      46.667  32.827  27.766  1.00  0.00     0.020 A 
ATOM    100  C   UNL A   1      45.718  33.248  26.836  1.00  0.00     0.054 A 
BRANCH 100 101
ATOM    101  S   UNL A   1      46.110  34.603  25.694  1.00  0.00     0.124 S 
ATOM    102  O   UNL A   1      45.772  35.787  26.477  1.00  0.00    -0.237 OA
ATOM    103  O   UNL A   1      47.534  34.406  25.432  1.00  0.00    -0.237 OA
ATOM    104  O   UNL A   1      45.239  34.353  24.545  1.00  0.00    -0.744 OA
ENDBRANCH 100 101
ENDBRANCH  74  95
ENDBRANCH  48  49
ENDBRANCH  40  43
ENDBRANCH  38  39
ENDBRANCH  37  38
ENDBRANCH   1  37
TORSDOF 20
ENDMDL
MODEL 2
REMARK VINA RESULT:     -13.6      3.978      9.930
REMARK SMILES COc1ccc(-c2[nH]nc3nc(-c4ccc(C(F)(F)F)cc4)cc(C(=O)NCCCCCCNC(=O)c4ccc(-c5c6nc(c(-c7ccc(S(=O)(=O)[O-])cc7)c7ccc([nH]7)c(-c7ccc(S(=O)(=O)[O-])cc7)c7nc(c(-c8ccc(S(=O)(=O)[O-])cc8)c8ccc5[nH]8)C=C7)C=C6)cc4)c23)cc1
REMARK SMILES IDX 31 1 30 2 29 3 28 4 27 5 25 6 26 7 24 9 7 10 8 11 97 12 9 13
REMARK SMILES IDX 10 15 11 16 23 17 12 18 6 19 3 20 4 21 99 22 5 23 98 24 2 25
REMARK SMILES IDX 1 26 13 27 14 28 22 29 15 30 21 31 16 32 17 33 18 34 19 35
REMARK SMILES IDX 20 36 32 37 33 38 34 39 35 40 36 42 37 43 38 44 96 45 39 46
REMARK SMILES IDX 95 47 40 48 41 49 42 50 89 51 43 52 94 53 88 54 90 55 44 56
REMARK SMILES IDX 93 57 87 58 86 59 45 61 75 62 56 63 74 64 57 65 60 66 73 67
REMARK SMILES IDX 91 68 58 69 59 70 72 72 92 73 61 74 46 75 47 76 55 77 48 78
REMARK SMILES IDX 54 79 49 80 50 81 51 82 52 83 53 84 76 85 77 86 85 87 78 88
REMARK SMILES IDX 84 89 79 90 80 91 81 92 82 93 83 94 62 95 63 96 71 97 64 98
REMARK SMILES IDX 70 99 65 100 66 101 67 102 68 103 69 104
REMARK H PARENT 27 8 8 14 34 41 90 60 60 71
REMARK Flexibility Score: inf
ROOT
ATOM      1  C   UNL A   1      36.997  22.383  25.229  1.00  0.00     0.002 C 
ENDROOT
BRANCH   1   2
ATOM      2  C   UNL A   1      36.916  22.980  23.813  1.00  0.00     0.002 C 
BRANCH   2   3
ATOM      3  C   UNL A   1      35.496  23.172  23.259  1.00  0.00     0.021 C 
BRANCH   3   4
ATOM      4  C   UNL A   1      34.933  24.565  23.524  1.00  0.00     0.116 C 
BRANCH   4   5
ATOM      5  N   UNL A   1      33.713  24.795  22.785  1.00  0.00    -0.352 N 
ATOM      6  C   UNL A   1      32.390  24.490  22.950  1.00  0.00     0.252 C 
ATOM      7  O   UNL A   1      31.644  25.156  22.236  1.00  0.00    -0.269 OA
ATOM      8  H   UNL A   1      33.874  25.297  21.953  1.00  0.00     0.163 HD
BRANCH   6   9
ATOM      9  C   UNL A   1      31.843  23.538  23.947  1.00  0.00     0.055 A 
ATOM     10  C   UNL A   1      30.355  25.012  25.389  1.00  0.00     0.075 A 
ATOM     11  N   UNL A   1      29.747  24.730  26.591  1.00  0.00    -0.275 N 
ATOM     12  C   UNL A   1      31.047  23.852  25.068  1.00  0.00     0.059 A 
ATOM     13  N   UNL A   1      30.005  23.519  27.095  1.00  0.00    -0.154 NA
ATOM     14  H   UNL A   1      29.161  25.377  27.049  1.00  0.00     0.190 HD
ATOM     15  C   UNL A   1      30.766  22.948  26.162  1.00  0.00     0.182 A 
ATOM     16  N   UNL A   1      31.266  21.687  26.227  1.00  0.00    -0.226 NA
ATOM     17  C   UNL A   1      32.151  22.174  23.980  1.00  0.00     0.043 A 
ATOM     18  C   UNL A   1      31.948  21.342  25.108  1.00  0.00     0.074 A 
BRANCH  10  19
ATOM     19  C   UNL A   1      30.134  26.308  24.754  1.00  0.00     0.001 A 
ATOM     20  C   UNL A   1      29.835  28.760  23.405  1.00  0.00     0.118 A 
ATOM     21  C   UNL A   1      30.930  28.542  24.242  1.00  0.00     0.047 A 
ATOM     22  C   UNL A   1      28.878  27.755  23.253  1.00  0.00     0.047 A 
ATOM     23  C   UNL A   1      31.076  27.330  24.921  1.00  0.00     0.014 A 
ATOM     24  C   UNL A   1      29.018  26.540  23.938  1.00  0.00     0.014 A 
BRANCH  20  25
ATOM     25  O   UNL A   1      29.839  29.962  22.752  1.00  0.00    -0.497 OA
ATOM     26  C   UNL A   1      28.799  30.150  21.801  1.00  0.00     0.278 C 
ENDBRANCH  20  25
ENDBRANCH  10  19
BRANCH  18  27
ATOM     27  C   UNL A   1      32.649  20.045  25.124  1.00  0.00     0.000 A 
ATOM     28  C   UNL A   1      32.001  18.849  25.452  1.00  0.00     0.011 A 
ATOM     29  C   UNL A   1      33.994  19.978  24.704  1.00  0.00     0.011 A 
ATOM     30  C   UNL A   1      32.662  17.620  25.315  1.00  0.00     0.014 A 
ATOM     31  C   UNL A   1      34.655  18.756  24.569  1.00  0.00     0.014 A 
ATOM     32  C   UNL A   1      33.990  17.559  24.860  1.00  0.00     0.056 A 
BRANCH  32  33
ATOM     33  C   UNL A   1      34.681  16.227  24.680  1.00  0.00     0.416 C 
ATOM     34  F   UNL A   1      34.893  15.919  23.373  1.00  0.00    -0.166 F 
ATOM     35  F   UNL A   1      35.895  16.181  25.292  1.00  0.00    -0.166 F 
ATOM     36  F   UNL A   1      33.969  15.183  25.196  1.00  0.00    -0.166 F 
ENDBRANCH  32  33
ENDBRANCH  18  27
ENDBRANCH   6   9
ENDBRANCH   4   5
ENDBRANCH   3   4
ENDBRANCH   2   3
ENDBRANCH   1   2
BRANCH   1  37
ATOM     37  C   UNL A   1      38.187  21.448  25.500  1.00  0.00     0.021 C 
BRANCH  37  38
ATOM     38  C   UNL A   1      39.278  22.098  26.331  1.00  0.00     0.116 C 
BRANCH  38  39
ATOM     39  N   UNL A   1      40.598  21.597  25.963  1.00  0.00    -0.352 N 
ATOM     40  C   UNL A   1      41.775  22.301  25.819  1.00  0.00     0.251 C 
ATOM     41  H   UNL A   1      40.656  20.629  25.794  1.00  0.00     0.163 HD
ATOM     42  O   UNL A   1      42.701  21.839  25.176  1.00  0.00    -0.269 OA
BRANCH  40  43
ATOM     43  C   UNL A   1      41.883  23.625  26.457  1.00  0.00     0.039 A 
ATOM     44  C   UNL A   1      41.398  24.767  25.815  1.00  0.00     0.014 A 
ATOM     45  C   UNL A   1      42.468  23.707  27.719  1.00  0.00     0.014 A 
ATOM     46  C   UNL A   1      41.444  25.985  26.488  1.00  0.00     0.010 A 
ATOM     47  C   UNL A   1      42.379  24.873  28.435  1.00  0.00     0.010 A 
ATOM     48  C   UNL A   1      41.923  26.026  27.805  1.00  0.00    -0.014 A 
BRANCH  48  49
ATOM     49  C   UNL A   1      41.874  27.263  28.574  1.00  0.00     0.031 A 
ATOM     50  C   UNL A   1      43.009  28.198  28.343  1.00  0.00     0.074 A 
ATOM     51  C   UNL A   1      40.779  27.645  29.266  1.00  0.00     0.049 A 
ATOM     52  N   UNL A   1      43.930  28.541  29.178  1.00  0.00    -0.248 NA
ATOM     53  C   UNL A   1      43.220  28.715  26.980  1.00  0.00     0.031 C 
ATOM     54  C   UNL A   1      39.462  26.997  29.317  1.00  0.00     0.029 A 
ATOM     55  N   UNL A   1      40.571  28.791  29.962  1.00  0.00    -0.354 N 
ATOM     56  C   UNL A   1      44.719  29.483  28.522  1.00  0.00     0.074 A 
ATOM     57  C   UNL A   1      44.348  29.413  27.132  1.00  0.00     0.031 C 
ATOM     58  C   UNL A   1      38.545  27.881  29.764  1.00  0.00     0.029 A 
ATOM     59  C   UNL A   1      39.233  29.086  30.193  1.00  0.00     0.049 A 
ATOM     60  H   UNL A   1      41.306  29.366  30.276  1.00  0.00     0.167 HD
ATOM     61  C   UNL A   1      45.448  30.409  29.208  1.00  0.00     0.031 A 
ATOM     62  C   UNL A   1      38.726  30.260  30.647  1.00  0.00     0.031 A 
ATOM     63  C   UNL A   1      45.526  30.092  30.611  1.00  0.00     0.049 A 
ATOM     64  C   UNL A   1      39.841  30.979  31.317  1.00  0.00     0.074 A 
ATOM     65  C   UNL A   1      45.983  29.009  31.335  1.00  0.00     0.029 A 
ATOM     66  N   UNL A   1      44.694  30.790  31.459  1.00  0.00    -0.354 N 
ATOM     67  N   UNL A   1      40.422  30.545  32.402  1.00  0.00    -0.248 NA
ATOM     68  C   UNL A   1      40.627  31.912  30.523  1.00  0.00     0.031 C 
ATOM     69  C   UNL A   1      45.018  28.834  32.370  1.00  0.00     0.029 A 
ATOM     70  C   UNL A   1      44.086  29.869  32.272  1.00  0.00     0.049 A 
ATOM     71  H   UNL A   1      44.563  31.765  31.477  1.00  0.00     0.167 HD
ATOM     72  C   UNL A   1      41.774  30.787  32.203  1.00  0.00     0.074 A 
ATOM     73  C   UNL A   1      41.829  31.715  31.073  1.00  0.00     0.031 C 
ATOM     74  C   UNL A   1      42.734  30.000  32.777  1.00  0.00     0.031 A 
BRANCH  61  75
ATOM     75  C   UNL A   1      45.759  31.795  28.695  1.00  0.00    -0.014 A 
ATOM     76  C   UNL A   1      44.749  32.508  28.014  1.00  0.00     0.010 A 
ATOM     77  C   UNL A   1      47.069  32.306  28.609  1.00  0.00     0.010 A 
ATOM     78  C   UNL A   1      45.052  33.621  27.220  1.00  0.00     0.020 A 
ATOM     79  C   UNL A   1      47.375  33.443  27.857  1.00  0.00     0.020 A 
ATOM     80  C   UNL A   1      46.369  34.070  27.133  1.00  0.00     0.054 A 
BRANCH  80  81
ATOM     81  S   UNL A   1      46.770  35.431  26.013  1.00  0.00     0.124 S 
ATOM     82  O   UNL A   1      46.257  34.932  24.740  1.00  0.00    -0.237 OA
ATOM     83  O   UNL A   1      46.031  36.544  26.602  1.00  0.00    -0.237 OA
ATOM     84  O   UNL A   1      48.224  35.535  26.106  1.00  0.00    -0.744 OA
ENDBRANCH  80  81
ENDBRANCH  61  75
BRANCH  62  85
ATOM     85  C   UNL A   1      37.454  30.909  30.237  1.00  0.00    -0.014 A 
ATOM     86  C   UNL A   1      36.574  31.460  31.186  1.00  0.00     0.010 A 
ATOM     87  C   UNL A   1      37.228  31.227  28.880  1.00  0.00     0.010 A 
ATOM     88  C   UNL A   1      35.548  32.342  30.799  1.00  0.00     0.020 A 
ATOM     89  C   UNL A   1      36.205  32.095  28.485  1.00  0.00     0.020 A 
ATOM     90  C   UNL A   1      35.384  32.670  29.450  1.00  0.00     0.054 A 
BRANCH  90  91
ATOM     91  S   UNL A   1      34.184  33.951  28.971  1.00  0.00     0.124 S 
ATOM     92  O   UNL A   1      33.363  33.254  27.985  1.00  0.00    -0.237 OA
ATOM     93  O   UNL A   1      33.527  34.261  30.238  1.00  0.00    -0.237 OA
ATOM     94  O   UNL A   1      35.023  35.022  28.434  1.00  0.00    -0.744 OA
ENDBRANCH  90  91
ENDBRANCH  62  85
BRANCH  74  95
ATOM     95  C   UNL A   1      42.332  29.015  33.854  1.00  0.00    -0.014 A 
ATOM     96  C   UNL A   1      41.809  27.732  33.597  1.00  0.00     0.010 A 
ATOM     97  C   UNL A   1      42.664  29.345  35.181  1.00  0.00     0.010 A 
ATOM     98  C   UNL A   1      41.599  26.819  34.644  1.00  0.00     0.020 A 
ATOM     99  C   UNL A   1      42.477  28.434  36.224  1.00  0.00     0.020 A 
ATOM    100  C   UNL A   1      41.935  27.179  35.952  1.00  0.00     0.054 A 
BRANCH 100 101
ATOM    101  S   UNL A   1      41.698  25.985  37.299  1.00  0.00     0.124 S 
ATOM    102  O   UNL A   1      41.900  24.705  36.628  1.00  0.00    -0.237 OA
ATOM    103  O   UNL A   1      42.735  26.366  38.257  1.00  0.00    -0.237 OA
ATOM    104  O   UNL A   1      40.329  26.237  37.751  1.00  0.00    -0.744 OA
ENDBRANCH 100 101
ENDBRANCH  74  95
ENDBRANCH  48  49
ENDBRANCH  40  43
ENDBRANCH  38  39
ENDBRANCH  37  38
ENDBRANCH   1  37
TORSDOF 20
ENDMDL
MODEL 3
REMARK VINA RESULT:     -13.6      2.440      8.293
REMARK SMILES COc1ccc(-c2[nH]nc3nc(-c4ccc(C(F)(F)F)cc4)cc(C(=O)NCCCCCCNC(=O)c4ccc(-c5c6nc(c(-c7ccc(S(=O)(=O)[O-])cc7)c7ccc([nH]7)c(-c7ccc(S(=O)(=O)[O-])cc7)c7nc(c(-c8ccc(S(=O)(=O)[O-])cc8)c8ccc5[nH]8)C=C7)C=C6)cc4)c23)cc1
REMARK SMILES IDX 31 1 30 2 29 3 28 4 27 5 25 6 26 7 24 9 7 10 8 11 97 12 9 13
REMARK SMILES IDX 10 15 11 16 23 17 12 18 6 19 3 20 4 21 99 22 5 23 98 24 2 25
REMARK SMILES IDX 1 26 13 27 14 28 22 29 15 30 21 31 16 32 17 33 18 34 19 35
REMARK SMILES IDX 20 36 32 37 33 38 34 39 35 40 36 42 37 43 38 44 96 45 39 46
REMARK SMILES IDX 95 47 40 48 41 49 42 50 89 51 43 52 94 53 88 54 90 55 44 56
REMARK SMILES IDX 93 57 87 58 86 59 45 61 75 62 56 63 74 64 57 65 60 66 73 67
REMARK SMILES IDX 91 68 58 69 59 70 72 72 92 73 61 74 46 75 47 76 55 77 48 78
REMARK SMILES IDX 54 79 49 80 50 81 51 82 52 83 53 84 76 85 77 86 85 87 78 88
REMARK SMILES IDX 84 89 79 90 80 91 81 92 82 93 83 94 62 95 63 96 71 97 64 98
REMARK SMILES IDX 70 99 65 100 66 101 67 102 68 103 69 104
REMARK H PARENT 27 8 8 14 34 41 90 60 60 71
REMARK Flexibility Score: inf
ROOT
ATOM      1  C   UNL A   1      37.528  22.611  25.997  1.00  0.00     0.002 C 
ENDROOT
BRANCH   1   2
ATOM      2  C   UNL A   1      37.167  23.629  24.901  1.00  0.00     0.002 C 
BRANCH   2   3
ATOM      3  C   UNL A   1      36.420  23.054  23.688  1.00  0.00     0.021 C 
BRANCH   3   4
ATOM      4  C   UNL A   1      35.339  23.988  23.154  1.00  0.00     0.116 C 
BRANCH   4   5
ATOM      5  N   UNL A   1      34.201  23.252  22.650  1.00  0.00    -0.352 N 
ATOM      6  C   UNL A   1      32.849  23.272  22.853  1.00  0.00     0.252 C 
ATOM      7  O   UNL A   1      32.217  22.684  21.980  1.00  0.00    -0.269 OA
ATOM      8  H   UNL A   1      34.466  22.563  21.998  1.00  0.00     0.163 HD
BRANCH   6   9
ATOM      9  C   UNL A   1      32.151  24.000  23.941  1.00  0.00     0.055 A 
ATOM     10  C   UNL A   1      31.907  22.228  25.749  1.00  0.00     0.075 A 
ATOM     11  N   UNL A   1      31.163  22.257  26.907  1.00  0.00    -0.275 N 
ATOM     12  C   UNL A   1      31.657  23.452  25.143  1.00  0.00     0.059 A 
ATOM     13  N   UNL A   1      30.431  23.361  27.091  1.00  0.00    -0.154 NA
ATOM     14  H   UNL A   1      31.169  21.515  27.554  1.00  0.00     0.190 HD
ATOM     15  C   UNL A   1      30.748  24.124  26.045  1.00  0.00     0.182 A 
ATOM     16  N   UNL A   1      30.256  25.368  25.810  1.00  0.00    -0.226 NA
ATOM     17  C   UNL A   1      31.770  25.344  23.867  1.00  0.00     0.043 A 
ATOM     18  C   UNL A   1      30.803  25.941  24.711  1.00  0.00     0.074 A 
BRANCH  10  19
ATOM     19  C   UNL A   1      32.742  21.067  25.456  1.00  0.00     0.001 A 
ATOM     20  C   UNL A   1      34.336  18.870  24.712  1.00  0.00     0.118 A 
ATOM     21  C   UNL A   1      32.949  18.817  24.569  1.00  0.00     0.047 A 
ATOM     22  C   UNL A   1      34.928  20.018  25.241  1.00  0.00     0.047 A 
ATOM     23  C   UNL A   1      32.154  19.902  24.947  1.00  0.00     0.014 A 
ATOM     24  C   UNL A   1      34.132  21.106  25.627  1.00  0.00     0.014 A 
BRANCH  20  25
ATOM     25  O   UNL A   1      35.005  17.769  24.250  1.00  0.00    -0.497 OA
ATOM     26  C   UNL A   1      34.214  16.604  24.057  1.00  0.00     0.278 C 
ENDBRANCH  20  25
ENDBRANCH  10  19
BRANCH  18  27
ATOM     27  C   UNL A   1      30.244  27.238  24.284  1.00  0.00     0.000 A 
ATOM     28  C   UNL A   1      30.940  28.440  24.444  1.00  0.00     0.011 A 
ATOM     29  C   UNL A   1      29.008  27.270  23.602  1.00  0.00     0.011 A 
ATOM     30  C   UNL A   1      30.440  29.631  23.894  1.00  0.00     0.014 A 
ATOM     31  C   UNL A   1      28.508  28.453  23.057  1.00  0.00     0.014 A 
ATOM     32  C   UNL A   1      29.227  29.647  23.184  1.00  0.00     0.056 A 
BRANCH  32  33
ATOM     33  C   UNL A   1      28.717  30.927  22.564  1.00  0.00     0.416 C 
ATOM     34  F   UNL A   1      29.139  32.036  23.230  1.00  0.00    -0.166 F 
ATOM     35  F   UNL A   1      29.111  31.076  21.272  1.00  0.00    -0.166 F 
ATOM     36  F   UNL A   1      27.354  31.004  22.545  1.00  0.00    -0.166 F 
ENDBRANCH  32  33
ENDBRANCH  18  27
ENDBRANCH   6   9
ENDBRANCH   4   5
ENDBRANCH   3   4
ENDBRANCH   2   3
ENDBRANCH   1   2
BRANCH   1  37
ATOM     37  C   UNL A   1      38.803  21.786  25.759  1.00  0.00     0.021 C 
BRANCH  37  38
ATOM     38  C   UNL A   1      39.980  22.255  26.594  1.00  0.00     0.116 C 
BRANCH  38  39
ATOM     39  N   UNL A   1      41.248  22.000  25.919  1.00  0.00    -0.352 N 
ATOM     40  C   UNL A   1      42.221  22.904  25.548  1.00  0.00     0.251 C 
ATOM     41  H   UNL A   1      41.433  21.059  25.698  1.00  0.00     0.163 HD
ATOM     42  O   UNL A   1      43.043  22.617  24.694  1.00  0.00    -0.269 OA
BRANCH  40  43
ATOM     43  C   UNL A   1      42.241  24.223  26.204  1.00  0.00     0.039 A 
ATOM     44  C   UNL A   1      41.587  25.316  25.628  1.00  0.00     0.014 A 
ATOM     45  C   UNL A   1      42.914  24.351  27.417  1.00  0.00     0.014 A 
ATOM     46  C   UNL A   1      41.559  26.522  26.322  1.00  0.00     0.010 A 
ATOM     47  C   UNL A   1      42.762  25.491  28.163  1.00  0.00     0.010 A 
ATOM     48  C   UNL A   1      42.137  26.597  27.597  1.00  0.00    -0.014 A 
BRANCH  48  49
ATOM     49  C   UNL A   1      42.020  27.811  28.394  1.00  0.00     0.031 A 
ATOM     50  C   UNL A   1      43.121  28.796  28.212  1.00  0.00     0.074 A 
ATOM     51  C   UNL A   1      40.896  28.130  29.071  1.00  0.00     0.049 A 
ATOM     52  N   UNL A   1      44.009  29.156  29.076  1.00  0.00    -0.248 NA
ATOM     53  C   UNL A   1      43.340  29.356  26.867  1.00  0.00     0.031 C 
ATOM     54  C   UNL A   1      39.606  27.429  29.076  1.00  0.00     0.029 A 
ATOM     55  N   UNL A   1      40.626  29.250  29.789  1.00  0.00    -0.354 N 
ATOM     56  C   UNL A   1      44.772  30.145  28.461  1.00  0.00     0.074 A 
ATOM     57  C   UNL A   1      44.435  30.094  27.061  1.00  0.00     0.031 C 
ATOM     58  C   UNL A   1      38.644  28.264  29.523  1.00  0.00     0.029 A 
ATOM     59  C   UNL A   1      39.272  29.484  29.997  1.00  0.00     0.049 A 
ATOM     60  H   UNL A   1      41.330  29.846  30.134  1.00  0.00     0.167 HD
ATOM     61  C   UNL A   1      45.448  31.082  29.185  1.00  0.00     0.031 A 
ATOM     62  C   UNL A   1      38.708  30.625  30.467  1.00  0.00     0.031 A 
ATOM     63  C   UNL A   1      45.508  30.733  30.581  1.00  0.00     0.049 A 
ATOM     64  C   UNL A   1      39.777  31.372  31.179  1.00  0.00     0.074 A 
ATOM     65  C   UNL A   1      45.993  29.652  31.290  1.00  0.00     0.029 A 
ATOM     66  N   UNL A   1      44.630  31.376  31.427  1.00  0.00    -0.354 N 
ATOM     67  N   UNL A   1      40.352  30.934  32.266  1.00  0.00    -0.248 NA
ATOM     68  C   UNL A   1      40.541  32.356  30.427  1.00  0.00     0.031 C 
ATOM     69  C   UNL A   1      45.015  29.412  32.298  1.00  0.00     0.029 A 
ATOM     70  C   UNL A   1      44.043  30.410  32.203  1.00  0.00     0.049 A 
ATOM     71  H   UNL A   1      44.459  32.344  31.466  1.00  0.00     0.167 HD
ATOM     72  C   UNL A   1      41.697  31.236  32.105  1.00  0.00     0.074 A 
ATOM     73  C   UNL A   1      41.739  32.193  30.998  1.00  0.00     0.031 C 
ATOM     74  C   UNL A   1      42.676  30.474  32.681  1.00  0.00     0.031 A 
BRANCH  61  75
ATOM     75  C   UNL A   1      45.713  32.492  28.713  1.00  0.00    -0.014 A 
ATOM     76  C   UNL A   1      46.869  33.157  29.176  1.00  0.00     0.010 A 
ATOM     77  C   UNL A   1      44.741  33.280  28.066  1.00  0.00     0.010 A 
ATOM     78  C   UNL A   1      47.000  34.547  29.073  1.00  0.00     0.020 A 
ATOM     79  C   UNL A   1      44.883  34.661  27.916  1.00  0.00     0.020 A 
ATOM     80  C   UNL A   1      45.995  35.292  28.458  1.00  0.00     0.054 A 
BRANCH  80  81
ATOM     81  S   UNL A   1      46.116  37.096  28.436  1.00  0.00     0.124 S 
ATOM     82  O   UNL A   1      45.320  37.436  27.261  1.00  0.00    -0.237 OA
ATOM     83  O   UNL A   1      45.533  37.461  29.724  1.00  0.00    -0.237 OA
ATOM     84  O   UNL A   1      47.551  37.342  28.315  1.00  0.00    -0.744 OA
ENDBRANCH  80  81
ENDBRANCH  61  75
BRANCH  62  85
ATOM     85  C   UNL A   1      37.419  31.232  30.044  1.00  0.00    -0.014 A 
ATOM     86  C   UNL A   1      36.389  31.482  30.969  1.00  0.00     0.010 A 
ATOM     87  C   UNL A   1      37.300  31.817  28.765  1.00  0.00     0.010 A 
ATOM     88  C   UNL A   1      35.315  32.333  30.647  1.00  0.00     0.020 A 
ATOM     89  C   UNL A   1      36.231  32.657  28.433  1.00  0.00     0.020 A 
ATOM     90  C   UNL A   1      35.255  32.932  29.385  1.00  0.00     0.054 A 
BRANCH  90  91
ATOM     91  S   UNL A   1      33.973  34.174  29.036  1.00  0.00     0.124 S 
ATOM     92  O   UNL A   1      33.076  33.450  28.139  1.00  0.00    -0.237 OA
ATOM     93  O   UNL A   1      33.442  34.466  30.364  1.00  0.00    -0.237 OA
ATOM     94  O   UNL A   1      34.719  35.270  28.416  1.00  0.00    -0.744 OA
ENDBRANCH  90  91
ENDBRANCH  62  85
BRANCH  74  95
ATOM     95  C   UNL A   1      42.292  29.447  33.724  1.00  0.00    -0.014 A 
ATOM     96  C   UNL A   1      41.806  28.159  33.424  1.00  0.00     0.010 A 
ATOM     97  C   UNL A   1      42.603  29.746  35.064  1.00  0.00     0.010 A 
ATOM     98  C   UNL A   1      41.611  27.210  34.441  1.00  0.00     0.020 A 
ATOM     99  C   UNL A   1      42.432  28.800  36.077  1.00  0.00     0.020 A 
ATOM    100  C   UNL A   1      41.926  27.539  35.763  1.00  0.00     0.054 A 
BRANCH 100 101
ATOM    101  S   UNL A   1      41.710  26.300  37.071  1.00  0.00     0.124 S 
ATOM    102  O   UNL A   1      40.411  26.655  37.634  1.00  0.00    -0.237 OA
ATOM    103  O   UNL A   1      41.754  25.038  36.335  1.00  0.00    -0.237 OA
ATOM    104  O   UNL A   1      42.850  26.528  37.959  1.00  0.00    -0.744 OA
ENDBRANCH 100 101
ENDBRANCH  74  95
ENDBRANCH  48  49
ENDBRANCH  40  43
ENDBRANCH  38  39
ENDBRANCH  37  38
ENDBRANCH   1  37
TORSDOF 20
ENDMDL
