MODEL 1
REMARK VINA RESULT:     -10.7      0.000      0.000
REMARK SMILES CCN(Cc1ccccn1)c1nc(C)cc(C)c1C(=O)NCCCCCCNC(=O)c1ccc(-c2c3nc(c(-c4ccc(S(=O)(=O)[O-])cc4)c4ccc([nH]4)c(-c4ccc(S(=O)(=O)[O-])cc4)c4nc(c(-c5ccc(S(=O)(=O)[O-])cc5)c5ccc2[nH]5)C=C4)C=C3)cc1
REMARK SMILES IDX 24 1 23 2 22 3 21 4 19 5 20 6 18 8 11 9 12 10 13 11 16 12
REMARK SMILES IDX 14 13 15 14 17 15 3 16 2 17 1 18 4 19 5 20 6 21 10 22 7 23
REMARK SMILES IDX 9 24 8 25 25 26 26 27 27 28 28 29 29 30 30 32 31 33 32 34
REMARK SMILES IDX 90 35 33 36 89 37 34 38 35 39 36 40 83 41 37 42 88 43 82 44
REMARK SMILES IDX 84 45 38 46 87 47 81 48 80 49 39 51 69 52 50 53 68 54 51 55
REMARK SMILES IDX 54 56 67 57 85 58 52 59 53 60 66 62 86 63 55 64 40 65 41 66
REMARK SMILES IDX 49 67 42 68 48 69 43 70 44 71 45 72 46 73 47 74 70 75 71 76
REMARK SMILES IDX 79 77 72 78 78 79 73 80 74 81 75 82 76 83 77 84 56 85 57 86
REMARK SMILES IDX 65 87 58 88 64 89 59 90 60 91 61 92 62 93 63 94
REMARK H PARENT 21 7 28 31 84 50 54 61
REMARK Flexibility Score: inf
ROOT
ATOM      1  C   UNL A   1      37.410  22.370  25.438  1.00  0.00     0.002 C 
ENDROOT
BRANCH   1   2
ATOM      2  C   UNL A   1      36.078  23.017  25.829  1.00  0.00     0.021 C 
BRANCH   2   3
ATOM      3  C   UNL A   1      35.586  24.214  25.024  1.00  0.00     0.116 C 
BRANCH   3   4
ATOM      4  N   UNL A   1      35.139  23.958  23.675  1.00  0.00    -0.352 N 
ATOM      5  C   UNL A   1      33.851  23.745  23.209  1.00  0.00     0.255 C 
ATOM      6  O   UNL A   1      33.661  23.839  21.997  1.00  0.00    -0.269 OA
ATOM      7  H   UNL A   1      35.847  23.930  22.991  1.00  0.00     0.163 HD
BRANCH   5   8
ATOM      8  C   UNL A   1      32.719  23.391  24.117  1.00  0.00     0.085 A 
ATOM      9  C   UNL A   1      31.842  24.412  24.549  1.00  0.00     0.142 A 
ATOM     10  N   UNL A   1      30.843  24.149  25.428  1.00  0.00    -0.235 NA
ATOM     11  C   UNL A   1      30.722  22.930  25.983  1.00  0.00     0.040 A 
ATOM     12  C   UNL A   1      32.580  22.106  24.700  1.00  0.00    -0.033 A 
ATOM     13  C   UNL A   1      29.753  22.804  27.118  1.00  0.00     0.067 C 
ATOM     14  C   UNL A   1      31.548  21.886  25.625  1.00  0.00     0.028 A 
ATOM     15  C   UNL A   1      33.484  20.934  24.450  1.00  0.00     0.045 C 
BRANCH   9  16
ATOM     16  N   UNL A   1      31.949  25.752  24.191  1.00  0.00    -0.350 N 
BRANCH  16  17
ATOM     17  C   UNL A   1      33.067  26.531  24.703  1.00  0.00     0.115 C 
ATOM     18  C   UNL A   1      33.002  26.711  26.208  1.00  0.00     0.027 C 
ENDBRANCH  16  17
BRANCH  16  19
ATOM     19  C   UNL A   1      31.375  26.109  22.875  1.00  0.00     0.174 C 
BRANCH  19  20
ATOM     20  C   UNL A   1      30.229  27.126  22.856  1.00  0.00     0.060 A 
ATOM     21  C   UNL A   1      29.032  26.898  23.539  1.00  0.00     0.026 A 
ATOM     22  N   UNL A   1      30.426  28.264  22.132  1.00  0.00    -0.259 NA
ATOM     23  C   UNL A   1      28.049  27.887  23.547  1.00  0.00     0.004 A 
ATOM     24  C   UNL A   1      29.460  29.209  22.170  1.00  0.00     0.111 A 
ATOM     25  C   UNL A   1      28.270  29.073  22.861  1.00  0.00     0.020 A 
ENDBRANCH  19  20
ENDBRANCH  16  19
ENDBRANCH   9  16
ENDBRANCH   5   8
ENDBRANCH   3   4
ENDBRANCH   2   3
ENDBRANCH   1   2
BRANCH   1  26
ATOM     26  C   UNL A   1      37.388  21.081  24.612  1.00  0.00     0.002 C 
BRANCH  26  27
ATOM     27  C   UNL A   1      38.295  19.928  25.047  1.00  0.00     0.021 C 
BRANCH  27  28
ATOM     28  C   UNL A   1      39.416  20.265  26.022  1.00  0.00     0.116 C 
BRANCH  28  29
ATOM     29  N   UNL A   1      40.492  19.290  26.017  1.00  0.00    -0.352 N 
ATOM     30  C   UNL A   1      41.852  19.473  26.099  1.00  0.00     0.251 C 
ATOM     31  H   UNL A   1      40.203  18.352  25.942  1.00  0.00     0.163 HD
ATOM     32  O   UNL A   1      42.601  18.514  25.941  1.00  0.00    -0.269 OA
BRANCH  30  33
ATOM     33  C   UNL A   1      42.423  20.818  26.353  1.00  0.00     0.039 A 
ATOM     34  C   UNL A   1      42.711  21.641  25.259  1.00  0.00     0.014 A 
ATOM     35  C   UNL A   1      42.701  21.263  27.648  1.00  0.00     0.014 A 
ATOM     36  C   UNL A   1      43.220  22.927  25.467  1.00  0.00     0.010 A 
ATOM     37  C   UNL A   1      43.141  22.570  27.857  1.00  0.00     0.010 A 
ATOM     38  C   UNL A   1      43.409  23.416  26.769  1.00  0.00    -0.014 A 
BRANCH  38  39
ATOM     39  C   UNL A   1      43.878  24.806  27.010  1.00  0.00     0.031 A 
ATOM     40  C   UNL A   1      45.329  25.163  26.831  1.00  0.00     0.074 A 
ATOM     41  C   UNL A   1      43.007  25.735  27.453  1.00  0.00     0.049 A 
ATOM     42  N   UNL A   1      45.931  26.306  27.046  1.00  0.00    -0.248 NA
ATOM     43  C   UNL A   1      46.227  24.089  26.376  1.00  0.00     0.031 C 
ATOM     44  C   UNL A   1      41.584  25.507  27.711  1.00  0.00     0.029 A 
ATOM     45  N   UNL A   1      43.194  27.057  27.778  1.00  0.00    -0.354 N 
ATOM     46  C   UNL A   1      47.275  26.084  26.772  1.00  0.00     0.074 A 
ATOM     47  C   UNL A   1      47.409  24.687  26.422  1.00  0.00     0.031 C 
ATOM     48  C   UNL A   1      41.024  26.652  28.136  1.00  0.00     0.029 A 
ATOM     49  C   UNL A   1      42.053  27.683  28.221  1.00  0.00     0.049 A 
ATOM     50  H   UNL A   1      44.063  27.513  27.701  1.00  0.00     0.167 HD
ATOM     51  C   UNL A   1      48.304  26.967  26.791  1.00  0.00     0.031 A 
ATOM     52  C   UNL A   1      41.854  28.943  28.658  1.00  0.00     0.031 A 
ATOM     53  C   UNL A   1      48.167  28.358  27.135  1.00  0.00     0.049 A 
ATOM     54  C   UNL A   1      43.009  29.905  28.675  1.00  0.00     0.074 A 
ATOM     55  C   UNL A   1      49.136  29.346  27.126  1.00  0.00     0.029 A 
ATOM     56  N   UNL A   1      46.990  28.957  27.558  1.00  0.00    -0.354 N 
ATOM     57  N   UNL A   1      44.259  29.695  28.337  1.00  0.00    -0.248 NA
ATOM     58  C   UNL A   1      42.725  31.277  29.117  1.00  0.00     0.031 C 
ATOM     59  C   UNL A   1      48.559  30.529  27.600  1.00  0.00     0.029 A 
ATOM     60  C   UNL A   1      47.214  30.295  27.841  1.00  0.00     0.049 A 
ATOM     61  H   UNL A   1      46.123  28.499  27.644  1.00  0.00     0.167 HD
ATOM     62  C   UNL A   1      44.906  30.916  28.503  1.00  0.00     0.074 A 
ATOM     63  C   UNL A   1      43.905  31.860  28.956  1.00  0.00     0.031 C 
ATOM     64  C   UNL A   1      46.211  31.224  28.298  1.00  0.00     0.031 A 
BRANCH  51  65
ATOM     65  C   UNL A   1      49.676  26.443  26.445  1.00  0.00    -0.014 A 
ATOM     66  C   UNL A   1      50.180  26.525  25.133  1.00  0.00     0.010 A 
ATOM     67  C   UNL A   1      50.484  25.881  27.450  1.00  0.00     0.010 A 
ATOM     68  C   UNL A   1      51.438  26.004  24.823  1.00  0.00     0.020 A 
ATOM     69  C   UNL A   1      51.758  25.387  27.150  1.00  0.00     0.020 A 
ATOM     70  C   UNL A   1      52.217  25.432  25.832  1.00  0.00     0.054 A 
BRANCH  70  71
ATOM     71  S   UNL A   1      53.847  24.762  25.401  1.00  0.00     0.124 S 
ATOM     72  O   UNL A   1      53.521  23.381  25.055  1.00  0.00    -0.237 OA
ATOM     73  O   UNL A   1      54.256  25.610  24.285  1.00  0.00    -0.237 OA
ATOM     74  O   UNL A   1      54.626  24.929  26.626  1.00  0.00    -0.744 OA
ENDBRANCH  70  71
ENDBRANCH  51  65
BRANCH  52  75
ATOM     75  C   UNL A   1      40.498  29.360  29.110  1.00  0.00    -0.014 A 
ATOM     76  C   UNL A   1      40.164  29.361  30.475  1.00  0.00     0.010 A 
ATOM     77  C   UNL A   1      39.540  29.790  28.172  1.00  0.00     0.010 A 
ATOM     78  C   UNL A   1      38.895  29.773  30.893  1.00  0.00     0.020 A 
ATOM     79  C   UNL A   1      38.281  30.230  28.589  1.00  0.00     0.020 A 
ATOM     80  C   UNL A   1      37.964  30.210  29.947  1.00  0.00     0.054 A 
BRANCH  80  81
ATOM     81  S   UNL A   1      36.347  30.804  30.520  1.00  0.00     0.124 S 
ATOM     82  O   UNL A   1      35.482  30.457  29.398  1.00  0.00    -0.237 OA
ATOM     83  O   UNL A   1      36.142  30.030  31.742  1.00  0.00    -0.237 OA
ATOM     84  O   UNL A   1      36.562  32.234  30.727  1.00  0.00    -0.744 OA
ENDBRANCH  80  81
ENDBRANCH  52  75
BRANCH  64  85
ATOM     85  C   UNL A   1      46.632  32.651  28.534  1.00  0.00    -0.014 A 
ATOM     86  C   UNL A   1      46.524  33.622  27.523  1.00  0.00     0.010 A 
ATOM     87  C   UNL A   1      47.092  33.036  29.806  1.00  0.00     0.010 A 
ATOM     88  C   UNL A   1      46.897  34.946  27.772  1.00  0.00     0.020 A 
ATOM     89  C   UNL A   1      47.437  34.365  30.069  1.00  0.00     0.020 A 
ATOM     90  C   UNL A   1      47.351  35.309  29.044  1.00  0.00     0.054 A 
BRANCH  90  91
ATOM     91  S   UNL A   1      47.784  37.043  29.355  1.00  0.00     0.124 S 
ATOM     92  O   UNL A   1      49.048  36.916  30.073  1.00  0.00    -0.237 OA
ATOM     93  O   UNL A   1      47.879  37.596  28.006  1.00  0.00    -0.237 OA
ATOM     94  O   UNL A   1      46.663  37.542  30.149  1.00  0.00    -0.744 OA
ENDBRANCH  90  91
ENDBRANCH  64  85
ENDBRANCH  38  39
ENDBRANCH  30  33
ENDBRANCH  28  29
ENDBRANCH  27  28
ENDBRANCH  26  27
ENDBRANCH   1  26
TORSDOF 20
ENDMDL
MODEL 2
REMARK VINA RESULT:     -10.4      6.198     11.879
REMARK SMILES CCN(Cc1ccccn1)c1nc(C)cc(C)c1C(=O)NCCCCCCNC(=O)c1ccc(-c2c3nc(c(-c4ccc(S(=O)(=O)[O-])cc4)c4ccc([nH]4)c(-c4ccc(S(=O)(=O)[O-])cc4)c4nc(c(-c5ccc(S(=O)(=O)[O-])cc5)c5ccc2[nH]5)C=C4)C=C3)cc1
REMARK SMILES IDX 24 1 23 2 22 3 21 4 19 5 20 6 18 8 11 9 12 10 13 11 16 12
REMARK SMILES IDX 14 13 15 14 17 15 3 16 2 17 1 18 4 19 5 20 6 21 10 22 7 23
REMARK SMILES IDX 9 24 8 25 25 26 26 27 27 28 28 29 29 30 30 32 31 33 32 34
REMARK SMILES IDX 90 35 33 36 89 37 34 38 35 39 36 40 83 41 37 42 88 43 82 44
REMARK SMILES IDX 84 45 38 46 87 47 81 48 80 49 39 51 69 52 50 53 68 54 51 55
REMARK SMILES IDX 54 56 67 57 85 58 52 59 53 60 66 62 86 63 55 64 40 65 41 66
REMARK SMILES IDX 49 67 42 68 48 69 43 70 44 71 45 72 46 73 47 74 70 75 71 76
REMARK SMILES IDX 79 77 72 78 78 79 73 80 74 81 75 82 76 83 77 84 56 85 57 86
REMARK SMILES IDX 65 87 58 88 64 89 59 90 60 91 61 92 62 93 63 94
REMARK H PARENT 21 7 28 31 84 50 54 61
REMARK Flexibility Score: inf
ROOT
ATOM      1  C   UNL A   1      32.995  30.058  26.400  1.00  0.00     0.002 C 
ENDROOT
BRANCH   1   2
ATOM      2  C   UNL A   1      33.087  28.799  27.267  1.00  0.00     0.021 C 
BRANCH   2   3
ATOM      3  C   UNL A   1      32.962  27.439  26.591  1.00  0.00     0.116 C 
BRANCH   3   4
ATOM      4  N   UNL A   1      31.762  26.681  26.858  1.00  0.00    -0.352 N 
ATOM      5  C   UNL A   1      31.109  25.768  26.046  1.00  0.00     0.255 C 
ATOM      6  O   UNL A   1      30.281  25.026  26.574  1.00  0.00    -0.269 OA
ATOM      7  H   UNL A   1      31.350  26.836  27.739  1.00  0.00     0.163 HD
BRANCH   5   8
ATOM      8  C   UNL A   1      31.361  25.678  24.576  1.00  0.00     0.085 A 
ATOM      9  C   UNL A   1      32.170  24.630  24.082  1.00  0.00     0.142 A 
ATOM     10  N   UNL A   1      32.483  24.550  22.765  1.00  0.00    -0.235 NA
ATOM     11  C   UNL A   1      32.109  25.520  21.912  1.00  0.00     0.040 A 
ATOM     12  C   UNL A   1      30.964  26.694  23.669  1.00  0.00    -0.033 A 
ATOM     13  C   UNL A   1      32.707  25.473  20.540  1.00  0.00     0.067 C 
ATOM     14  C   UNL A   1      31.331  26.583  22.320  1.00  0.00     0.028 A 
ATOM     15  C   UNL A   1      30.201  27.935  24.032  1.00  0.00     0.045 C 
BRANCH   9  16
ATOM     16  N   UNL A   1      32.767  23.652  24.871  1.00  0.00    -0.350 N 
BRANCH  16  17
ATOM     17  C   UNL A   1      33.716  24.055  25.898  1.00  0.00     0.115 C 
ATOM     18  C   UNL A   1      34.943  24.732  25.314  1.00  0.00     0.027 C 
ENDBRANCH  16  17
BRANCH  16  19
ATOM     19  C   UNL A   1      31.964  22.427  25.085  1.00  0.00     0.174 C 
BRANCH  19  20
ATOM     20  C   UNL A   1      32.678  21.080  24.938  1.00  0.00     0.060 A 
ATOM     21  C   UNL A   1      34.047  20.996  24.677  1.00  0.00     0.026 A 
ATOM     22  N   UNL A   1      31.912  19.959  25.066  1.00  0.00    -0.259 NA
ATOM     23  C   UNL A   1      34.660  19.745  24.624  1.00  0.00     0.004 A 
ATOM     24  C   UNL A   1      32.537  18.761  25.022  1.00  0.00     0.111 A 
ATOM     25  C   UNL A   1      33.895  18.603  24.813  1.00  0.00     0.020 A 
ENDBRANCH  19  20
ENDBRANCH  16  19
ENDBRANCH   9  16
ENDBRANCH   5   8
ENDBRANCH   3   4
ENDBRANCH   2   3
ENDBRANCH   1   2
BRANCH   1  26
ATOM     26  C   UNL A   1      31.658  30.799  26.318  1.00  0.00     0.002 C 
BRANCH  26  27
ATOM     27  C   UNL A   1      31.567  32.196  26.937  1.00  0.00     0.021 C 
BRANCH  27  28
ATOM     28  C   UNL A   1      32.832  32.746  27.584  1.00  0.00     0.116 C 
BRANCH  28  29
ATOM     29  N   UNL A   1      32.767  34.171  27.849  1.00  0.00    -0.352 N 
ATOM     30  C   UNL A   1      33.479  34.939  28.740  1.00  0.00     0.251 C 
ATOM     31  H   UNL A   1      32.110  34.666  27.307  1.00  0.00     0.163 HD
ATOM     32  O   UNL A   1      33.173  36.117  28.901  1.00  0.00    -0.269 OA
BRANCH  30  33
ATOM     33  C   UNL A   1      34.595  34.356  29.522  1.00  0.00     0.039 A 
ATOM     34  C   UNL A   1      34.292  33.592  30.654  1.00  0.00     0.014 A 
ATOM     35  C   UNL A   1      35.930  34.575  29.170  1.00  0.00     0.014 A 
ATOM     36  C   UNL A   1      35.321  33.001  31.394  1.00  0.00     0.010 A 
ATOM     37  C   UNL A   1      36.950  33.927  29.866  1.00  0.00     0.010 A 
ATOM     38  C   UNL A   1      36.658  33.136  30.989  1.00  0.00    -0.014 A 
BRANCH  38  39
ATOM     39  C   UNL A   1      37.758  32.454  31.720  1.00  0.00     0.031 A 
ATOM     40  C   UNL A   1      38.213  32.963  33.062  1.00  0.00     0.074 A 
ATOM     41  C   UNL A   1      38.393  31.411  31.147  1.00  0.00     0.049 A 
ATOM     42  N   UNL A   1      39.189  32.532  33.821  1.00  0.00    -0.248 NA
ATOM     43  C   UNL A   1      37.494  34.124  33.611  1.00  0.00     0.031 C 
ATOM     44  C   UNL A   1      38.080  30.849  29.831  1.00  0.00     0.029 A 
ATOM     45  N   UNL A   1      39.443  30.647  31.592  1.00  0.00    -0.354 N 
ATOM     46  C   UNL A   1      39.213  33.378  34.924  1.00  0.00     0.074 A 
ATOM     47  C   UNL A   1      38.187  34.376  34.712  1.00  0.00     0.031 C 
ATOM     48  C   UNL A   1      38.907  29.820  29.584  1.00  0.00     0.029 A 
ATOM     49  C   UNL A   1      39.834  29.674  30.702  1.00  0.00     0.049 A 
ATOM     50  H   UNL A   1      39.876  30.781  32.466  1.00  0.00     0.167 HD
ATOM     51  C   UNL A   1      40.005  33.320  36.023  1.00  0.00     0.031 A 
ATOM     52  C   UNL A   1      40.832  28.771  30.768  1.00  0.00     0.031 A 
ATOM     53  C   UNL A   1      41.022  32.323  36.232  1.00  0.00     0.049 A 
ATOM     54  C   UNL A   1      41.702  28.726  31.993  1.00  0.00     0.074 A 
ATOM     55  C   UNL A   1      41.836  32.143  37.337  1.00  0.00     0.029 A 
ATOM     56  N   UNL A   1      41.373  31.343  35.315  1.00  0.00    -0.354 N 
ATOM     57  N   UNL A   1      41.658  29.486  33.061  1.00  0.00    -0.248 NA
ATOM     58  C   UNL A   1      42.745  27.692  32.031  1.00  0.00     0.031 C 
ATOM     59  C   UNL A   1      42.718  31.092  37.065  1.00  0.00     0.029 A 
ATOM     60  C   UNL A   1      42.410  30.573  35.816  1.00  0.00     0.049 A 
ATOM     61  H   UNL A   1      40.946  31.214  34.437  1.00  0.00     0.167 HD
ATOM     62  C   UNL A   1      42.652  29.008  33.908  1.00  0.00     0.074 A 
ATOM     63  C   UNL A   1      43.268  27.882  33.235  1.00  0.00     0.031 C 
ATOM     64  C   UNL A   1      43.019  29.460  35.134  1.00  0.00     0.031 A 
BRANCH  51  65
ATOM     65  C   UNL A   1      39.810  34.382  37.076  1.00  0.00    -0.014 A 
ATOM     66  C   UNL A   1      40.475  35.620  36.997  1.00  0.00     0.010 A 
ATOM     67  C   UNL A   1      38.933  34.148  38.151  1.00  0.00     0.010 A 
ATOM     68  C   UNL A   1      40.309  36.580  37.999  1.00  0.00     0.020 A 
ATOM     69  C   UNL A   1      38.740  35.118  39.139  1.00  0.00     0.020 A 
ATOM     70  C   UNL A   1      39.448  36.319  39.068  1.00  0.00     0.054 A 
BRANCH  70  71
ATOM     71  S   UNL A   1      39.253  37.582  40.356  1.00  0.00     0.124 S 
ATOM     72  O   UNL A   1      38.109  38.343  39.859  1.00  0.00    -0.237 OA
ATOM     73  O   UNL A   1      39.003  36.783  41.553  1.00  0.00    -0.237 OA
ATOM     74  O   UNL A   1      40.528  38.295  40.340  1.00  0.00    -0.744 OA
ENDBRANCH  70  71
ENDBRANCH  51  65
BRANCH  52  75
ATOM     75  C   UNL A   1      41.054  27.833  29.632  1.00  0.00    -0.014 A 
ATOM     76  C   UNL A   1      42.265  27.842  28.919  1.00  0.00     0.010 A 
ATOM     77  C   UNL A   1      40.059  26.902  29.279  1.00  0.00     0.010 A 
ATOM     78  C   UNL A   1      42.473  26.944  27.867  1.00  0.00     0.020 A 
ATOM     79  C   UNL A   1      40.275  25.985  28.246  1.00  0.00     0.020 A 
ATOM     80  C   UNL A   1      41.478  26.018  27.541  1.00  0.00     0.054 A 
BRANCH  80  81
ATOM     81  S   UNL A   1      41.798  24.820  26.216  1.00  0.00     0.124 S 
ATOM     82  O   UNL A   1      41.343  25.546  25.035  1.00  0.00    -0.237 OA
ATOM     83  O   UNL A   1      43.241  24.614  26.318  1.00  0.00    -0.237 OA
ATOM     84  O   UNL A   1      40.984  23.667  26.595  1.00  0.00    -0.744 OA
ENDBRANCH  80  81
ENDBRANCH  52  75
BRANCH  64  85
ATOM     85  C   UNL A   1      44.123  28.721  35.843  1.00  0.00    -0.014 A 
ATOM     86  C   UNL A   1      43.854  27.596  36.642  1.00  0.00     0.010 A 
ATOM     87  C   UNL A   1      45.457  29.129  35.662  1.00  0.00     0.010 A 
ATOM     88  C   UNL A   1      44.897  26.909  37.271  1.00  0.00     0.020 A 
ATOM     89  C   UNL A   1      46.506  28.428  36.265  1.00  0.00     0.020 A 
ATOM     90  C   UNL A   1      46.217  27.331  37.078  1.00  0.00     0.054 A 
BRANCH  90  91
ATOM     91  S   UNL A   1      47.555  26.395  37.868  1.00  0.00     0.124 S 
ATOM     92  O   UNL A   1      47.557  26.949  39.219  1.00  0.00    -0.237 OA
ATOM     93  O   UNL A   1      47.092  25.014  37.755  1.00  0.00    -0.237 OA
ATOM     94  O   UNL A   1      48.729  26.720  37.059  1.00  0.00    -0.744 OA
ENDBRANCH  90  91
ENDBRANCH  64  85
ENDBRANCH  38  39
ENDBRANCH  30  33
ENDBRANCH  28  29
ENDBRANCH  27  28
ENDBRANCH  26  27
ENDBRANCH   1  26
TORSDOF 20
ENDMDL
MODEL 3
REMARK VINA RESULT:     -10.4      2.238      4.001
REMARK SMILES CCN(Cc1ccccn1)c1nc(C)cc(C)c1C(=O)NCCCCCCNC(=O)c1ccc(-c2c3nc(c(-c4ccc(S(=O)(=O)[O-])cc4)c4ccc([nH]4)c(-c4ccc(S(=O)(=O)[O-])cc4)c4nc(c(-c5ccc(S(=O)(=O)[O-])cc5)c5ccc2[nH]5)C=C4)C=C3)cc1
REMARK SMILES IDX 24 1 23 2 22 3 21 4 19 5 20 6 18 8 11 9 12 10 13 11 16 12
REMARK SMILES IDX 14 13 15 14 17 15 3 16 2 17 1 18 4 19 5 20 6 21 10 22 7 23
REMARK SMILES IDX 9 24 8 25 25 26 26 27 27 28 28 29 29 30 30 32 31 33 32 34
REMARK SMILES IDX 90 35 33 36 89 37 34 38 35 39 36 40 83 41 37 42 88 43 82 44
REMARK SMILES IDX 84 45 38 46 87 47 81 48 80 49 39 51 69 52 50 53 68 54 51 55
REMARK SMILES IDX 54 56 67 57 85 58 52 59 53 60 66 62 86 63 55 64 40 65 41 66
REMARK SMILES IDX 49 67 42 68 48 69 43 70 44 71 45 72 46 73 47 74 70 75 71 76
REMARK SMILES IDX 79 77 72 78 78 79 73 80 74 81 75 82 76 83 77 84 56 85 57 86
REMARK SMILES IDX 65 87 58 88 64 89 59 90 60 91 61 92 62 93 63 94
REMARK H PARENT 21 7 28 31 84 50 54 61
REMARK Flexibility Score: inf
ROOT
ATOM      1  C   UNL A   1      39.940  23.089  27.353  1.00  0.00     0.002 C 
ENDROOT
BRANCH   1   2
ATOM      2  C   UNL A   1      39.006  23.955  26.504  1.00  0.00     0.021 C 
BRANCH   2   3
ATOM      3  C   UNL A   1      37.559  23.507  26.325  1.00  0.00     0.116 C 
BRANCH   3   4
ATOM      4  N   UNL A   1      37.330  22.095  26.129  1.00  0.00    -0.352 N 
ATOM      5  C   UNL A   1      36.430  21.467  25.282  1.00  0.00     0.255 C 
ATOM      6  O   UNL A   1      36.602  20.269  25.056  1.00  0.00    -0.269 OA
ATOM      7  H   UNL A   1      37.889  21.494  26.674  1.00  0.00     0.163 HD
BRANCH   5   8
ATOM      8  C   UNL A   1      35.273  22.184  24.668  1.00  0.00     0.085 A 
ATOM      9  C   UNL A   1      33.970  21.920  25.149  1.00  0.00     0.142 A 
ATOM     10  N   UNL A   1      32.884  22.495  24.574  1.00  0.00    -0.235 NA
ATOM     11  C   UNL A   1      33.013  23.256  23.473  1.00  0.00     0.040 A 
ATOM     12  C   UNL A   1      35.402  22.993  23.511  1.00  0.00    -0.033 A 
ATOM     13  C   UNL A   1      31.747  23.639  22.770  1.00  0.00     0.067 C 
ATOM     14  C   UNL A   1      34.249  23.547  22.935  1.00  0.00     0.028 A 
ATOM     15  C   UNL A   1      36.688  23.290  22.796  1.00  0.00     0.045 C 
BRANCH   9  16
ATOM     16  N   UNL A   1      33.668  21.026  26.170  1.00  0.00    -0.350 N 
BRANCH  16  17
ATOM     17  C   UNL A   1      33.912  21.422  27.550  1.00  0.00     0.115 C 
ATOM     18  C   UNL A   1      33.059  22.606  27.968  1.00  0.00     0.027 C 
ENDBRANCH  16  17
BRANCH  16  19
ATOM     19  C   UNL A   1      32.567  20.079  25.885  1.00  0.00     0.174 C 
BRANCH  19  20
ATOM     20  C   UNL A   1      32.944  18.708  25.315  1.00  0.00     0.060 A 
ATOM     21  C   UNL A   1      33.690  18.578  24.142  1.00  0.00     0.026 A 
ATOM     22  N   UNL A   1      32.508  17.614  26.002  1.00  0.00    -0.259 NA
ATOM     23  C   UNL A   1      34.065  17.309  23.705  1.00  0.00     0.004 A 
ATOM     24  C   UNL A   1      32.900  16.397  25.561  1.00  0.00     0.111 A 
ATOM     25  C   UNL A   1      33.676  16.195  24.434  1.00  0.00     0.020 A 
ENDBRANCH  19  20
ENDBRANCH  16  19
ENDBRANCH   9  16
ENDBRANCH   5   8
ENDBRANCH   3   4
ENDBRANCH   2   3
ENDBRANCH   1   2
BRANCH   1  26
ATOM     26  C   UNL A   1      41.133  22.410  26.676  1.00  0.00     0.002 C 
BRANCH  26  27
ATOM     27  C   UNL A   1      40.940  20.997  26.119  1.00  0.00     0.021 C 
BRANCH  27  28
ATOM     28  C   UNL A   1      41.900  19.924  26.618  1.00  0.00     0.116 C 
BRANCH  28  29
ATOM     29  N   UNL A   1      42.794  19.430  25.587  1.00  0.00    -0.352 N 
ATOM     30  C   UNL A   1      43.786  20.079  24.891  1.00  0.00     0.251 C 
ATOM     31  H   UNL A   1      42.670  18.483  25.347  1.00  0.00     0.163 HD
ATOM     32  O   UNL A   1      44.342  19.509  23.957  1.00  0.00    -0.269 OA
BRANCH  30  33
ATOM     33  C   UNL A   1      44.175  21.467  25.241  1.00  0.00     0.039 A 
ATOM     34  C   UNL A   1      43.941  22.483  24.310  1.00  0.00     0.014 A 
ATOM     35  C   UNL A   1      44.790  21.769  26.459  1.00  0.00     0.014 A 
ATOM     36  C   UNL A   1      44.267  23.807  24.623  1.00  0.00     0.010 A 
ATOM     37  C   UNL A   1      45.050  23.097  26.798  1.00  0.00     0.010 A 
ATOM     38  C   UNL A   1      44.794  24.131  25.883  1.00  0.00    -0.014 A 
BRANCH  38  39
ATOM     39  C   UNL A   1      45.077  25.541  26.261  1.00  0.00     0.031 A 
ATOM     40  C   UNL A   1      46.478  26.086  26.178  1.00  0.00     0.074 A 
ATOM     41  C   UNL A   1      44.083  26.314  26.740  1.00  0.00     0.049 A 
ATOM     42  N   UNL A   1      46.924  27.270  26.516  1.00  0.00    -0.248 NA
ATOM     43  C   UNL A   1      47.518  25.174  25.676  1.00  0.00     0.031 C 
ATOM     44  C   UNL A   1      42.691  25.893  26.914  1.00  0.00     0.029 A 
ATOM     45  N   UNL A   1      44.092  27.614  27.183  1.00  0.00    -0.354 N 
ATOM     46  C   UNL A   1      48.295  27.239  26.285  1.00  0.00     0.074 A 
ATOM     47  C   UNL A   1      48.614  25.904  25.826  1.00  0.00     0.031 C 
ATOM     48  C   UNL A   1      41.978  26.918  27.408  1.00  0.00     0.029 A 
ATOM     49  C   UNL A   1      42.867  28.056  27.625  1.00  0.00     0.049 A 
ATOM     50  H   UNL A   1      44.899  28.178  27.184  1.00  0.00     0.167 HD
ATOM     51  C   UNL A   1      49.204  28.235  26.424  1.00  0.00     0.031 A 
ATOM     52  C   UNL A   1      42.497  29.238  28.157  1.00  0.00     0.031 A 
ATOM     53  C   UNL A   1      48.882  29.562  26.878  1.00  0.00     0.049 A 
ATOM     54  C   UNL A   1      43.521  30.328  28.307  1.00  0.00     0.074 A 
ATOM     55  C   UNL A   1      49.720  30.657  26.996  1.00  0.00     0.029 A 
ATOM     56  N   UNL A   1      47.626  29.974  27.296  1.00  0.00    -0.354 N 
ATOM     57  N   UNL A   1      44.799  30.303  28.010  1.00  0.00    -0.248 NA
ATOM     58  C   UNL A   1      43.052  31.610  28.850  1.00  0.00     0.031 C 
ATOM     59  C   UNL A   1      48.984  31.715  27.541  1.00  0.00     0.029 A 
ATOM     60  C   UNL A   1      47.671  31.299  27.701  1.00  0.00     0.049 A 
ATOM     61  H   UNL A   1      46.820  29.408  27.304  1.00  0.00     0.167 HD
ATOM     62  C   UNL A   1      45.282  31.573  28.307  1.00  0.00     0.074 A 
ATOM     63  C   UNL A   1      44.155  32.345  28.792  1.00  0.00     0.031 C 
ATOM     64  C   UNL A   1      46.544  32.055  28.188  1.00  0.00     0.031 A 
BRANCH  51  65
ATOM     65  C   UNL A   1      50.641  27.914  26.098  1.00  0.00    -0.014 A 
ATOM     66  C   UNL A   1      51.457  27.210  27.004  1.00  0.00     0.010 A 
ATOM     67  C   UNL A   1      51.181  28.303  24.858  1.00  0.00     0.010 A 
ATOM     68  C   UNL A   1      52.795  26.951  26.700  1.00  0.00     0.020 A 
ATOM     69  C   UNL A   1      52.511  28.018  24.537  1.00  0.00     0.020 A 
ATOM     70  C   UNL A   1      53.316  27.363  25.470  1.00  0.00     0.054 A 
BRANCH  70  71
ATOM     71  S   UNL A   1      55.059  27.015  25.102  1.00  0.00     0.124 S 
ATOM     72  O   UNL A   1      54.997  25.631  24.640  1.00  0.00    -0.237 OA
ATOM     73  O   UNL A   1      55.373  28.006  24.077  1.00  0.00    -0.237 OA
ATOM     74  O   UNL A   1      55.731  27.213  26.385  1.00  0.00    -0.744 OA
ENDBRANCH  70  71
ENDBRANCH  51  65
BRANCH  52  75
ATOM     75  C   UNL A   1      41.084  29.445  28.581  1.00  0.00    -0.014 A 
ATOM     76  C   UNL A   1      40.039  29.400  27.643  1.00  0.00     0.010 A 
ATOM     77  C   UNL A   1      40.777  29.660  29.937  1.00  0.00     0.010 A 
ATOM     78  C   UNL A   1      38.713  29.576  28.052  1.00  0.00     0.020 A 
ATOM     79  C   UNL A   1      39.451  29.807  30.354  1.00  0.00     0.020 A 
ATOM     80  C   UNL A   1      38.428  29.773  29.406  1.00  0.00     0.054 A 
BRANCH  80  81
ATOM     81  S   UNL A   1      36.694  29.932  29.922  1.00  0.00     0.124 S 
ATOM     82  O   UNL A   1      35.986  29.361  28.782  1.00  0.00    -0.237 OA
ATOM     83  O   UNL A   1      36.658  29.144  31.151  1.00  0.00    -0.237 OA
ATOM     84  O   UNL A   1      36.525  31.372  30.108  1.00  0.00    -0.744 OA
ENDBRANCH  80  81
ENDBRANCH  52  75
BRANCH  64  85
ATOM     85  C   UNL A   1      46.775  33.495  28.561  1.00  0.00    -0.014 A 
ATOM     86  C   UNL A   1      47.198  33.857  29.852  1.00  0.00     0.010 A 
ATOM     87  C   UNL A   1      46.619  34.497  27.586  1.00  0.00     0.010 A 
ATOM     88  C   UNL A   1      47.432  35.199  30.169  1.00  0.00     0.020 A 
ATOM     89  C   UNL A   1      46.880  35.836  27.890  1.00  0.00     0.020 A 
ATOM     90  C   UNL A   1      47.271  36.180  29.185  1.00  0.00     0.054 A 
BRANCH  90  91
ATOM     91  S   UNL A   1      47.625  37.907  29.610  1.00  0.00     0.124 S 
ATOM     92  O   UNL A   1      46.780  38.112  30.783  1.00  0.00    -0.237 OA
ATOM     93  O   UNL A   1      49.063  37.887  29.866  1.00  0.00    -0.237 OA
ATOM     94  O   UNL A   1      47.221  38.647  28.415  1.00  0.00    -0.744 OA
ENDBRANCH  90  91
ENDBRANCH  64  85
ENDBRANCH  38  39
ENDBRANCH  30  33
ENDBRANCH  28  29
ENDBRANCH  27  28
ENDBRANCH  26  27
ENDBRANCH   1  26
TORSDOF 20
ENDMDL
