MODEL 1
REMARK VINA RESULT:     -11.5      0.000      0.000
REMARK SMILES Cc1ccc2c(=O)c3cccc(CC(=O)NCCCCCCNC(=O)c4ccc(-c5c6nc(c(-c7ccc(S(=O)(=O)[O-])cc7)c7ccc([nH]7)c(-c7ccc(S(=O)(=O)[O-])cc7)c7nc(c(-c8ccc(S(=O)(=O)[O-])cc8)c8ccc5[nH]8)C=C7)C=C6)cc4)c3oc2c1C
REMARK SMILES IDX 20 1 19 2 18 3 17 4 16 5 14 6 15 7 13 9 12 10 1 11 2 12 3 13
REMARK SMILES IDX 89 14 4 15 88 16 90 17 5 18 87 19 6 20 86 21 7 22 8 23 9 24
REMARK SMILES IDX 11 25 10 26 21 27 22 28 23 29 24 30 25 32 26 33 27 34 85 35
REMARK SMILES IDX 28 36 84 37 29 38 30 39 31 40 78 41 32 42 83 43 77 44 79 45
REMARK SMILES IDX 33 46 82 47 76 48 75 49 34 51 64 52 45 53 63 54 46 55 49 56
REMARK SMILES IDX 62 57 80 58 47 59 48 60 61 62 81 63 50 64 35 65 36 66 44 67
REMARK SMILES IDX 37 68 43 69 38 70 39 71 40 72 41 73 42 74 65 75 66 76 74 77
REMARK SMILES IDX 67 78 73 79 68 80 69 81 70 82 71 83 72 84 51 85 52 86 60 87
REMARK SMILES IDX 53 88 59 89 54 90 55 91 56 92 57 93 58 94
REMARK H PARENT 16 8 23 31 79 50 49 61
REMARK Flexibility Score: inf
ROOT
ATOM      1  C   UNL A   1      32.619  28.039  24.695  1.00  0.00     0.002 C 
ENDROOT
BRANCH   1   2
ATOM      2  C   UNL A   1      31.237  28.033  25.361  1.00  0.00     0.002 C 
BRANCH   2   3
ATOM      3  C   UNL A   1      30.803  26.695  25.975  1.00  0.00     0.021 C 
BRANCH   3   4
ATOM      4  C   UNL A   1      29.865  25.875  25.089  1.00  0.00     0.116 C 
BRANCH   4   5
ATOM      5  N   UNL A   1      30.474  25.580  23.806  1.00  0.00    -0.356 N 
ATOM      6  C   UNL A   1      31.405  24.638  23.483  1.00  0.00     0.224 C 
ATOM      7  O   UNL A   1      31.813  24.601  22.319  1.00  0.00    -0.275 OA
ATOM      8  H   UNL A   1      30.169  26.145  23.058  1.00  0.00     0.163 HD
BRANCH   6   9
ATOM      9  C   UNL A   1      31.852  23.609  24.509  1.00  0.00     0.139 C 
BRANCH   9  10
ATOM     10  C   UNL A   1      33.313  23.660  24.901  1.00  0.00     0.005 A 
ATOM     11  C   UNL A   1      33.717  16.410  24.033  1.00  0.00     0.045 C 
ATOM     12  C   UNL A   1      34.352  17.744  24.319  1.00  0.00    -0.044 A 
ATOM     13  C   UNL A   1      35.718  17.764  24.650  1.00  0.00     0.005 A 
ATOM     14  C   UNL A   1      33.619  18.954  24.320  1.00  0.00    -0.005 A 
ATOM     15  C   UNL A   1      36.366  18.961  24.947  1.00  0.00     0.016 A 
ATOM     16  C   UNL A   1      34.289  20.164  24.607  1.00  0.00     0.141 A 
ATOM     17  C   UNL A   1      32.149  19.003  23.986  1.00  0.00     0.049 C 
ATOM     18  C   UNL A   1      35.646  20.154  24.920  1.00  0.00     0.066 A 
ATOM     19  O   UNL A   1      33.542  21.321  24.563  1.00  0.00    -0.455 OA
ATOM     20  C   UNL A   1      36.312  21.422  25.242  1.00  0.00     0.200 A 
ATOM     21  C   UNL A   1      34.129  22.515  24.902  1.00  0.00     0.142 A 
ATOM     22  O   UNL A   1      37.507  21.468  25.506  1.00  0.00    -0.288 OA
ATOM     23  C   UNL A   1      35.475  22.628  25.250  1.00  0.00     0.066 A 
ATOM     24  C   UNL A   1      36.027  23.861  25.614  1.00  0.00     0.016 A 
ATOM     25  C   UNL A   1      33.868  24.888  25.308  1.00  0.00     0.008 A 
ATOM     26  C   UNL A   1      35.217  24.991  25.651  1.00  0.00     0.001 A 
ENDBRANCH   9  10
ENDBRANCH   6   9
ENDBRANCH   4   5
ENDBRANCH   3   4
ENDBRANCH   2   3
ENDBRANCH   1   2
BRANCH   1  27
ATOM     27  C   UNL A   1      33.695  28.841  25.427  1.00  0.00     0.021 C 
BRANCH  27  28
ATOM     28  C   UNL A   1      33.595  28.809  26.948  1.00  0.00     0.116 C 
BRANCH  28  29
ATOM     29  N   UNL A   1      33.591  30.142  27.538  1.00  0.00    -0.352 N 
ATOM     30  C   UNL A   1      34.583  30.776  28.250  1.00  0.00     0.251 C 
ATOM     31  H   UNL A   1      32.763  30.659  27.410  1.00  0.00     0.163 HD
ATOM     32  O   UNL A   1      34.358  31.845  28.810  1.00  0.00    -0.269 OA
BRANCH  30  33
ATOM     33  C   UNL A   1      35.911  30.137  28.368  1.00  0.00     0.039 A 
ATOM     34  C   UNL A   1      36.296  29.521  29.561  1.00  0.00     0.014 A 
ATOM     35  C   UNL A   1      36.800  30.204  27.291  1.00  0.00     0.014 A 
ATOM     36  C   UNL A   1      37.620  29.134  29.737  1.00  0.00     0.010 A 
ATOM     37  C   UNL A   1      38.110  29.741  27.446  1.00  0.00     0.010 A 
ATOM     38  C   UNL A   1      38.548  29.254  28.688  1.00  0.00    -0.014 A 
BRANCH  38  39
ATOM     39  C   UNL A   1      39.970  28.893  28.921  1.00  0.00     0.031 A 
ATOM     40  C   UNL A   1      40.886  29.829  29.668  1.00  0.00     0.074 A 
ATOM     41  C   UNL A   1      40.422  27.688  28.521  1.00  0.00     0.049 A 
ATOM     42  N   UNL A   1      42.143  29.662  29.991  1.00  0.00    -0.248 NA
ATOM     43  C   UNL A   1      40.323  31.115  30.115  1.00  0.00     0.031 C 
ATOM     44  C   UNL A   1      39.620  26.682  27.822  1.00  0.00     0.029 A 
ATOM     45  N   UNL A   1      41.648  27.090  28.674  1.00  0.00    -0.354 N 
ATOM     46  C   UNL A   1      42.525  30.820  30.660  1.00  0.00     0.074 A 
ATOM     47  C   UNL A   1      41.375  31.697  30.676  1.00  0.00     0.031 C 
ATOM     48  C   UNL A   1      40.353  25.568  27.668  1.00  0.00     0.029 A 
ATOM     49  C   UNL A   1      41.696  25.803  28.192  1.00  0.00     0.049 A 
ATOM     50  H   UNL A   1      42.419  27.539  29.089  1.00  0.00     0.167 HD
ATOM     51  C   UNL A   1      43.721  31.118  31.220  1.00  0.00     0.031 A 
ATOM     52  C   UNL A   1      42.703  24.907  28.166  1.00  0.00     0.031 A 
ATOM     53  C   UNL A   1      44.856  30.233  31.222  1.00  0.00     0.049 A 
ATOM     54  C   UNL A   1      44.037  25.285  28.742  1.00  0.00     0.074 A 
ATOM     55  C   UNL A   1      46.103  30.445  31.784  1.00  0.00     0.029 A 
ATOM     56  N   UNL A   1      44.885  28.972  30.646  1.00  0.00    -0.354 N 
ATOM     57  N   UNL A   1      44.378  26.389  29.362  1.00  0.00    -0.248 NA
ATOM     58  C   UNL A   1      45.124  24.306  28.610  1.00  0.00     0.031 C 
ATOM     59  C   UNL A   1      46.905  29.338  31.498  1.00  0.00     0.029 A 
ATOM     60  C   UNL A   1      46.138  28.408  30.815  1.00  0.00     0.049 A 
ATOM     61  H   UNL A   1      44.129  28.543  30.185  1.00  0.00     0.167 HD
ATOM     62  C   UNL A   1      45.715  26.233  29.704  1.00  0.00     0.074 A 
ATOM     63  C   UNL A   1      46.118  24.922  29.238  1.00  0.00     0.031 C 
ATOM     64  C   UNL A   1      46.533  27.103  30.344  1.00  0.00     0.031 A 
BRANCH  51  65
ATOM     65  C   UNL A   1      43.889  32.456  31.889  1.00  0.00    -0.014 A 
ATOM     66  C   UNL A   1      43.510  32.615  33.235  1.00  0.00     0.010 A 
ATOM     67  C   UNL A   1      44.291  33.587  31.154  1.00  0.00     0.010 A 
ATOM     68  C   UNL A   1      43.496  33.881  33.827  1.00  0.00     0.020 A 
ATOM     69  C   UNL A   1      44.301  34.852  31.749  1.00  0.00     0.020 A 
ATOM     70  C   UNL A   1      43.880  34.994  33.074  1.00  0.00     0.054 A 
BRANCH  70  71
ATOM     71  S   UNL A   1      43.824  36.636  33.845  1.00  0.00     0.124 S 
ATOM     72  O   UNL A   1      44.876  36.539  34.851  1.00  0.00    -0.237 OA
ATOM     73  O   UNL A   1      44.103  37.528  32.721  1.00  0.00    -0.237 OA
ATOM     74  O   UNL A   1      42.461  36.719  34.368  1.00  0.00    -0.744 OA
ENDBRANCH  70  71
ENDBRANCH  51  65
BRANCH  52  75
ATOM     75  C   UNL A   1      42.460  23.558  27.585  1.00  0.00    -0.014 A 
ATOM     76  C   UNL A   1      41.872  22.542  28.361  1.00  0.00     0.010 A 
ATOM     77  C   UNL A   1      42.894  23.258  26.282  1.00  0.00     0.010 A 
ATOM     78  C   UNL A   1      41.777  21.239  27.871  1.00  0.00     0.020 A 
ATOM     79  C   UNL A   1      42.774  21.961  25.776  1.00  0.00     0.020 A 
ATOM     80  C   UNL A   1      42.245  20.952  26.586  1.00  0.00     0.054 A 
BRANCH  80  81
ATOM     81  S   UNL A   1      42.161  19.242  25.986  1.00  0.00     0.124 S 
ATOM     82  O   UNL A   1      42.989  19.308  24.784  1.00  0.00    -0.237 OA
ATOM     83  O   UNL A   1      42.726  18.484  27.099  1.00  0.00    -0.237 OA
ATOM     84  O   UNL A   1      40.734  19.034  25.753  1.00  0.00    -0.744 OA
ENDBRANCH  80  81
ENDBRANCH  52  75
BRANCH  64  85
ATOM     85  C   UNL A   1      47.959  26.690  30.593  1.00  0.00    -0.014 A 
ATOM     86  C   UNL A   1      48.311  26.113  31.828  1.00  0.00     0.010 A 
ATOM     87  C   UNL A   1      48.969  27.003  29.668  1.00  0.00     0.010 A 
ATOM     88  C   UNL A   1      49.652  25.895  32.150  1.00  0.00     0.020 A 
ATOM     89  C   UNL A   1      50.310  26.761  29.977  1.00  0.00     0.020 A 
ATOM     90  C   UNL A   1      50.645  26.233  31.226  1.00  0.00     0.054 A 
BRANCH  90  91
ATOM     91  S   UNL A   1      52.383  25.984  31.678  1.00  0.00     0.124 S 
ATOM     92  O   UNL A   1      52.410  24.567  32.027  1.00  0.00    -0.237 OA
ATOM     93  O   UNL A   1      53.092  26.343  30.452  1.00  0.00    -0.237 OA
ATOM     94  O   UNL A   1      52.582  26.906  32.795  1.00  0.00    -0.744 OA
ENDBRANCH  90  91
ENDBRANCH  64  85
ENDBRANCH  38  39
ENDBRANCH  30  33
ENDBRANCH  28  29
ENDBRANCH  27  28
ENDBRANCH   1  27
TORSDOF 17
ENDMDL
MODEL 2
REMARK VINA RESULT:     -11.5      0.368      7.993
REMARK SMILES Cc1ccc2c(=O)c3cccc(CC(=O)NCCCCCCNC(=O)c4ccc(-c5c6nc(c(-c7ccc(S(=O)(=O)[O-])cc7)c7ccc([nH]7)c(-c7ccc(S(=O)(=O)[O-])cc7)c7nc(c(-c8ccc(S(=O)(=O)[O-])cc8)c8ccc5[nH]8)C=C7)C=C6)cc4)c3oc2c1C
REMARK SMILES IDX 20 1 19 2 18 3 17 4 16 5 14 6 15 7 13 9 12 10 1 11 2 12 3 13
REMARK SMILES IDX 89 14 4 15 88 16 90 17 5 18 87 19 6 20 86 21 7 22 8 23 9 24
REMARK SMILES IDX 11 25 10 26 21 27 22 28 23 29 24 30 25 32 26 33 27 34 85 35
REMARK SMILES IDX 28 36 84 37 29 38 30 39 31 40 78 41 32 42 83 43 77 44 79 45
REMARK SMILES IDX 33 46 82 47 76 48 75 49 34 51 64 52 45 53 63 54 46 55 49 56
REMARK SMILES IDX 62 57 80 58 47 59 48 60 61 62 81 63 50 64 35 65 36 66 44 67
REMARK SMILES IDX 37 68 43 69 38 70 39 71 40 72 41 73 42 74 65 75 66 76 74 77
REMARK SMILES IDX 67 78 73 79 68 80 69 81 70 82 71 83 72 84 51 85 52 86 60 87
REMARK SMILES IDX 53 88 59 89 54 90 55 91 56 92 57 93 58 94
REMARK H PARENT 16 8 23 31 79 50 49 61
REMARK Flexibility Score: inf
ROOT
ATOM      1  C   UNL A   1      32.713  28.005  24.840  1.00  0.00     0.002 C 
ENDROOT
BRANCH   1   2
ATOM      2  C   UNL A   1      31.319  27.914  25.474  1.00  0.00     0.002 C 
BRANCH   2   3
ATOM      3  C   UNL A   1      30.864  26.503  25.874  1.00  0.00     0.021 C 
BRANCH   3   4
ATOM      4  C   UNL A   1      29.874  25.865  24.899  1.00  0.00     0.116 C 
BRANCH   4   5
ATOM      5  N   UNL A   1      30.519  25.504  23.651  1.00  0.00    -0.356 N 
ATOM      6  C   UNL A   1      31.454  24.542  23.404  1.00  0.00     0.224 C 
ATOM      7  O   UNL A   1      31.897  24.445  22.256  1.00  0.00    -0.275 OA
ATOM      8  H   UNL A   1      30.242  26.033  22.868  1.00  0.00     0.163 HD
BRANCH   6   9
ATOM      9  C   UNL A   1      31.862  23.562  24.492  1.00  0.00     0.139 C 
BRANCH   9  10
ATOM     10  C   UNL A   1      33.319  23.600  24.900  1.00  0.00     0.005 A 
ATOM     11  C   UNL A   1      33.682  16.356  23.963  1.00  0.00     0.045 C 
ATOM     12  C   UNL A   1      34.323  17.682  24.269  1.00  0.00    -0.044 A 
ATOM     13  C   UNL A   1      35.686  17.690  24.614  1.00  0.00     0.005 A 
ATOM     14  C   UNL A   1      33.598  18.897  24.275  1.00  0.00    -0.005 A 
ATOM     15  C   UNL A   1      36.339  18.879  24.929  1.00  0.00     0.016 A 
ATOM     16  C   UNL A   1      34.274  20.100  24.581  1.00  0.00     0.141 A 
ATOM     17  C   UNL A   1      32.132  18.960  23.926  1.00  0.00     0.049 C 
ATOM     18  C   UNL A   1      35.627  20.077  24.907  1.00  0.00     0.066 A 
ATOM     19  O   UNL A   1      33.535  21.262  24.540  1.00  0.00    -0.455 OA
ATOM     20  C   UNL A   1      36.298  21.337  25.249  1.00  0.00     0.200 A 
ATOM     21  C   UNL A   1      34.127  22.449  24.898  1.00  0.00     0.142 A 
ATOM     22  O   UNL A   1      37.491  21.372  25.526  1.00  0.00    -0.288 OA
ATOM     23  C   UNL A   1      35.470  22.549  25.261  1.00  0.00     0.066 A 
ATOM     24  C   UNL A   1      36.027  23.774  25.642  1.00  0.00     0.016 A 
ATOM     25  C   UNL A   1      33.878  24.820  25.325  1.00  0.00     0.008 A 
ATOM     26  C   UNL A   1      35.225  24.909  25.683  1.00  0.00     0.001 A 
ENDBRANCH   9  10
ENDBRANCH   6   9
ENDBRANCH   4   5
ENDBRANCH   3   4
ENDBRANCH   2   3
ENDBRANCH   1   2
BRANCH   1  27
ATOM     27  C   UNL A   1      33.840  28.403  25.793  1.00  0.00     0.021 C 
BRANCH  27  28
ATOM     28  C   UNL A   1      33.398  28.698  27.222  1.00  0.00     0.116 C 
BRANCH  28  29
ATOM     29  N   UNL A   1      33.422  30.121  27.535  1.00  0.00    -0.352 N 
ATOM     30  C   UNL A   1      34.425  30.862  28.116  1.00  0.00     0.251 C 
ATOM     31  H   UNL A   1      32.607  30.621  27.299  1.00  0.00     0.163 HD
ATOM     32  O   UNL A   1      34.223  32.026  28.450  1.00  0.00    -0.269 OA
BRANCH  30  33
ATOM     33  C   UNL A   1      35.737  30.230  28.372  1.00  0.00     0.039 A 
ATOM     34  C   UNL A   1      36.033  29.700  29.630  1.00  0.00     0.014 A 
ATOM     35  C   UNL A   1      36.699  30.217  27.358  1.00  0.00     0.014 A 
ATOM     36  C   UNL A   1      37.339  29.324  29.926  1.00  0.00     0.010 A 
ATOM     37  C   UNL A   1      37.992  29.764  27.637  1.00  0.00     0.010 A 
ATOM     38  C   UNL A   1      38.338  29.366  28.938  1.00  0.00    -0.014 A 
BRANCH  38  39
ATOM     39  C   UNL A   1      39.738  29.019  29.296  1.00  0.00     0.031 A 
ATOM     40  C   UNL A   1      40.327  27.693  28.889  1.00  0.00     0.074 A 
ATOM     41  C   UNL A   1      40.505  29.930  29.927  1.00  0.00     0.049 A 
ATOM     42  N   UNL A   1      41.539  27.238  29.086  1.00  0.00    -0.248 NA
ATOM     43  C   UNL A   1      39.451  26.755  28.166  1.00  0.00     0.031 C 
ATOM     44  C   UNL A   1      40.059  31.262  30.339  1.00  0.00     0.029 A 
ATOM     45  N   UNL A   1      41.826  29.891  30.302  1.00  0.00    -0.354 N 
ATOM     46  C   UNL A   1      41.566  25.965  28.531  1.00  0.00     0.074 A 
ATOM     47  C   UNL A   1      40.243  25.702  28.009  1.00  0.00     0.031 C 
ATOM     48  C   UNL A   1      41.102  31.937  30.845  1.00  0.00     0.029 A 
ATOM     49  C   UNL A   1      42.274  31.065  30.861  1.00  0.00     0.049 A 
ATOM     50  H   UNL A   1      42.397  29.099  30.182  1.00  0.00     0.167 HD
ATOM     51  C   UNL A   1      42.604  25.098  28.451  1.00  0.00     0.031 A 
ATOM     52  C   UNL A   1      43.487  31.409  31.338  1.00  0.00     0.031 A 
ATOM     53  C   UNL A   1      43.925  25.372  28.951  1.00  0.00     0.049 A 
ATOM     54  C   UNL A   1      44.604  30.408  31.291  1.00  0.00     0.074 A 
ATOM     55  C   UNL A   1      45.044  24.559  28.896  1.00  0.00     0.029 A 
ATOM     56  N   UNL A   1      44.311  26.541  29.587  1.00  0.00    -0.354 N 
ATOM     57  N   UNL A   1      44.606  29.206  30.768  1.00  0.00    -0.248 NA
ATOM     58  C   UNL A   1      45.881  30.802  31.903  1.00  0.00     0.031 C 
ATOM     59  C   UNL A   1      46.091  25.211  29.550  1.00  0.00     0.029 A 
ATOM     60  C   UNL A   1      45.644  26.459  29.955  1.00  0.00     0.049 A 
ATOM     61  H   UNL A   1      43.726  27.315  29.754  1.00  0.00     0.167 HD
ATOM     62  C   UNL A   1      45.884  28.703  30.978  1.00  0.00     0.074 A 
ATOM     63  C   UNL A   1      46.635  29.736  31.660  1.00  0.00     0.031 C 
ATOM     64  C   UNL A   1      46.384  27.491  30.637  1.00  0.00     0.031 A 
BRANCH  51  65
ATOM     65  C   UNL A   1      42.376  23.760  27.799  1.00  0.00    -0.014 A 
ATOM     66  C   UNL A   1      41.926  22.675  28.574  1.00  0.00     0.010 A 
ATOM     67  C   UNL A   1      42.738  23.539  26.457  1.00  0.00     0.010 A 
ATOM     68  C   UNL A   1      41.871  21.388  28.033  1.00  0.00     0.020 A 
ATOM     69  C   UNL A   1      42.661  22.256  25.905  1.00  0.00     0.020 A 
ATOM     70  C   UNL A   1      42.252  21.185  26.704  1.00  0.00     0.054 A 
BRANCH  70  71
ATOM     71  S   UNL A   1      42.208  19.503  26.025  1.00  0.00     0.124 S 
ATOM     72  O   UNL A   1      40.796  19.342  25.695  1.00  0.00    -0.237 OA
ATOM     73  O   UNL A   1      43.118  19.593  24.885  1.00  0.00    -0.237 OA
ATOM     74  O   UNL A   1      42.691  18.678  27.131  1.00  0.00    -0.744 OA
ENDBRANCH  70  71
ENDBRANCH  51  65
BRANCH  52  75
ATOM     75  C   UNL A   1      43.691  32.780  31.881  1.00  0.00    -0.014 A 
ATOM     76  C   UNL A   1      43.299  33.093  33.196  1.00  0.00     0.010 A 
ATOM     77  C   UNL A   1      44.199  33.800  31.058  1.00  0.00     0.010 A 
ATOM     78  C   UNL A   1      43.352  34.409  33.658  1.00  0.00     0.020 A 
ATOM     79  C   UNL A   1      44.282  35.115  31.527  1.00  0.00     0.020 A 
ATOM     80  C   UNL A   1      43.828  35.415  32.814  1.00  0.00     0.054 A 
BRANCH  80  81
ATOM     81  S   UNL A   1      43.840  37.127  33.416  1.00  0.00     0.124 S 
ATOM     82  O   UNL A   1      43.762  37.881  32.167  1.00  0.00    -0.237 OA
ATOM     83  O   UNL A   1      42.649  37.179  34.258  1.00  0.00    -0.237 OA
ATOM     84  O   UNL A   1      45.110  37.227  34.129  1.00  0.00    -0.744 OA
ENDBRANCH  80  81
ENDBRANCH  52  75
BRANCH  64  85
ATOM     85  C   UNL A   1      47.816  27.187  30.985  1.00  0.00    -0.014 A 
ATOM     86  C   UNL A   1      48.840  27.518  30.077  1.00  0.00     0.010 A 
ATOM     87  C   UNL A   1      48.133  26.449  32.139  1.00  0.00     0.010 A 
ATOM     88  C   UNL A   1      50.147  27.081  30.294  1.00  0.00     0.020 A 
ATOM     89  C   UNL A   1      49.447  26.033  32.372  1.00  0.00     0.020 A 
ATOM     90  C   UNL A   1      50.440  26.328  31.435  1.00  0.00     0.054 A 
BRANCH  90  91
ATOM     91  S   UNL A   1      52.135  25.731  31.680  1.00  0.00     0.124 S 
ATOM     92  O   UNL A   1      52.726  25.937  30.361  1.00  0.00    -0.237 OA
ATOM     93  O   UNL A   1      52.637  26.606  32.737  1.00  0.00    -0.237 OA
ATOM     94  O   UNL A   1      51.952  24.335  32.072  1.00  0.00    -0.744 OA
ENDBRANCH  90  91
ENDBRANCH  64  85
ENDBRANCH  38  39
ENDBRANCH  30  33
ENDBRANCH  28  29
ENDBRANCH  27  28
ENDBRANCH   1  27
TORSDOF 17
ENDMDL
MODEL 3
REMARK VINA RESULT:     -11.5      1.626      8.322
REMARK SMILES Cc1ccc2c(=O)c3cccc(CC(=O)NCCCCCCNC(=O)c4ccc(-c5c6nc(c(-c7ccc(S(=O)(=O)[O-])cc7)c7ccc([nH]7)c(-c7ccc(S(=O)(=O)[O-])cc7)c7nc(c(-c8ccc(S(=O)(=O)[O-])cc8)c8ccc5[nH]8)C=C7)C=C6)cc4)c3oc2c1C
REMARK SMILES IDX 20 1 19 2 18 3 17 4 16 5 14 6 15 7 13 9 12 10 1 11 2 12 3 13
REMARK SMILES IDX 89 14 4 15 88 16 90 17 5 18 87 19 6 20 86 21 7 22 8 23 9 24
REMARK SMILES IDX 11 25 10 26 21 27 22 28 23 29 24 30 25 32 26 33 27 34 85 35
REMARK SMILES IDX 28 36 84 37 29 38 30 39 31 40 78 41 32 42 83 43 77 44 79 45
REMARK SMILES IDX 33 46 82 47 76 48 75 49 34 51 64 52 45 53 63 54 46 55 49 56
REMARK SMILES IDX 62 57 80 58 47 59 48 60 61 62 81 63 50 64 35 65 36 66 44 67
REMARK SMILES IDX 37 68 43 69 38 70 39 71 40 72 41 73 42 74 65 75 66 76 74 77
REMARK SMILES IDX 67 78 73 79 68 80 69 81 70 82 71 83 72 84 51 85 52 86 60 87
REMARK SMILES IDX 53 88 59 89 54 90 55 91 56 92 57 93 58 94
REMARK H PARENT 16 8 23 31 79 50 49 61
REMARK Flexibility Score: inf
ROOT
ATOM      1  C   UNL A   1      31.585  28.629  26.123  1.00  0.00     0.002 C 
ENDROOT
BRANCH   1   2
ATOM      2  C   UNL A   1      31.966  29.201  24.751  1.00  0.00     0.002 C 
BRANCH   2   3
ATOM      3  C   UNL A   1      30.791  29.502  23.809  1.00  0.00     0.021 C 
BRANCH   3   4
ATOM      4  C   UNL A   1      30.965  28.948  22.395  1.00  0.00     0.116 C 
BRANCH   4   5
ATOM      5  N   UNL A   1      32.306  28.435  22.190  1.00  0.00    -0.356 N 
ATOM      6  C   UNL A   1      32.744  27.145  22.146  1.00  0.00     0.224 C 
ATOM      7  O   UNL A   1      33.954  26.947  22.002  1.00  0.00    -0.275 OA
ATOM      8  H   UNL A   1      33.003  29.120  22.065  1.00  0.00     0.163 HD
BRANCH   6   9
ATOM      9  C   UNL A   1      31.755  25.990  22.180  1.00  0.00     0.139 C 
BRANCH   9  10
ATOM     10  C   UNL A   1      31.204  25.635  23.544  1.00  0.00     0.005 A 
ATOM     11  C   UNL A   1      36.994  21.311  24.669  1.00  0.00     0.045 C 
ATOM     12  C   UNL A   1      35.721  21.964  25.137  1.00  0.00    -0.044 A 
ATOM     13  C   UNL A   1      35.249  21.639  26.421  1.00  0.00     0.005 A 
ATOM     14  C   UNL A   1      34.966  22.838  24.320  1.00  0.00    -0.005 A 
ATOM     15  C   UNL A   1      34.067  22.190  26.910  1.00  0.00     0.016 A 
ATOM     16  C   UNL A   1      33.777  23.403  24.832  1.00  0.00     0.141 A 
ATOM     17  C   UNL A   1      35.408  23.220  22.929  1.00  0.00     0.049 C 
ATOM     18  C   UNL A   1      33.340  23.072  26.112  1.00  0.00     0.066 A 
ATOM     19  O   UNL A   1      33.094  24.275  24.013  1.00  0.00    -0.455 OA
ATOM     20  C   UNL A   1      32.087  23.651  26.610  1.00  0.00     0.200 A 
ATOM     21  C   UNL A   1      31.895  24.798  24.436  1.00  0.00     0.142 A 
ATOM     22  O   UNL A   1      31.670  23.404  27.735  1.00  0.00    -0.288 OA
ATOM     23  C   UNL A   1      31.348  24.524  25.690  1.00  0.00     0.066 A 
ATOM     24  C   UNL A   1      30.113  25.057  26.071  1.00  0.00     0.016 A 
ATOM     25  C   UNL A   1      29.942  26.133  23.921  1.00  0.00     0.008 A 
ATOM     26  C   UNL A   1      29.405  25.856  25.179  1.00  0.00     0.001 A 
ENDBRANCH   9  10
ENDBRANCH   6   9
ENDBRANCH   4   5
ENDBRANCH   3   4
ENDBRANCH   2   3
ENDBRANCH   1   2
BRANCH   1  27
ATOM     27  C   UNL A   1      32.686  27.840  26.831  1.00  0.00     0.021 C 
BRANCH  27  28
ATOM     28  C   UNL A   1      34.020  28.568  26.954  1.00  0.00     0.116 C 
BRANCH  28  29
ATOM     29  N   UNL A   1      33.886  29.886  27.563  1.00  0.00    -0.352 N 
ATOM     30  C   UNL A   1      34.789  30.577  28.337  1.00  0.00     0.251 C 
ATOM     31  H   UNL A   1      33.030  30.344  27.396  1.00  0.00     0.163 HD
ATOM     32  O   UNL A   1      34.456  31.617  28.899  1.00  0.00    -0.269 OA
BRANCH  30  33
ATOM     33  C   UNL A   1      36.152  30.034  28.519  1.00  0.00     0.039 A 
ATOM     34  C   UNL A   1      36.552  29.529  29.758  1.00  0.00     0.014 A 
ATOM     35  C   UNL A   1      37.055  30.081  27.453  1.00  0.00     0.014 A 
ATOM     36  C   UNL A   1      37.894  29.241  29.981  1.00  0.00     0.010 A 
ATOM     37  C   UNL A   1      38.388  29.715  27.659  1.00  0.00     0.010 A 
ATOM     38  C   UNL A   1      38.832  29.346  28.939  1.00  0.00    -0.014 A 
BRANCH  38  39
ATOM     39  C   UNL A   1      40.269  29.093  29.218  1.00  0.00     0.031 A 
ATOM     40  C   UNL A   1      40.895  27.765  28.876  1.00  0.00     0.074 A 
ATOM     41  C   UNL A   1      41.032  30.087  29.716  1.00  0.00     0.049 A 
ATOM     42  N   UNL A   1      42.139  27.384  29.019  1.00  0.00    -0.248 NA
ATOM     43  C   UNL A   1      40.019  26.732  28.298  1.00  0.00     0.031 C 
ATOM     44  C   UNL A   1      40.548  31.428  30.050  1.00  0.00     0.029 A 
ATOM     45  N   UNL A   1      42.376  30.139  29.993  1.00  0.00    -0.354 N 
ATOM     46  C   UNL A   1      42.192  26.070  28.567  1.00  0.00     0.074 A 
ATOM     47  C   UNL A   1      40.850  25.706  28.168  1.00  0.00     0.031 C 
ATOM     48  C   UNL A   1      41.589  32.189  30.422  1.00  0.00     0.029 A 
ATOM     49  C   UNL A   1      42.802  31.375  30.420  1.00  0.00     0.049 A 
ATOM     50  H   UNL A   1      42.977  29.366  29.894  1.00  0.00     0.167 HD
ATOM     51  C   UNL A   1      43.264  25.248  28.480  1.00  0.00     0.031 A 
ATOM     52  C   UNL A   1      44.027  31.812  30.776  1.00  0.00     0.031 A 
ATOM     53  C   UNL A   1      44.602  25.621  28.857  1.00  0.00     0.049 A 
ATOM     54  C   UNL A   1      45.187  30.862  30.727  1.00  0.00     0.074 A 
ATOM     55  C   UNL A   1      45.754  24.857  28.784  1.00  0.00     0.029 A 
ATOM     56  N   UNL A   1      44.972  26.856  29.366  1.00  0.00    -0.354 N 
ATOM     57  N   UNL A   1      45.213  29.621  30.303  1.00  0.00    -0.248 NA
ATOM     58  C   UNL A   1      46.483  31.362  31.208  1.00  0.00     0.031 C 
ATOM     59  C   UNL A   1      46.810  25.609  29.303  1.00  0.00     0.029 A 
ATOM     60  C   UNL A   1      46.329  26.864  29.639  1.00  0.00     0.049 A 
ATOM     61  H   UNL A   1      44.361  27.614  29.513  1.00  0.00     0.167 HD
ATOM     62  C   UNL A   1      46.527  29.195  30.457  1.00  0.00     0.074 A 
ATOM     63  C   UNL A   1      47.270  30.315  30.996  1.00  0.00     0.031 C 
ATOM     64  C   UNL A   1      47.062  27.983  30.179  1.00  0.00     0.031 A 
BRANCH  51  65
ATOM     65  C   UNL A   1      43.059  23.850  27.957  1.00  0.00    -0.014 A 
ATOM     66  C   UNL A   1      43.106  23.612  26.571  1.00  0.00     0.010 A 
ATOM     67  C   UNL A   1      42.687  22.803  28.819  1.00  0.00     0.010 A 
ATOM     68  C   UNL A   1      42.752  22.364  26.051  1.00  0.00     0.020 A 
ATOM     69  C   UNL A   1      42.356  21.546  28.304  1.00  0.00     0.020 A 
ATOM     70  C   UNL A   1      42.366  21.342  26.922  1.00  0.00     0.054 A 
BRANCH  70  71
ATOM     71  S   UNL A   1      41.877  19.737  26.230  1.00  0.00     0.124 S 
ATOM     72  O   UNL A   1      42.233  18.817  27.305  1.00  0.00    -0.237 OA
ATOM     73  O   UNL A   1      40.445  19.912  25.995  1.00  0.00    -0.237 OA
ATOM     74  O   UNL A   1      42.688  19.630  25.018  1.00  0.00    -0.744 OA
ENDBRANCH  70  71
ENDBRANCH  51  65
BRANCH  52  75
ATOM     75  C   UNL A   1      44.199  33.231  31.190  1.00  0.00    -0.014 A 
ATOM     76  C   UNL A   1      43.997  33.613  32.530  1.00  0.00     0.010 A 
ATOM     77  C   UNL A   1      44.480  34.220  30.232  1.00  0.00     0.010 A 
ATOM     78  C   UNL A   1      44.012  34.961  32.893  1.00  0.00     0.020 A 
ATOM     79  C   UNL A   1      44.525  35.569  30.597  1.00  0.00     0.020 A 
ATOM     80  C   UNL A   1      44.260  35.933  31.920  1.00  0.00     0.054 A 
BRANCH  80  81
ATOM     81  S   UNL A   1      44.224  37.681  32.403  1.00  0.00     0.124 S 
ATOM     82  O   UNL A   1      43.834  38.326  31.151  1.00  0.00    -0.237 OA
ATOM     83  O   UNL A   1      43.219  37.701  33.461  1.00  0.00    -0.237 OA
ATOM     84  O   UNL A   1      45.593  37.941  32.841  1.00  0.00    -0.744 OA
ENDBRANCH  80  81
ENDBRANCH  52  75
BRANCH  64  85
ATOM     85  C   UNL A   1      48.529  27.774  30.443  1.00  0.00    -0.014 A 
ATOM     86  C   UNL A   1      49.478  28.249  29.518  1.00  0.00     0.010 A 
ATOM     87  C   UNL A   1      48.959  26.986  31.524  1.00  0.00     0.010 A 
ATOM     88  C   UNL A   1      50.825  27.907  29.647  1.00  0.00     0.020 A 
ATOM     89  C   UNL A   1      50.310  26.664  31.671  1.00  0.00     0.020 A 
ATOM     90  C   UNL A   1      51.231  27.104  30.717  1.00  0.00     0.054 A 
BRANCH  90  91
ATOM     91  S   UNL A   1      52.978  26.632  30.844  1.00  0.00     0.124 S 
ATOM     92  O   UNL A   1      53.281  26.206  29.481  1.00  0.00    -0.237 OA
ATOM     93  O   UNL A   1      53.618  27.874  31.272  1.00  0.00    -0.237 OA
ATOM     94  O   UNL A   1      52.972  25.567  31.845  1.00  0.00    -0.744 OA
ENDBRANCH  90  91
ENDBRANCH  64  85
ENDBRANCH  38  39
ENDBRANCH  30  33
ENDBRANCH  28  29
ENDBRANCH  27  28
ENDBRANCH   1  27
TORSDOF 17
ENDMDL
