MODEL 1
REMARK VINA RESULT:     -10.3      0.000      0.000
REMARK SMILES C[C@@H]1CC(=O)N(CC(C)(C)C(=O)NCCCCCCNC(=O)c2ccc(-c3c4nc(c(-c5ccc(S(=O)(=O)[O-])cc5)c5ccc([nH]5)c(-c5ccc(S(=O)(=O)[O-])cc5)c5nc(c(-c6ccc(S(=O)(=O)[O-])cc6)c6ccc3[nH]6)C=C5)C=C4)cc2)C1
REMARK SMILES IDX 17 1 16 2 15 3 14 4 13 5 11 6 12 7 8 9 9 10 10 11 7 12 6 13
REMARK SMILES IDX 1 14 2 15 3 16 83 17 4 18 5 19 18 20 19 21 20 22 21 23 22 25
REMARK SMILES IDX 23 26 24 27 82 28 25 29 81 30 26 31 27 32 28 33 75 34 29 35
REMARK SMILES IDX 80 36 74 37 76 38 30 39 79 40 73 41 72 42 31 44 61 45 42 46
REMARK SMILES IDX 60 47 43 48 46 49 59 50 77 51 44 52 45 53 58 55 78 56 47 57
REMARK SMILES IDX 32 58 33 59 41 60 34 61 40 62 35 63 36 64 37 65 38 66 39 67
REMARK SMILES IDX 62 68 63 69 71 70 64 71 70 72 65 73 66 74 67 75 68 76 69 77
REMARK SMILES IDX 48 78 49 79 57 80 50 81 56 82 51 83 52 84 53 85 54 86 55 87
REMARK H PARENT 13 8 20 24 76 43 46 54
REMARK Flexibility Score: inf
ROOT
ATOM      1  C   UNL A   1      31.854  28.171  25.421  1.00  0.00     0.002 C 
ENDROOT
BRANCH   1   2
ATOM      2  C   UNL A   1      31.338  29.190  24.401  1.00  0.00     0.002 C 
BRANCH   2   3
ATOM      3  C   UNL A   1      31.457  28.757  22.936  1.00  0.00     0.021 C 
BRANCH   3   4
ATOM      4  C   UNL A   1      30.931  27.353  22.654  1.00  0.00     0.116 C 
BRANCH   4   5
ATOM      5  N   UNL A   1      31.677  26.734  21.580  1.00  0.00    -0.356 N 
ATOM      6  C   UNL A   1      32.445  25.616  21.515  1.00  0.00     0.227 C 
ATOM      7  O   UNL A   1      33.061  25.482  20.455  1.00  0.00    -0.274 OA
ATOM      8  H   UNL A   1      31.615  27.219  20.726  1.00  0.00     0.163 HD
BRANCH   6   9
ATOM      9  C   UNL A   1      32.548  24.608  22.680  1.00  0.00     0.061 C 
ATOM     10  C   UNL A   1      31.156  24.209  23.205  1.00  0.00     0.023 C 
ATOM     11  C   UNL A   1      33.374  25.232  23.822  1.00  0.00     0.023 C 
BRANCH   9  12
ATOM     12  C   UNL A   1      33.327  23.327  22.218  1.00  0.00     0.135 C 
BRANCH  12  13
ATOM     13  N   UNL A   1      34.230  22.727  23.193  1.00  0.00    -0.341 N 
ATOM     14  C   UNL A   1      37.354  22.589  25.120  1.00  0.00     0.010 C 
ATOM     15  C   UNL A   1      35.895  22.801  24.772  1.00  0.00     0.015 C 
ATOM     16  C   UNL A   1      34.984  21.619  25.115  1.00  0.00     0.105 C 
ATOM     17  C   UNL A   1      35.646  22.975  23.285  1.00  0.00     0.123 C 
ATOM     18  C   UNL A   1      33.825  21.810  24.162  1.00  0.00     0.222 C 
ATOM     19  O   UNL A   1      32.759  21.213  24.223  1.00  0.00    -0.275 OA
ENDBRANCH  12  13
ENDBRANCH   9  12
ENDBRANCH   6   9
ENDBRANCH   4   5
ENDBRANCH   3   4
ENDBRANCH   2   3
ENDBRANCH   1   2
BRANCH   1  20
ATOM     20  C   UNL A   1      33.363  28.213  25.673  1.00  0.00     0.021 C 
BRANCH  20  21
ATOM     21  C   UNL A   1      33.758  28.448  27.126  1.00  0.00     0.116 C 
BRANCH  21  22
ATOM     22  N   UNL A   1      33.620  29.842  27.507  1.00  0.00    -0.352 N 
ATOM     23  C   UNL A   1      34.488  30.650  28.195  1.00  0.00     0.251 C 
ATOM     24  H   UNL A   1      32.778  30.271  27.230  1.00  0.00     0.163 HD
ATOM     25  O   UNL A   1      34.102  31.740  28.607  1.00  0.00    -0.269 OA
BRANCH  23  26
ATOM     26  C   UNL A   1      35.877  30.207  28.452  1.00  0.00     0.039 A 
ATOM     27  C   UNL A   1      36.823  30.355  27.437  1.00  0.00     0.014 A 
ATOM     28  C   UNL A   1      36.241  29.620  29.668  1.00  0.00     0.014 A 
ATOM     29  C   UNL A   1      38.140  29.946  27.654  1.00  0.00     0.010 A 
ATOM     30  C   UNL A   1      37.573  29.293  29.913  1.00  0.00     0.010 A 
ATOM     31  C   UNL A   1      38.533  29.433  28.902  1.00  0.00    -0.014 A 
BRANCH  31  32
ATOM     32  C   UNL A   1      39.944  29.041  29.144  1.00  0.00     0.031 A 
ATOM     33  C   UNL A   1      40.892  29.974  29.851  1.00  0.00     0.074 A 
ATOM     34  C   UNL A   1      40.378  27.841  28.713  1.00  0.00     0.049 A 
ATOM     35  N   UNL A   1      42.131  29.766  30.219  1.00  0.00    -0.248 NA
ATOM     36  C   UNL A   1      40.392  31.320  30.166  1.00  0.00     0.031 C 
ATOM     37  C   UNL A   1      39.570  26.865  27.978  1.00  0.00     0.029 A 
ATOM     38  N   UNL A   1      41.597  27.225  28.852  1.00  0.00    -0.354 N 
ATOM     39  C   UNL A   1      42.558  30.954  30.801  1.00  0.00     0.074 A 
ATOM     40  C   UNL A   1      41.469  31.898  30.676  1.00  0.00     0.031 C 
ATOM     41  C   UNL A   1      40.292  25.749  27.791  1.00  0.00     0.029 A 
ATOM     42  C   UNL A   1      41.624  25.944  28.353  1.00  0.00     0.049 A 
ATOM     43  H   UNL A   1      42.377  27.659  29.267  1.00  0.00     0.167 HD
ATOM     44  C   UNL A   1      43.740  31.232  31.405  1.00  0.00     0.031 A 
ATOM     45  C   UNL A   1      42.605  25.021  28.365  1.00  0.00     0.031 A 
ATOM     46  C   UNL A   1      44.827  30.292  31.513  1.00  0.00     0.049 A 
ATOM     47  C   UNL A   1      43.915  25.354  29.023  1.00  0.00     0.074 A 
ATOM     48  C   UNL A   1      46.047  30.453  32.145  1.00  0.00     0.029 A 
ATOM     49  N   UNL A   1      44.828  29.017  30.964  1.00  0.00    -0.354 N 
ATOM     50  N   UNL A   1      44.275  26.457  29.635  1.00  0.00    -0.248 NA
ATOM     51  C   UNL A   1      44.943  24.307  29.005  1.00  0.00     0.031 C 
ATOM     52  C   UNL A   1      46.811  29.301  31.923  1.00  0.00     0.029 A 
ATOM     53  C   UNL A   1      46.039  28.392  31.215  1.00  0.00     0.049 A 
ATOM     54  H   UNL A   1      44.079  28.616  30.468  1.00  0.00     0.167 HD
ATOM     55  C   UNL A   1      45.562  26.224  30.107  1.00  0.00     0.074 A 
ATOM     56  C   UNL A   1      45.908  24.870  29.720  1.00  0.00     0.031 C 
ATOM     57  C   UNL A   1      46.379  27.050  30.807  1.00  0.00     0.031 A 
BRANCH  44  58
ATOM     58  C   UNL A   1      43.920  32.622  31.966  1.00  0.00    -0.014 A 
ATOM     59  C   UNL A   1      44.527  33.644  31.213  1.00  0.00     0.010 A 
ATOM     60  C   UNL A   1      43.483  32.910  33.273  1.00  0.00     0.010 A 
ATOM     61  C   UNL A   1      44.761  34.902  31.779  1.00  0.00     0.020 A 
ATOM     62  C   UNL A   1      43.681  34.177  33.830  1.00  0.00     0.020 A 
ATOM     63  C   UNL A   1      44.345  35.156  33.089  1.00  0.00     0.054 A 
BRANCH  63  64
ATOM     64  S   UNL A   1      44.688  36.784  33.809  1.00  0.00     0.124 S 
ATOM     65  O   UNL A   1      46.011  37.081  33.265  1.00  0.00    -0.237 OA
ATOM     66  O   UNL A   1      43.596  37.602  33.288  1.00  0.00    -0.237 OA
ATOM     67  O   UNL A   1      44.648  36.542  35.249  1.00  0.00    -0.744 OA
ENDBRANCH  63  64
ENDBRANCH  44  58
BRANCH  45  68
ATOM     68  C   UNL A   1      42.353  23.671  27.791  1.00  0.00    -0.014 A 
ATOM     69  C   UNL A   1      42.823  23.348  26.506  1.00  0.00     0.010 A 
ATOM     70  C   UNL A   1      41.675  22.689  28.537  1.00  0.00     0.010 A 
ATOM     71  C   UNL A   1      42.618  22.072  25.975  1.00  0.00     0.020 A 
ATOM     72  C   UNL A   1      41.493  21.402  28.021  1.00  0.00     0.020 A 
ATOM     73  C   UNL A   1      41.961  21.104  26.740  1.00  0.00     0.054 A 
BRANCH  73  74
ATOM     74  S   UNL A   1      41.773  19.433  26.058  1.00  0.00     0.124 S 
ATOM     75  O   UNL A   1      42.650  19.480  24.892  1.00  0.00    -0.237 OA
ATOM     76  O   UNL A   1      42.229  18.592  27.160  1.00  0.00    -0.237 OA
ATOM     77  O   UNL A   1      40.344  19.343  25.765  1.00  0.00    -0.744 OA
ENDBRANCH  73  74
ENDBRANCH  45  68
BRANCH  57  78
ATOM     78  C   UNL A   1      47.717  26.498  31.231  1.00  0.00    -0.014 A 
ATOM     79  C   UNL A   1      48.883  26.733  30.482  1.00  0.00     0.010 A 
ATOM     80  C   UNL A   1      47.805  25.738  32.413  1.00  0.00     0.010 A 
ATOM     81  C   UNL A   1      50.102  26.172  30.877  1.00  0.00     0.020 A 
ATOM     82  C   UNL A   1      49.027  25.206  32.830  1.00  0.00     0.020 A 
ATOM     83  C   UNL A   1      50.164  25.407  32.046  1.00  0.00     0.054 A 
BRANCH  83  84
ATOM     84  S   UNL A   1      51.757  24.695  32.539  1.00  0.00     0.124 S 
ATOM     85  O   UNL A   1      51.547  23.273  32.279  1.00  0.00    -0.237 OA
ATOM     86  O   UNL A   1      52.699  25.366  31.647  1.00  0.00    -0.237 OA
ATOM     87  O   UNL A   1      51.877  25.059  33.949  1.00  0.00    -0.744 OA
ENDBRANCH  83  84
ENDBRANCH  57  78
ENDBRANCH  31  32
ENDBRANCH  23  26
ENDBRANCH  21  22
ENDBRANCH  20  21
ENDBRANCH   1  20
TORSDOF 18
ENDMDL
MODEL 2
REMARK VINA RESULT:      -9.9      2.847      9.409
REMARK SMILES C[C@@H]1CC(=O)N(CC(C)(C)C(=O)NCCCCCCNC(=O)c2ccc(-c3c4nc(c(-c5ccc(S(=O)(=O)[O-])cc5)c5ccc([nH]5)c(-c5ccc(S(=O)(=O)[O-])cc5)c5nc(c(-c6ccc(S(=O)(=O)[O-])cc6)c6ccc3[nH]6)C=C5)C=C4)cc2)C1
REMARK SMILES IDX 17 1 16 2 15 3 14 4 13 5 11 6 12 7 8 9 9 10 10 11 7 12 6 13
REMARK SMILES IDX 1 14 2 15 3 16 83 17 4 18 5 19 18 20 19 21 20 22 21 23 22 25
REMARK SMILES IDX 23 26 24 27 82 28 25 29 81 30 26 31 27 32 28 33 75 34 29 35
REMARK SMILES IDX 80 36 74 37 76 38 30 39 79 40 73 41 72 42 31 44 61 45 42 46
REMARK SMILES IDX 60 47 43 48 46 49 59 50 77 51 44 52 45 53 58 55 78 56 47 57
REMARK SMILES IDX 32 58 33 59 41 60 34 61 40 62 35 63 36 64 37 65 38 66 39 67
REMARK SMILES IDX 62 68 63 69 71 70 64 71 70 72 65 73 66 74 67 75 68 76 69 77
REMARK SMILES IDX 48 78 49 79 57 80 50 81 56 82 51 83 52 84 53 85 54 86 55 87
REMARK H PARENT 13 8 20 24 76 43 46 54
REMARK Flexibility Score: inf
ROOT
ATOM      1  C   UNL A   1      34.629  22.765  24.675  1.00  0.00     0.002 C 
ENDROOT
BRANCH   1   2
ATOM      2  C   UNL A   1      34.521  21.307  25.130  1.00  0.00     0.002 C 
BRANCH   2   3
ATOM      3  C   UNL A   1      33.100  20.834  25.454  1.00  0.00     0.021 C 
BRANCH   3   4
ATOM      4  C   UNL A   1      32.001  21.777  24.975  1.00  0.00     0.116 C 
BRANCH   4   5
ATOM      5  N   UNL A   1      31.090  22.090  26.053  1.00  0.00    -0.356 N 
ATOM      6  C   UNL A   1      30.587  23.259  26.526  1.00  0.00     0.227 C 
ATOM      7  O   UNL A   1      29.948  23.152  27.576  1.00  0.00    -0.274 OA
ATOM      8  H   UNL A   1      30.769  21.298  26.542  1.00  0.00     0.163 HD
BRANCH   6   9
ATOM      9  C   UNL A   1      30.813  24.610  25.814  1.00  0.00     0.061 C 
ATOM     10  C   UNL A   1      29.589  25.535  25.958  1.00  0.00     0.023 C 
ATOM     11  C   UNL A   1      31.099  24.358  24.320  1.00  0.00     0.023 C 
BRANCH   9  12
ATOM     12  C   UNL A   1      32.085  25.321  26.396  1.00  0.00     0.135 C 
BRANCH  12  13
ATOM     13  N   UNL A   1      32.310  26.699  25.977  1.00  0.00    -0.341 N 
ATOM     14  C   UNL A   1      33.116  29.282  23.493  1.00  0.00     0.010 C 
ATOM     15  C   UNL A   1      32.324  28.406  24.440  1.00  0.00     0.015 C 
ATOM     16  C   UNL A   1      32.074  29.025  25.818  1.00  0.00     0.105 C 
ATOM     17  C   UNL A   1      33.026  27.108  24.796  1.00  0.00     0.123 C 
ATOM     18  C   UNL A   1      31.862  27.810  26.692  1.00  0.00     0.222 C 
ATOM     19  O   UNL A   1      31.427  27.832  27.835  1.00  0.00    -0.275 OA
ENDBRANCH  12  13
ENDBRANCH   9  12
ENDBRANCH   6   9
ENDBRANCH   4   5
ENDBRANCH   3   4
ENDBRANCH   2   3
ENDBRANCH   1   2
BRANCH   1  20
ATOM     20  C   UNL A   1      35.345  23.698  25.654  1.00  0.00     0.021 C 
BRANCH  20  21
ATOM     21  C   UNL A   1      36.760  24.087  25.241  1.00  0.00     0.116 C 
BRANCH  21  22
ATOM     22  N   UNL A   1      37.708  23.012  25.474  1.00  0.00    -0.352 N 
ATOM     23  C   UNL A   1      38.931  23.044  26.091  1.00  0.00     0.251 C 
ATOM     24  H   UNL A   1      37.430  22.128  25.139  1.00  0.00     0.163 HD
ATOM     25  O   UNL A   1      39.680  22.076  26.002  1.00  0.00    -0.269 OA
BRANCH  23  26
ATOM     26  C   UNL A   1      39.355  24.243  26.849  1.00  0.00     0.039 A 
ATOM     27  C   UNL A   1      40.125  25.208  26.196  1.00  0.00     0.014 A 
ATOM     28  C   UNL A   1      39.028  24.405  28.199  1.00  0.00     0.014 A 
ATOM     29  C   UNL A   1      40.537  26.348  26.888  1.00  0.00     0.010 A 
ATOM     30  C   UNL A   1      39.366  25.583  28.862  1.00  0.00     0.010 A 
ATOM     31  C   UNL A   1      40.141  26.559  28.220  1.00  0.00    -0.014 A 
BRANCH  31  32
ATOM     32  C   UNL A   1      40.544  27.794  28.938  1.00  0.00     0.031 A 
ATOM     33  C   UNL A   1      41.936  27.941  29.495  1.00  0.00     0.074 A 
ATOM     34  C   UNL A   1      39.647  28.785  29.100  1.00  0.00     0.049 A 
ATOM     35  N   UNL A   1      42.485  28.977  30.076  1.00  0.00    -0.248 NA
ATOM     36  C   UNL A   1      42.817  26.767  29.407  1.00  0.00     0.031 C 
ATOM     37  C   UNL A   1      38.254  28.746  28.646  1.00  0.00     0.029 A 
ATOM     38  N   UNL A   1      39.775  30.028  29.669  1.00  0.00    -0.354 N 
ATOM     39  C   UNL A   1      43.770  28.579  30.427  1.00  0.00     0.074 A 
ATOM     40  C   UNL A   1      43.894  27.187  30.055  1.00  0.00     0.031 C 
ATOM     41  C   UNL A   1      37.679  29.934  28.891  1.00  0.00     0.029 A 
ATOM     42  C   UNL A   1      38.645  30.802  29.556  1.00  0.00     0.049 A 
ATOM     43  H   UNL A   1      40.597  30.334  30.115  1.00  0.00     0.167 HD
ATOM     44  C   UNL A   1      44.766  29.308  30.989  1.00  0.00     0.031 A 
ATOM     45  C   UNL A   1      38.416  32.076  29.929  1.00  0.00     0.031 A 
ATOM     46  C   UNL A   1      44.632  30.690  31.371  1.00  0.00     0.049 A 
ATOM     47  C   UNL A   1      39.528  32.862  30.567  1.00  0.00     0.074 A 
ATOM     48  C   UNL A   1      45.590  31.535  31.902  1.00  0.00     0.029 A 
ATOM     49  N   UNL A   1      43.460  31.428  31.273  1.00  0.00    -0.354 N 
ATOM     50  N   UNL A   1      40.760  32.492  30.823  1.00  0.00    -0.248 NA
ATOM     51  C   UNL A   1      39.218  34.245  30.949  1.00  0.00     0.031 C 
ATOM     52  C   UNL A   1      44.981  32.763  32.187  1.00  0.00     0.029 A 
ATOM     53  C   UNL A   1      43.662  32.708  31.764  1.00  0.00     0.049 A 
ATOM     54  H   UNL A   1      42.610  31.091  30.910  1.00  0.00     0.167 HD
ATOM     55  C   UNL A   1      41.385  33.610  31.366  1.00  0.00     0.074 A 
ATOM     56  C   UNL A   1      40.396  34.670  31.386  1.00  0.00     0.031 C 
ATOM     57  C   UNL A   1      42.664  33.749  31.797  1.00  0.00     0.031 A 
BRANCH  44  58
ATOM     58  C   UNL A   1      46.077  28.603  31.246  1.00  0.00    -0.014 A 
ATOM     59  C   UNL A   1      46.334  27.957  32.470  1.00  0.00     0.010 A 
ATOM     60  C   UNL A   1      47.073  28.595  30.252  1.00  0.00     0.010 A 
ATOM     61  C   UNL A   1      47.584  27.383  32.723  1.00  0.00     0.020 A 
ATOM     62  C   UNL A   1      48.311  27.990  30.486  1.00  0.00     0.020 A 
ATOM     63  C   UNL A   1      48.569  27.414  31.731  1.00  0.00     0.054 A 
BRANCH  63  64
ATOM     64  S   UNL A   1      50.191  26.689  32.095  1.00  0.00     0.124 S 
ATOM     65  O   UNL A   1      49.974  25.283  31.761  1.00  0.00    -0.237 OA
ATOM     66  O   UNL A   1      51.078  27.419  31.193  1.00  0.00    -0.237 OA
ATOM     67  O   UNL A   1      50.385  26.968  33.515  1.00  0.00    -0.744 OA
ENDBRANCH  63  64
ENDBRANCH  44  58
BRANCH  45  68
ATOM     68  C   UNL A   1      37.097  32.702  29.641  1.00  0.00    -0.014 A 
ATOM     69  C   UNL A   1      36.137  32.833  30.661  1.00  0.00     0.010 A 
ATOM     70  C   UNL A   1      36.805  33.204  28.360  1.00  0.00     0.010 A 
ATOM     71  C   UNL A   1      34.910  33.449  30.405  1.00  0.00     0.020 A 
ATOM     72  C   UNL A   1      35.590  33.848  28.107  1.00  0.00     0.020 A 
ATOM     73  C   UNL A   1      34.647  33.960  29.131  1.00  0.00     0.054 A 
BRANCH  73  74
ATOM     74  S   UNL A   1      33.076  34.822  28.844  1.00  0.00     0.124 S 
ATOM     75  O   UNL A   1      32.378  33.897  27.959  1.00  0.00    -0.237 OA
ATOM     76  O   UNL A   1      32.533  34.941  30.194  1.00  0.00    -0.237 OA
ATOM     77  O   UNL A   1      33.487  36.085  28.234  1.00  0.00    -0.744 OA
ENDBRANCH  73  74
ENDBRANCH  45  68
BRANCH  57  78
ATOM     78  C   UNL A   1      43.076  35.112  32.296  1.00  0.00    -0.014 A 
ATOM     79  C   UNL A   1      42.917  35.484  33.642  1.00  0.00     0.010 A 
ATOM     80  C   UNL A   1      43.648  36.031  31.396  1.00  0.00     0.010 A 
ATOM     81  C   UNL A   1      43.268  36.769  34.067  1.00  0.00     0.020 A 
ATOM     82  C   UNL A   1      44.034  37.303  31.823  1.00  0.00     0.020 A 
ATOM     83  C   UNL A   1      43.819  37.672  33.152  1.00  0.00     0.054 A 
BRANCH  83  84
ATOM     84  S   UNL A   1      44.273  39.331  33.728  1.00  0.00     0.124 S 
ATOM     85  O   UNL A   1      45.192  39.774  32.683  1.00  0.00    -0.237 OA
ATOM     86  O   UNL A   1      42.985  40.020  33.768  1.00  0.00    -0.237 OA
ATOM     87  O   UNL A   1      44.883  39.090  35.034  1.00  0.00    -0.744 OA
ENDBRANCH  83  84
ENDBRANCH  57  78
ENDBRANCH  31  32
ENDBRANCH  23  26
ENDBRANCH  21  22
ENDBRANCH  20  21
ENDBRANCH   1  20
TORSDOF 18
ENDMDL
MODEL 3
REMARK VINA RESULT:      -9.6      3.754     10.518
REMARK SMILES C[C@@H]1CC(=O)N(CC(C)(C)C(=O)NCCCCCCNC(=O)c2ccc(-c3c4nc(c(-c5ccc(S(=O)(=O)[O-])cc5)c5ccc([nH]5)c(-c5ccc(S(=O)(=O)[O-])cc5)c5nc(c(-c6ccc(S(=O)(=O)[O-])cc6)c6ccc3[nH]6)C=C5)C=C4)cc2)C1
REMARK SMILES IDX 17 1 16 2 15 3 14 4 13 5 11 6 12 7 8 9 9 10 10 11 7 12 6 13
REMARK SMILES IDX 1 14 2 15 3 16 83 17 4 18 5 19 18 20 19 21 20 22 21 23 22 25
REMARK SMILES IDX 23 26 24 27 82 28 25 29 81 30 26 31 27 32 28 33 75 34 29 35
REMARK SMILES IDX 80 36 74 37 76 38 30 39 79 40 73 41 72 42 31 44 61 45 42 46
REMARK SMILES IDX 60 47 43 48 46 49 59 50 77 51 44 52 45 53 58 55 78 56 47 57
REMARK SMILES IDX 32 58 33 59 41 60 34 61 40 62 35 63 36 64 37 65 38 66 39 67
REMARK SMILES IDX 62 68 63 69 71 70 64 71 70 72 65 73 66 74 67 75 68 76 69 77
REMARK SMILES IDX 48 78 49 79 57 80 50 81 56 82 51 83 52 84 53 85 54 86 55 87
REMARK H PARENT 13 8 20 24 76 43 46 54
REMARK Flexibility Score: inf
ROOT
ATOM      1  C   UNL A   1      34.158  34.757  29.573  1.00  0.00     0.002 C 
ENDROOT
BRANCH   1   2
ATOM      2  C   UNL A   1      33.370  35.388  30.725  1.00  0.00     0.002 C 
BRANCH   2   3
ATOM      3  C   UNL A   1      33.765  34.899  32.123  1.00  0.00     0.021 C 
BRANCH   3   4
ATOM      4  C   UNL A   1      35.189  35.259  32.533  1.00  0.00     0.116 C 
BRANCH   4   5
ATOM      5  N   UNL A   1      35.446  34.856  33.898  1.00  0.00    -0.356 N 
ATOM      6  C   UNL A   1      36.066  33.778  34.441  1.00  0.00     0.227 C 
ATOM      7  O   UNL A   1      35.957  33.690  35.667  1.00  0.00    -0.274 OA
ATOM      8  H   UNL A   1      35.102  35.491  34.568  1.00  0.00     0.163 HD
BRANCH   6   9
ATOM      9  C   UNL A   1      36.829  32.740  33.590  1.00  0.00     0.061 C 
ATOM     10  C   UNL A   1      37.877  33.414  32.684  1.00  0.00     0.023 C 
ATOM     11  C   UNL A   1      35.824  31.955  32.723  1.00  0.00     0.023 C 
BRANCH   9  12
ATOM     12  C   UNL A   1      37.530  31.689  34.519  1.00  0.00     0.135 C 
BRANCH  12  13
ATOM     13  N   UNL A   1      38.601  30.902  33.921  1.00  0.00    -0.341 N 
ATOM     14  C   UNL A   1      42.133  30.092  33.319  1.00  0.00     0.010 C 
ATOM     15  C   UNL A   1      40.721  30.022  33.863  1.00  0.00     0.015 C 
ATOM     16  C   UNL A   1      39.799  29.057  33.112  1.00  0.00     0.105 C 
ATOM     17  C   UNL A   1      39.966  31.334  33.758  1.00  0.00     0.123 C 
ATOM     18  C   UNL A   1      38.426  29.616  33.410  1.00  0.00     0.222 C 
ATOM     19  O   UNL A   1      37.369  29.044  33.183  1.00  0.00    -0.275 OA
ENDBRANCH  12  13
ENDBRANCH   9  12
ENDBRANCH   6   9
ENDBRANCH   4   5
ENDBRANCH   3   4
ENDBRANCH   2   3
ENDBRANCH   1   2
BRANCH   1  20
ATOM     20  C   UNL A   1      34.318  33.237  29.653  1.00  0.00     0.021 C 
BRANCH  20  21
ATOM     21  C   UNL A   1      34.718  32.570  28.342  1.00  0.00     0.116 C 
BRANCH  21  22
ATOM     22  N   UNL A   1      34.020  31.314  28.138  1.00  0.00    -0.352 N 
ATOM     23  C   UNL A   1      34.526  30.049  27.982  1.00  0.00     0.251 C 
ATOM     24  H   UNL A   1      33.039  31.380  28.106  1.00  0.00     0.163 HD
ATOM     25  O   UNL A   1      33.787  29.144  27.606  1.00  0.00    -0.269 OA
BRANCH  23  26
ATOM     26  C   UNL A   1      35.956  29.778  28.251  1.00  0.00     0.039 A 
ATOM     27  C   UNL A   1      36.869  29.910  27.204  1.00  0.00     0.014 A 
ATOM     28  C   UNL A   1      36.394  29.363  29.514  1.00  0.00     0.014 A 
ATOM     29  C   UNL A   1      38.223  29.660  27.432  1.00  0.00     0.010 A 
ATOM     30  C   UNL A   1      37.755  29.198  29.760  1.00  0.00     0.010 A 
ATOM     31  C   UNL A   1      38.683  29.325  28.717  1.00  0.00    -0.014 A 
BRANCH  31  32
ATOM     32  C   UNL A   1      40.130  29.103  28.965  1.00  0.00     0.031 A 
ATOM     33  C   UNL A   1      40.777  27.788  28.620  1.00  0.00     0.074 A 
ATOM     34  C   UNL A   1      40.864  30.090  29.515  1.00  0.00     0.049 A 
ATOM     35  N   UNL A   1      42.039  27.447  28.691  1.00  0.00    -0.248 NA
ATOM     36  C   UNL A   1      39.890  26.710  28.156  1.00  0.00     0.031 C 
ATOM     37  C   UNL A   1      40.345  31.395  29.934  1.00  0.00     0.029 A 
ATOM     38  N   UNL A   1      42.205  30.161  29.794  1.00  0.00    -0.354 N 
ATOM     39  C   UNL A   1      42.096  26.117  28.288  1.00  0.00     0.074 A 
ATOM     40  C   UNL A   1      40.735  25.696  28.040  1.00  0.00     0.031 C 
ATOM     41  C   UNL A   1      41.367  32.159  30.352  1.00  0.00     0.029 A 
ATOM     42  C   UNL A   1      42.602  31.388  30.271  1.00  0.00     0.049 A 
ATOM     43  H   UNL A   1      42.824  29.406  29.667  1.00  0.00     0.167 HD
ATOM     44  C   UNL A   1      43.182  25.323  28.118  1.00  0.00     0.031 A 
ATOM     45  C   UNL A   1      43.827  31.849  30.589  1.00  0.00     0.031 A 
ATOM     46  C   UNL A   1      44.533  25.744  28.381  1.00  0.00     0.049 A 
ATOM     47  C   UNL A   1      45.017  30.947  30.412  1.00  0.00     0.074 A 
ATOM     48  C   UNL A   1      45.709  25.038  28.197  1.00  0.00     0.029 A 
ATOM     49  N   UNL A   1      44.891  26.983  28.896  1.00  0.00    -0.354 N 
ATOM     50  N   UNL A   1      45.060  29.716  29.959  1.00  0.00    -0.248 NA
ATOM     51  C   UNL A   1      46.324  31.506  30.774  1.00  0.00     0.031 C 
ATOM     52  C   UNL A   1      46.770  25.824  28.663  1.00  0.00     0.029 A 
ATOM     53  C   UNL A   1      46.264  27.050  29.068  1.00  0.00     0.049 A 
ATOM     54  H   UNL A   1      44.260  27.708  29.111  1.00  0.00     0.167 HD
ATOM     55  C   UNL A   1      46.406  29.365  29.948  1.00  0.00     0.074 A 
ATOM     56  C   UNL A   1      47.141  30.520  30.427  1.00  0.00     0.031 C 
ATOM     57  C   UNL A   1      46.982  28.198  29.565  1.00  0.00     0.031 A 
BRANCH  44  58
ATOM     58  C   UNL A   1      42.936  23.908  27.651  1.00  0.00    -0.014 A 
ATOM     59  C   UNL A   1      42.891  23.585  26.282  1.00  0.00     0.010 A 
ATOM     60  C   UNL A   1      42.738  22.885  28.597  1.00  0.00     0.010 A 
ATOM     61  C   UNL A   1      42.579  22.286  25.868  1.00  0.00     0.020 A 
ATOM     62  C   UNL A   1      42.463  21.577  28.188  1.00  0.00     0.020 A 
ATOM     63  C   UNL A   1      42.356  21.292  26.826  1.00  0.00     0.054 A 
BRANCH  63  64
ATOM     64  S   UNL A   1      41.923  19.624  26.262  1.00  0.00     0.124 S 
ATOM     65  O   UNL A   1      40.482  19.740  26.057  1.00  0.00    -0.237 OA
ATOM     66  O   UNL A   1      42.721  19.478  25.048  1.00  0.00    -0.237 OA
ATOM     67  O   UNL A   1      42.325  18.767  27.375  1.00  0.00    -0.744 OA
ENDBRANCH  63  64
ENDBRANCH  44  58
BRANCH  45  68
ATOM     68  C   UNL A   1      43.990  33.257  31.044  1.00  0.00    -0.014 A 
ATOM     69  C   UNL A   1      44.317  34.266  30.121  1.00  0.00     0.010 A 
ATOM     70  C   UNL A   1      43.783  33.604  32.391  1.00  0.00     0.010 A 
ATOM     71  C   UNL A   1      44.438  35.594  30.536  1.00  0.00     0.020 A 
ATOM     72  C   UNL A   1      43.874  34.936  32.805  1.00  0.00     0.020 A 
ATOM     73  C   UNL A   1      44.208  35.923  31.875  1.00  0.00     0.054 A 
BRANCH  73  74
ATOM     74  S   UNL A   1      44.298  37.665  32.374  1.00  0.00     0.124 S 
ATOM     75  O   UNL A   1      43.473  37.681  33.577  1.00  0.00    -0.237 OA
ATOM     76  O   UNL A   1      45.730  37.857  32.585  1.00  0.00    -0.237 OA
ATOM     77  O   UNL A   1      43.745  38.378  31.224  1.00  0.00    -0.744 OA
ENDBRANCH  73  74
ENDBRANCH  45  68
BRANCH  57  78
ATOM     78  C   UNL A   1      48.488  28.126  29.615  1.00  0.00    -0.014 A 
ATOM     79  C   UNL A   1      49.284  28.549  28.536  1.00  0.00     0.010 A 
ATOM     80  C   UNL A   1      49.115  27.635  30.776  1.00  0.00     0.010 A 
ATOM     81  C   UNL A   1      50.675  28.429  28.595  1.00  0.00     0.020 A 
ATOM     82  C   UNL A   1      50.506  27.547  30.852  1.00  0.00     0.020 A 
ATOM     83  C   UNL A   1      51.278  27.924  29.751  1.00  0.00     0.054 A 
BRANCH  83  84
ATOM     84  S   UNL A   1      53.085  27.784  29.806  1.00  0.00     0.124 S 
ATOM     85  O   UNL A   1      53.482  28.524  28.611  1.00  0.00    -0.237 OA
ATOM     86  O   UNL A   1      53.417  28.419  31.079  1.00  0.00    -0.237 OA
ATOM     87  O   UNL A   1      53.323  26.343  29.756  1.00  0.00    -0.744 OA
ENDBRANCH  83  84
ENDBRANCH  57  78
ENDBRANCH  31  32
ENDBRANCH  23  26
ENDBRANCH  21  22
ENDBRANCH  20  21
ENDBRANCH   1  20
TORSDOF 18
ENDMDL
