MODEL 1
REMARK VINA RESULT:     -10.8      0.000      0.000
REMARK SMILES O=C(N[C@@H]1C=C[C@@H](C(=O)NCCCCCCNC(=O)c2ccc(-c3c4nc(c(-c5ccc(S(=O)(=O)[O-])cc5)c5ccc([nH]5)c(-c5ccc(S(=O)(=O)[O-])cc5)c5nc(c(-c6ccc(S(=O)(=O)[O-])cc6)c6ccc3[nH]6)C=C5)C=C4)cc2)C1)N[C@H]1CCCc2sccc21
REMARK SMILES IDX 14 1 13 2 12 3 11 4 10 5 8 6 9 7 7 9 4 10 5 11 80 12 6 13
REMARK SMILES IDX 3 14 1 15 2 16 81 17 82 20 83 21 90 22 84 23 86 24 89 25
REMARK SMILES IDX 85 26 87 27 88 28 15 29 16 30 17 31 18 32 19 34 20 35 21 36
REMARK SMILES IDX 79 37 22 38 78 39 23 40 24 41 25 42 72 43 26 44 77 45 71 46
REMARK SMILES IDX 73 47 27 48 76 49 70 50 69 51 28 53 58 54 39 55 57 56 40 57
REMARK SMILES IDX 43 58 56 59 74 60 41 61 42 62 55 64 75 65 44 66 29 67 30 68
REMARK SMILES IDX 38 69 31 70 37 71 32 72 33 73 34 74 35 75 36 76 59 77 60 78
REMARK SMILES IDX 68 79 61 80 67 81 62 82 63 83 64 84 65 85 66 86 45 87 46 88
REMARK SMILES IDX 54 89 47 90 53 91 48 92 49 93 50 94 51 95 52 96
REMARK H PARENT 10 8 3 18 81 19 17 33 73 52 43 63
REMARK Flexibility Score: inf
ROOT
ATOM      1  C   UNL A   1      40.618  22.442  26.787  1.00  0.00     0.002 C 
ENDROOT
BRANCH   1   2
ATOM      2  C   UNL A   1      39.415  23.267  27.259  1.00  0.00     0.002 C 
BRANCH   2   3
ATOM      3  C   UNL A   1      38.750  24.119  26.173  1.00  0.00     0.021 C 
BRANCH   3   4
ATOM      4  C   UNL A   1      37.405  23.576  25.698  1.00  0.00     0.116 C 
BRANCH   4   5
ATOM      5  N   UNL A   1      37.477  22.156  25.420  1.00  0.00    -0.356 N 
ATOM      6  C   UNL A   1      36.496  21.233  25.235  1.00  0.00     0.227 C 
ATOM      7  O   UNL A   1      36.853  20.073  25.001  1.00  0.00    -0.274 OA
ATOM      8  H   UNL A   1      38.391  21.798  25.355  1.00  0.00     0.163 HD
BRANCH   6   9
ATOM      9  C   UNL A   1      35.004  21.581  25.289  1.00  0.00     0.103 C 
ATOM     10  C   UNL A   1      33.816  23.639  25.983  1.00  0.00     0.107 C 
ATOM     11  C   UNL A   1      33.878  23.485  24.496  1.00  0.00    -0.006 C 
ATOM     12  C   UNL A   1      34.555  22.393  26.513  1.00  0.00     0.047 C 
ATOM     13  C   UNL A   1      34.531  22.381  24.117  1.00  0.00    -0.016 C 
BRANCH  10  14
ATOM     14  N   UNL A   1      32.425  23.640  26.368  1.00  0.00    -0.332 N 
ATOM     15  O   UNL A   1      30.387  24.351  26.872  1.00  0.00    -0.249 OA
ATOM     16  C   UNL A   1      31.541  24.644  26.573  1.00  0.00     0.315 C 
ATOM     17  N   UNL A   1      31.974  25.918  26.421  1.00  0.00    -0.331 N 
ATOM     18  H   UNL A   1      32.049  22.742  26.509  1.00  0.00     0.165 HD
ATOM     19  H   UNL A   1      32.936  26.082  26.285  1.00  0.00     0.166 HD
BRANCH  17  20
ATOM     20  C   UNL A   1      31.060  27.054  26.453  1.00  0.00     0.115 C 
ATOM     21  C   UNL A   1      31.572  28.160  27.413  1.00  0.00     0.030 C 
ATOM     22  C   UNL A   1      30.917  27.511  25.029  1.00  0.00    -0.012 A 
ATOM     23  C   UNL A   1      31.792  29.563  26.807  1.00  0.00     0.008 C 
ATOM     24  C   UNL A   1      31.534  28.647  24.552  1.00  0.00     0.010 A 
ATOM     25  C   UNL A   1      30.142  26.878  24.006  1.00  0.00     0.018 A 
ATOM     26  C   UNL A   1      32.379  29.543  25.393  1.00  0.00     0.047 C 
ATOM     27  S   UNL A   1      31.197  28.953  22.917  1.00  0.00    -0.149 S 
ATOM     28  C   UNL A   1      30.195  27.568  22.814  1.00  0.00     0.065 A 
ENDBRANCH  17  20
ENDBRANCH  10  14
ENDBRANCH   6   9
ENDBRANCH   4   5
ENDBRANCH   3   4
ENDBRANCH   2   3
ENDBRANCH   1   2
BRANCH   1  29
ATOM     29  C   UNL A   1      40.323  20.966  26.510  1.00  0.00     0.021 C 
BRANCH  29  30
ATOM     30  C   UNL A   1      41.285  19.991  27.179  1.00  0.00     0.116 C 
BRANCH  30  31
ATOM     31  N   UNL A   1      42.099  19.277  26.208  1.00  0.00    -0.352 N 
ATOM     32  C   UNL A   1      43.093  19.754  25.391  1.00  0.00     0.251 C 
ATOM     33  H   UNL A   1      41.910  18.314  26.124  1.00  0.00     0.163 HD
ATOM     34  O   UNL A   1      43.530  19.055  24.480  1.00  0.00    -0.269 OA
BRANCH  32  35
ATOM     35  C   UNL A   1      43.618  21.120  25.598  1.00  0.00     0.039 A 
ATOM     36  C   UNL A   1      43.455  22.070  24.588  1.00  0.00     0.014 A 
ATOM     37  C   UNL A   1      44.259  21.463  26.792  1.00  0.00     0.014 A 
ATOM     38  C   UNL A   1      43.871  23.386  24.806  1.00  0.00     0.010 A 
ATOM     39  C   UNL A   1      44.606  22.789  27.034  1.00  0.00     0.010 A 
ATOM     40  C   UNL A   1      44.411  23.765  26.045  1.00  0.00    -0.014 A 
BRANCH  40  41
ATOM     41  C   UNL A   1      44.748  25.182  26.339  1.00  0.00     0.031 A 
ATOM     42  C   UNL A   1      46.162  25.674  26.189  1.00  0.00     0.074 A 
ATOM     43  C   UNL A   1      43.791  26.007  26.809  1.00  0.00     0.049 A 
ATOM     44  N   UNL A   1      46.656  26.855  26.462  1.00  0.00    -0.248 NA
ATOM     45  C   UNL A   1      47.154  24.710  25.686  1.00  0.00     0.031 C 
ATOM     46  C   UNL A   1      42.390  25.640  27.031  1.00  0.00     0.029 A 
ATOM     47  N   UNL A   1      43.852  27.324  27.192  1.00  0.00    -0.354 N 
ATOM     48  C   UNL A   1      48.013  26.773  26.178  1.00  0.00     0.074 A 
ATOM     49  C   UNL A   1      48.276  25.413  25.759  1.00  0.00     0.031 C 
ATOM     50  C   UNL A   1      41.720  26.712  27.483  1.00  0.00     0.029 A 
ATOM     51  C   UNL A   1      42.650  27.826  27.634  1.00  0.00     0.049 A 
ATOM     52  H   UNL A   1      44.677  27.858  27.155  1.00  0.00     0.167 HD
ATOM     53  C   UNL A   1      48.954  27.746  26.241  1.00  0.00     0.031 A 
ATOM     54  C   UNL A   1      42.331  29.042  28.120  1.00  0.00     0.031 A 
ATOM     55  C   UNL A   1      48.687  29.098  26.659  1.00  0.00     0.049 A 
ATOM     56  C   UNL A   1      43.402  30.094  28.221  1.00  0.00     0.074 A 
ATOM     57  C   UNL A   1      49.561  30.169  26.709  1.00  0.00     0.029 A 
ATOM     58  N   UNL A   1      47.459  29.563  27.108  1.00  0.00    -0.354 N 
ATOM     59  N   UNL A   1      44.666  30.016  27.878  1.00  0.00    -0.248 NA
ATOM     60  C   UNL A   1      43.002  31.399  28.766  1.00  0.00     0.031 C 
ATOM     61  C   UNL A   1      48.880  31.265  27.249  1.00  0.00     0.029 A 
ATOM     62  C   UNL A   1      47.562  30.896  27.470  1.00  0.00     0.049 A 
ATOM     63  H   UNL A   1      46.637  29.025  27.161  1.00  0.00     0.167 HD
ATOM     64  C   UNL A   1      45.206  31.270  28.146  1.00  0.00     0.074 A 
ATOM     65  C   UNL A   1      44.128  32.090  28.658  1.00  0.00     0.031 C 
ATOM     66  C   UNL A   1      46.481  31.701  27.982  1.00  0.00     0.031 A 
BRANCH  53  67
ATOM     67  C   UNL A   1      50.365  27.381  25.860  1.00  0.00    -0.014 A 
ATOM     68  C   UNL A   1      50.804  27.463  24.526  1.00  0.00     0.010 A 
ATOM     69  C   UNL A   1      51.282  26.998  26.857  1.00  0.00     0.010 A 
ATOM     70  C   UNL A   1      52.118  27.129  24.189  1.00  0.00     0.020 A 
ATOM     71  C   UNL A   1      52.606  26.692  26.530  1.00  0.00     0.020 A 
ATOM     72  C   UNL A   1      53.011  26.744  25.194  1.00  0.00     0.054 A 
BRANCH  72  73
ATOM     73  S   UNL A   1      54.716  26.337  24.730  1.00  0.00     0.124 S 
ATOM     74  O   UNL A   1      54.775  24.907  25.026  1.00  0.00    -0.237 OA
ATOM     75  O   UNL A   1      54.752  26.685  23.312  1.00  0.00    -0.237 OA
ATOM     76  O   UNL A   1      55.526  27.185  25.599  1.00  0.00    -0.744 OA
ENDBRANCH  72  73
ENDBRANCH  53  67
BRANCH  54  77
ATOM     77  C   UNL A   1      40.933  29.329  28.549  1.00  0.00    -0.014 A 
ATOM     78  C   UNL A   1      39.889  29.365  27.609  1.00  0.00     0.010 A 
ATOM     79  C   UNL A   1      40.638  29.558  29.907  1.00  0.00     0.010 A 
ATOM     80  C   UNL A   1      38.580  29.640  28.013  1.00  0.00     0.020 A 
ATOM     81  C   UNL A   1      39.325  29.803  30.319  1.00  0.00     0.020 A 
ATOM     82  C   UNL A   1      38.306  29.854  29.367  1.00  0.00     0.054 A 
BRANCH  82  83
ATOM     83  S   UNL A   1      36.590  30.158  29.875  1.00  0.00     0.124 S 
ATOM     84  O   UNL A   1      36.599  31.596  30.129  1.00  0.00    -0.237 OA
ATOM     85  O   UNL A   1      35.835  29.727  28.702  1.00  0.00    -0.237 OA
ATOM     86  O   UNL A   1      36.428  29.314  31.056  1.00  0.00    -0.744 OA
ENDBRANCH  82  83
ENDBRANCH  54  77
BRANCH  66  87
ATOM     87  C   UNL A   1      46.784  33.133  28.338  1.00  0.00    -0.014 A 
ATOM     88  C   UNL A   1      47.252  33.483  29.617  1.00  0.00     0.010 A 
ATOM     89  C   UNL A   1      46.662  34.133  27.355  1.00  0.00     0.010 A 
ATOM     90  C   UNL A   1      47.572  34.812  29.912  1.00  0.00     0.020 A 
ATOM     91  C   UNL A   1      47.009  35.456  27.637  1.00  0.00     0.020 A 
ATOM     92  C   UNL A   1      47.453  35.789  28.918  1.00  0.00     0.054 A 
BRANCH  92  93
ATOM     93  S   UNL A   1      47.934  37.493  29.312  1.00  0.00     0.124 S 
ATOM     94  O   UNL A   1      46.649  38.106  29.632  1.00  0.00    -0.237 OA
ATOM     95  O   UNL A   1      48.846  37.315  30.440  1.00  0.00    -0.237 OA
ATOM     96  O   UNL A   1      48.562  37.969  28.082  1.00  0.00    -0.744 OA
ENDBRANCH  92  93
ENDBRANCH  66  87
ENDBRANCH  40  41
ENDBRANCH  32  35
ENDBRANCH  30  31
ENDBRANCH  29  30
ENDBRANCH   1  29
TORSDOF 18
ENDMDL
MODEL 2
REMARK VINA RESULT:     -10.7      6.967     12.348
REMARK SMILES O=C(N[C@@H]1C=C[C@@H](C(=O)NCCCCCCNC(=O)c2ccc(-c3c4nc(c(-c5ccc(S(=O)(=O)[O-])cc5)c5ccc([nH]5)c(-c5ccc(S(=O)(=O)[O-])cc5)c5nc(c(-c6ccc(S(=O)(=O)[O-])cc6)c6ccc3[nH]6)C=C5)C=C4)cc2)C1)N[C@H]1CCCc2sccc21
REMARK SMILES IDX 14 1 13 2 12 3 11 4 10 5 8 6 9 7 7 9 4 10 5 11 80 12 6 13
REMARK SMILES IDX 3 14 1 15 2 16 81 17 82 20 83 21 90 22 84 23 86 24 89 25
REMARK SMILES IDX 85 26 87 27 88 28 15 29 16 30 17 31 18 32 19 34 20 35 21 36
REMARK SMILES IDX 79 37 22 38 78 39 23 40 24 41 25 42 72 43 26 44 77 45 71 46
REMARK SMILES IDX 73 47 27 48 76 49 70 50 69 51 28 53 58 54 39 55 57 56 40 57
REMARK SMILES IDX 43 58 56 59 74 60 41 61 42 62 55 64 75 65 44 66 29 67 30 68
REMARK SMILES IDX 38 69 31 70 37 71 32 72 33 73 34 74 35 75 36 76 59 77 60 78
REMARK SMILES IDX 68 79 61 80 67 81 62 82 63 83 64 84 65 85 66 86 45 87 46 88
REMARK SMILES IDX 54 89 47 90 53 91 48 92 49 93 50 94 51 95 52 96
REMARK H PARENT 10 8 3 18 81 19 17 33 73 52 43 63
REMARK Flexibility Score: inf
ROOT
ATOM      1  C   UNL A   1      35.529  32.698  29.048  1.00  0.00     0.002 C 
ENDROOT
BRANCH   1   2
ATOM      2  C   UNL A   1      35.817  31.872  27.790  1.00  0.00     0.002 C 
BRANCH   2   3
ATOM      3  C   UNL A   1      36.306  30.444  28.051  1.00  0.00     0.021 C 
BRANCH   3   4
ATOM      4  C   UNL A   1      35.357  29.362  27.540  1.00  0.00     0.116 C 
BRANCH   4   5
ATOM      5  N   UNL A   1      33.975  29.703  27.805  1.00  0.00    -0.356 N 
ATOM      6  C   UNL A   1      32.882  29.690  26.997  1.00  0.00     0.227 C 
ATOM      7  O   UNL A   1      31.805  30.029  27.501  1.00  0.00    -0.274 OA
ATOM      8  H   UNL A   1      33.796  29.996  28.728  1.00  0.00     0.163 HD
BRANCH   6   9
ATOM      9  C   UNL A   1      32.940  29.262  25.525  1.00  0.00     0.103 C 
ATOM     10  C   UNL A   1      32.213  27.191  24.383  1.00  0.00     0.107 C 
ATOM     11  C   UNL A   1      31.264  28.328  24.168  1.00  0.00    -0.006 C 
ATOM     12  C   UNL A   1      33.316  27.794  25.275  1.00  0.00     0.047 C 
ATOM     13  C   UNL A   1      31.647  29.446  24.796  1.00  0.00    -0.016 C 
BRANCH  10  14
ATOM     14  N   UNL A   1      32.725  26.795  23.091  1.00  0.00    -0.332 N 
ATOM     15  O   UNL A   1      33.792  25.663  21.514  1.00  0.00    -0.249 OA
ATOM     16  C   UNL A   1      33.538  25.785  22.709  1.00  0.00     0.315 C 
ATOM     17  N   UNL A   1      34.016  24.952  23.664  1.00  0.00    -0.331 N 
ATOM     18  H   UNL A   1      32.425  27.370  22.351  1.00  0.00     0.165 HD
ATOM     19  H   UNL A   1      33.858  25.171  24.611  1.00  0.00     0.166 HD
BRANCH  17  20
ATOM     20  C   UNL A   1      34.757  23.740  23.333  1.00  0.00     0.115 C 
ATOM     21  C   UNL A   1      35.961  23.538  24.290  1.00  0.00     0.030 C 
ATOM     22  C   UNL A   1      33.758  22.619  23.374  1.00  0.00    -0.012 A 
ATOM     23  C   UNL A   1      36.005  22.215  25.084  1.00  0.00     0.008 C 
ATOM     24  C   UNL A   1      33.706  21.715  24.414  1.00  0.00     0.010 A 
ATOM     25  C   UNL A   1      32.771  22.321  22.383  1.00  0.00     0.018 A 
ATOM     26  C   UNL A   1      34.636  21.741  25.578  1.00  0.00     0.047 C 
ATOM     27  S   UNL A   1      32.502  20.536  24.211  1.00  0.00    -0.149 S 
ATOM     28  C   UNL A   1      32.030  21.205  22.707  1.00  0.00     0.065 A 
ENDBRANCH  17  20
ENDBRANCH  10  14
ENDBRANCH   6   9
ENDBRANCH   4   5
ENDBRANCH   3   4
ENDBRANCH   2   3
ENDBRANCH   1   2
BRANCH   1  29
ATOM     29  C   UNL A   1      34.090  33.207  29.174  1.00  0.00     0.021 C 
BRANCH  29  30
ATOM     30  C   UNL A   1      33.954  34.725  29.180  1.00  0.00     0.116 C 
BRANCH  30  31
ATOM     31  N   UNL A   1      33.054  35.187  30.225  1.00  0.00    -0.352 N 
ATOM     32  C   UNL A   1      33.131  34.997  31.583  1.00  0.00     0.251 C 
ATOM     33  H   UNL A   1      32.279  35.710  29.915  1.00  0.00     0.163 HD
ATOM     34  O   UNL A   1      32.171  35.276  32.298  1.00  0.00    -0.269 OA
BRANCH  32  35
ATOM     35  C   UNL A   1      34.363  34.437  32.175  1.00  0.00     0.039 A 
ATOM     36  C   UNL A   1      34.359  33.116  32.625  1.00  0.00     0.014 A 
ATOM     37  C   UNL A   1      35.522  35.212  32.273  1.00  0.00     0.014 A 
ATOM     38  C   UNL A   1      35.540  32.548  33.109  1.00  0.00     0.010 A 
ATOM     39  C   UNL A   1      36.714  34.624  32.687  1.00  0.00     0.010 A 
ATOM     40  C   UNL A   1      36.737  33.285  33.104  1.00  0.00    -0.014 A 
BRANCH  40  41
ATOM     41  C   UNL A   1      38.027  32.663  33.500  1.00  0.00     0.031 A 
ATOM     42  C   UNL A   1      38.615  32.932  34.859  1.00  0.00     0.074 A 
ATOM     43  C   UNL A   1      38.702  31.912  32.608  1.00  0.00     0.049 A 
ATOM     44  N   UNL A   1      39.758  32.534  35.354  1.00  0.00    -0.248 NA
ATOM     45  C   UNL A   1      37.826  33.775  35.772  1.00  0.00     0.031 C 
ATOM     46  C   UNL A   1      38.254  31.606  31.247  1.00  0.00     0.029 A 
ATOM     47  N   UNL A   1      39.914  31.274  32.708  1.00  0.00    -0.354 N 
ATOM     48  C   UNL A   1      39.832  33.085  36.627  1.00  0.00     0.074 A 
ATOM     49  C   UNL A   1      38.643  33.887  36.810  1.00  0.00     0.031 C 
ATOM     50  C   UNL A   1      39.163  30.818  30.650  1.00  0.00     0.029 A 
ATOM     51  C   UNL A   1      40.281  30.605  31.563  1.00  0.00     0.049 A 
ATOM     52  H   UNL A   1      40.468  31.294  33.521  1.00  0.00     0.167 HD
ATOM     53  C   UNL A   1      40.795  32.923  37.567  1.00  0.00     0.031 A 
ATOM     54  C   UNL A   1      41.399  29.910  31.272  1.00  0.00     0.031 A 
ATOM     55  C   UNL A   1      41.977  32.123  37.380  1.00  0.00     0.049 A 
ATOM     56  C   UNL A   1      42.473  29.779  32.318  1.00  0.00     0.074 A 
ATOM     57  C   UNL A   1      42.986  31.856  38.289  1.00  0.00     0.029 A 
ATOM     58  N   UNL A   1      42.316  31.471  36.204  1.00  0.00    -0.354 N 
ATOM     59  N   UNL A   1      42.490  30.250  33.542  1.00  0.00    -0.248 NA
ATOM     60  C   UNL A   1      43.674  29.018  31.945  1.00  0.00     0.031 C 
ATOM     61  C   UNL A   1      43.966  31.096  37.643  1.00  0.00     0.029 A 
ATOM     62  C   UNL A   1      43.536  30.831  36.352  1.00  0.00     0.049 A 
ATOM     63  H   UNL A   1      41.771  31.463  35.384  1.00  0.00     0.167 HD
ATOM     64  C   UNL A   1      43.693  29.822  34.093  1.00  0.00     0.074 A 
ATOM     65  C   UNL A   1      44.365  29.039  33.076  1.00  0.00     0.031 C 
ATOM     66  C   UNL A   1      44.196  30.057  35.330  1.00  0.00     0.031 A 
BRANCH  53  67
ATOM     67  C   UNL A   1      40.615  33.635  38.883  1.00  0.00    -0.014 A 
ATOM     68  C   UNL A   1      39.882  33.052  39.933  1.00  0.00     0.010 A 
ATOM     69  C   UNL A   1      41.229  34.885  39.092  1.00  0.00     0.010 A 
ATOM     70  C   UNL A   1      39.731  33.722  41.150  1.00  0.00     0.020 A 
ATOM     71  C   UNL A   1      41.106  35.545  40.318  1.00  0.00     0.020 A 
ATOM     72  C   UNL A   1      40.343  34.966  41.334  1.00  0.00     0.054 A 
BRANCH  72  73
ATOM     73  S   UNL A   1      40.147  35.801  42.931  1.00  0.00     0.124 S 
ATOM     74  O   UNL A   1      38.697  35.773  43.109  1.00  0.00    -0.237 OA
ATOM     75  O   UNL A   1      40.907  34.942  43.836  1.00  0.00    -0.237 OA
ATOM     76  O   UNL A   1      40.719  37.125  42.705  1.00  0.00    -0.744 OA
ENDBRANCH  72  73
ENDBRANCH  53  67
BRANCH  54  77
ATOM     77  C   UNL A   1      41.558  29.284  29.930  1.00  0.00    -0.014 A 
ATOM     78  C   UNL A   1      42.150  29.997  28.873  1.00  0.00     0.010 A 
ATOM     79  C   UNL A   1      41.127  27.963  29.705  1.00  0.00     0.010 A 
ATOM     80  C   UNL A   1      42.292  29.409  27.613  1.00  0.00     0.020 A 
ATOM     81  C   UNL A   1      41.296  27.360  28.456  1.00  0.00     0.020 A 
ATOM     82  C   UNL A   1      41.868  28.092  27.413  1.00  0.00     0.054 A 
BRANCH  82  83
ATOM     83  S   UNL A   1      42.110  27.332  25.784  1.00  0.00     0.124 S 
ATOM     84  O   UNL A   1      42.126  28.497  24.904  1.00  0.00    -0.237 OA
ATOM     85  O   UNL A   1      43.387  26.643  25.946  1.00  0.00    -0.237 OA
ATOM     86  O   UNL A   1      40.952  26.454  25.640  1.00  0.00    -0.744 OA
ENDBRANCH  82  83
ENDBRANCH  54  77
BRANCH  66  87
ATOM     87  C   UNL A   1      45.529  29.443  35.669  1.00  0.00    -0.014 A 
ATOM     88  C   UNL A   1      45.620  28.145  36.202  1.00  0.00     0.010 A 
ATOM     89  C   UNL A   1      46.712  30.152  35.386  1.00  0.00     0.010 A 
ATOM     90  C   UNL A   1      46.869  27.576  36.466  1.00  0.00     0.020 A 
ATOM     91  C   UNL A   1      47.962  29.575  35.620  1.00  0.00     0.020 A 
ATOM     92  C   UNL A   1      48.033  28.293  36.168  1.00  0.00     0.054 A 
BRANCH  92  93
ATOM     93  S   UNL A   1      49.639  27.505  36.463  1.00  0.00     0.124 S 
ATOM     94  O   UNL A   1      49.894  27.846  37.859  1.00  0.00    -0.237 OA
ATOM     95  O   UNL A   1      49.357  26.096  36.200  1.00  0.00    -0.237 OA
ATOM     96  O   UNL A   1      50.524  28.147  35.494  1.00  0.00    -0.744 OA
ENDBRANCH  92  93
ENDBRANCH  66  87
ENDBRANCH  40  41
ENDBRANCH  32  35
ENDBRANCH  30  31
ENDBRANCH  29  30
ENDBRANCH   1  29
TORSDOF 18
ENDMDL
MODEL 3
REMARK VINA RESULT:     -10.7      0.604      8.014
REMARK SMILES O=C(N[C@@H]1C=C[C@@H](C(=O)NCCCCCCNC(=O)c2ccc(-c3c4nc(c(-c5ccc(S(=O)(=O)[O-])cc5)c5ccc([nH]5)c(-c5ccc(S(=O)(=O)[O-])cc5)c5nc(c(-c6ccc(S(=O)(=O)[O-])cc6)c6ccc3[nH]6)C=C5)C=C4)cc2)C1)N[C@H]1CCCc2sccc21
REMARK SMILES IDX 14 1 13 2 12 3 11 4 10 5 8 6 9 7 7 9 4 10 5 11 80 12 6 13
REMARK SMILES IDX 3 14 1 15 2 16 81 17 82 20 83 21 90 22 84 23 86 24 89 25
REMARK SMILES IDX 85 26 87 27 88 28 15 29 16 30 17 31 18 32 19 34 20 35 21 36
REMARK SMILES IDX 79 37 22 38 78 39 23 40 24 41 25 42 72 43 26 44 77 45 71 46
REMARK SMILES IDX 73 47 27 48 76 49 70 50 69 51 28 53 58 54 39 55 57 56 40 57
REMARK SMILES IDX 43 58 56 59 74 60 41 61 42 62 55 64 75 65 44 66 29 67 30 68
REMARK SMILES IDX 38 69 31 70 37 71 32 72 33 73 34 74 35 75 36 76 59 77 60 78
REMARK SMILES IDX 68 79 61 80 67 81 62 82 63 83 64 84 65 85 66 86 45 87 46 88
REMARK SMILES IDX 54 89 47 90 53 91 48 92 49 93 50 94 51 95 52 96
REMARK H PARENT 10 8 3 18 81 19 17 33 73 52 43 63
REMARK Flexibility Score: inf
ROOT
ATOM      1  C   UNL A   1      40.938  22.529  26.531  1.00  0.00     0.002 C 
ENDROOT
BRANCH   1   2
ATOM      2  C   UNL A   1      39.726  23.127  27.252  1.00  0.00     0.002 C 
BRANCH   2   3
ATOM      3  C   UNL A   1      38.953  24.181  26.452  1.00  0.00     0.021 C 
BRANCH   3   4
ATOM      4  C   UNL A   1      37.625  23.679  25.890  1.00  0.00     0.116 C 
BRANCH   4   5
ATOM      5  N   UNL A   1      37.696  22.276  25.538  1.00  0.00    -0.356 N 
ATOM      6  C   UNL A   1      36.717  21.377  25.252  1.00  0.00     0.227 C 
ATOM      7  O   UNL A   1      37.073  20.227  24.972  1.00  0.00    -0.274 OA
ATOM      8  H   UNL A   1      38.609  21.910  25.500  1.00  0.00     0.163 HD
BRANCH   6   9
ATOM      9  C   UNL A   1      35.227  21.741  25.250  1.00  0.00     0.103 C 
ATOM     10  C   UNL A   1      34.015  23.723  26.101  1.00  0.00     0.107 C 
ATOM     11  C   UNL A   1      34.173  23.743  24.613  1.00  0.00    -0.006 C 
ATOM     12  C   UNL A   1      34.706  22.413  26.528  1.00  0.00     0.047 C 
ATOM     13  C   UNL A   1      34.841  22.679  24.150  1.00  0.00    -0.016 C 
BRANCH  10  14
ATOM     14  N   UNL A   1      32.600  23.703  26.392  1.00  0.00    -0.332 N 
ATOM     15  O   UNL A   1      30.528  24.383  26.783  1.00  0.00    -0.249 OA
ATOM     16  C   UNL A   1      31.697  24.694  26.570  1.00  0.00     0.315 C 
ATOM     17  N   UNL A   1      32.128  25.975  26.491  1.00  0.00    -0.331 N 
ATOM     18  H   UNL A   1      32.223  22.798  26.477  1.00  0.00     0.165 HD
ATOM     19  H   UNL A   1      33.095  26.149  26.425  1.00  0.00     0.166 HD
BRANCH  17  20
ATOM     20  C   UNL A   1      31.205  27.104  26.501  1.00  0.00     0.115 C 
ATOM     21  C   UNL A   1      31.705  28.232  27.439  1.00  0.00     0.030 C 
ATOM     22  C   UNL A   1      31.059  27.532  25.067  1.00  0.00    -0.012 A 
ATOM     23  C   UNL A   1      31.914  29.625  26.807  1.00  0.00     0.008 C 
ATOM     24  C   UNL A   1      31.667  28.664  24.570  1.00  0.00     0.010 A 
ATOM     25  C   UNL A   1      30.291  26.873  24.056  1.00  0.00     0.018 A 
ATOM     26  C   UNL A   1      32.503  29.583  25.394  1.00  0.00     0.047 C 
ATOM     27  S   UNL A   1      31.329  28.936  22.929  1.00  0.00    -0.149 S 
ATOM     28  C   UNL A   1      30.340  27.541  22.851  1.00  0.00     0.065 A 
ENDBRANCH  17  20
ENDBRANCH  10  14
ENDBRANCH   6   9
ENDBRANCH   4   5
ENDBRANCH   3   4
ENDBRANCH   2   3
ENDBRANCH   1   2
BRANCH   1  29
ATOM     29  C   UNL A   1      40.825  21.037  26.201  1.00  0.00     0.021 C 
BRANCH  29  30
ATOM     30  C   UNL A   1      41.928  20.171  26.799  1.00  0.00     0.116 C 
BRANCH  30  31
ATOM     31  N   UNL A   1      42.746  19.546  25.771  1.00  0.00    -0.352 N 
ATOM     32  C   UNL A   1      43.733  20.098  24.993  1.00  0.00     0.251 C 
ATOM     33  H   UNL A   1      42.567  18.591  25.611  1.00  0.00     0.163 HD
ATOM     34  O   UNL A   1      44.174  19.478  24.028  1.00  0.00    -0.269 OA
BRANCH  32  35
ATOM     35  C   UNL A   1      44.244  21.449  25.308  1.00  0.00     0.039 A 
ATOM     36  C   UNL A   1      43.976  22.497  24.426  1.00  0.00     0.014 A 
ATOM     37  C   UNL A   1      44.974  21.678  26.477  1.00  0.00     0.014 A 
ATOM     38  C   UNL A   1      44.380  23.794  24.754  1.00  0.00     0.010 A 
ATOM     39  C   UNL A   1      45.313  22.980  26.836  1.00  0.00     0.010 A 
ATOM     40  C   UNL A   1      45.014  24.052  25.981  1.00  0.00    -0.014 A 
BRANCH  40  41
ATOM     41  C   UNL A   1      45.344  25.438  26.402  1.00  0.00     0.031 A 
ATOM     42  C   UNL A   1      44.267  26.353  26.918  1.00  0.00     0.074 A 
ATOM     43  C   UNL A   1      46.603  25.894  26.251  1.00  0.00     0.049 A 
ATOM     44  N   UNL A   1      44.353  27.611  27.267  1.00  0.00    -0.248 NA
ATOM     45  C   UNL A   1      42.913  25.788  27.038  1.00  0.00     0.031 C 
ATOM     46  C   UNL A   1      47.730  25.116  25.730  1.00  0.00     0.029 A 
ATOM     47  N   UNL A   1      47.149  27.126  26.516  1.00  0.00    -0.354 N 
ATOM     48  C   UNL A   1      43.069  27.991  27.635  1.00  0.00     0.074 A 
ATOM     49  C   UNL A   1      42.211  26.846  27.419  1.00  0.00     0.031 C 
ATOM     50  C   UNL A   1      48.835  25.878  25.740  1.00  0.00     0.029 A 
ATOM     51  C   UNL A   1      48.488  27.213  26.217  1.00  0.00     0.049 A 
ATOM     52  H   UNL A   1      46.630  27.877  26.885  1.00  0.00     0.167 HD
ATOM     53  C   UNL A   1      42.643  29.180  28.127  1.00  0.00     0.031 A 
ATOM     54  C   UNL A   1      49.342  28.252  26.301  1.00  0.00     0.031 A 
ATOM     55  C   UNL A   1      43.501  30.317  28.339  1.00  0.00     0.049 A 
ATOM     56  C   UNL A   1      48.837  29.575  26.811  1.00  0.00     0.074 A 
ATOM     57  C   UNL A   1      43.176  31.548  28.879  1.00  0.00     0.029 A 
ATOM     58  N   UNL A   1      44.848  30.366  28.014  1.00  0.00    -0.354 N 
ATOM     59  N   UNL A   1      47.633  29.892  27.222  1.00  0.00    -0.248 NA
ATOM     60  C   UNL A   1      49.808  30.677  26.874  1.00  0.00     0.031 C 
ATOM     61  C   UNL A   1      44.310  32.364  28.822  1.00  0.00     0.029 A 
ATOM     62  C   UNL A   1      45.360  31.619  28.309  1.00  0.00     0.049 A 
ATOM     63  H   UNL A   1      45.365  29.621  27.630  1.00  0.00     0.167 HD
ATOM     64  C   UNL A   1      47.707  31.225  27.614  1.00  0.00     0.074 A 
ATOM     65  C   UNL A   1      49.079  31.645  27.410  1.00  0.00     0.031 C 
ATOM     66  C   UNL A   1      46.728  32.026  28.098  1.00  0.00     0.031 A 
BRANCH  53  67
ATOM     67  C   UNL A   1      41.179  29.317  28.458  1.00  0.00    -0.014 A 
ATOM     68  C   UNL A   1      40.747  29.494  29.785  1.00  0.00     0.010 A 
ATOM     69  C   UNL A   1      40.225  29.318  27.424  1.00  0.00     0.010 A 
ATOM     70  C   UNL A   1      39.387  29.628  30.076  1.00  0.00     0.020 A 
ATOM     71  C   UNL A   1      38.866  29.482  27.707  1.00  0.00     0.020 A 
ATOM     72  C   UNL A   1      38.454  29.619  29.034  1.00  0.00     0.054 A 
BRANCH  72  73
ATOM     73  S   UNL A   1      36.698  29.816  29.440  1.00  0.00     0.124 S 
ATOM     74  O   UNL A   1      36.601  31.256  29.666  1.00  0.00    -0.237 OA
ATOM     75  O   UNL A   1      36.035  29.325  28.235  1.00  0.00    -0.237 OA
ATOM     76  O   UNL A   1      36.520  28.987  30.629  1.00  0.00    -0.744 OA
ENDBRANCH  72  73
ENDBRANCH  53  67
BRANCH  54  77
ATOM     77  C   UNL A   1      50.765  28.082  25.894  1.00  0.00    -0.014 A 
ATOM     78  C   UNL A   1      51.143  28.207  24.545  1.00  0.00     0.010 A 
ATOM     79  C   UNL A   1      51.754  27.806  26.857  1.00  0.00     0.010 A 
ATOM     80  C   UNL A   1      52.477  28.041  24.165  1.00  0.00     0.020 A 
ATOM     81  C   UNL A   1      53.094  27.671  26.484  1.00  0.00     0.020 A 
ATOM     82  C   UNL A   1      53.446  27.778  25.138  1.00  0.00     0.054 A 
BRANCH  82  83
ATOM     83  S   UNL A   1      55.179  27.618  24.626  1.00  0.00     0.124 S 
ATOM     84  O   UNL A   1      55.804  27.080  25.831  1.00  0.00    -0.237 OA
ATOM     85  O   UNL A   1      55.089  26.699  23.495  1.00  0.00    -0.237 OA
ATOM     86  O   UNL A   1      55.561  28.985  24.279  1.00  0.00    -0.744 OA
ENDBRANCH  82  83
ENDBRANCH  54  77
BRANCH  66  87
ATOM     87  C   UNL A   1      47.101  33.438  28.468  1.00  0.00    -0.014 A 
ATOM     88  C   UNL A   1      47.590  33.752  29.748  1.00  0.00     0.010 A 
ATOM     89  C   UNL A   1      47.026  34.454  27.495  1.00  0.00     0.010 A 
ATOM     90  C   UNL A   1      47.975  35.060  30.056  1.00  0.00     0.020 A 
ATOM     91  C   UNL A   1      47.439  35.755  27.790  1.00  0.00     0.020 A 
ATOM     92  C   UNL A   1      47.902  36.052  29.073  1.00  0.00     0.054 A 
BRANCH  92  93
ATOM     93  S   UNL A   1      48.467  37.726  29.482  1.00  0.00     0.124 S 
ATOM     94  O   UNL A   1      48.835  38.252  28.172  1.00  0.00    -0.237 OA
ATOM     95  O   UNL A   1      47.280  38.324  30.090  1.00  0.00    -0.237 OA
ATOM     96  O   UNL A   1      49.582  37.502  30.399  1.00  0.00    -0.744 OA
ENDBRANCH  92  93
ENDBRANCH  66  87
ENDBRANCH  40  41
ENDBRANCH  32  35
ENDBRANCH  30  31
ENDBRANCH  29  30
ENDBRANCH   1  29
TORSDOF 18
ENDMDL
