MODEL 1
REMARK VINA RESULT:     -10.1      0.000      0.000
REMARK SMILES CC(C)(C[NH+]1CCC(C(N)=S)CC1)C(=O)NCCCCCCNC(=O)c1ccc(-c2c3nc(c(-c4ccc(S(=O)(=O)[O-])cc4)c4ccc([nH]4)c(-c4ccc(S(=O)(=O)[O-])cc4)c4nc(c(-c5ccc(S(=O)(=O)[O-])cc5)c5ccc2[nH]5)C=C4)C=C3)cc1
REMARK SMILES IDX 19 1 18 2 17 3 16 4 14 5 15 6 2 8 1 9 3 10 4 11 5 12 6 13
REMARK SMILES IDX 13 14 7 16 12 17 8 18 9 19 11 20 10 21 20 24 21 25 22 26
REMARK SMILES IDX 23 27 24 28 25 30 26 31 27 32 85 33 28 34 84 35 29 36 30 37
REMARK SMILES IDX 31 38 78 39 32 40 83 41 77 42 79 43 33 44 82 45 76 46 75 47
REMARK SMILES IDX 34 49 64 50 45 51 63 52 46 53 49 54 62 55 80 56 47 57 48 58
REMARK SMILES IDX 61 60 81 61 50 62 35 63 36 64 44 65 37 66 43 67 38 68 39 69
REMARK SMILES IDX 40 70 41 71 42 72 65 73 66 74 74 75 67 76 73 77 68 78 69 79
REMARK SMILES IDX 70 80 71 81 72 82 51 83 52 84 60 85 53 86 59 87 54 88 55 89
REMARK SMILES IDX 56 90 57 91 58 92
REMARK H PARENT 16 7 5 15 10 22 10 23 23 29 79 48 49 59
REMARK Flexibility Score: inf
ROOT
ATOM      1  C   UNL A   1      33.480  27.159  22.596  1.00  0.00     0.002 C 
ENDROOT
BRANCH   1   2
ATOM      2  C   UNL A   1      33.125  25.769  22.060  1.00  0.00     0.021 C 
BRANCH   2   3
ATOM      3  C   UNL A   1      31.674  25.344  22.283  1.00  0.00     0.116 C 
BRANCH   3   4
ATOM      4  N   UNL A   1      31.520  24.458  23.420  1.00  0.00    -0.355 N 
ATOM      5  C   UNL A   1      30.794  24.534  24.564  1.00  0.00     0.231 C 
ATOM      6  O   UNL A   1      30.853  23.539  25.296  1.00  0.00    -0.274 OA
ATOM      7  H   UNL A   1      32.050  23.632  23.347  1.00  0.00     0.163 HD
BRANCH   5   8
ATOM      8  C   UNL A   1      29.937  25.757  24.949  1.00  0.00     0.092 C 
ATOM      9  C   UNL A   1      30.867  26.836  25.553  1.00  0.00     0.027 C 
ATOM     10  C   UNL A   1      28.992  25.346  26.103  1.00  0.00     0.027 C 
BRANCH   8  11
ATOM     11  C   UNL A   1      29.117  26.355  23.757  1.00  0.00     0.278 C 
BRANCH  11  12
ATOM     12  N   UNL A   1      29.078  27.801  23.458  1.00  0.00    -0.334 N 
ATOM     13  C   UNL A   1      30.064  28.234  22.465  1.00  0.00     0.262 C 
ATOM     14  C   UNL A   1      27.737  28.346  23.253  1.00  0.00     0.262 C 
ATOM     15  H   UNL A   1      29.387  28.239  24.326  1.00  0.00     0.348 HD
ATOM     16  C   UNL A   1      30.078  29.755  22.272  1.00  0.00     0.072 C 
ATOM     17  C   UNL A   1      27.742  29.867  23.112  1.00  0.00     0.072 C 
ATOM     18  C   UNL A   1      28.669  30.261  21.962  1.00  0.00     0.058 C 
BRANCH  18  19
ATOM     19  C   UNL A   1      28.586  31.743  21.637  1.00  0.00     0.076 C 
ATOM     20  S   UNL A   1      27.861  32.403  20.289  1.00  0.00    -0.066 S 
BRANCH  19  21
ATOM     21  N   UNL A   1      29.198  32.571  22.536  1.00  0.00    -0.393 N 
ATOM     22  H   UNL A   1      29.450  33.485  22.272  1.00  0.00     0.157 HD
ATOM     23  H   UNL A   1      29.387  32.253  23.449  1.00  0.00     0.157 HD
ENDBRANCH  19  21
ENDBRANCH  18  19
ENDBRANCH  11  12
ENDBRANCH   8  11
ENDBRANCH   5   8
ENDBRANCH   3   4
ENDBRANCH   2   3
ENDBRANCH   1   2
BRANCH   1  24
ATOM     24  C   UNL A   1      33.976  27.190  24.044  1.00  0.00     0.002 C 
BRANCH  24  25
ATOM     25  C   UNL A   1      33.889  28.552  24.734  1.00  0.00     0.021 C 
BRANCH  25  26
ATOM     26  C   UNL A   1      34.078  28.515  26.244  1.00  0.00     0.116 C 
BRANCH  26  27
ATOM     27  N   UNL A   1      33.756  29.788  26.864  1.00  0.00    -0.352 N 
ATOM     28  C   UNL A   1      34.474  30.500  27.792  1.00  0.00     0.251 C 
ATOM     29  H   UNL A   1      32.907  30.196  26.579  1.00  0.00     0.163 HD
ATOM     30  O   UNL A   1      33.957  31.454  28.364  1.00  0.00    -0.269 OA
BRANCH  28  31
ATOM     31  C   UNL A   1      35.864  30.103  28.110  1.00  0.00     0.039 A 
ATOM     32  C   UNL A   1      36.142  29.570  29.371  1.00  0.00     0.014 A 
ATOM     33  C   UNL A   1      36.893  30.276  27.180  1.00  0.00     0.014 A 
ATOM     34  C   UNL A   1      37.446  29.180  29.686  1.00  0.00     0.010 A 
ATOM     35  C   UNL A   1      38.176  29.818  27.467  1.00  0.00     0.010 A 
ATOM     36  C   UNL A   1      38.471  29.287  28.731  1.00  0.00    -0.014 A 
BRANCH  36  37
ATOM     37  C   UNL A   1      39.867  28.895  29.055  1.00  0.00     0.031 A 
ATOM     38  C   UNL A   1      40.781  29.880  29.737  1.00  0.00     0.074 A 
ATOM     39  C   UNL A   1      40.326  27.677  28.705  1.00  0.00     0.049 A 
ATOM     40  N   UNL A   1      42.042  29.749  30.062  1.00  0.00    -0.248 NA
ATOM     41  C   UNL A   1      40.209  31.194  30.079  1.00  0.00     0.031 C 
ATOM     42  C   UNL A   1      39.548  26.644  28.014  1.00  0.00     0.029 A 
ATOM     43  N   UNL A   1      41.558  27.100  28.883  1.00  0.00    -0.354 N 
ATOM     44  C   UNL A   1      42.414  30.962  30.631  1.00  0.00     0.074 A 
ATOM     45  C   UNL A   1      41.267  31.836  30.553  1.00  0.00     0.031 C 
ATOM     46  C   UNL A   1      40.313  25.551  27.856  1.00  0.00     0.029 A 
ATOM     47  C   UNL A   1      41.643  25.817  28.396  1.00  0.00     0.049 A 
ATOM     48  H   UNL A   1      42.311  27.563  29.318  1.00  0.00     0.167 HD
ATOM     49  C   UNL A   1      43.597  31.310  31.191  1.00  0.00     0.031 A 
ATOM     50  C   UNL A   1      42.677  24.952  28.385  1.00  0.00     0.031 A 
ATOM     51  C   UNL A   1      44.734  30.433  31.281  1.00  0.00     0.049 A 
ATOM     52  C   UNL A   1      43.986  25.368  29.002  1.00  0.00     0.074 A 
ATOM     53  C   UNL A   1      45.966  30.677  31.863  1.00  0.00     0.029 A 
ATOM     54  N   UNL A   1      44.775  29.140  30.783  1.00  0.00    -0.354 N 
ATOM     55  N   UNL A   1      44.304  26.504  29.575  1.00  0.00    -0.248 NA
ATOM     56  C   UNL A   1      45.071  24.377  28.984  1.00  0.00     0.031 C 
ATOM     57  C   UNL A   1      46.768  29.548  31.675  1.00  0.00     0.029 A 
ATOM     58  C   UNL A   1      46.016  28.578  31.033  1.00  0.00     0.049 A 
ATOM     59  H   UNL A   1      44.033  28.688  30.320  1.00  0.00     0.167 HD
ATOM     60  C   UNL A   1      45.612  26.349  30.021  1.00  0.00     0.074 A 
ATOM     61  C   UNL A   1      46.021  25.008  29.661  1.00  0.00     0.031 C 
ATOM     62  C   UNL A   1      46.402  27.235  30.678  1.00  0.00     0.031 A 
BRANCH  49  63
ATOM     63  C   UNL A   1      43.718  32.702  31.756  1.00  0.00    -0.014 A 
ATOM     64  C   UNL A   1      43.418  32.965  33.106  1.00  0.00     0.010 A 
ATOM     65  C   UNL A   1      44.176  33.753  30.941  1.00  0.00     0.010 A 
ATOM     66  C   UNL A   1      43.534  34.259  33.619  1.00  0.00     0.020 A 
ATOM     67  C   UNL A   1      44.323  35.044  31.459  1.00  0.00     0.020 A 
ATOM     68  C   UNL A   1      43.985  35.291  32.791  1.00  0.00     0.054 A 
BRANCH  68  69
ATOM     69  S   UNL A   1      44.154  36.955  33.492  1.00  0.00     0.124 S 
ATOM     70  O   UNL A   1      45.324  36.802  34.353  1.00  0.00    -0.237 OA
ATOM     71  O   UNL A   1      44.353  37.783  32.305  1.00  0.00    -0.237 OA
ATOM     72  O   UNL A   1      42.889  37.168  34.191  1.00  0.00    -0.744 OA
ENDBRANCH  68  69
ENDBRANCH  49  63
BRANCH  50  73
ATOM     73  C   UNL A   1      42.513  23.596  27.792  1.00  0.00    -0.014 A 
ATOM     74  C   UNL A   1      42.072  22.519  28.582  1.00  0.00     0.010 A 
ATOM     75  C   UNL A   1      42.808  23.371  26.435  1.00  0.00     0.010 A 
ATOM     76  C   UNL A   1      41.958  21.238  28.034  1.00  0.00     0.020 A 
ATOM     77  C   UNL A   1      42.666  22.097  25.877  1.00  0.00     0.020 A 
ATOM     78  C   UNL A   1      42.259  21.034  26.685  1.00  0.00     0.054 A 
BRANCH  78  79
ATOM     79  S   UNL A   1      42.077  19.368  25.988  1.00  0.00     0.124 S 
ATOM     80  O   UNL A   1      42.936  19.439  24.809  1.00  0.00    -0.237 OA
ATOM     81  O   UNL A   1      42.559  18.519  27.074  1.00  0.00    -0.237 OA
ATOM     82  O   UNL A   1      40.645  19.268  25.716  1.00  0.00    -0.744 OA
ENDBRANCH  78  79
ENDBRANCH  50  73
BRANCH  62  83
ATOM     83  C   UNL A   1      47.769  26.767  31.102  1.00  0.00    -0.014 A 
ATOM     84  C   UNL A   1      47.972  26.097  32.321  1.00  0.00     0.010 A 
ATOM     85  C   UNL A   1      48.861  26.960  30.235  1.00  0.00     0.010 A 
ATOM     86  C   UNL A   1      49.251  25.661  32.681  1.00  0.00     0.020 A 
ATOM     87  C   UNL A   1      50.133  26.499  30.578  1.00  0.00     0.020 A 
ATOM     88  C   UNL A   1      50.323  25.866  31.807  1.00  0.00     0.054 A 
BRANCH  88  89
ATOM     89  S   UNL A   1      51.965  25.259  32.282  1.00  0.00     0.124 S 
ATOM     90  O   UNL A   1      52.185  25.941  33.555  1.00  0.00    -0.237 OA
ATOM     91  O   UNL A   1      51.759  23.816  32.370  1.00  0.00    -0.237 OA
ATOM     92  O   UNL A   1      52.826  25.694  31.185  1.00  0.00    -0.744 OA
ENDBRANCH  88  89
ENDBRANCH  62  83
ENDBRANCH  36  37
ENDBRANCH  28  31
ENDBRANCH  26  27
ENDBRANCH  25  26
ENDBRANCH  24  25
ENDBRANCH   1  24
TORSDOF 20
ENDMDL
MODEL 2
REMARK VINA RESULT:      -9.6      3.581      5.374
REMARK SMILES CC(C)(C[NH+]1CCC(C(N)=S)CC1)C(=O)NCCCCCCNC(=O)c1ccc(-c2c3nc(c(-c4ccc(S(=O)(=O)[O-])cc4)c4ccc([nH]4)c(-c4ccc(S(=O)(=O)[O-])cc4)c4nc(c(-c5ccc(S(=O)(=O)[O-])cc5)c5ccc2[nH]5)C=C4)C=C3)cc1
REMARK SMILES IDX 19 1 18 2 17 3 16 4 14 5 15 6 2 8 1 9 3 10 4 11 5 12 6 13
REMARK SMILES IDX 13 14 7 16 12 17 8 18 9 19 11 20 10 21 20 24 21 25 22 26
REMARK SMILES IDX 23 27 24 28 25 30 26 31 27 32 85 33 28 34 84 35 29 36 30 37
REMARK SMILES IDX 31 38 78 39 32 40 83 41 77 42 79 43 33 44 82 45 76 46 75 47
REMARK SMILES IDX 34 49 64 50 45 51 63 52 46 53 49 54 62 55 80 56 47 57 48 58
REMARK SMILES IDX 61 60 81 61 50 62 35 63 36 64 44 65 37 66 43 67 38 68 39 69
REMARK SMILES IDX 40 70 41 71 42 72 65 73 66 74 74 75 67 76 73 77 68 78 69 79
REMARK SMILES IDX 70 80 71 81 72 82 51 83 52 84 60 85 53 86 59 87 54 88 55 89
REMARK SMILES IDX 56 90 57 91 58 92
REMARK H PARENT 16 7 5 15 10 22 10 23 23 29 79 48 49 59
REMARK Flexibility Score: inf
ROOT
ATOM      1  C   UNL A   1      31.095  27.602  25.562  1.00  0.00     0.002 C 
ENDROOT
BRANCH   1   2
ATOM      2  C   UNL A   1      30.327  26.320  25.900  1.00  0.00     0.021 C 
BRANCH   2   3
ATOM      3  C   UNL A   1      30.962  25.033  25.375  1.00  0.00     0.116 C 
BRANCH   3   4
ATOM      4  N   UNL A   1      32.117  24.624  26.150  1.00  0.00    -0.355 N 
ATOM      5  C   UNL A   1      33.405  24.353  25.822  1.00  0.00     0.231 C 
ATOM      6  O   UNL A   1      34.151  24.092  26.774  1.00  0.00    -0.274 OA
ATOM      7  H   UNL A   1      31.928  24.524  27.111  1.00  0.00     0.163 HD
BRANCH   5   8
ATOM      8  C   UNL A   1      33.937  24.367  24.374  1.00  0.00     0.092 C 
ATOM      9  C   UNL A   1      35.483  24.356  24.419  1.00  0.00     0.027 C 
ATOM     10  C   UNL A   1      33.560  25.723  23.731  1.00  0.00     0.027 C 
BRANCH   8  11
ATOM     11  C   UNL A   1      33.412  23.182  23.497  1.00  0.00     0.278 C 
BRANCH  11  12
ATOM     12  N   UNL A   1      33.188  21.825  24.035  1.00  0.00    -0.334 N 
ATOM     13  C   UNL A   1      32.506  20.918  23.110  1.00  0.00     0.262 C 
ATOM     14  C   UNL A   1      34.344  21.238  24.711  1.00  0.00     0.262 C 
ATOM     15  H   UNL A   1      32.516  21.968  24.788  1.00  0.00     0.348 HD
ATOM     16  C   UNL A   1      32.181  19.561  23.745  1.00  0.00     0.072 C 
ATOM     17  C   UNL A   1      34.010  19.911  25.389  1.00  0.00     0.072 C 
ATOM     18  C   UNL A   1      33.443  18.945  24.350  1.00  0.00     0.058 C 
BRANCH  18  19
ATOM     19  C   UNL A   1      33.258  17.542  24.906  1.00  0.00     0.076 C 
ATOM     20  S   UNL A   1      33.401  16.127  24.038  1.00  0.00    -0.066 S 
BRANCH  19  21
ATOM     21  N   UNL A   1      32.916  17.481  26.228  1.00  0.00    -0.393 N 
ATOM     22  H   UNL A   1      32.420  18.223  26.643  1.00  0.00     0.157 HD
ATOM     23  H   UNL A   1      33.166  16.695  26.766  1.00  0.00     0.157 HD
ENDBRANCH  19  21
ENDBRANCH  18  19
ENDBRANCH  11  12
ENDBRANCH   8  11
ENDBRANCH   5   8
ENDBRANCH   3   4
ENDBRANCH   2   3
ENDBRANCH   1   2
BRANCH   1  24
ATOM     24  C   UNL A   1      31.832  28.246  26.740  1.00  0.00     0.002 C 
BRANCH  24  25
ATOM     25  C   UNL A   1      33.335  27.967  26.797  1.00  0.00     0.021 C 
BRANCH  25  26
ATOM     26  C   UNL A   1      34.208  29.044  26.166  1.00  0.00     0.116 C 
BRANCH  26  27
ATOM     27  N   UNL A   1      33.822  30.376  26.595  1.00  0.00    -0.352 N 
ATOM     28  C   UNL A   1      34.344  31.139  27.610  1.00  0.00     0.251 C 
ATOM     29  H   UNL A   1      33.085  30.789  26.089  1.00  0.00     0.163 HD
ATOM     30  O   UNL A   1      33.763  32.157  27.971  1.00  0.00    -0.269 OA
BRANCH  28  31
ATOM     31  C   UNL A   1      35.599  30.720  28.274  1.00  0.00     0.039 A 
ATOM     32  C   UNL A   1      35.544  29.732  29.260  1.00  0.00     0.014 A 
ATOM     33  C   UNL A   1      36.821  31.314  27.945  1.00  0.00     0.014 A 
ATOM     34  C   UNL A   1      36.719  29.317  29.891  1.00  0.00     0.010 A 
ATOM     35  C   UNL A   1      38.000  30.847  28.520  1.00  0.00     0.010 A 
ATOM     36  C   UNL A   1      37.959  29.860  29.515  1.00  0.00    -0.014 A 
BRANCH  36  37
ATOM     37  C   UNL A   1      39.216  29.445  30.188  1.00  0.00     0.031 A 
ATOM     38  C   UNL A   1      39.659  30.147  31.446  1.00  0.00     0.074 A 
ATOM     39  C   UNL A   1      39.978  28.469  29.655  1.00  0.00     0.049 A 
ATOM     40  N   UNL A   1      40.743  29.965  32.155  1.00  0.00    -0.248 NA
ATOM     41  C   UNL A   1      38.778  31.209  31.961  1.00  0.00     0.031 C 
ATOM     42  C   UNL A   1      39.673  27.731  28.425  1.00  0.00     0.029 A 
ATOM     43  N   UNL A   1      41.165  27.928  30.080  1.00  0.00    -0.354 N 
ATOM     44  C   UNL A   1      40.681  30.895  33.187  1.00  0.00     0.074 A 
ATOM     45  C   UNL A   1      39.485  31.679  32.979  1.00  0.00     0.031 C 
ATOM     46  C   UNL A   1      40.632  26.815  28.214  1.00  0.00     0.029 A 
ATOM     47  C   UNL A   1      41.638  26.924  29.267  1.00  0.00     0.049 A 
ATOM     48  H   UNL A   1      41.635  28.230  30.890  1.00  0.00     0.167 HD
ATOM     49  C   UNL A   1      41.528  31.067  34.230  1.00  0.00     0.031 A 
ATOM     50  C   UNL A   1      42.756  26.177  29.358  1.00  0.00     0.031 A 
ATOM     51  C   UNL A   1      42.711  30.276  34.443  1.00  0.00     0.049 A 
ATOM     52  C   UNL A   1      43.690  26.396  30.519  1.00  0.00     0.074 A 
ATOM     53  C   UNL A   1      43.615  30.345  35.488  1.00  0.00     0.029 A 
ATOM     54  N   UNL A   1      43.148  29.265  33.601  1.00  0.00    -0.354 N 
ATOM     55  N   UNL A   1      43.589  27.251  31.509  1.00  0.00    -0.248 NA
ATOM     56  C   UNL A   1      44.880  25.537  30.583  1.00  0.00     0.031 C 
ATOM     57  C   UNL A   1      44.626  29.407  35.253  1.00  0.00     0.029 A 
ATOM     58  C   UNL A   1      44.317  28.712  34.096  1.00  0.00     0.049 A 
ATOM     59  H   UNL A   1      42.695  28.983  32.773  1.00  0.00     0.167 HD
ATOM     60  C   UNL A   1      44.681  27.004  32.334  1.00  0.00     0.074 A 
ATOM     61  C   UNL A   1      45.422  25.916  31.732  1.00  0.00     0.031 C 
ATOM     62  C   UNL A   1      45.035  27.619  33.490  1.00  0.00     0.031 A 
BRANCH  49  63
ATOM     63  C   UNL A   1      41.201  32.152  35.223  1.00  0.00    -0.014 A 
ATOM     64  C   UNL A   1      41.779  33.431  35.116  1.00  0.00     0.010 A 
ATOM     65  C   UNL A   1      40.273  31.906  36.251  1.00  0.00     0.010 A 
ATOM     66  C   UNL A   1      41.467  34.429  36.042  1.00  0.00     0.020 A 
ATOM     67  C   UNL A   1      39.935  32.911  37.161  1.00  0.00     0.020 A 
ATOM     68  C   UNL A   1      40.547  34.163  37.060  1.00  0.00     0.054 A 
BRANCH  68  69
ATOM     69  S   UNL A   1      40.140  35.487  38.231  1.00  0.00     0.124 S 
ATOM     70  O   UNL A   1      39.054  34.885  39.000  1.00  0.00    -0.237 OA
ATOM     71  O   UNL A   1      41.395  35.670  38.955  1.00  0.00    -0.237 OA
ATOM     72  O   UNL A   1      39.752  36.603  37.372  1.00  0.00    -0.744 OA
ENDBRANCH  68  69
ENDBRANCH  49  63
BRANCH  50  73
ATOM     73  C   UNL A   1      43.046  25.134  28.336  1.00  0.00    -0.014 A 
ATOM     74  C   UNL A   1      43.830  25.438  27.208  1.00  0.00     0.010 A 
ATOM     75  C   UNL A   1      42.533  23.832  28.480  1.00  0.00     0.010 A 
ATOM     76  C   UNL A   1      44.068  24.471  26.228  1.00  0.00     0.020 A 
ATOM     77  C   UNL A   1      42.795  22.853  27.516  1.00  0.00     0.020 A 
ATOM     78  C   UNL A   1      43.547  23.183  26.387  1.00  0.00     0.054 A 
BRANCH  78  79
ATOM     79  S   UNL A   1      43.892  21.935  25.116  1.00  0.00     0.124 S 
ATOM     80  O   UNL A   1      45.295  21.622  25.373  1.00  0.00    -0.237 OA
ATOM     81  O   UNL A   1      42.937  20.879  25.444  1.00  0.00    -0.237 OA
ATOM     82  O   UNL A   1      43.625  22.640  23.865  1.00  0.00    -0.744 OA
ENDBRANCH  78  79
ENDBRANCH  50  73
BRANCH  62  83
ATOM     83  C   UNL A   1      46.247  27.093  34.214  1.00  0.00    -0.014 A 
ATOM     84  C   UNL A   1      47.524  27.641  34.005  1.00  0.00     0.010 A 
ATOM     85  C   UNL A   1      46.088  26.062  35.159  1.00  0.00     0.010 A 
ATOM     86  C   UNL A   1      48.628  27.142  34.702  1.00  0.00     0.020 A 
ATOM     87  C   UNL A   1      47.184  25.582  35.879  1.00  0.00     0.020 A 
ATOM     88  C   UNL A   1      48.451  26.114  35.634  1.00  0.00     0.054 A 
BRANCH  88  89
ATOM     89  S   UNL A   1      49.893  25.509  36.553  1.00  0.00     0.124 S 
ATOM     90  O   UNL A   1      49.669  26.078  37.879  1.00  0.00    -0.237 OA
ATOM     91  O   UNL A   1      49.748  24.059  36.458  1.00  0.00    -0.237 OA
ATOM     92  O   UNL A   1      51.029  26.064  35.819  1.00  0.00    -0.744 OA
ENDBRANCH  88  89
ENDBRANCH  62  83
ENDBRANCH  36  37
ENDBRANCH  28  31
ENDBRANCH  26  27
ENDBRANCH  25  26
ENDBRANCH  24  25
ENDBRANCH   1  24
TORSDOF 20
ENDMDL
MODEL 3
REMARK VINA RESULT:      -9.6      3.371      4.974
REMARK SMILES CC(C)(C[NH+]1CCC(C(N)=S)CC1)C(=O)NCCCCCCNC(=O)c1ccc(-c2c3nc(c(-c4ccc(S(=O)(=O)[O-])cc4)c4ccc([nH]4)c(-c4ccc(S(=O)(=O)[O-])cc4)c4nc(c(-c5ccc(S(=O)(=O)[O-])cc5)c5ccc2[nH]5)C=C4)C=C3)cc1
REMARK SMILES IDX 19 1 18 2 17 3 16 4 14 5 15 6 2 8 1 9 3 10 4 11 5 12 6 13
REMARK SMILES IDX 13 14 7 16 12 17 8 18 9 19 11 20 10 21 20 24 21 25 22 26
REMARK SMILES IDX 23 27 24 28 25 30 26 31 27 32 85 33 28 34 84 35 29 36 30 37
REMARK SMILES IDX 31 38 78 39 32 40 83 41 77 42 79 43 33 44 82 45 76 46 75 47
REMARK SMILES IDX 34 49 64 50 45 51 63 52 46 53 49 54 62 55 80 56 47 57 48 58
REMARK SMILES IDX 61 60 81 61 50 62 35 63 36 64 44 65 37 66 43 67 38 68 39 69
REMARK SMILES IDX 40 70 41 71 42 72 65 73 66 74 74 75 67 76 73 77 68 78 69 79
REMARK SMILES IDX 70 80 71 81 72 82 51 83 52 84 60 85 53 86 59 87 54 88 55 89
REMARK SMILES IDX 56 90 57 91 58 92
REMARK H PARENT 16 7 5 15 10 22 10 23 23 29 79 48 49 59
REMARK Flexibility Score: inf
ROOT
ATOM      1  C   UNL A   1      32.518  27.808  22.759  1.00  0.00     0.002 C 
ENDROOT
BRANCH   1   2
ATOM      2  C   UNL A   1      32.370  26.525  21.935  1.00  0.00     0.021 C 
BRANCH   2   3
ATOM      3  C   UNL A   1      33.246  25.360  22.396  1.00  0.00     0.116 C 
BRANCH   3   4
ATOM      4  N   UNL A   1      32.541  24.093  22.383  1.00  0.00    -0.355 N 
ATOM      5  C   UNL A   1      31.813  23.427  23.315  1.00  0.00     0.231 C 
ATOM      6  O   UNL A   1      31.289  22.376  22.926  1.00  0.00    -0.274 OA
ATOM      7  H   UNL A   1      32.603  23.619  21.523  1.00  0.00     0.163 HD
BRANCH   5   8
ATOM      8  C   UNL A   1      31.626  23.922  24.764  1.00  0.00     0.092 C 
ATOM      9  C   UNL A   1      30.817  22.860  25.544  1.00  0.00     0.027 C 
ATOM     10  C   UNL A   1      30.724  25.179  24.736  1.00  0.00     0.027 C 
BRANCH   8  11
ATOM     11  C   UNL A   1      32.970  24.231  25.504  1.00  0.00     0.278 C 
BRANCH  11  12
ATOM     12  N   UNL A   1      34.217  23.481  25.246  1.00  0.00    -0.334 N 
ATOM     13  C   UNL A   1      35.439  24.257  25.468  1.00  0.00     0.262 C 
ATOM     14  C   UNL A   1      34.248  22.134  25.812  1.00  0.00     0.262 C 
ATOM     15  H   UNL A   1      34.202  23.320  24.239  1.00  0.00     0.348 HD
ATOM     16  C   UNL A   1      36.706  23.490  25.073  1.00  0.00     0.072 C 
ATOM     17  C   UNL A   1      35.483  21.348  25.378  1.00  0.00     0.072 C 
ATOM     18  C   UNL A   1      36.737  22.129  25.769  1.00  0.00     0.058 C 
BRANCH  18  19
ATOM     19  C   UNL A   1      38.010  21.329  25.539  1.00  0.00     0.076 C 
ATOM     20  S   UNL A   1      39.528  21.739  26.090  1.00  0.00    -0.066 S 
BRANCH  19  21
ATOM     21  N   UNL A   1      37.858  20.200  24.783  1.00  0.00    -0.393 N 
ATOM     22  H   UNL A   1      37.018  19.689  24.825  1.00  0.00     0.157 HD
ATOM     23  H   UNL A   1      38.589  19.898  24.196  1.00  0.00     0.157 HD
ENDBRANCH  19  21
ENDBRANCH  18  19
ENDBRANCH  11  12
ENDBRANCH   8  11
ENDBRANCH   5   8
ENDBRANCH   3   4
ENDBRANCH   2   3
ENDBRANCH   1   2
BRANCH   1  24
ATOM     24  C   UNL A   1      33.590  27.758  23.850  1.00  0.00     0.002 C 
BRANCH  24  25
ATOM     25  C   UNL A   1      33.087  28.023  25.270  1.00  0.00     0.021 C 
BRANCH  25  26
ATOM     26  C   UNL A   1      34.108  28.666  26.199  1.00  0.00     0.116 C 
BRANCH  26  27
ATOM     27  N   UNL A   1      33.753  30.034  26.533  1.00  0.00    -0.352 N 
ATOM     28  C   UNL A   1      34.315  30.865  27.470  1.00  0.00     0.251 C 
ATOM     29  H   UNL A   1      33.007  30.417  26.018  1.00  0.00     0.163 HD
ATOM     30  O   UNL A   1      33.759  31.917  27.766  1.00  0.00    -0.269 OA
BRANCH  28  31
ATOM     31  C   UNL A   1      35.584  30.480  28.128  1.00  0.00     0.039 A 
ATOM     32  C   UNL A   1      35.534  29.690  29.279  1.00  0.00     0.014 A 
ATOM     33  C   UNL A   1      36.815  30.915  27.629  1.00  0.00     0.014 A 
ATOM     34  C   UNL A   1      36.721  29.309  29.910  1.00  0.00     0.010 A 
ATOM     35  C   UNL A   1      37.998  30.472  28.213  1.00  0.00     0.010 A 
ATOM     36  C   UNL A   1      37.964  29.683  29.372  1.00  0.00    -0.014 A 
BRANCH  36  37
ATOM     37  C   UNL A   1      39.236  29.303  30.040  1.00  0.00     0.031 A 
ATOM     38  C   UNL A   1      39.682  30.042  31.276  1.00  0.00     0.074 A 
ATOM     39  C   UNL A   1      40.006  28.327  29.520  1.00  0.00     0.049 A 
ATOM     40  N   UNL A   1      40.778  29.893  31.975  1.00  0.00    -0.248 NA
ATOM     41  C   UNL A   1      38.791  31.101  31.777  1.00  0.00     0.031 C 
ATOM     42  C   UNL A   1      39.698  27.557  28.311  1.00  0.00     0.029 A 
ATOM     43  N   UNL A   1      41.206  27.814  29.942  1.00  0.00    -0.354 N 
ATOM     44  C   UNL A   1      40.713  30.846  32.986  1.00  0.00     0.074 A 
ATOM     45  C   UNL A   1      39.502  31.606  32.775  1.00  0.00     0.031 C 
ATOM     46  C   UNL A   1      40.669  26.650  28.109  1.00  0.00     0.029 A 
ATOM     47  C   UNL A   1      41.685  26.800  29.147  1.00  0.00     0.049 A 
ATOM     48  H   UNL A   1      41.681  28.143  30.739  1.00  0.00     0.167 HD
ATOM     49  C   UNL A   1      41.570  31.055  34.014  1.00  0.00     0.031 A 
ATOM     50  C   UNL A   1      42.815  26.072  29.242  1.00  0.00     0.031 A 
ATOM     51  C   UNL A   1      42.767  30.287  34.231  1.00  0.00     0.049 A 
ATOM     52  C   UNL A   1      43.760  26.333  30.386  1.00  0.00     0.074 A 
ATOM     53  C   UNL A   1      43.683  30.395  35.263  1.00  0.00     0.029 A 
ATOM     54  N   UNL A   1      43.210  29.264  33.407  1.00  0.00    -0.354 N 
ATOM     55  N   UNL A   1      43.657  27.209  31.357  1.00  0.00    -0.248 NA
ATOM     56  C   UNL A   1      44.965  25.494  30.454  1.00  0.00     0.031 C 
ATOM     57  C   UNL A   1      44.705  29.467  35.037  1.00  0.00     0.029 A 
ATOM     58  C   UNL A   1      44.393  28.740  33.900  1.00  0.00     0.049 A 
ATOM     59  H   UNL A   1      42.752  28.956  32.591  1.00  0.00     0.167 HD
ATOM     60  C   UNL A   1      44.763  26.998  32.173  1.00  0.00     0.074 A 
ATOM     61  C   UNL A   1      45.514  25.907  31.588  1.00  0.00     0.031 C 
ATOM     62  C   UNL A   1      45.122  27.645  33.310  1.00  0.00     0.031 A 
BRANCH  49  63
ATOM     63  C   UNL A   1      41.238  32.157  34.986  1.00  0.00    -0.014 A 
ATOM     64  C   UNL A   1      41.686  33.474  34.769  1.00  0.00     0.010 A 
ATOM     65  C   UNL A   1      40.433  31.885  36.107  1.00  0.00     0.010 A 
ATOM     66  C   UNL A   1      41.370  34.488  35.676  1.00  0.00     0.020 A 
ATOM     67  C   UNL A   1      40.090  32.904  37.001  1.00  0.00     0.020 A 
ATOM     68  C   UNL A   1      40.575  34.196  36.788  1.00  0.00     0.054 A 
BRANCH  68  69
ATOM     69  S   UNL A   1      40.158  35.539  37.934  1.00  0.00     0.124 S 
ATOM     70  O   UNL A   1      39.862  36.637  37.015  1.00  0.00    -0.237 OA
ATOM     71  O   UNL A   1      39.008  34.998  38.655  1.00  0.00    -0.237 OA
ATOM     72  O   UNL A   1      41.369  35.703  38.732  1.00  0.00    -0.744 OA
ENDBRANCH  68  69
ENDBRANCH  49  63
BRANCH  50  73
ATOM     73  C   UNL A   1      43.110  25.010  28.240  1.00  0.00    -0.014 A 
ATOM     74  C   UNL A   1      42.661  23.693  28.443  1.00  0.00     0.010 A 
ATOM     75  C   UNL A   1      43.851  25.308  27.082  1.00  0.00     0.010 A 
ATOM     76  C   UNL A   1      42.973  22.688  27.523  1.00  0.00     0.020 A 
ATOM     77  C   UNL A   1      44.139  24.311  26.145  1.00  0.00     0.020 A 
ATOM     78  C   UNL A   1      43.713  23.003  26.380  1.00  0.00     0.054 A 
BRANCH  78  79
ATOM     79  S   UNL A   1      44.083  21.688  25.185  1.00  0.00     0.124 S 
ATOM     80  O   UNL A   1      43.056  20.699  25.496  1.00  0.00    -0.237 OA
ATOM     81  O   UNL A   1      43.935  22.375  23.905  1.00  0.00    -0.237 OA
ATOM     82  O   UNL A   1      45.451  21.299  25.520  1.00  0.00    -0.744 OA
ENDBRANCH  78  79
ENDBRANCH  50  73
BRANCH  62  83
ATOM     83  C   UNL A   1      46.350  27.155  34.031  1.00  0.00    -0.014 A 
ATOM     84  C   UNL A   1      46.283  26.115  34.975  1.00  0.00     0.010 A 
ATOM     85  C   UNL A   1      47.601  27.717  33.717  1.00  0.00     0.010 A 
ATOM     86  C   UNL A   1      47.443  25.672  35.618  1.00  0.00     0.020 A 
ATOM     87  C   UNL A   1      48.765  27.256  34.335  1.00  0.00     0.020 A 
ATOM     88  C   UNL A   1      48.676  26.246  35.294  1.00  0.00     0.054 A 
BRANCH  88  89
ATOM     89  S   UNL A   1      50.171  25.628  36.117  1.00  0.00     0.124 S 
ATOM     90  O   UNL A   1      49.611  24.790  37.174  1.00  0.00    -0.237 OA
ATOM     91  O   UNL A   1      50.853  24.911  35.043  1.00  0.00    -0.237 OA
ATOM     92  O   UNL A   1      50.842  26.842  36.572  1.00  0.00    -0.744 OA
ENDBRANCH  88  89
ENDBRANCH  62  83
ENDBRANCH  36  37
ENDBRANCH  28  31
ENDBRANCH  26  27
ENDBRANCH  25  26
ENDBRANCH  24  25
ENDBRANCH   1  24
TORSDOF 20
ENDMDL
