MODEL 1
REMARK VINA RESULT:     -10.3      0.000      0.000
REMARK SMILES O=C(CCSc1nc(-c2cccs2)cc(C(F)(F)F)n1)NCCCCCCNC(=O)c1ccc(-c2c3nc(c(-c4ccc(S(=O)(=O)[O-])cc4)c4ccc([nH]4)c(-c4ccc(S(=O)(=O)[O-])cc4)c4nc(c(-c5ccc(S(=O)(=O)[O-])cc5)c5ccc2[nH]5)C=C4)C=C3)cc1
REMARK SMILES IDX 24 1 23 2 22 3 21 4 1 5 2 6 3 8 4 9 5 10 6 11 7 12 20 13
REMARK SMILES IDX 8 14 15 15 14 16 9 17 10 18 13 19 11 20 12 21 16 22 17 23
REMARK SMILES IDX 18 24 19 25 25 26 26 27 27 28 28 29 29 30 30 32 31 33 32 34
REMARK SMILES IDX 90 35 33 36 89 37 34 38 35 39 36 40 83 41 37 42 88 43 82 44
REMARK SMILES IDX 84 45 38 46 87 47 81 48 80 49 39 51 69 52 50 53 68 54 51 55
REMARK SMILES IDX 54 56 67 57 85 58 52 59 53 60 66 62 86 63 55 64 40 65 41 66
REMARK SMILES IDX 49 67 42 68 48 69 43 70 44 71 45 72 46 73 47 74 70 75 71 76
REMARK SMILES IDX 79 77 72 78 78 79 73 80 74 81 75 82 76 83 77 84 56 85 57 86
REMARK SMILES IDX 65 87 58 88 64 89 59 90 60 91 61 92 62 93 63 94
REMARK H PARENT 21 7 28 31 84 50 54 61
REMARK Flexibility Score: inf
ROOT
ATOM      1  C   UNL A   1      31.045  28.836  23.809  1.00  0.00     0.002 C 
ENDROOT
BRANCH   1   2
ATOM      2  C   UNL A   1      29.805  27.870  23.540  1.00  0.00     0.021 C 
BRANCH   2   3
ATOM      3  C   UNL A   1      29.682  26.352  23.843  1.00  0.00     0.116 C 
BRANCH   3   4
ATOM      4  N   UNL A   1      30.826  25.835  24.551  1.00  0.00    -0.356 N 
ATOM      5  O   UNL A   1      29.863  25.536  26.637  1.00  0.00    -0.275 OA
ATOM      6  C   UNL A   1      30.775  25.368  25.850  1.00  0.00     0.220 C 
ATOM      7  H   UNL A   1      31.691  25.815  24.084  1.00  0.00     0.163 HD
BRANCH   6   8
ATOM      8  C   UNL A   1      31.972  24.498  26.153  1.00  0.00     0.111 C 
BRANCH   8   9
ATOM      9  C   UNL A   1      31.550  23.251  26.938  1.00  0.00     0.088 C 
BRANCH   9  10
ATOM     10  S   UNL A   1      32.844  22.496  28.020  1.00  0.00    -0.086 SA
BRANCH  10  11
ATOM     11  C   UNL A   1      33.996  21.781  26.836  1.00  0.00     0.188 A 
ATOM     12  N   UNL A   1      33.650  20.672  26.141  1.00  0.00    -0.222 NA
ATOM     13  N   UNL A   1      35.063  22.514  26.552  1.00  0.00    -0.218 NA
ATOM     14  C   UNL A   1      34.466  20.210  25.155  1.00  0.00     0.085 A 
ATOM     15  C   UNL A   1      35.823  22.106  25.502  1.00  0.00     0.149 A 
ATOM     16  C   UNL A   1      35.574  20.935  24.790  1.00  0.00     0.063 A 
BRANCH  14  17
ATOM     17  C   UNL A   1      34.113  18.915  24.475  1.00  0.00     0.053 A 
ATOM     18  C   UNL A   1      34.867  17.761  24.297  1.00  0.00     0.022 A 
ATOM     19  S   UNL A   1      32.609  18.658  23.689  1.00  0.00    -0.142 S 
ATOM     20  C   UNL A   1      34.168  16.697  23.623  1.00  0.00     0.012 A 
ATOM     21  C   UNL A   1      32.896  17.058  23.263  1.00  0.00     0.065 A 
ENDBRANCH  14  17
BRANCH  15  22
ATOM     22  C   UNL A   1      36.965  23.016  25.096  1.00  0.00     0.433 C 
ATOM     23  F   UNL A   1      37.227  22.962  23.759  1.00  0.00    -0.165 F 
ATOM     24  F   UNL A   1      36.720  24.324  25.381  1.00  0.00    -0.165 F 
ATOM     25  F   UNL A   1      38.139  22.709  25.715  1.00  0.00    -0.165 F 
ENDBRANCH  15  22
ENDBRANCH  10  11
ENDBRANCH   9  10
ENDBRANCH   8   9
ENDBRANCH   6   8
ENDBRANCH   3   4
ENDBRANCH   2   3
ENDBRANCH   1   2
BRANCH   1  26
ATOM     26  C   UNL A   1      32.648  28.872  24.087  1.00  0.00     0.002 C 
BRANCH  26  27
ATOM     27  C   UNL A   1      33.748  28.466  25.149  1.00  0.00     0.021 C 
BRANCH  27  28
ATOM     28  C   UNL A   1      33.689  28.618  26.706  1.00  0.00     0.116 C 
BRANCH  28  29
ATOM     29  N   UNL A   1      33.634  29.962  27.236  1.00  0.00    -0.352 N 
ATOM     30  C   UNL A   1      34.548  30.586  28.067  1.00  0.00     0.251 C 
ATOM     31  H   UNL A   1      32.852  30.498  26.972  1.00  0.00     0.163 HD
ATOM     32  O   UNL A   1      34.207  31.602  28.670  1.00  0.00    -0.269 OA
BRANCH  30  33
ATOM     33  C   UNL A   1      35.930  30.067  28.276  1.00  0.00     0.039 A 
ATOM     34  C   UNL A   1      36.303  29.615  29.549  1.00  0.00     0.014 A 
ATOM     35  C   UNL A   1      36.916  30.192  27.292  1.00  0.00     0.014 A 
ATOM     36  C   UNL A   1      37.636  29.268  29.826  1.00  0.00     0.010 A 
ATOM     37  C   UNL A   1      38.249  29.822  27.564  1.00  0.00     0.010 A 
ATOM     38  C   UNL A   1      38.631  29.363  28.837  1.00  0.00    -0.014 A 
BRANCH  38  39
ATOM     39  C   UNL A   1      40.050  28.986  29.149  1.00  0.00     0.031 A 
ATOM     40  C   UNL A   1      40.978  29.941  29.865  1.00  0.00     0.074 A 
ATOM     41  C   UNL A   1      40.517  27.768  28.797  1.00  0.00     0.049 A 
ATOM     42  N   UNL A   1      42.218  29.758  30.254  1.00  0.00    -0.248 NA
ATOM     43  C   UNL A   1      40.449  31.277  30.177  1.00  0.00     0.031 C 
ATOM     44  C   UNL A   1      39.746  26.747  28.084  1.00  0.00     0.029 A 
ATOM     45  N   UNL A   1      41.743  27.176  28.994  1.00  0.00    -0.354 N 
ATOM     46  C   UNL A   1      42.616  30.949  30.857  1.00  0.00     0.074 A 
ATOM     47  C   UNL A   1      41.500  31.865  30.734  1.00  0.00     0.031 C 
ATOM     48  C   UNL A   1      40.504  25.649  27.932  1.00  0.00     0.029 A 
ATOM     49  C   UNL A   1      41.827  25.893  28.502  1.00  0.00     0.049 A 
ATOM     50  H   UNL A   1      42.492  27.629  29.446  1.00  0.00     0.167 HD
ATOM     51  C   UNL A   1      43.787  31.252  31.473  1.00  0.00     0.031 A 
ATOM     52  C   UNL A   1      42.845  25.007  28.503  1.00  0.00     0.031 A 
ATOM     53  C   UNL A   1      44.906  30.348  31.587  1.00  0.00     0.049 A 
ATOM     54  C   UNL A   1      44.150  25.378  29.160  1.00  0.00     0.074 A 
ATOM     55  C   UNL A   1      46.121  30.556  32.220  1.00  0.00     0.029 A 
ATOM     56  N   UNL A   1      44.952  29.068  31.056  1.00  0.00    -0.354 N 
ATOM     57  N   UNL A   1      44.476  26.489  29.775  1.00  0.00    -0.248 NA
ATOM     58  C   UNL A   1      45.219  24.368  29.134  1.00  0.00     0.031 C 
ATOM     59  C   UNL A   1      46.923  29.428  32.017  1.00  0.00     0.029 A 
ATOM     60  C   UNL A   1      46.182  28.486  31.322  1.00  0.00     0.049 A 
ATOM     61  H   UNL A   1      44.219  28.635  30.561  1.00  0.00     0.167 HD
ATOM     62  C   UNL A   1      45.775  26.297  30.240  1.00  0.00     0.074 A 
ATOM     63  C   UNL A   1      46.166  24.959  29.849  1.00  0.00     0.031 C 
ATOM     64  C   UNL A   1      46.569  27.153  30.931  1.00  0.00     0.031 A 
BRANCH  51  65
ATOM     65  C   UNL A   1      43.930  32.632  32.072  1.00  0.00    -0.014 A 
ATOM     66  C   UNL A   1      44.399  33.714  31.303  1.00  0.00     0.010 A 
ATOM     67  C   UNL A   1      43.539  32.867  33.404  1.00  0.00     0.010 A 
ATOM     68  C   UNL A   1      44.521  34.988  31.866  1.00  0.00     0.020 A 
ATOM     69  C   UNL A   1      43.630  34.147  33.963  1.00  0.00     0.020 A 
ATOM     70  C   UNL A   1      44.139  35.195  33.195  1.00  0.00     0.054 A 
BRANCH  70  71
ATOM     71  S   UNL A   1      44.300  36.862  33.895  1.00  0.00     0.124 S 
ATOM     72  O   UNL A   1      44.254  36.592  35.330  1.00  0.00    -0.237 OA
ATOM     73  O   UNL A   1      45.593  37.302  33.380  1.00  0.00    -0.237 OA
ATOM     74  O   UNL A   1      43.143  37.577  33.360  1.00  0.00    -0.744 OA
ENDBRANCH  70  71
ENDBRANCH  51  65
BRANCH  52  75
ATOM     75  C   UNL A   1      42.675  23.669  27.863  1.00  0.00    -0.014 A 
ATOM     76  C   UNL A   1      42.256  22.555  28.612  1.00  0.00     0.010 A 
ATOM     77  C   UNL A   1      42.946  23.502  26.491  1.00  0.00     0.010 A 
ATOM     78  C   UNL A   1      42.137  21.298  28.011  1.00  0.00     0.020 A 
ATOM     79  C   UNL A   1      42.795  22.254  25.879  1.00  0.00     0.020 A 
ATOM     80  C   UNL A   1      42.405  21.156  26.646  1.00  0.00     0.054 A 
BRANCH  80  81
ATOM     81  S   UNL A   1      42.207  19.524  25.877  1.00  0.00     0.124 S 
ATOM     82  O   UNL A   1      40.812  19.555  25.453  1.00  0.00    -0.237 OA
ATOM     83  O   UNL A   1      43.197  19.561  24.804  1.00  0.00    -0.237 OA
ATOM     84  O   UNL A   1      42.511  18.596  26.964  1.00  0.00    -0.744 OA
ENDBRANCH  80  81
ENDBRANCH  52  75
BRANCH  64  85
ATOM     85  C   UNL A   1      47.931  26.658  31.350  1.00  0.00    -0.014 A 
ATOM     86  C   UNL A   1      48.122  25.964  32.559  1.00  0.00     0.010 A 
ATOM     87  C   UNL A   1      49.032  26.856  30.496  1.00  0.00     0.010 A 
ATOM     88  C   UNL A   1      49.396  25.515  32.924  1.00  0.00     0.020 A 
ATOM     89  C   UNL A   1      50.300  26.381  30.841  1.00  0.00     0.020 A 
ATOM     90  C   UNL A   1      50.476  25.727  32.062  1.00  0.00     0.054 A 
BRANCH  90  91
ATOM     91  S   UNL A   1      52.112  25.106  32.544  1.00  0.00     0.124 S 
ATOM     92  O   UNL A   1      52.956  25.597  31.459  1.00  0.00    -0.237 OA
ATOM     93  O   UNL A   1      52.323  25.740  33.843  1.00  0.00    -0.237 OA
ATOM     94  O   UNL A   1      51.934  23.657  32.587  1.00  0.00    -0.744 OA
ENDBRANCH  90  91
ENDBRANCH  64  85
ENDBRANCH  38  39
ENDBRANCH  30  33
ENDBRANCH  28  29
ENDBRANCH  27  28
ENDBRANCH  26  27
ENDBRANCH   1  26
TORSDOF 21
ENDMDL
MODEL 2
REMARK VINA RESULT:      -9.9      2.743      8.472
REMARK SMILES O=C(CCSc1nc(-c2cccs2)cc(C(F)(F)F)n1)NCCCCCCNC(=O)c1ccc(-c2c3nc(c(-c4ccc(S(=O)(=O)[O-])cc4)c4ccc([nH]4)c(-c4ccc(S(=O)(=O)[O-])cc4)c4nc(c(-c5ccc(S(=O)(=O)[O-])cc5)c5ccc2[nH]5)C=C4)C=C3)cc1
REMARK SMILES IDX 24 1 23 2 22 3 21 4 1 5 2 6 3 8 4 9 5 10 6 11 7 12 20 13
REMARK SMILES IDX 8 14 15 15 14 16 9 17 10 18 13 19 11 20 12 21 16 22 17 23
REMARK SMILES IDX 18 24 19 25 25 26 26 27 27 28 28 29 29 30 30 32 31 33 32 34
REMARK SMILES IDX 90 35 33 36 89 37 34 38 35 39 36 40 83 41 37 42 88 43 82 44
REMARK SMILES IDX 84 45 38 46 87 47 81 48 80 49 39 51 69 52 50 53 68 54 51 55
REMARK SMILES IDX 54 56 67 57 85 58 52 59 53 60 66 62 86 63 55 64 40 65 41 66
REMARK SMILES IDX 49 67 42 68 48 69 43 70 44 71 45 72 46 73 47 74 70 75 71 76
REMARK SMILES IDX 79 77 72 78 78 79 73 80 74 81 75 82 76 83 77 84 56 85 57 86
REMARK SMILES IDX 65 87 58 88 64 89 59 90 60 91 61 92 62 93 63 94
REMARK H PARENT 21 7 28 31 84 50 54 61
REMARK Flexibility Score: inf
ROOT
ATOM      1  C   UNL A   1      30.851  28.613  23.873  1.00  0.00     0.002 C 
ENDROOT
BRANCH   1   2
ATOM      2  C   UNL A   1      29.472  27.940  23.441  1.00  0.00     0.021 C 
BRANCH   2   3
ATOM      3  C   UNL A   1      28.840  26.619  23.959  1.00  0.00     0.116 C 
BRANCH   3   4
ATOM      4  N   UNL A   1      29.816  25.574  24.143  1.00  0.00    -0.356 N 
ATOM      5  O   UNL A   1      30.259  25.876  26.396  1.00  0.00    -0.275 OA
ATOM      6  C   UNL A   1      30.345  25.229  25.371  1.00  0.00     0.220 C 
ATOM      7  H   UNL A   1      30.122  25.080  23.349  1.00  0.00     0.163 HD
BRANCH   6   8
ATOM      8  C   UNL A   1      30.966  23.853  25.318  1.00  0.00     0.111 C 
BRANCH   8   9
ATOM      9  C   UNL A   1      31.117  23.382  23.867  1.00  0.00     0.088 C 
BRANCH   9  10
ATOM     10  S   UNL A   1      32.749  23.723  23.069  1.00  0.00    -0.086 SA
BRANCH  10  11
ATOM     11  C   UNL A   1      33.815  22.453  23.768  1.00  0.00     0.188 A 
ATOM     12  N   UNL A   1      34.983  22.799  24.357  1.00  0.00    -0.222 NA
ATOM     13  N   UNL A   1      33.290  21.239  23.852  1.00  0.00    -0.218 NA
ATOM     14  C   UNL A   1      35.723  21.854  24.998  1.00  0.00     0.085 A 
ATOM     15  C   UNL A   1      33.983  20.321  24.577  1.00  0.00     0.149 A 
ATOM     16  C   UNL A   1      35.227  20.583  25.147  1.00  0.00     0.063 A 
BRANCH  14  17
ATOM     17  C   UNL A   1      37.069  22.243  25.548  1.00  0.00     0.053 A 
ATOM     18  C   UNL A   1      38.220  21.483  25.724  1.00  0.00     0.022 A 
ATOM     19  S   UNL A   1      37.408  23.814  26.153  1.00  0.00    -0.142 S 
ATOM     20  C   UNL A   1      39.340  22.221  26.248  1.00  0.00     0.012 A 
ATOM     21  C   UNL A   1      39.029  23.532  26.496  1.00  0.00     0.065 A 
ENDBRANCH  14  17
BRANCH  15  22
ATOM     22  C   UNL A   1      33.319  18.975  24.783  1.00  0.00     0.433 C 
ATOM     23  F   UNL A   1      32.887  18.794  26.064  1.00  0.00    -0.165 F 
ATOM     24  F   UNL A   1      32.227  18.803  23.988  1.00  0.00    -0.165 F 
ATOM     25  F   UNL A   1      34.146  17.925  24.520  1.00  0.00    -0.165 F 
ENDBRANCH  15  22
ENDBRANCH  10  11
ENDBRANCH   9  10
ENDBRANCH   8   9
ENDBRANCH   6   8
ENDBRANCH   3   4
ENDBRANCH   2   3
ENDBRANCH   1   2
BRANCH   1  26
ATOM     26  C   UNL A   1      32.431  28.325  24.134  1.00  0.00     0.002 C 
BRANCH  26  27
ATOM     27  C   UNL A   1      33.448  27.798  25.226  1.00  0.00     0.021 C 
BRANCH  27  28
ATOM     28  C   UNL A   1      34.216  28.627  26.310  1.00  0.00     0.116 C 
BRANCH  28  29
ATOM     29  N   UNL A   1      33.839  30.015  26.467  1.00  0.00    -0.352 N 
ATOM     30  C   UNL A   1      34.274  30.909  27.429  1.00  0.00     0.251 C 
ATOM     31  H   UNL A   1      33.196  30.364  25.809  1.00  0.00     0.163 HD
ATOM     32  O   UNL A   1      33.634  31.943  27.612  1.00  0.00    -0.269 OA
BRANCH  30  33
ATOM     33  C   UNL A   1      35.483  30.664  28.268  1.00  0.00     0.039 A 
ATOM     34  C   UNL A   1      36.683  31.308  27.937  1.00  0.00     0.014 A 
ATOM     35  C   UNL A   1      35.501  29.673  29.254  1.00  0.00     0.014 A 
ATOM     36  C   UNL A   1      37.878  30.983  28.602  1.00  0.00     0.010 A 
ATOM     37  C   UNL A   1      36.696  29.365  29.936  1.00  0.00     0.010 A 
ATOM     38  C   UNL A   1      37.903  30.009  29.615  1.00  0.00    -0.014 A 
BRANCH  38  39
ATOM     39  C   UNL A   1      39.188  29.677  30.317  1.00  0.00     0.031 A 
ATOM     40  C   UNL A   1      40.093  28.573  29.820  1.00  0.00     0.074 A 
ATOM     41  C   UNL A   1      39.559  30.378  31.411  1.00  0.00     0.049 A 
ATOM     42  N   UNL A   1      41.260  28.187  30.280  1.00  0.00    -0.248 NA
ATOM     43  C   UNL A   1      39.624  27.795  28.663  1.00  0.00     0.031 C 
ATOM     44  C   UNL A   1      38.781  31.459  32.019  1.00  0.00     0.029 A 
ATOM     45  N   UNL A   1      40.683  30.297  32.200  1.00  0.00    -0.354 N 
ATOM     46  C   UNL A   1      41.665  27.128  29.470  1.00  0.00     0.074 A 
ATOM     47  C   UNL A   1      40.593  26.900  28.524  1.00  0.00     0.031 C 
ATOM     48  C   UNL A   1      39.462  31.959  33.063  1.00  0.00     0.029 A 
ATOM     49  C   UNL A   1      40.708  31.216  33.226  1.00  0.00     0.049 A 
ATOM     50  H   UNL A   1      41.403  29.644  32.045  1.00  0.00     0.167 HD
ATOM     51  C   UNL A   1      42.825  26.422  29.494  1.00  0.00     0.031 A 
ATOM     52  C   UNL A   1      41.624  31.441  34.192  1.00  0.00     0.031 A 
ATOM     53  C   UNL A   1      43.891  26.637  30.441  1.00  0.00     0.049 A 
ATOM     54  C   UNL A   1      42.888  30.620  34.222  1.00  0.00     0.074 A 
ATOM     55  C   UNL A   1      45.115  25.992  30.524  1.00  0.00     0.029 A 
ATOM     56  N   UNL A   1      43.863  27.562  31.474  1.00  0.00    -0.354 N 
ATOM     57  N   UNL A   1      43.271  29.667  33.407  1.00  0.00    -0.248 NA
ATOM     58  C   UNL A   1      43.850  30.918  35.294  1.00  0.00     0.031 C 
ATOM     59  C   UNL A   1      45.799  26.482  31.640  1.00  0.00     0.029 A 
ATOM     60  C   UNL A   1      45.035  27.486  32.212  1.00  0.00     0.049 A 
ATOM     61  H   UNL A   1      43.121  28.182  31.657  1.00  0.00     0.167 HD
ATOM     62  C   UNL A   1      44.533  29.275  33.848  1.00  0.00     0.074 A 
ATOM     63  C   UNL A   1      44.853  30.107  34.989  1.00  0.00     0.031 C 
ATOM     64  C   UNL A   1      45.351  28.316  33.349  1.00  0.00     0.031 A 
BRANCH  51  65
ATOM     65  C   UNL A   1      43.005  25.333  28.462  1.00  0.00    -0.014 A 
ATOM     66  C   UNL A   1      43.600  25.603  27.215  1.00  0.00     0.010 A 
ATOM     67  C   UNL A   1      42.626  24.009  28.759  1.00  0.00     0.010 A 
ATOM     68  C   UNL A   1      43.767  24.585  26.270  1.00  0.00     0.020 A 
ATOM     69  C   UNL A   1      42.820  22.982  27.829  1.00  0.00     0.020 A 
ATOM     70  C   UNL A   1      43.372  23.281  26.582  1.00  0.00     0.054 A 
BRANCH  70  71
ATOM     71  S   UNL A   1      43.611  21.980  25.340  1.00  0.00     0.124 S 
ATOM     72  O   UNL A   1      44.932  21.467  25.692  1.00  0.00    -0.237 OA
ATOM     73  O   UNL A   1      42.495  21.077  25.605  1.00  0.00    -0.237 OA
ATOM     74  O   UNL A   1      43.541  22.696  24.068  1.00  0.00    -0.744 OA
ENDBRANCH  70  71
ENDBRANCH  51  65
BRANCH  52  75
ATOM     75  C   UNL A   1      41.387  32.499  35.218  1.00  0.00    -0.014 A 
ATOM     76  C   UNL A   1      41.731  33.840  34.969  1.00  0.00     0.010 A 
ATOM     77  C   UNL A   1      40.819  32.163  36.463  1.00  0.00     0.010 A 
ATOM     78  C   UNL A   1      41.540  34.817  35.952  1.00  0.00     0.020 A 
ATOM     79  C   UNL A   1      40.595  33.143  37.434  1.00  0.00     0.020 A 
ATOM     80  C   UNL A   1      40.970  34.462  37.177  1.00  0.00     0.054 A 
BRANCH  80  81
ATOM     81  S   UNL A   1      40.694  35.753  38.424  1.00  0.00     0.124 S 
ATOM     82  O   UNL A   1      39.919  35.039  39.433  1.00  0.00    -0.237 OA
ATOM     83  O   UNL A   1      42.057  36.114  38.808  1.00  0.00    -0.237 OA
ATOM     84  O   UNL A   1      39.967  36.786  37.691  1.00  0.00    -0.744 OA
ENDBRANCH  80  81
ENDBRANCH  52  75
BRANCH  64  85
ATOM     85  C   UNL A   1      46.697  28.135  34.006  1.00  0.00    -0.014 A 
ATOM     86  C   UNL A   1      47.822  28.872  33.594  1.00  0.00     0.010 A 
ATOM     87  C   UNL A   1      46.826  27.240  35.084  1.00  0.00     0.010 A 
ATOM     88  C   UNL A   1      49.059  28.686  34.220  1.00  0.00     0.020 A 
ATOM     89  C   UNL A   1      48.052  27.075  35.735  1.00  0.00     0.020 A 
ATOM     90  C   UNL A   1      49.165  27.787  35.286  1.00  0.00     0.054 A 
BRANCH  90  91
ATOM     91  S   UNL A   1      50.774  27.589  36.103  1.00  0.00     0.124 S 
ATOM     92  O   UNL A   1      51.647  27.265  34.979  1.00  0.00    -0.237 OA
ATOM     93  O   UNL A   1      50.988  28.901  36.709  1.00  0.00    -0.237 OA
ATOM     94  O   UNL A   1      50.550  26.500  37.051  1.00  0.00    -0.744 OA
ENDBRANCH  90  91
ENDBRANCH  64  85
ENDBRANCH  38  39
ENDBRANCH  30  33
ENDBRANCH  28  29
ENDBRANCH  27  28
ENDBRANCH  26  27
ENDBRANCH   1  26
TORSDOF 21
ENDMDL
MODEL 3
REMARK VINA RESULT:      -9.8      3.413      4.147
REMARK SMILES O=C(CCSc1nc(-c2cccs2)cc(C(F)(F)F)n1)NCCCCCCNC(=O)c1ccc(-c2c3nc(c(-c4ccc(S(=O)(=O)[O-])cc4)c4ccc([nH]4)c(-c4ccc(S(=O)(=O)[O-])cc4)c4nc(c(-c5ccc(S(=O)(=O)[O-])cc5)c5ccc2[nH]5)C=C4)C=C3)cc1
REMARK SMILES IDX 24 1 23 2 22 3 21 4 1 5 2 6 3 8 4 9 5 10 6 11 7 12 20 13
REMARK SMILES IDX 8 14 15 15 14 16 9 17 10 18 13 19 11 20 12 21 16 22 17 23
REMARK SMILES IDX 18 24 19 25 25 26 26 27 27 28 28 29 29 30 30 32 31 33 32 34
REMARK SMILES IDX 90 35 33 36 89 37 34 38 35 39 36 40 83 41 37 42 88 43 82 44
REMARK SMILES IDX 84 45 38 46 87 47 81 48 80 49 39 51 69 52 50 53 68 54 51 55
REMARK SMILES IDX 54 56 67 57 85 58 52 59 53 60 66 62 86 63 55 64 40 65 41 66
REMARK SMILES IDX 49 67 42 68 48 69 43 70 44 71 45 72 46 73 47 74 70 75 71 76
REMARK SMILES IDX 79 77 72 78 78 79 73 80 74 81 75 82 76 83 77 84 56 85 57 86
REMARK SMILES IDX 65 87 58 88 64 89 59 90 60 91 61 92 62 93 63 94
REMARK H PARENT 21 7 28 31 84 50 54 61
REMARK Flexibility Score: inf
ROOT
ATOM      1  C   UNL A   1      32.606  27.601  25.385  1.00  0.00     0.002 C 
ENDROOT
BRANCH   1   2
ATOM      2  C   UNL A   1      31.033  27.369  25.502  1.00  0.00     0.021 C 
BRANCH   2   3
ATOM      3  C   UNL A   1      30.066  26.767  24.446  1.00  0.00     0.116 C 
BRANCH   3   4
ATOM      4  N   UNL A   1      30.159  25.331  24.366  1.00  0.00    -0.356 N 
ATOM      5  O   UNL A   1      31.678  25.157  22.626  1.00  0.00    -0.275 OA
ATOM      6  C   UNL A   1      31.045  24.666  23.540  1.00  0.00     0.220 C 
ATOM      7  H   UNL A   1      29.558  24.794  24.930  1.00  0.00     0.163 HD
BRANCH   6   8
ATOM      8  C   UNL A   1      31.228  23.237  23.992  1.00  0.00     0.111 C 
BRANCH   8   9
ATOM      9  C   UNL A   1      30.868  23.087  25.475  1.00  0.00     0.088 C 
BRANCH   9  10
ATOM     10  S   UNL A   1      32.234  23.408  26.678  1.00  0.00    -0.086 SA
BRANCH  10  11
ATOM     11  C   UNL A   1      33.540  22.307  26.112  1.00  0.00     0.188 A 
ATOM     12  N   UNL A   1      33.226  21.114  25.556  1.00  0.00    -0.222 NA
ATOM     13  N   UNL A   1      34.760  22.825  26.081  1.00  0.00    -0.218 NA
ATOM     14  C   UNL A   1      34.206  20.343  25.012  1.00  0.00     0.085 A 
ATOM     15  C   UNL A   1      35.718  22.098  25.448  1.00  0.00     0.149 A 
ATOM     16  C   UNL A   1      35.486  20.829  24.921  1.00  0.00     0.063 A 
BRANCH  14  17
ATOM     17  C   UNL A   1      33.845  18.974  24.501  1.00  0.00     0.053 A 
ATOM     18  C   UNL A   1      32.633  18.484  24.027  1.00  0.00     0.022 A 
ATOM     19  S   UNL A   1      34.959  17.668  24.473  1.00  0.00    -0.142 S 
ATOM     20  C   UNL A   1      32.683  17.116  23.581  1.00  0.00     0.012 A 
ATOM     21  C   UNL A   1      33.925  16.561  23.744  1.00  0.00     0.065 A 
ENDBRANCH  14  17
BRANCH  15  22
ATOM     22  C   UNL A   1      37.078  22.748  25.298  1.00  0.00     0.433 C 
ATOM     23  F   UNL A   1      36.993  24.088  25.055  1.00  0.00    -0.165 F 
ATOM     24  F   UNL A   1      37.848  22.614  26.413  1.00  0.00    -0.165 F 
ATOM     25  F   UNL A   1      37.807  22.232  24.271  1.00  0.00    -0.165 F 
ENDBRANCH  15  22
ENDBRANCH  10  11
ENDBRANCH   9  10
ENDBRANCH   8   9
ENDBRANCH   6   8
ENDBRANCH   3   4
ENDBRANCH   2   3
ENDBRANCH   1   2
BRANCH   1  26
ATOM     26  C   UNL A   1      33.821  28.607  25.786  1.00  0.00     0.002 C 
BRANCH  26  27
ATOM     27  C   UNL A   1      34.392  29.474  26.980  1.00  0.00     0.021 C 
BRANCH  27  28
ATOM     28  C   UNL A   1      35.826  29.429  27.606  1.00  0.00     0.116 C 
BRANCH  28  29
ATOM     29  N   UNL A   1      35.923  29.571  29.042  1.00  0.00    -0.352 N 
ATOM     30  C   UNL A   1      36.987  29.234  29.859  1.00  0.00     0.251 C 
ATOM     31  H   UNL A   1      35.135  29.953  29.492  1.00  0.00     0.163 HD
ATOM     32  O   UNL A   1      36.797  29.126  31.070  1.00  0.00    -0.269 OA
BRANCH  30  33
ATOM     33  C   UNL A   1      38.358  28.979  29.330  1.00  0.00     0.039 A 
ATOM     34  C   UNL A   1      39.357  28.540  30.211  1.00  0.00     0.014 A 
ATOM     35  C   UNL A   1      38.720  29.342  28.030  1.00  0.00     0.014 A 
ATOM     36  C   UNL A   1      40.693  28.442  29.788  1.00  0.00     0.010 A 
ATOM     37  C   UNL A   1      40.058  29.220  27.600  1.00  0.00     0.010 A 
ATOM     38  C   UNL A   1      41.066  28.776  28.474  1.00  0.00    -0.014 A 
BRANCH  38  39
ATOM     39  C   UNL A   1      42.497  28.662  28.038  1.00  0.00     0.031 A 
ATOM     40  C   UNL A   1      43.459  29.820  28.186  1.00  0.00     0.074 A 
ATOM     41  C   UNL A   1      42.951  27.505  27.510  1.00  0.00     0.049 A 
ATOM     42  N   UNL A   1      44.740  29.875  27.905  1.00  0.00    -0.248 NA
ATOM     43  C   UNL A   1      42.911  31.080  28.710  1.00  0.00     0.031 C 
ATOM     44  C   UNL A   1      42.137  26.308  27.287  1.00  0.00     0.029 A 
ATOM     45  N   UNL A   1      44.203  27.137  27.073  1.00  0.00    -0.354 N 
ATOM     46  C   UNL A   1      45.150  31.169  28.218  1.00  0.00     0.074 A 
ATOM     47  C   UNL A   1      43.969  31.879  28.662  1.00  0.00     0.031 C 
ATOM     48  C   UNL A   1      42.914  25.333  26.786  1.00  0.00     0.029 A 
ATOM     49  C   UNL A   1      44.273  25.840  26.616  1.00  0.00     0.049 A 
ATOM     50  H   UNL A   1      44.977  27.745  27.087  1.00  0.00     0.167 HD
ATOM     51  C   UNL A   1      46.392  31.714  28.164  1.00  0.00     0.031 A 
ATOM     52  C   UNL A   1      45.307  25.131  26.116  1.00  0.00     0.031 A 
ATOM     53  C   UNL A   1      47.570  31.015  27.711  1.00  0.00     0.049 A 
ATOM     54  C   UNL A   1      46.670  25.768  26.029  1.00  0.00     0.074 A 
ATOM     55  C   UNL A   1      48.876  31.475  27.649  1.00  0.00     0.029 A 
ATOM     56  N   UNL A   1      47.589  29.712  27.239  1.00  0.00    -0.354 N 
ATOM     57  N   UNL A   1      47.042  26.973  26.390  1.00  0.00    -0.248 NA
ATOM     58  C   UNL A   1      47.758  24.943  25.482  1.00  0.00     0.031 C 
ATOM     59  C   UNL A   1      49.671  30.474  27.083  1.00  0.00     0.029 A 
ATOM     60  C   UNL A   1      48.877  29.362  26.860  1.00  0.00     0.049 A 
ATOM     61  H   UNL A   1      46.804  29.120  27.180  1.00  0.00     0.167 HD
ATOM     62  C   UNL A   1      48.411  27.038  26.145  1.00  0.00     0.074 A 
ATOM     63  C   UNL A   1      48.803  25.746  25.622  1.00  0.00     0.031 C 
ATOM     64  C   UNL A   1      49.264  28.074  26.339  1.00  0.00     0.031 A 
BRANCH  51  65
ATOM     65  C   UNL A   1      46.548  33.153  28.599  1.00  0.00    -0.014 A 
ATOM     66  C   UNL A   1      46.816  33.483  29.940  1.00  0.00     0.010 A 
ATOM     67  C   UNL A   1      46.481  34.189  27.647  1.00  0.00     0.010 A 
ATOM     68  C   UNL A   1      46.963  34.818  30.330  1.00  0.00     0.020 A 
ATOM     69  C   UNL A   1      46.658  35.524  28.027  1.00  0.00     0.020 A 
ATOM     70  C   UNL A   1      46.880  35.831  29.371  1.00  0.00     0.054 A 
BRANCH  70  71
ATOM     71  S   UNL A   1      47.086  37.553  29.905  1.00  0.00     0.124 S 
ATOM     72  O   UNL A   1      47.469  38.211  28.659  1.00  0.00    -0.237 OA
ATOM     73  O   UNL A   1      45.760  37.891  30.413  1.00  0.00    -0.237 OA
ATOM     74  O   UNL A   1      48.138  37.479  30.917  1.00  0.00    -0.744 OA
ENDBRANCH  70  71
ENDBRANCH  51  65
BRANCH  52  75
ATOM     75  C   UNL A   1      45.100  23.725  25.658  1.00  0.00    -0.014 A 
ATOM     76  C   UNL A   1      44.831  23.435  24.308  1.00  0.00     0.010 A 
ATOM     77  C   UNL A   1      45.162  22.664  26.582  1.00  0.00     0.010 A 
ATOM     78  C   UNL A   1      44.602  22.119  23.896  1.00  0.00     0.020 A 
ATOM     79  C   UNL A   1      44.967  21.343  26.167  1.00  0.00     0.020 A 
ATOM     80  C   UNL A   1      44.674  21.080  24.829  1.00  0.00     0.054 A 
BRANCH  80  81
ATOM     81  S   UNL A   1      44.410  19.375  24.266  1.00  0.00     0.124 S 
ATOM     82  O   UNL A   1      43.089  19.077  24.807  1.00  0.00    -0.237 OA
ATOM     83  O   UNL A   1      44.486  19.508  22.813  1.00  0.00    -0.237 OA
ATOM     84  O   UNL A   1      45.517  18.640  24.875  1.00  0.00    -0.744 OA
ENDBRANCH  80  81
ENDBRANCH  52  75
BRANCH  64  85
ATOM     85  C   UNL A   1      50.722  27.845  26.025  1.00  0.00    -0.014 A 
ATOM     86  C   UNL A   1      51.233  28.024  24.727  1.00  0.00     0.010 A 
ATOM     87  C   UNL A   1      51.604  27.483  27.062  1.00  0.00     0.010 A 
ATOM     88  C   UNL A   1      52.590  27.804  24.464  1.00  0.00     0.020 A 
ATOM     89  C   UNL A   1      52.966  27.296  26.809  1.00  0.00     0.020 A 
ATOM     90  C   UNL A   1      53.447  27.442  25.507  1.00  0.00     0.054 A 
BRANCH  90  91
ATOM     91  S   UNL A   1      55.208  27.196  25.145  1.00  0.00     0.124 S 
ATOM     92  O   UNL A   1      55.761  28.520  25.412  1.00  0.00    -0.237 OA
ATOM     93  O   UNL A   1      55.586  26.152  26.094  1.00  0.00    -0.237 OA
ATOM     94  O   UNL A   1      55.220  26.788  23.742  1.00  0.00    -0.744 OA
ENDBRANCH  90  91
ENDBRANCH  64  85
ENDBRANCH  38  39
ENDBRANCH  30  33
ENDBRANCH  28  29
ENDBRANCH  27  28
ENDBRANCH  26  27
ENDBRANCH   1  26
TORSDOF 21
ENDMDL
