MODEL 1
REMARK VINA RESULT:     -11.2      0.000      0.000
REMARK SMILES O=C(Cc1c(C(=O)c2cc3c(cn2)CCCC3)[nH]c2cc(Cl)ccc12)NCCCCCCNC(=O)c1ccc(-c2c3nc(c(-c4ccc(S(=O)(=O)[O-])cc4)c4ccc([nH]4)c(-c4ccc(S(=O)(=O)[O-])cc4)c4nc(c(-c5ccc(S(=O)(=O)[O-])cc5)c5ccc2[nH]5)C=C4)C=C3)cc1
REMARK SMILES IDX 29 1 28 2 27 3 26 4 1 5 2 6 3 8 4 9 5 10 25 11 18 12 19 13
REMARK SMILES IDX 24 14 20 16 23 17 21 18 22 19 6 20 7 21 8 22 9 23 13 24
REMARK SMILES IDX 10 25 12 26 11 27 17 28 14 29 16 30 15 31 30 32 31 33 32 34
REMARK SMILES IDX 33 35 34 36 35 38 36 39 37 40 95 41 38 42 94 43 39 44 40 45
REMARK SMILES IDX 41 46 88 47 42 48 93 49 87 50 89 51 43 52 92 53 86 54 85 55
REMARK SMILES IDX 44 57 74 58 55 59 73 60 56 61 59 62 72 63 90 64 57 65 58 66
REMARK SMILES IDX 71 68 91 69 60 70 45 71 46 72 54 73 47 74 53 75 48 76 49 77
REMARK SMILES IDX 50 78 51 79 52 80 75 81 76 82 84 83 77 84 83 85 78 86 79 87
REMARK SMILES IDX 80 88 81 89 82 90 61 91 62 92 70 93 63 94 69 95 64 96 65 97
REMARK SMILES IDX 66 98 67 99 68 100
REMARK H PARENT 26 7 18 15 33 37 89 56 59 67
REMARK Flexibility Score: inf
ROOT
ATOM      1  C   UNL A   1      33.220  23.661  27.393  1.00  0.00     0.002 C 
ENDROOT
BRANCH   1   2
ATOM      2  C   UNL A   1      32.218  22.574  26.995  1.00  0.00     0.021 C 
BRANCH   2   3
ATOM      3  C   UNL A   1      30.770  23.033  26.854  1.00  0.00     0.116 C 
BRANCH   3   4
ATOM      4  N   UNL A   1      30.553  23.889  25.703  1.00  0.00    -0.356 N 
ATOM      5  O   UNL A   1      29.244  25.417  26.810  1.00  0.00    -0.275 OA
ATOM      6  C   UNL A   1      29.916  25.107  25.826  1.00  0.00     0.224 C 
ATOM      7  H   UNL A   1      30.865  23.595  24.817  1.00  0.00     0.163 HD
BRANCH   6   8
ATOM      8  C   UNL A   1      29.962  26.006  24.606  1.00  0.00     0.138 C 
BRANCH   8   9
ATOM      9  C   UNL A   1      31.219  26.794  24.315  1.00  0.00    -0.002 A 
ATOM     10  C   UNL A   1      32.163  26.688  23.292  1.00  0.00     0.093 A 
ATOM     11  C   UNL A   1      31.739  27.771  25.240  1.00  0.00     0.004 A 
ATOM     12  N   UNL A   1      33.026  27.757  23.440  1.00  0.00    -0.351 N 
ATOM     13  C   UNL A   1      32.884  28.325  24.679  1.00  0.00     0.048 A 
ATOM     14  C   UNL A   1      31.358  28.193  26.534  1.00  0.00     0.012 A 
ATOM     15  H   UNL A   1      33.656  28.068  22.750  1.00  0.00     0.167 HD
ATOM     16  C   UNL A   1      33.686  29.264  25.341  1.00  0.00     0.047 A 
ATOM     17  C   UNL A   1      32.159  29.110  27.227  1.00  0.00     0.021 A 
ATOM     18  C   UNL A   1      33.307  29.627  26.635  1.00  0.00     0.043 A 
ATOM     19  Cl  UNL A   1      34.296  30.727  27.522  1.00  0.00    -0.084 Cl
BRANCH  10  20
ATOM     20  C   UNL A   1      32.357  25.658  22.280  1.00  0.00     0.227 C 
ATOM     21  O   UNL A   1      31.909  25.726  21.139  1.00  0.00    -0.285 OA
BRANCH  20  22
ATOM     22  C   UNL A   1      32.991  24.383  22.694  1.00  0.00     0.113 A 
ATOM     23  C   UNL A   1      32.164  23.325  23.043  1.00  0.00     0.036 A 
ATOM     24  N   UNL A   1      34.343  24.363  22.778  1.00  0.00    -0.252 NA
ATOM     25  C   UNL A   1      32.756  22.139  23.479  1.00  0.00    -0.041 A 
ATOM     26  C   UNL A   1      34.892  23.181  23.142  1.00  0.00     0.115 A 
ATOM     27  C   UNL A   1      34.156  22.055  23.515  1.00  0.00    -0.026 A 
ATOM     28  C   UNL A   1      31.884  21.010  23.966  1.00  0.00     0.036 C 
ATOM     29  C   UNL A   1      34.859  20.767  23.855  1.00  0.00     0.037 C 
ATOM     30  C   UNL A   1      32.606  19.665  24.006  1.00  0.00     0.005 C 
ATOM     31  C   UNL A   1      33.979  19.806  24.655  1.00  0.00     0.005 C 
ENDBRANCH  20  22
ENDBRANCH  10  20
ENDBRANCH   8   9
ENDBRANCH   6   8
ENDBRANCH   3   4
ENDBRANCH   2   3
ENDBRANCH   1   2
BRANCH   1  32
ATOM     32  C   UNL A   1      34.386  23.890  26.427  1.00  0.00     0.002 C 
BRANCH  32  33
ATOM     33  C   UNL A   1      35.624  23.021  26.648  1.00  0.00     0.021 C 
BRANCH  33  34
ATOM     34  C   UNL A   1      36.804  23.298  25.722  1.00  0.00     0.116 C 
BRANCH  34  35
ATOM     35  N   UNL A   1      37.958  22.450  25.979  1.00  0.00    -0.352 N 
ATOM     36  C   UNL A   1      39.167  22.778  26.555  1.00  0.00     0.251 C 
ATOM     37  H   UNL A   1      37.861  21.510  25.705  1.00  0.00     0.163 HD
ATOM     38  O   UNL A   1      40.065  21.948  26.608  1.00  0.00    -0.269 OA
BRANCH  36  39
ATOM     39  C   UNL A   1      39.391  24.153  27.062  1.00  0.00     0.039 A 
ATOM     40  C   UNL A   1      40.030  25.114  26.276  1.00  0.00     0.014 A 
ATOM     41  C   UNL A   1      38.981  24.471  28.360  1.00  0.00     0.014 A 
ATOM     42  C   UNL A   1      40.408  26.329  26.844  1.00  0.00     0.010 A 
ATOM     43  C   UNL A   1      39.297  25.720  28.904  1.00  0.00     0.010 A 
ATOM     44  C   UNL A   1      40.060  26.639  28.168  1.00  0.00    -0.014 A 
BRANCH  44  45
ATOM     45  C   UNL A   1      40.524  27.918  28.768  1.00  0.00     0.031 A 
ATOM     46  C   UNL A   1      41.978  28.125  29.104  1.00  0.00     0.074 A 
ATOM     47  C   UNL A   1      39.645  28.924  28.946  1.00  0.00     0.049 A 
ATOM     48  N   UNL A   1      42.565  29.190  29.591  1.00  0.00    -0.248 NA
ATOM     49  C   UNL A   1      42.895  26.998  28.860  1.00  0.00     0.031 C 
ATOM     50  C   UNL A   1      38.217  28.854  28.634  1.00  0.00     0.029 A 
ATOM     51  N   UNL A   1      39.826  30.207  29.399  1.00  0.00    -0.354 N 
ATOM     52  C   UNL A   1      43.908  28.860  29.723  1.00  0.00     0.074 A 
ATOM     53  C   UNL A   1      44.051  27.487  29.292  1.00  0.00     0.031 C 
ATOM     54  C   UNL A   1      37.663  30.058  28.843  1.00  0.00     0.029 A 
ATOM     55  C   UNL A   1      38.682  30.969  29.362  1.00  0.00     0.049 A 
ATOM     56  H   UNL A   1      40.691  30.550  29.718  1.00  0.00     0.167 HD
ATOM     57  C   UNL A   1      44.933  29.636  30.149  1.00  0.00     0.031 A 
ATOM     58  C   UNL A   1      38.466  32.254  29.706  1.00  0.00     0.031 A 
ATOM     59  C   UNL A   1      44.793  31.007  30.563  1.00  0.00     0.049 A 
ATOM     60  C   UNL A   1      39.609  33.081  30.220  1.00  0.00     0.074 A 
ATOM     61  C   UNL A   1      45.779  31.872  31.005  1.00  0.00     0.029 A 
ATOM     62  N   UNL A   1      43.601  31.716  30.580  1.00  0.00    -0.354 N 
ATOM     63  N   UNL A   1      40.869  32.744  30.348  1.00  0.00    -0.248 NA
ATOM     64  C   UNL A   1      39.303  34.455  30.641  1.00  0.00     0.031 C 
ATOM     65  C   UNL A   1      45.177  33.089  31.336  1.00  0.00     0.029 A 
ATOM     66  C   UNL A   1      43.824  33.001  31.045  1.00  0.00     0.049 A 
ATOM     67  H   UNL A   1      42.727  31.359  30.301  1.00  0.00     0.167 HD
ATOM     68  C   UNL A   1      41.510  33.866  30.863  1.00  0.00     0.074 A 
ATOM     69  C   UNL A   1      40.502  34.897  31.003  1.00  0.00     0.031 C 
ATOM     70  C   UNL A   1      42.815  34.018  31.192  1.00  0.00     0.031 A 
BRANCH  57  71
ATOM     71  C   UNL A   1      46.311  29.032  30.199  1.00  0.00    -0.014 A 
ATOM     72  C   UNL A   1      47.122  29.046  29.048  1.00  0.00     0.010 A 
ATOM     73  C   UNL A   1      46.762  28.355  31.346  1.00  0.00     0.010 A 
ATOM     74  C   UNL A   1      48.349  28.377  29.036  1.00  0.00     0.020 A 
ATOM     75  C   UNL A   1      48.000  27.704  31.345  1.00  0.00     0.020 A 
ATOM     76  C   UNL A   1      48.776  27.703  30.183  1.00  0.00     0.054 A 
BRANCH  76  77
ATOM     77  S   UNL A   1      50.372  26.838  30.153  1.00  0.00     0.124 S 
ATOM     78  O   UNL A   1      49.975  25.469  29.842  1.00  0.00    -0.237 OA
ATOM     79  O   UNL A   1      51.100  27.540  29.098  1.00  0.00    -0.237 OA
ATOM     80  O   UNL A   1      50.897  27.050  31.501  1.00  0.00    -0.744 OA
ENDBRANCH  76  77
ENDBRANCH  57  71
BRANCH  58  81
ATOM     81  C   UNL A   1      37.101  32.822  29.546  1.00  0.00    -0.014 A 
ATOM     82  C   UNL A   1      36.706  33.389  28.320  1.00  0.00     0.010 A 
ATOM     83  C   UNL A   1      36.227  32.891  30.646  1.00  0.00     0.010 A 
ATOM     84  C   UNL A   1      35.492  34.070  28.212  1.00  0.00     0.020 A 
ATOM     85  C   UNL A   1      34.999  33.549  30.534  1.00  0.00     0.020 A 
ATOM     86  C   UNL A   1      34.654  34.162  29.326  1.00  0.00     0.054 A 
BRANCH  86  87
ATOM     87  S   UNL A   1      33.111  35.106  29.186  1.00  0.00     0.124 S 
ATOM     88  O   UNL A   1      32.568  34.991  30.536  1.00  0.00    -0.237 OA
ATOM     89  O   UNL A   1      33.580  36.436  28.806  1.00  0.00    -0.237 OA
ATOM     90  O   UNL A   1      32.369  34.392  28.149  1.00  0.00    -0.744 OA
ENDBRANCH  86  87
ENDBRANCH  58  81
BRANCH  70  91
ATOM     91  C   UNL A   1      43.254  35.344  31.752  1.00  0.00    -0.014 A 
ATOM     92  C   UNL A   1      42.936  35.683  33.080  1.00  0.00     0.010 A 
ATOM     93  C   UNL A   1      43.856  36.306  30.921  1.00  0.00     0.010 A 
ATOM     94  C   UNL A   1      43.181  36.971  33.560  1.00  0.00     0.020 A 
ATOM     95  C   UNL A   1      44.125  37.589  31.406  1.00  0.00     0.020 A 
ATOM     96  C   UNL A   1      43.761  37.920  32.715  1.00  0.00     0.054 A 
BRANCH  96  97
ATOM     97  S   UNL A   1      44.038  39.601  33.340  1.00  0.00     0.124 S 
ATOM     98  O   UNL A   1      44.898  39.362  34.495  1.00  0.00    -0.237 OA
ATOM     99  O   UNL A   1      44.676  40.267  32.207  1.00  0.00    -0.237 OA
ATOM    100  O   UNL A   1      42.691  40.075  33.651  1.00  0.00    -0.744 OA
ENDBRANCH  96  97
ENDBRANCH  70  91
ENDBRANCH  44  45
ENDBRANCH  36  39
ENDBRANCH  34  35
ENDBRANCH  33  34
ENDBRANCH  32  33
ENDBRANCH   1  32
TORSDOF 19
ENDMDL
MODEL 2
REMARK VINA RESULT:     -11.0      1.082      7.873
REMARK SMILES O=C(Cc1c(C(=O)c2cc3c(cn2)CCCC3)[nH]c2cc(Cl)ccc12)NCCCCCCNC(=O)c1ccc(-c2c3nc(c(-c4ccc(S(=O)(=O)[O-])cc4)c4ccc([nH]4)c(-c4ccc(S(=O)(=O)[O-])cc4)c4nc(c(-c5ccc(S(=O)(=O)[O-])cc5)c5ccc2[nH]5)C=C4)C=C3)cc1
REMARK SMILES IDX 29 1 28 2 27 3 26 4 1 5 2 6 3 8 4 9 5 10 25 11 18 12 19 13
REMARK SMILES IDX 24 14 20 16 23 17 21 18 22 19 6 20 7 21 8 22 9 23 13 24
REMARK SMILES IDX 10 25 12 26 11 27 17 28 14 29 16 30 15 31 30 32 31 33 32 34
REMARK SMILES IDX 33 35 34 36 35 38 36 39 37 40 95 41 38 42 94 43 39 44 40 45
REMARK SMILES IDX 41 46 88 47 42 48 93 49 87 50 89 51 43 52 92 53 86 54 85 55
REMARK SMILES IDX 44 57 74 58 55 59 73 60 56 61 59 62 72 63 90 64 57 65 58 66
REMARK SMILES IDX 71 68 91 69 60 70 45 71 46 72 54 73 47 74 53 75 48 76 49 77
REMARK SMILES IDX 50 78 51 79 52 80 75 81 76 82 84 83 77 84 83 85 78 86 79 87
REMARK SMILES IDX 80 88 81 89 82 90 61 91 62 92 70 93 63 94 69 95 64 96 65 97
REMARK SMILES IDX 66 98 67 99 68 100
REMARK H PARENT 26 7 18 15 33 37 89 56 59 67
REMARK Flexibility Score: inf
ROOT
ATOM      1  C   UNL A   1      33.161  23.592  27.427  1.00  0.00     0.002 C 
ENDROOT
BRANCH   1   2
ATOM      2  C   UNL A   1      32.256  22.428  27.012  1.00  0.00     0.021 C 
BRANCH   2   3
ATOM      3  C   UNL A   1      30.836  22.811  26.606  1.00  0.00     0.116 C 
BRANCH   3   4
ATOM      4  N   UNL A   1      30.790  23.703  25.463  1.00  0.00    -0.356 N 
ATOM      5  O   UNL A   1      29.487  25.296  26.481  1.00  0.00    -0.275 OA
ATOM      6  C   UNL A   1      30.229  24.960  25.558  1.00  0.00     0.224 C 
ATOM      7  H   UNL A   1      31.166  23.405  24.603  1.00  0.00     0.163 HD
BRANCH   6   8
ATOM      8  C   UNL A   1      30.454  25.878  24.372  1.00  0.00     0.138 C 
BRANCH   8   9
ATOM      9  C   UNL A   1      31.771  26.608  24.241  1.00  0.00    -0.002 A 
ATOM     10  C   UNL A   1      32.827  26.459  23.339  1.00  0.00     0.093 A 
ATOM     11  C   UNL A   1      32.219  27.558  25.230  1.00  0.00     0.004 A 
ATOM     12  N   UNL A   1      33.713  27.487  23.598  1.00  0.00    -0.351 N 
ATOM     13  C   UNL A   1      33.448  28.059  24.815  1.00  0.00     0.048 A 
ATOM     14  C   UNL A   1      31.704  27.996  26.470  1.00  0.00     0.012 A 
ATOM     15  H   UNL A   1      34.436  27.770  22.991  1.00  0.00     0.167 HD
ATOM     16  C   UNL A   1      34.206  28.959  25.576  1.00  0.00     0.047 A 
ATOM     17  C   UNL A   1      32.456  28.873  27.261  1.00  0.00     0.021 A 
ATOM     18  C   UNL A   1      33.690  29.338  26.817  1.00  0.00     0.043 A 
ATOM     19  Cl  UNL A   1      34.613  30.389  27.825  1.00  0.00    -0.084 Cl
BRANCH  10  20
ATOM     20  C   UNL A   1      33.095  25.423  22.351  1.00  0.00     0.227 C 
ATOM     21  O   UNL A   1      33.348  25.651  21.172  1.00  0.00    -0.285 OA
BRANCH  20  22
ATOM     22  C   UNL A   1      32.892  24.010  22.749  1.00  0.00     0.113 A 
ATOM     23  C   UNL A   1      33.953  23.337  23.337  1.00  0.00     0.036 A 
ATOM     24  N   UNL A   1      31.700  23.444  22.440  1.00  0.00    -0.252 NA
ATOM     25  C   UNL A   1      33.782  21.993  23.670  1.00  0.00    -0.041 A 
ATOM     26  C   UNL A   1      31.539  22.159  22.832  1.00  0.00     0.115 A 
ATOM     27  C   UNL A   1      32.538  21.389  23.428  1.00  0.00    -0.026 A 
ATOM     28  C   UNL A   1      34.949  21.207  24.211  1.00  0.00     0.036 C 
ATOM     29  C   UNL A   1      32.246  19.982  23.877  1.00  0.00     0.037 C 
ATOM     30  C   UNL A   1      34.534  19.917  24.913  1.00  0.00     0.005 C 
ATOM     31  C   UNL A   1      33.514  19.150  24.079  1.00  0.00     0.005 C 
ENDBRANCH  20  22
ENDBRANCH  10  20
ENDBRANCH   8   9
ENDBRANCH   6   8
ENDBRANCH   3   4
ENDBRANCH   2   3
ENDBRANCH   1   2
BRANCH   1  32
ATOM     32  C   UNL A   1      34.275  23.964  26.444  1.00  0.00     0.002 C 
BRANCH  32  33
ATOM     33  C   UNL A   1      35.637  23.316  26.694  1.00  0.00     0.021 C 
BRANCH  33  34
ATOM     34  C   UNL A   1      36.718  23.625  25.663  1.00  0.00     0.116 C 
BRANCH  34  35
ATOM     35  N   UNL A   1      37.878  22.752  25.757  1.00  0.00    -0.352 N 
ATOM     36  C   UNL A   1      39.128  23.020  26.272  1.00  0.00     0.251 C 
ATOM     37  H   UNL A   1      37.752  21.842  25.404  1.00  0.00     0.163 HD
ATOM     38  O   UNL A   1      40.020  22.185  26.183  1.00  0.00    -0.269 OA
BRANCH  36  39
ATOM     39  C   UNL A   1      39.403  24.341  26.886  1.00  0.00     0.039 A 
ATOM     40  C   UNL A   1      40.119  25.321  26.195  1.00  0.00     0.014 A 
ATOM     41  C   UNL A   1      38.960  24.587  28.189  1.00  0.00     0.014 A 
ATOM     42  C   UNL A   1      40.536  26.470  26.863  1.00  0.00     0.010 A 
ATOM     43  C   UNL A   1      39.319  25.775  28.834  1.00  0.00     0.010 A 
ATOM     44  C   UNL A   1      40.155  26.702  28.195  1.00  0.00    -0.014 A 
BRANCH  44  45
ATOM     45  C   UNL A   1      40.660  27.908  28.902  1.00  0.00     0.031 A 
ATOM     46  C   UNL A   1      39.761  29.095  29.134  1.00  0.00     0.074 A 
ATOM     47  C   UNL A   1      41.912  27.909  29.401  1.00  0.00     0.049 A 
ATOM     48  N   UNL A   1      40.020  30.211  29.768  1.00  0.00    -0.248 NA
ATOM     49  C   UNL A   1      38.394  29.024  28.589  1.00  0.00     0.031 C 
ATOM     50  C   UNL A   1      42.869  26.809  29.265  1.00  0.00     0.029 A 
ATOM     51  N   UNL A   1      42.583  28.845  30.147  1.00  0.00    -0.354 N 
ATOM     52  C   UNL A   1      38.862  30.974  29.689  1.00  0.00     0.074 A 
ATOM     53  C   UNL A   1      37.904  30.211  28.922  1.00  0.00     0.031 C 
ATOM     54  C   UNL A   1      43.977  27.105  29.959  1.00  0.00     0.029 A 
ATOM     55  C   UNL A   1      43.837  28.440  30.538  1.00  0.00     0.049 A 
ATOM     56  H   UNL A   1      42.203  29.723  30.381  1.00  0.00     0.167 HD
ATOM     57  C   UNL A   1      38.615  32.195  30.222  1.00  0.00     0.031 A 
ATOM     58  C   UNL A   1      44.775  29.064  31.277  1.00  0.00     0.031 A 
ATOM     59  C   UNL A   1      39.564  32.947  30.998  1.00  0.00     0.049 A 
ATOM     60  C   UNL A   1      44.496  30.436  31.818  1.00  0.00     0.074 A 
ATOM     61  C   UNL A   1      39.396  34.191  31.583  1.00  0.00     0.029 A 
ATOM     62  N   UNL A   1      40.850  32.530  31.307  1.00  0.00    -0.354 N 
ATOM     63  N   UNL A   1      43.397  31.146  31.720  1.00  0.00    -0.248 NA
ATOM     64  C   UNL A   1      45.578  31.096  32.561  1.00  0.00     0.031 C 
ATOM     65  C   UNL A   1      40.596  34.548  32.204  1.00  0.00     0.029 A 
ATOM     66  C   UNL A   1      41.493  33.501  32.056  1.00  0.00     0.049 A 
ATOM     67  H   UNL A   1      41.245  31.670  31.036  1.00  0.00     0.167 HD
ATOM     68  C   UNL A   1      43.654  32.335  32.392  1.00  0.00     0.074 A 
ATOM     69  C   UNL A   1      45.004  32.242  32.909  1.00  0.00     0.031 C 
ATOM     70  C   UNL A   1      42.841  33.406  32.557  1.00  0.00     0.031 A 
BRANCH  57  71
ATOM     71  C   UNL A   1      37.261  32.813  29.989  1.00  0.00    -0.014 A 
ATOM     72  C   UNL A   1      37.020  33.539  28.808  1.00  0.00     0.010 A 
ATOM     73  C   UNL A   1      36.267  32.769  30.982  1.00  0.00     0.010 A 
ATOM     74  C   UNL A   1      35.816  34.227  28.631  1.00  0.00     0.020 A 
ATOM     75  C   UNL A   1      35.053  33.439  30.799  1.00  0.00     0.020 A 
ATOM     76  C   UNL A   1      34.843  34.180  29.633  1.00  0.00     0.054 A 
BRANCH  76  77
ATOM     77  S   UNL A   1      33.285  35.079  29.391  1.00  0.00     0.124 S 
ATOM     78  O   UNL A   1      32.607  34.258  28.393  1.00  0.00    -0.237 OA
ATOM     79  O   UNL A   1      32.694  35.066  30.727  1.00  0.00    -0.237 OA
ATOM     80  O   UNL A   1      33.722  36.395  28.931  1.00  0.00    -0.744 OA
ENDBRANCH  76  77
ENDBRANCH  57  71
BRANCH  58  81
ATOM     81  C   UNL A   1      46.059  28.364  31.552  1.00  0.00    -0.014 A 
ATOM     82  C   UNL A   1      46.217  27.606  32.727  1.00  0.00     0.010 A 
ATOM     83  C   UNL A   1      47.160  28.536  30.694  1.00  0.00     0.010 A 
ATOM     84  C   UNL A   1      47.465  27.085  33.072  1.00  0.00     0.020 A 
ATOM     85  C   UNL A   1      48.405  27.992  31.023  1.00  0.00     0.020 A 
ATOM     86  C   UNL A   1      48.556  27.298  32.226  1.00  0.00     0.054 A 
BRANCH  86  87
ATOM     87  S   UNL A   1      50.185  26.669  32.722  1.00  0.00     0.124 S 
ATOM     88  O   UNL A   1      51.072  27.398  31.821  1.00  0.00    -0.237 OA
ATOM     89  O   UNL A   1      50.263  27.051  34.129  1.00  0.00    -0.237 OA
ATOM     90  O   UNL A   1      50.083  25.232  32.476  1.00  0.00    -0.744 OA
ENDBRANCH  86  87
ENDBRANCH  58  81
BRANCH  70  91
ATOM     91  C   UNL A   1      43.373  34.589  33.320  1.00  0.00    -0.014 A 
ATOM     92  C   UNL A   1      43.247  34.630  34.721  1.00  0.00     0.010 A 
ATOM     93  C   UNL A   1      43.868  35.715  32.640  1.00  0.00     0.010 A 
ATOM     94  C   UNL A   1      43.576  35.790  35.427  1.00  0.00     0.020 A 
ATOM     95  C   UNL A   1      44.220  36.869  33.346  1.00  0.00     0.020 A 
ATOM     96  C   UNL A   1      44.047  36.907  34.732  1.00  0.00     0.054 A 
BRANCH  96  97
ATOM     97  S   UNL A   1      44.432  38.419  35.658  1.00  0.00     0.124 S 
ATOM     98  O   UNL A   1      43.844  39.455  34.815  1.00  0.00    -0.237 OA
ATOM     99  O   UNL A   1      43.763  38.194  36.938  1.00  0.00    -0.237 OA
ATOM    100  O   UNL A   1      45.892  38.417  35.721  1.00  0.00    -0.744 OA
ENDBRANCH  96  97
ENDBRANCH  70  91
ENDBRANCH  44  45
ENDBRANCH  36  39
ENDBRANCH  34  35
ENDBRANCH  33  34
ENDBRANCH  32  33
ENDBRANCH   1  32
TORSDOF 19
ENDMDL
MODEL 3
REMARK VINA RESULT:     -10.7      1.659      2.345
REMARK SMILES O=C(Cc1c(C(=O)c2cc3c(cn2)CCCC3)[nH]c2cc(Cl)ccc12)NCCCCCCNC(=O)c1ccc(-c2c3nc(c(-c4ccc(S(=O)(=O)[O-])cc4)c4ccc([nH]4)c(-c4ccc(S(=O)(=O)[O-])cc4)c4nc(c(-c5ccc(S(=O)(=O)[O-])cc5)c5ccc2[nH]5)C=C4)C=C3)cc1
REMARK SMILES IDX 29 1 28 2 27 3 26 4 1 5 2 6 3 8 4 9 5 10 25 11 18 12 19 13
REMARK SMILES IDX 24 14 20 16 23 17 21 18 22 19 6 20 7 21 8 22 9 23 13 24
REMARK SMILES IDX 10 25 12 26 11 27 17 28 14 29 16 30 15 31 30 32 31 33 32 34
REMARK SMILES IDX 33 35 34 36 35 38 36 39 37 40 95 41 38 42 94 43 39 44 40 45
REMARK SMILES IDX 41 46 88 47 42 48 93 49 87 50 89 51 43 52 92 53 86 54 85 55
REMARK SMILES IDX 44 57 74 58 55 59 73 60 56 61 59 62 72 63 90 64 57 65 58 66
REMARK SMILES IDX 71 68 91 69 60 70 45 71 46 72 54 73 47 74 53 75 48 76 49 77
REMARK SMILES IDX 50 78 51 79 52 80 75 81 76 82 84 83 77 84 83 85 78 86 79 87
REMARK SMILES IDX 80 88 81 89 82 90 61 91 62 92 70 93 63 94 69 95 64 96 65 97
REMARK SMILES IDX 66 98 67 99 68 100
REMARK H PARENT 26 7 18 15 33 37 89 56 59 67
REMARK Flexibility Score: inf
ROOT
ATOM      1  C   UNL A   1      32.765  23.994  27.249  1.00  0.00     0.002 C 
ENDROOT
BRANCH   1   2
ATOM      2  C   UNL A   1      31.989  22.690  27.038  1.00  0.00     0.021 C 
BRANCH   2   3
ATOM      3  C   UNL A   1      30.658  22.826  26.305  1.00  0.00     0.116 C 
BRANCH   3   4
ATOM      4  N   UNL A   1      30.681  23.836  25.264  1.00  0.00    -0.356 N 
ATOM      5  O   UNL A   1      29.553  25.426  26.476  1.00  0.00    -0.275 OA
ATOM      6  C   UNL A   1      30.244  25.123  25.505  1.00  0.00     0.224 C 
ATOM      7  H   UNL A   1      31.014  23.598  24.369  1.00  0.00     0.163 HD
BRANCH   6   8
ATOM      8  C   UNL A   1      30.539  26.137  24.417  1.00  0.00     0.138 C 
BRANCH   8   9
ATOM      9  C   UNL A   1      31.920  26.744  24.325  1.00  0.00    -0.002 A 
ATOM     10  C   UNL A   1      32.964  26.538  23.421  1.00  0.00     0.093 A 
ATOM     11  C   UNL A   1      32.448  27.600  25.359  1.00  0.00     0.004 A 
ATOM     12  N   UNL A   1      33.942  27.464  23.732  1.00  0.00    -0.351 N 
ATOM     13  C   UNL A   1      33.723  28.001  24.973  1.00  0.00     0.048 A 
ATOM     14  C   UNL A   1      31.967  28.025  26.617  1.00  0.00     0.012 A 
ATOM     15  H   UNL A   1      34.693  27.705  23.142  1.00  0.00     0.167 HD
ATOM     16  C   UNL A   1      34.555  28.788  25.779  1.00  0.00     0.047 A 
ATOM     17  C   UNL A   1      32.792  28.789  27.452  1.00  0.00     0.021 A 
ATOM     18  C   UNL A   1      34.068  29.155  27.035  1.00  0.00     0.043 A 
ATOM     19  Cl  UNL A   1      35.078  30.066  28.095  1.00  0.00    -0.084 Cl
BRANCH  10  20
ATOM     20  C   UNL A   1      33.141  25.529  22.386  1.00  0.00     0.227 C 
ATOM     21  O   UNL A   1      33.313  25.788  21.199  1.00  0.00    -0.285 OA
BRANCH  20  22
ATOM     22  C   UNL A   1      32.942  24.107  22.756  1.00  0.00     0.113 A 
ATOM     23  C   UNL A   1      33.988  23.440  23.378  1.00  0.00     0.036 A 
ATOM     24  N   UNL A   1      31.772  23.530  22.390  1.00  0.00    -0.252 NA
ATOM     25  C   UNL A   1      33.821  22.089  23.684  1.00  0.00    -0.041 A 
ATOM     26  C   UNL A   1      31.612  22.238  22.757  1.00  0.00     0.115 A 
ATOM     27  C   UNL A   1      32.597  21.473  23.383  1.00  0.00    -0.026 A 
ATOM     28  C   UNL A   1      34.976  21.312  24.262  1.00  0.00     0.036 C 
ATOM     29  C   UNL A   1      32.306  20.055  23.800  1.00  0.00     0.037 C 
ATOM     30  C   UNL A   1      34.550  20.006  24.928  1.00  0.00     0.005 C 
ATOM     31  C   UNL A   1      33.576  19.238  24.043  1.00  0.00     0.005 C 
ENDBRANCH  20  22
ENDBRANCH  10  20
ENDBRANCH   8   9
ENDBRANCH   6   8
ENDBRANCH   3   4
ENDBRANCH   2   3
ENDBRANCH   1   2
BRANCH   1  32
ATOM     32  C   UNL A   1      34.085  24.123  26.484  1.00  0.00     0.002 C 
BRANCH  32  33
ATOM     33  C   UNL A   1      35.241  23.257  26.985  1.00  0.00     0.021 C 
BRANCH  33  34
ATOM     34  C   UNL A   1      36.621  23.611  26.439  1.00  0.00     0.116 C 
BRANCH  34  35
ATOM     35  N   UNL A   1      37.449  22.449  26.155  1.00  0.00    -0.352 N 
ATOM     36  C   UNL A   1      38.821  22.325  26.213  1.00  0.00     0.251 C 
ATOM     37  H   UNL A   1      36.962  21.639  25.884  1.00  0.00     0.163 HD
ATOM     38  O   UNL A   1      39.358  21.287  25.846  1.00  0.00    -0.269 OA
BRANCH  36  39
ATOM     39  C   UNL A   1      39.645  23.469  26.672  1.00  0.00     0.039 A 
ATOM     40  C   UNL A   1      40.270  23.450  27.921  1.00  0.00     0.014 A 
ATOM     41  C   UNL A   1      39.765  24.591  25.847  1.00  0.00     0.014 A 
ATOM     42  C   UNL A   1      40.866  24.610  28.411  1.00  0.00     0.010 A 
ATOM     43  C   UNL A   1      40.428  25.730  26.312  1.00  0.00     0.010 A 
ATOM     44  C   UNL A   1      40.938  25.768  27.619  1.00  0.00    -0.014 A 
BRANCH  44  45
ATOM     45  C   UNL A   1      41.529  27.008  28.186  1.00  0.00     0.031 A 
ATOM     46  C   UNL A   1      43.016  27.244  28.132  1.00  0.00     0.074 A 
ATOM     47  C   UNL A   1      40.717  27.960  28.688  1.00  0.00     0.049 A 
ATOM     48  N   UNL A   1      43.698  28.285  28.539  1.00  0.00    -0.248 NA
ATOM     49  C   UNL A   1      43.848  26.179  27.546  1.00  0.00     0.031 C 
ATOM     50  C   UNL A   1      39.259  27.861  28.770  1.00  0.00     0.029 A 
ATOM     51  N   UNL A   1      40.996  29.206  29.191  1.00  0.00    -0.354 N 
ATOM     52  C   UNL A   1      45.031  27.999  28.270  1.00  0.00     0.074 A 
ATOM     53  C   UNL A   1      45.070  26.674  27.691  1.00  0.00     0.031 C 
ATOM     54  C   UNL A   1      38.766  29.020  29.231  1.00  0.00     0.029 A 
ATOM     55  C   UNL A   1      39.874  29.923  29.536  1.00  0.00     0.049 A 
ATOM     56  H   UNL A   1      41.911  29.555  29.294  1.00  0.00     0.167 HD
ATOM     57  C   UNL A   1      46.122  28.776  28.473  1.00  0.00     0.031 A 
ATOM     58  C   UNL A   1      39.742  31.164  30.043  1.00  0.00     0.031 A 
ATOM     59  C   UNL A   1      46.079  30.100  29.034  1.00  0.00     0.049 A 
ATOM     60  C   UNL A   1      40.969  31.990  30.302  1.00  0.00     0.074 A 
ATOM     61  C   UNL A   1      47.137  30.963  29.270  1.00  0.00     0.029 A 
ATOM     62  N   UNL A   1      44.928  30.757  29.439  1.00  0.00    -0.354 N 
ATOM     63  N   UNL A   1      42.222  31.693  30.053  1.00  0.00    -0.248 NA
ATOM     64  C   UNL A   1      40.770  33.310  30.916  1.00  0.00     0.031 C 
ATOM     65  C   UNL A   1      46.630  32.122  29.863  1.00  0.00     0.029 A 
ATOM     66  C   UNL A   1      45.251  32.006  29.943  1.00  0.00     0.049 A 
ATOM     67  H   UNL A   1      44.016  30.391  29.376  1.00  0.00     0.167 HD
ATOM     68  C   UNL A   1      42.962  32.791  30.476  1.00  0.00     0.074 A 
ATOM     69  C   UNL A   1      42.016  33.766  30.979  1.00  0.00     0.031 C 
ATOM     70  C   UNL A   1      44.305  32.966  30.452  1.00  0.00     0.031 A 
BRANCH  57  71
ATOM     71  C   UNL A   1      47.470  28.224  28.091  1.00  0.00    -0.014 A 
ATOM     72  C   UNL A   1      47.900  28.297  26.753  1.00  0.00     0.010 A 
ATOM     73  C   UNL A   1      48.261  27.539  29.029  1.00  0.00     0.010 A 
ATOM     74  C   UNL A   1      49.088  27.677  26.354  1.00  0.00     0.020 A 
ATOM     75  C   UNL A   1      49.462  26.936  28.638  1.00  0.00     0.020 A 
ATOM     76  C   UNL A   1      49.857  26.992  27.299  1.00  0.00     0.054 A 
BRANCH  76  77
ATOM     77  S   UNL A   1      51.397  26.191  26.768  1.00  0.00     0.124 S 
ATOM     78  O   UNL A   1      52.304  26.510  27.865  1.00  0.00    -0.237 OA
ATOM     79  O   UNL A   1      51.009  24.787  26.657  1.00  0.00    -0.237 OA
ATOM     80  O   UNL A   1      51.696  26.844  25.495  1.00  0.00    -0.744 OA
ENDBRANCH  76  77
ENDBRANCH  57  71
BRANCH  58  81
ATOM     81  C   UNL A   1      38.377  31.690  30.313  1.00  0.00    -0.014 A 
ATOM     82  C   UNL A   1      37.777  32.600  29.423  1.00  0.00     0.010 A 
ATOM     83  C   UNL A   1      37.714  31.364  31.510  1.00  0.00     0.010 A 
ATOM     84  C   UNL A   1      36.571  33.223  29.751  1.00  0.00     0.020 A 
ATOM     85  C   UNL A   1      36.493  31.966  31.829  1.00  0.00     0.020 A 
ATOM     86  C   UNL A   1      35.947  32.916  30.962  1.00  0.00     0.054 A 
BRANCH  86  87
ATOM     87  S   UNL A   1      34.414  33.782  31.401  1.00  0.00     0.124 S 
ATOM     88  O   UNL A   1      33.771  33.929  30.098  1.00  0.00    -0.237 OA
ATOM     89  O   UNL A   1      33.768  32.847  32.319  1.00  0.00    -0.237 OA
ATOM     90  O   UNL A   1      34.887  35.022  32.011  1.00  0.00    -0.744 OA
ENDBRANCH  86  87
ENDBRANCH  58  81
BRANCH  70  91
ATOM     91  C   UNL A   1      44.861  34.256  30.991  1.00  0.00    -0.014 A 
ATOM     92  C   UNL A   1      45.053  35.350  30.128  1.00  0.00     0.010 A 
ATOM     93  C   UNL A   1      45.321  34.337  32.317  1.00  0.00     0.010 A 
ATOM     94  C   UNL A   1      45.726  36.491  30.570  1.00  0.00     0.020 A 
ATOM     95  C   UNL A   1      45.974  35.487  32.770  1.00  0.00     0.020 A 
ATOM     96  C   UNL A   1      46.195  36.546  31.885  1.00  0.00     0.054 A 
BRANCH  96  97
ATOM     97  S   UNL A   1      47.101  38.019  32.433  1.00  0.00     0.124 S 
ATOM     98  O   UNL A   1      47.025  38.883  31.259  1.00  0.00    -0.237 OA
ATOM     99  O   UNL A   1      46.328  38.462  33.591  1.00  0.00    -0.237 OA
ATOM    100  O   UNL A   1      48.432  37.503  32.745  1.00  0.00    -0.744 OA
ENDBRANCH  96  97
ENDBRANCH  70  91
ENDBRANCH  44  45
ENDBRANCH  36  39
ENDBRANCH  34  35
ENDBRANCH  33  34
ENDBRANCH  32  33
ENDBRANCH   1  32
TORSDOF 19
ENDMDL
