MODEL 1
REMARK VINA RESULT:     -15.3      0.000      0.000
REMARK SMILES Cc1cc(/C=C2/C(=O)NC(=S)[NH+]=C2NCCCCCCNC(=O)c2ccc(-c3c4nc(c(-c5ccc(S(=O)(=O)[O-])cc5)c5ccc([nH]5)c(-c5ccc(S(=O)(=O)[O-])cc5)c5nc(c(-c6ccc(S(=O)(=O)[O-])cc6)c6ccc3[nH]6)C=C5)C=C4)cc2)c(C)n1-c1cccc(C(=O)[O-])c1
REMARK SMILES IDX 18 1 17 2 16 3 15 4 14 5 5 6 6 7 7 8 13 9 8 10 9 11 12 12
REMARK SMILES IDX 10 13 11 17 4 18 1 19 2 20 3 21 86 22 84 23 85 24 87 25
REMARK SMILES IDX 88 26 95 27 89 28 91 29 90 30 92 31 93 32 94 33 19 34 20 35
REMARK SMILES IDX 21 36 22 37 23 39 24 40 25 41 83 42 26 43 82 44 27 45 28 46
REMARK SMILES IDX 29 47 76 48 30 49 81 50 75 51 77 52 31 53 80 54 74 55 73 56
REMARK SMILES IDX 32 58 62 59 43 60 61 61 44 62 47 63 60 64 78 65 45 66 46 67
REMARK SMILES IDX 59 69 79 70 48 71 33 72 34 73 42 74 35 75 41 76 36 77 37 78
REMARK SMILES IDX 38 79 39 80 40 81 63 82 64 83 72 84 65 85 71 86 66 87 67 88
REMARK SMILES IDX 68 89 69 90 70 91 49 92 50 93 58 94 51 95 57 96 52 97 53 98
REMARK SMILES IDX 54 99 55 100 56 101
REMARK H PARENT 9 14 12 15 14 16 21 38 77 57 47 68
REMARK Flexibility Score: inf
ROOT
ATOM      1  C   UNL A   1      37.566  23.313  25.392  1.00  0.00     0.002 C 
ENDROOT
BRANCH   1   2
ATOM      2  C   UNL A   1      35.903  23.667  26.280  1.00  0.00     0.003 C 
BRANCH   2   3
ATOM      3  C   UNL A   1      34.788  22.394  26.431  1.00  0.00     0.037 C 
BRANCH   3   4
ATOM      4  C   UNL A   1      34.647  21.139  25.153  1.00  0.00     0.194 C 
BRANCH   4   5
ATOM      5  N   UNL A   1      35.464  20.042  25.041  1.00  0.00    -0.305 N 
ATOM      6  C   UNL A   1      32.429  20.601  24.271  1.00  0.00     0.032 C 
ATOM      7  C   UNL A   1      33.158  19.361  24.518  1.00  0.00     0.128 C 
ATOM      8  C   UNL A   1      32.605  18.019  24.714  1.00  0.00     0.319 C 
ATOM      9  C   UNL A   1      34.667  19.094  24.770  1.00  0.00     0.234 C 
ATOM     10  O   UNL A   1      31.402  17.837  24.619  1.00  0.00    -0.250 OA
ATOM     11  N   UNL A   1      33.554  16.982  24.929  1.00  0.00    -0.229 N 
ATOM     12  N   UNL A   1      35.485  18.151  25.004  1.00  0.00    -0.236 N 
ATOM     13  C   UNL A   1      34.930  16.977  25.070  1.00  0.00     0.295 C 
ATOM     14  H   UNL A   1      33.150  16.087  24.990  1.00  0.00     0.268 HD
ATOM     15  H   UNL A   1      36.451  18.297  25.126  1.00  0.00     0.268 HD
ATOM     16  H   UNL A   1      36.442  20.002  25.146  1.00  0.00     0.256 HD
ATOM     17  S   UNL A   1      35.927  15.666  25.283  1.00  0.00    -0.005 S 
BRANCH   6  18
ATOM     18  C   UNL A   1      32.968  22.224  24.036  1.00  0.00    -0.003 A 
ATOM     19  C   UNL A   1      34.532  25.177  22.370  1.00  0.00     0.065 C 
ATOM     20  C   UNL A   1      33.899  24.105  23.157  1.00  0.00     0.020 A 
ATOM     21  C   UNL A   1      33.856  22.720  23.002  1.00  0.00     0.031 A 
ATOM     22  N   UNL A   1      33.293  24.484  24.309  1.00  0.00    -0.318 N 
ATOM     23  C   UNL A   1      32.482  23.572  24.776  1.00  0.00     0.027 A 
ATOM     24  C   UNL A   1      30.950  24.024  25.908  1.00  0.00     0.065 C 
BRANCH  22  25
ATOM     25  C   UNL A   1      32.605  25.585  24.558  1.00  0.00     0.046 A 
ATOM     26  C   UNL A   1      32.937  26.524  26.067  1.00  0.00     0.026 A 
ATOM     27  C   UNL A   1      31.232  26.032  23.364  1.00  0.00     0.036 A 
ATOM     28  C   UNL A   1      31.881  27.886  26.424  1.00  0.00     0.003 A 
ATOM     29  C   UNL A   1      30.216  27.533  23.831  1.00  0.00    -0.001 A 
ATOM     30  C   UNL A   1      30.656  28.447  25.313  1.00  0.00     0.010 A 
BRANCH  29  31
ATOM     31  C   UNL A   1      29.319  28.328  22.954  1.00  0.00     0.072 C 
ATOM     32  O   UNL A   1      29.728  28.933  21.979  1.00  0.00    -0.545 OA
ATOM     33  O   UNL A   1      28.041  27.973  23.136  1.00  0.00    -0.545 OA
ENDBRANCH  29  31
ENDBRANCH  22  25
ENDBRANCH   6  18
ENDBRANCH   4   5
ENDBRANCH   3   4
ENDBRANCH   2   3
ENDBRANCH   1   2
BRANCH   1  34
ATOM     34  C   UNL A   1      38.951  21.701  25.871  1.00  0.00     0.021 C 
BRANCH  34  35
ATOM     35  C   UNL A   1      40.271  21.849  26.745  1.00  0.00     0.116 C 
BRANCH  35  36
ATOM     36  N   UNL A   1      41.028  20.924  26.159  1.00  0.00    -0.352 N 
ATOM     37  C   UNL A   1      42.299  21.264  25.883  1.00  0.00     0.251 C 
ATOM     38  H   UNL A   1      40.673  20.032  25.939  1.00  0.00     0.163 HD
ATOM     39  O   UNL A   1      42.640  20.189  25.360  1.00  0.00    -0.269 OA
BRANCH  37  40
ATOM     40  C   UNL A   1      42.835  22.996  26.494  1.00  0.00     0.039 A 
ATOM     41  C   UNL A   1      43.215  23.832  27.555  1.00  0.00     0.014 A 
ATOM     42  C   UNL A   1      42.930  24.245  25.819  1.00  0.00     0.014 A 
ATOM     43  C   UNL A   1      43.558  25.719  27.643  1.00  0.00     0.010 A 
ATOM     44  C   UNL A   1      43.249  26.091  26.038  1.00  0.00     0.010 A 
ATOM     45  C   UNL A   1      43.733  27.518  26.943  1.00  0.00    -0.014 A 
BRANCH  45  46
ATOM     46  C   UNL A   1      44.083  29.630  27.334  1.00  0.00     0.031 A 
ATOM     47  C   UNL A   1      45.216  28.285  26.427  1.00  0.00     0.074 A 
ATOM     48  C   UNL A   1      43.719  31.437  28.023  1.00  0.00     0.049 A 
ATOM     49  N   UNL A   1      45.889  27.278  27.086  1.00  0.00    -0.248 NA
ATOM     50  C   UNL A   1      45.746  27.738  24.991  1.00  0.00     0.031 C 
ATOM     51  C   UNL A   1      43.376  33.308  28.722  1.00  0.00     0.029 A 
ATOM     52  N   UNL A   1      44.648  33.170  27.952  1.00  0.00    -0.354 N 
ATOM     53  C   UNL A   1      47.122  27.645  26.861  1.00  0.00     0.074 A 
ATOM     54  C   UNL A   1      47.044  27.772  25.360  1.00  0.00     0.031 C 
ATOM     55  C   UNL A   1      43.508  34.946  28.820  1.00  0.00     0.029 A 
ATOM     56  C   UNL A   1      44.571  35.066  27.998  1.00  0.00     0.049 A 
ATOM     57  H   UNL A   1      45.601  32.950  27.841  1.00  0.00     0.167 HD
ATOM     58  C   UNL A   1      47.132  28.418  27.984  1.00  0.00     0.031 A 
ATOM     59  C   UNL A   1      45.390  36.573  28.006  1.00  0.00     0.031 A 
ATOM     60  C   UNL A   1      46.964  29.733  27.550  1.00  0.00     0.049 A 
ATOM     61  C   UNL A   1      46.558  35.945  27.505  1.00  0.00     0.074 A 
ATOM     62  C   UNL A   1      46.671  30.332  26.328  1.00  0.00     0.029 A 
ATOM     63  N   UNL A   1      46.546  30.563  28.501  1.00  0.00    -0.354 N 
ATOM     64  N   UNL A   1      47.221  35.210  28.335  1.00  0.00    -0.248 NA
ATOM     65  C   UNL A   1      46.194  35.606  26.150  1.00  0.00     0.031 C 
ATOM     66  C   UNL A   1      46.336  31.588  26.568  1.00  0.00     0.029 A 
ATOM     67  C   UNL A   1      46.635  31.746  27.890  1.00  0.00     0.049 A 
ATOM     68  H   UNL A   1      46.248  30.357  29.416  1.00  0.00     0.167 HD
ATOM     69  C   UNL A   1      46.992  33.955  27.872  1.00  0.00     0.074 A 
ATOM     70  C   UNL A   1      46.370  34.306  26.372  1.00  0.00     0.031 C 
ATOM     71  C   UNL A   1      46.730  32.836  28.744  1.00  0.00     0.031 A 
BRANCH  58  72
ATOM     72  C   UNL A   1      46.191  27.764  29.283  1.00  0.00    -0.014 A 
ATOM     73  C   UNL A   1      46.684  26.508  29.546  1.00  0.00     0.010 A 
ATOM     74  C   UNL A   1      44.954  28.110  29.981  1.00  0.00     0.010 A 
ATOM     75  C   UNL A   1      46.243  25.775  30.636  1.00  0.00     0.020 A 
ATOM     76  C   UNL A   1      44.524  27.394  31.121  1.00  0.00     0.020 A 
ATOM     77  C   UNL A   1      45.263  26.282  31.494  1.00  0.00     0.054 A 
BRANCH  77  78
ATOM     78  S   UNL A   1      45.108  25.534  33.145  1.00  0.00     0.124 S 
ATOM     79  O   UNL A   1      44.231  24.395  32.883  1.00  0.00    -0.237 OA
ATOM     80  O   UNL A   1      46.492  25.189  33.457  1.00  0.00    -0.237 OA
ATOM     81  O   UNL A   1      44.511  26.591  33.957  1.00  0.00    -0.744 OA
ENDBRANCH  77  78
ENDBRANCH  58  72
BRANCH  59  82
ATOM     82  C   UNL A   1      45.506  38.372  27.423  1.00  0.00    -0.014 A 
ATOM     83  C   UNL A   1      46.548  39.412  26.930  1.00  0.00     0.010 A 
ATOM     84  C   UNL A   1      44.278  38.901  26.966  1.00  0.00     0.010 A 
ATOM     85  C   UNL A   1      46.250  40.726  26.172  1.00  0.00     0.020 A 
ATOM     86  C   UNL A   1      43.986  40.111  26.156  1.00  0.00     0.020 A 
ATOM     87  C   UNL A   1      44.960  41.009  25.732  1.00  0.00     0.054 A 
BRANCH  87  88
ATOM     88  S   UNL A   1      44.545  42.414  24.560  1.00  0.00     0.124 S 
ATOM     89  O   UNL A   1      43.098  42.552  24.696  1.00  0.00    -0.237 OA
ATOM     90  O   UNL A   1      45.328  43.532  25.085  1.00  0.00    -0.237 OA
ATOM     91  O   UNL A   1      44.993  41.929  23.253  1.00  0.00    -0.744 OA
ENDBRANCH  87  88
ENDBRANCH  59  82
BRANCH  71  92
ATOM     92  C   UNL A   1      45.868  32.580  30.359  1.00  0.00    -0.014 A 
ATOM     93  C   UNL A   1      45.009  31.519  31.133  1.00  0.00     0.010 A 
ATOM     94  C   UNL A   1      46.051  33.667  31.107  1.00  0.00     0.010 A 
ATOM     95  C   UNL A   1      43.980  31.764  32.017  1.00  0.00     0.020 A 
ATOM     96  C   UNL A   1      45.254  33.804  32.245  1.00  0.00     0.020 A 
ATOM     97  C   UNL A   1      44.223  32.913  32.673  1.00  0.00     0.054 A 
BRANCH  97  98
ATOM     98  S   UNL A   1      43.348  33.176  34.214  1.00  0.00     0.124 S 
ATOM     99  O   UNL A   1      42.661  34.442  33.966  1.00  0.00    -0.237 OA
ATOM    100  O   UNL A   1      42.472  32.010  34.298  1.00  0.00    -0.237 OA
ATOM    101  O   UNL A   1      44.446  33.235  35.168  1.00  0.00    -0.744 OA
ENDBRANCH  97  98
ENDBRANCH  71  92
ENDBRANCH  45  46
ENDBRANCH  37  40
ENDBRANCH  35  36
ENDBRANCH  34  35
ENDBRANCH   1  34
TORSDOF 18
ENDMDL
MODEL 2
REMARK VINA RESULT:     -15.2      6.264      9.965
REMARK SMILES Cc1cc(/C=C2/C(=O)NC(=S)[NH+]=C2NCCCCCCNC(=O)c2ccc(-c3c4nc(c(-c5ccc(S(=O)(=O)[O-])cc5)c5ccc([nH]5)c(-c5ccc(S(=O)(=O)[O-])cc5)c5nc(c(-c6ccc(S(=O)(=O)[O-])cc6)c6ccc3[nH]6)C=C5)C=C4)cc2)c(C)n1-c1cccc(C(=O)[O-])c1
REMARK SMILES IDX 18 1 17 2 16 3 15 4 14 5 5 6 6 7 7 8 13 9 8 10 9 11 12 12
REMARK SMILES IDX 10 13 11 17 4 18 1 19 2 20 3 21 86 22 84 23 85 24 87 25
REMARK SMILES IDX 88 26 95 27 89 28 91 29 90 30 92 31 93 32 94 33 19 34 20 35
REMARK SMILES IDX 21 36 22 37 23 39 24 40 25 41 83 42 26 43 82 44 27 45 28 46
REMARK SMILES IDX 29 47 76 48 30 49 81 50 75 51 77 52 31 53 80 54 74 55 73 56
REMARK SMILES IDX 32 58 62 59 43 60 61 61 44 62 47 63 60 64 78 65 45 66 46 67
REMARK SMILES IDX 59 69 79 70 48 71 33 72 34 73 42 74 35 75 41 76 36 77 37 78
REMARK SMILES IDX 38 79 39 80 40 81 63 82 64 83 72 84 65 85 71 86 66 87 67 88
REMARK SMILES IDX 68 89 69 90 70 91 49 92 50 93 58 94 51 95 57 96 52 97 53 98
REMARK SMILES IDX 54 99 55 100 56 101
REMARK H PARENT 9 14 12 15 14 16 21 38 77 57 47 68
REMARK Flexibility Score: inf
ROOT
ATOM      1  C   UNL A   1      44.147  24.383  28.980  1.00  0.00     0.002 C 
ENDROOT
BRANCH   1   2
ATOM      2  C   UNL A   1      43.042  22.815  28.993  1.00  0.00     0.003 C 
BRANCH   2   3
ATOM      3  C   UNL A   1      41.678  22.787  27.980  1.00  0.00     0.037 C 
BRANCH   3   4
ATOM      4  C   UNL A   1      41.803  22.202  26.286  1.00  0.00     0.194 C 
BRANCH   4   5
ATOM      5  N   UNL A   1      42.952  22.219  25.536  1.00  0.00    -0.305 N 
ATOM      6  C   UNL A   1      40.923  19.920  26.382  1.00  0.00     0.032 C 
ATOM      7  C   UNL A   1      42.314  19.877  25.940  1.00  0.00     0.128 C 
ATOM      8  C   UNL A   1      43.240  18.744  26.000  1.00  0.00     0.319 C 
ATOM      9  C   UNL A   1      43.254  20.994  25.410  1.00  0.00     0.234 C 
ATOM     10  O   UNL A   1      42.851  17.662  26.408  1.00  0.00    -0.250 OA
ATOM     11  N   UNL A   1      44.544  18.981  25.485  1.00  0.00    -0.229 N 
ATOM     12  N   UNL A   1      44.439  21.183  24.995  1.00  0.00    -0.236 N 
ATOM     13  C   UNL A   1      45.172  20.109  24.989  1.00  0.00     0.295 C 
ATOM     14  H   UNL A   1      45.116  18.180  25.482  1.00  0.00     0.268 HD
ATOM     15  H   UNL A   1      44.772  22.063  24.706  1.00  0.00     0.268 HD
ATOM     16  H   UNL A   1      43.429  23.001  25.177  1.00  0.00     0.256 HD
ATOM     17  S   UNL A   1      46.712  20.232  24.379  1.00  0.00    -0.005 S 
BRANCH   6  18
ATOM     18  C   UNL A   1      39.751  21.187  26.368  1.00  0.00    -0.003 A 
ATOM     19  C   UNL A   1      38.352  24.650  26.369  1.00  0.00     0.065 C 
ATOM     20  C   UNL A   1      38.753  23.232  26.384  1.00  0.00     0.020 A 
ATOM     21  C   UNL A   1      39.972  22.598  26.622  1.00  0.00     0.031 A 
ATOM     22  N   UNL A   1      37.759  22.326  26.212  1.00  0.00    -0.318 N 
ATOM     23  C   UNL A   1      38.208  21.138  25.902  1.00  0.00     0.027 A 
ATOM     24  C   UNL A   1      37.137  19.854  24.884  1.00  0.00     0.065 C 
BRANCH  22  25
ATOM     25  C   UNL A   1      36.695  22.404  25.432  1.00  0.00     0.046 A 
ATOM     26  C   UNL A   1      36.892  22.866  23.695  1.00  0.00     0.026 A 
ATOM     27  C   UNL A   1      35.020  22.138  26.229  1.00  0.00     0.036 A 
ATOM     28  C   UNL A   1      35.428  23.112  22.750  1.00  0.00     0.003 A 
ATOM     29  C   UNL A   1      33.545  22.378  25.103  1.00  0.00    -0.001 A 
ATOM     30  C   UNL A   1      33.833  22.773  23.374  1.00  0.00     0.010 A 
BRANCH  29  31
ATOM     31  C   UNL A   1      32.151  21.916  25.325  1.00  0.00     0.072 C 
ATOM     32  O   UNL A   1      31.195  22.668  25.257  1.00  0.00    -0.545 OA
ATOM     33  O   UNL A   1      32.069  20.585  25.209  1.00  0.00    -0.545 OA
ENDBRANCH  29  31
ENDBRANCH  22  25
ENDBRANCH   6  18
ENDBRANCH   4   5
ENDBRANCH   3   4
ENDBRANCH   2   3
ENDBRANCH   1   2
BRANCH   1  34
ATOM     34  C   UNL A   1      45.320  25.104  27.291  1.00  0.00     0.021 C 
BRANCH  34  35
ATOM     35  C   UNL A   1      44.918  26.312  26.339  1.00  0.00     0.116 C 
BRANCH  35  36
ATOM     36  N   UNL A   1      44.082  25.678  25.521  1.00  0.00    -0.352 N 
ATOM     37  C   UNL A   1      42.784  26.022  25.592  1.00  0.00     0.251 C 
ATOM     38  H   UNL A   1      44.399  24.990  24.891  1.00  0.00     0.163 HD
ATOM     39  O   UNL A   1      42.365  25.235  24.724  1.00  0.00    -0.269 OA
BRANCH  37  40
ATOM     40  C   UNL A   1      42.382  27.460  26.787  1.00  0.00     0.039 A 
ATOM     41  C   UNL A   1      42.588  28.792  27.176  1.00  0.00     0.014 A 
ATOM     42  C   UNL A   1      41.595  27.509  27.971  1.00  0.00     0.014 A 
ATOM     43  C   UNL A   1      41.958  29.801  28.684  1.00  0.00     0.010 A 
ATOM     44  C   UNL A   1      41.075  28.586  29.430  1.00  0.00     0.010 A 
ATOM     45  C   UNL A   1      40.970  30.094  30.325  1.00  0.00    -0.014 A 
BRANCH  45  46
ATOM     46  C   UNL A   1      40.477  31.424  31.975  1.00  0.00     0.031 A 
ATOM     47  C   UNL A   1      40.891  29.490  31.963  1.00  0.00     0.074 A 
ATOM     48  C   UNL A   1      39.977  33.104  32.872  1.00  0.00     0.049 A 
ATOM     49  N   UNL A   1      40.026  28.523  31.494  1.00  0.00    -0.248 NA
ATOM     50  C   UNL A   1      42.022  28.366  32.278  1.00  0.00     0.031 C 
ATOM     51  C   UNL A   1      39.459  34.816  33.826  1.00  0.00     0.029 A 
ATOM     52  N   UNL A   1      39.694  33.658  34.739  1.00  0.00    -0.354 N 
ATOM     53  C   UNL A   1      39.772  27.888  32.607  1.00  0.00     0.074 A 
ATOM     54  C   UNL A   1      41.192  27.619  33.037  1.00  0.00     0.031 C 
ATOM     55  C   UNL A   1      39.320  35.885  35.069  1.00  0.00     0.029 A 
ATOM     56  C   UNL A   1      39.682  35.031  36.050  1.00  0.00     0.049 A 
ATOM     57  H   UNL A   1      39.439  32.837  35.218  1.00  0.00     0.167 HD
ATOM     58  C   UNL A   1      38.728  28.722  32.881  1.00  0.00     0.031 A 
ATOM     59  C   UNL A   1      39.368  35.524  37.662  1.00  0.00     0.031 A 
ATOM     60  C   UNL A   1      39.194  29.624  33.838  1.00  0.00     0.049 A 
ATOM     61  C   UNL A   1      39.393  34.171  38.084  1.00  0.00     0.074 A 
ATOM     62  C   UNL A   1      40.437  29.900  34.400  1.00  0.00     0.029 A 
ATOM     63  N   UNL A   1      38.471  30.735  33.924  1.00  0.00    -0.354 N 
ATOM     64  N   UNL A   1      38.374  33.446  37.761  1.00  0.00    -0.248 NA
ATOM     65  C   UNL A   1      40.785  33.813  37.957  1.00  0.00     0.031 C 
ATOM     66  C   UNL A   1      40.342  31.058  35.033  1.00  0.00     0.029 A 
ATOM     67  C   UNL A   1      39.004  31.327  34.996  1.00  0.00     0.049 A 
ATOM     68  H   UNL A   1      37.734  31.043  33.348  1.00  0.00     0.167 HD
ATOM     69  C   UNL A   1      38.888  32.607  36.827  1.00  0.00     0.074 A 
ATOM     70  C   UNL A   1      40.513  32.858  37.071  1.00  0.00     0.031 C 
ATOM     71  C   UNL A   1      38.178  32.248  35.623  1.00  0.00     0.031 A 
BRANCH  58  72
ATOM     72  C   UNL A   1      37.877  29.255  31.470  1.00  0.00    -0.014 A 
ATOM     73  C   UNL A   1      36.816  30.015  31.902  1.00  0.00     0.010 A 
ATOM     74  C   UNL A   1      37.886  28.946  30.041  1.00  0.00     0.010 A 
ATOM     75  C   UNL A   1      36.021  30.715  31.009  1.00  0.00     0.020 A 
ATOM     76  C   UNL A   1      37.112  29.689  29.121  1.00  0.00     0.020 A 
ATOM     77  C   UNL A   1      36.261  30.655  29.633  1.00  0.00     0.054 A 
BRANCH  77  78
ATOM     78  S   UNL A   1      35.548  31.962  28.588  1.00  0.00     0.124 S 
ATOM     79  O   UNL A   1      34.534  32.538  29.468  1.00  0.00    -0.237 OA
ATOM     80  O   UNL A   1      36.704  32.817  28.334  1.00  0.00    -0.237 OA
ATOM     81  O   UNL A   1      35.017  31.241  27.434  1.00  0.00    -0.744 OA
ENDBRANCH  77  78
ENDBRANCH  58  72
BRANCH  59  82
ATOM     82  C   UNL A   1      39.866  36.530  39.188  1.00  0.00    -0.014 A 
ATOM     83  C   UNL A   1      41.094  36.809  40.096  1.00  0.00     0.010 A 
ATOM     84  C   UNL A   1      39.013  37.626  39.448  1.00  0.00     0.010 A 
ATOM     85  C   UNL A   1      41.264  37.992  41.077  1.00  0.00     0.020 A 
ATOM     86  C   UNL A   1      39.204  38.818  40.314  1.00  0.00     0.020 A 
ATOM     87  C   UNL A   1      40.329  39.024  41.106  1.00  0.00     0.054 A 
BRANCH  87  88
ATOM     88  S   UNL A   1      40.586  40.635  42.033  1.00  0.00     0.124 S 
ATOM     89  O   UNL A   1      39.570  40.588  43.081  1.00  0.00    -0.237 OA
ATOM     90  O   UNL A   1      41.968  40.538  42.500  1.00  0.00    -0.237 OA
ATOM     91  O   UNL A   1      40.368  41.667  41.016  1.00  0.00    -0.744 OA
ENDBRANCH  87  88
ENDBRANCH  59  82
BRANCH  71  92
ATOM     92  C   UNL A   1      37.005  33.089  34.469  1.00  0.00    -0.014 A 
ATOM     93  C   UNL A   1      36.805  33.407  32.945  1.00  0.00     0.010 A 
ATOM     94  C   UNL A   1      35.994  33.579  35.183  1.00  0.00     0.010 A 
ATOM     95  C   UNL A   1      36.234  34.536  32.398  1.00  0.00     0.020 A 
ATOM     96  C   UNL A   1      35.146  34.492  34.554  1.00  0.00     0.020 A 
ATOM     97  C   UNL A   1      35.275  34.993  33.223  1.00  0.00     0.054 A 
BRANCH  97  98
ATOM     98  S   UNL A   1      34.047  36.093  32.520  1.00  0.00     0.124 S 
ATOM     99  O   UNL A   1      32.836  35.699  33.237  1.00  0.00    -0.237 OA
ATOM    100  O   UNL A   1      34.559  37.418  32.862  1.00  0.00    -0.237 OA
ATOM    101  O   UNL A   1      34.092  35.721  31.113  1.00  0.00    -0.744 OA
ENDBRANCH  97  98
ENDBRANCH  71  92
ENDBRANCH  45  46
ENDBRANCH  37  40
ENDBRANCH  35  36
ENDBRANCH  34  35
ENDBRANCH   1  34
TORSDOF 18
ENDMDL
MODEL 3
REMARK VINA RESULT:     -15.0      5.569      8.803
REMARK SMILES Cc1cc(/C=C2/C(=O)NC(=S)[NH+]=C2NCCCCCCNC(=O)c2ccc(-c3c4nc(c(-c5ccc(S(=O)(=O)[O-])cc5)c5ccc([nH]5)c(-c5ccc(S(=O)(=O)[O-])cc5)c5nc(c(-c6ccc(S(=O)(=O)[O-])cc6)c6ccc3[nH]6)C=C5)C=C4)cc2)c(C)n1-c1cccc(C(=O)[O-])c1
REMARK SMILES IDX 18 1 17 2 16 3 15 4 14 5 5 6 6 7 7 8 13 9 8 10 9 11 12 12
REMARK SMILES IDX 10 13 11 17 4 18 1 19 2 20 3 21 86 22 84 23 85 24 87 25
REMARK SMILES IDX 88 26 95 27 89 28 91 29 90 30 92 31 93 32 94 33 19 34 20 35
REMARK SMILES IDX 21 36 22 37 23 39 24 40 25 41 83 42 26 43 82 44 27 45 28 46
REMARK SMILES IDX 29 47 76 48 30 49 81 50 75 51 77 52 31 53 80 54 74 55 73 56
REMARK SMILES IDX 32 58 62 59 43 60 61 61 44 62 47 63 60 64 78 65 45 66 46 67
REMARK SMILES IDX 59 69 79 70 48 71 33 72 34 73 42 74 35 75 41 76 36 77 37 78
REMARK SMILES IDX 38 79 39 80 40 81 63 82 64 83 72 84 65 85 71 86 66 87 67 88
REMARK SMILES IDX 68 89 69 90 70 91 49 92 50 93 58 94 51 95 57 96 52 97 53 98
REMARK SMILES IDX 54 99 55 100 56 101
REMARK H PARENT 9 14 12 15 14 16 21 38 77 57 47 68
REMARK Flexibility Score: inf
ROOT
ATOM      1  C   UNL A   1      44.615  24.214  31.340  1.00  0.00     0.002 C 
ENDROOT
BRANCH   1   2
ATOM      2  C   UNL A   1      43.466  23.745  29.877  1.00  0.00     0.003 C 
BRANCH   2   3
ATOM      3  C   UNL A   1      43.401  24.793  28.540  1.00  0.00     0.037 C 
BRANCH   3   4
ATOM      4  C   UNL A   1      43.045  24.164  26.896  1.00  0.00     0.194 C 
BRANCH   4   5
ATOM      5  N   UNL A   1      43.835  23.277  26.210  1.00  0.00    -0.305 N 
ATOM      6  C   UNL A   1      40.692  23.559  26.604  1.00  0.00     0.032 C 
ATOM      7  C   UNL A   1      41.527  22.423  26.224  1.00  0.00     0.128 C 
ATOM      8  C   UNL A   1      41.145  21.012  26.154  1.00  0.00     0.319 C 
ATOM      9  C   UNL A   1      43.046  22.330  25.913  1.00  0.00     0.234 C 
ATOM     10  O   UNL A   1      39.991  20.682  26.375  1.00  0.00    -0.250 OA
ATOM     11  N   UNL A   1      42.166  20.112  25.741  1.00  0.00    -0.229 N 
ATOM     12  N   UNL A   1      43.945  21.495  25.586  1.00  0.00    -0.236 N 
ATOM     13  C   UNL A   1      43.508  20.278  25.450  1.00  0.00     0.295 C 
ATOM     14  H   UNL A   1      41.854  19.184  25.642  1.00  0.00     0.268 HD
ATOM     15  H   UNL A   1      44.887  21.746  25.449  1.00  0.00     0.268 HD
ATOM     16  H   UNL A   1      44.792  23.358  25.996  1.00  0.00     0.256 HD
ATOM     17  S   UNL A   1      44.588  19.125  24.937  1.00  0.00    -0.005 S 
BRANCH   6  18
ATOM     18  C   UNL A   1      41.033  25.246  26.730  1.00  0.00    -0.003 A 
ATOM     19  C   UNL A   1      41.953  28.711  25.683  1.00  0.00     0.065 C 
ATOM     20  C   UNL A   1      41.595  27.398  26.247  1.00  0.00     0.020 A 
ATOM     21  C   UNL A   1      41.632  26.105  25.727  1.00  0.00     0.031 A 
ATOM     22  N   UNL A   1      41.224  27.385  27.552  1.00  0.00    -0.318 N 
ATOM     23  C   UNL A   1      40.611  26.283  27.891  1.00  0.00     0.027 A 
ATOM     24  C   UNL A   1      39.329  26.219  29.370  1.00  0.00     0.065 C 
BRANCH  22  25
ATOM     25  C   UNL A   1      40.519  28.282  28.219  1.00  0.00     0.046 A 
ATOM     26  C   UNL A   1      38.974  28.906  27.517  1.00  0.00     0.026 A 
ATOM     27  C   UNL A   1      41.248  28.937  29.817  1.00  0.00     0.036 A 
ATOM     28  C   UNL A   1      38.164  30.213  28.372  1.00  0.00     0.003 A 
ATOM     29  C   UNL A   1      40.262  30.290  30.656  1.00  0.00    -0.001 A 
ATOM     30  C   UNL A   1      38.704  30.804  29.925  1.00  0.00     0.010 A 
BRANCH  29  31
ATOM     31  C   UNL A   1      40.377  30.755  32.061  1.00  0.00     0.072 C 
ATOM     32  O   UNL A   1      40.347  29.988  33.007  1.00  0.00    -0.545 OA
ATOM     33  O   UNL A   1      40.894  31.989  32.111  1.00  0.00    -0.545 OA
ENDBRANCH  29  31
ENDBRANCH  22  25
ENDBRANCH   6  18
ENDBRANCH   4   5
ENDBRANCH   3   4
ENDBRANCH   2   3
ENDBRANCH   1   2
BRANCH   1  34
ATOM     34  C   UNL A   1      44.545  26.076  32.471  1.00  0.00     0.021 C 
BRANCH  34  35
ATOM     35  C   UNL A   1      43.304  27.068  32.537  1.00  0.00     0.116 C 
BRANCH  35  36
ATOM     36  N   UNL A   1      43.144  27.132  33.857  1.00  0.00    -0.352 N 
ATOM     37  C   UNL A   1      43.394  28.316  34.442  1.00  0.00     0.251 C 
ATOM     38  H   UNL A   1      42.856  26.349  34.380  1.00  0.00     0.163 HD
ATOM     39  O   UNL A   1      43.152  27.968  35.612  1.00  0.00    -0.269 OA
BRANCH  37  40
ATOM     40  C   UNL A   1      43.826  29.745  33.248  1.00  0.00     0.039 A 
ATOM     41  C   UNL A   1      44.294  30.163  31.992  1.00  0.00     0.014 A 
ATOM     42  C   UNL A   1      43.856  31.156  33.437  1.00  0.00     0.014 A 
ATOM     43  C   UNL A   1      44.692  31.903  31.283  1.00  0.00     0.010 A 
ATOM     44  C   UNL A   1      44.320  32.804  32.647  1.00  0.00     0.010 A 
ATOM     45  C   UNL A   1      44.829  33.835  31.318  1.00  0.00    -0.014 A 
BRANCH  45  46
ATOM     46  C   UNL A   1      45.440  35.665  30.311  1.00  0.00     0.031 A 
ATOM     47  C   UNL A   1      43.654  34.835  30.497  1.00  0.00     0.074 A 
ATOM     48  C   UNL A   1      46.666  37.056  29.649  1.00  0.00     0.049 A 
ATOM     49  N   UNL A   1      43.260  33.699  29.820  1.00  0.00    -0.248 NA
ATOM     50  C   UNL A   1      42.227  34.901  31.272  1.00  0.00     0.031 C 
ATOM     51  C   UNL A   1      47.900  38.503  28.950  1.00  0.00     0.029 A 
ATOM     52  N   UNL A   1      46.455  38.746  28.663  1.00  0.00    -0.354 N 
ATOM     53  C   UNL A   1      42.326  34.203  29.058  1.00  0.00     0.074 A 
ATOM     54  C   UNL A   1      41.507  34.877  30.131  1.00  0.00     0.031 C 
ATOM     55  C   UNL A   1      48.351  39.990  28.407  1.00  0.00     0.029 A 
ATOM     56  C   UNL A   1      47.104  40.478  28.236  1.00  0.00     0.049 A 
ATOM     57  H   UNL A   1      45.621  38.646  28.149  1.00  0.00     0.167 HD
ATOM     58  C   UNL A   1      43.234  34.498  28.084  1.00  0.00     0.031 A 
ATOM     59  C   UNL A   1      46.956  41.922  27.323  1.00  0.00     0.031 A 
ATOM     60  C   UNL A   1      43.484  35.867  28.191  1.00  0.00     0.049 A 
ATOM     61  C   UNL A   1      45.605  41.604  27.033  1.00  0.00     0.074 A 
ATOM     62  C   UNL A   1      43.134  36.859  29.102  1.00  0.00     0.029 A 
ATOM     63  N   UNL A   1      44.617  36.251  27.613  1.00  0.00    -0.354 N 
ATOM     64  N   UNL A   1      45.405  40.656  26.179  1.00  0.00    -0.248 NA
ATOM     65  C   UNL A   1      44.947  41.774  28.306  1.00  0.00     0.031 C 
ATOM     66  C   UNL A   1      43.900  37.910  28.865  1.00  0.00     0.029 A 
ATOM     67  C   UNL A   1      44.533  37.581  27.701  1.00  0.00     0.049 A 
ATOM     68  H   UNL A   1      45.333  35.699  27.222  1.00  0.00     0.167 HD
ATOM     69  C   UNL A   1      44.917  39.653  26.952  1.00  0.00     0.074 A 
ATOM     70  C   UNL A   1      44.566  40.500  28.339  1.00  0.00     0.031 C 
ATOM     71  C   UNL A   1      45.308  38.275  26.783  1.00  0.00     0.031 A 
BRANCH  58  72
ATOM     72  C   UNL A   1      44.521  33.347  27.965  1.00  0.00    -0.014 A 
ATOM     73  C   UNL A   1      43.947  32.126  27.703  1.00  0.00     0.010 A 
ATOM     74  C   UNL A   1      45.953  33.316  28.260  1.00  0.00     0.010 A 
ATOM     75  C   UNL A   1      44.721  31.016  27.402  1.00  0.00     0.020 A 
ATOM     76  C   UNL A   1      46.754  32.205  27.912  1.00  0.00     0.020 A 
ATOM     77  C   UNL A   1      46.116  31.098  27.375  1.00  0.00     0.054 A 
BRANCH  77  78
ATOM     78  S   UNL A   1      47.028  29.797  26.490  1.00  0.00     0.124 S 
ATOM     79  O   UNL A   1      46.693  28.606  27.268  1.00  0.00    -0.237 OA
ATOM     80  O   UNL A   1      46.429  29.853  25.160  1.00  0.00    -0.237 OA
ATOM     81  O   UNL A   1      48.423  30.217  26.584  1.00  0.00    -0.744 OA
ENDBRANCH  77  78
ENDBRANCH  58  72
BRANCH  59  82
ATOM     82  C   UNL A   1      47.052  43.811  27.228  1.00  0.00    -0.014 A 
ATOM     83  C   UNL A   1      46.269  45.079  27.666  1.00  0.00     0.010 A 
ATOM     84  C   UNL A   1      48.355  44.302  26.985  1.00  0.00     0.010 A 
ATOM     85  C   UNL A   1      46.821  46.521  27.742  1.00  0.00     0.020 A 
ATOM     86  C   UNL A   1      48.922  45.665  27.146  1.00  0.00     0.020 A 
ATOM     87  C   UNL A   1      48.177  46.769  27.549  1.00  0.00     0.054 A 
BRANCH  87  88
ATOM     88  S   UNL A   1      48.995  48.419  27.907  1.00  0.00     0.124 S 
ATOM     89  O   UNL A   1      49.684  48.733  26.658  1.00  0.00    -0.237 OA
ATOM     90  O   UNL A   1      47.867  49.290  28.232  1.00  0.00    -0.237 OA
ATOM     91  O   UNL A   1      49.881  48.136  29.039  1.00  0.00    -0.744 OA
ENDBRANCH  87  88
ENDBRANCH  59  82
BRANCH  71  92
ATOM     92  C   UNL A   1      46.848  37.379  26.296  1.00  0.00    -0.014 A 
ATOM     93  C   UNL A   1      47.614  36.032  26.552  1.00  0.00     0.010 A 
ATOM     94  C   UNL A   1      47.521  38.140  25.434  1.00  0.00     0.010 A 
ATOM     95  C   UNL A   1      48.979  35.845  26.592  1.00  0.00     0.020 A 
ATOM     96  C   UNL A   1      48.842  37.785  25.159  1.00  0.00     0.020 A 
ATOM     97  C   UNL A   1      49.571  36.703  25.743  1.00  0.00     0.054 A 
BRANCH  97  98
ATOM     98  S   UNL A   1      51.238  36.313  25.215  1.00  0.00     0.124 S 
ATOM     99  O   UNL A   1      51.147  36.476  23.765  1.00  0.00    -0.237 OA
ATOM    100  O   UNL A   1      52.044  37.324  25.895  1.00  0.00    -0.237 OA
ATOM    101  O   UNL A   1      51.381  34.942  25.684  1.00  0.00    -0.744 OA
ENDBRANCH  97  98
ENDBRANCH  71  92
ENDBRANCH  45  46
ENDBRANCH  37  40
ENDBRANCH  35  36
ENDBRANCH  34  35
ENDBRANCH   1  34
TORSDOF 18
ENDMDL
