MODEL 1
REMARK VINA RESULT:     -10.7      0.000      0.000
REMARK SMILES CCc1ccc(N2C(=O)/C(=C/c3cc(Cl)c(OCC(=O)NCCCCCCNC(=O)c4ccc(-c5c6nc(c(-c7ccc(S(=O)(=O)[O-])cc7)c7ccc([nH]7)c(-c7ccc(S(=O)(=O)[O-])cc7)c7nc(c(-c8ccc(S(=O)(=O)[O-])cc8)c8ccc5[nH]8)C=C7)C=C6)cc4)c(Cl)c3)C(=O)NC2=S)cc1
REMARK SMILES IDX 23 1 22 2 21 3 19 4 20 5 18 7 17 8 16 9 12 10 13 11 93 12
REMARK SMILES IDX 14 13 91 14 15 15 92 16 11 17 7 18 8 19 97 20 9 21 10 22
REMARK SMILES IDX 96 23 98 24 94 25 95 27 6 28 3 29 4 30 100 31 5 32 99 33
REMARK SMILES IDX 2 34 1 35 24 36 25 37 26 38 27 39 28 40 29 41 30 43 31 44
REMARK SMILES IDX 32 45 90 46 33 47 89 48 34 49 35 50 36 51 83 52 37 53 88 54
REMARK SMILES IDX 82 55 84 56 38 57 87 58 81 59 80 60 39 62 69 63 50 64 68 65
REMARK SMILES IDX 51 66 54 67 67 68 85 69 52 70 53 71 66 73 86 74 55 75 40 76
REMARK SMILES IDX 41 77 49 78 42 79 48 80 43 81 44 82 45 83 46 84 47 85 70 86
REMARK SMILES IDX 71 87 79 88 72 89 78 90 73 91 74 92 75 93 76 94 77 95 56 96
REMARK SMILES IDX 57 97 65 98 58 99 64 100 59 101 60 102 61 103 62 104 63 105
REMARK H PARENT 21 6 96 26 28 42 84 61 54 72
REMARK Flexibility Score: inf
ROOT
ATOM      1  C   UNL A   1      31.123  30.443  24.907  1.00  0.00     0.021 C 
ENDROOT
BRANCH   1   2
ATOM      2  C   UNL A   1      30.136  31.558  25.256  1.00  0.00     0.116 C 
BRANCH   2   3
ATOM      3  N   UNL A   1      29.512  32.111  24.071  1.00  0.00    -0.353 N 
ATOM      4  C   UNL A   1      28.422  31.668  23.382  1.00  0.00     0.257 C 
ATOM      5  O   UNL A   1      28.023  32.343  22.431  1.00  0.00    -0.271 OA
ATOM      6  H   UNL A   1      29.935  32.923  23.711  1.00  0.00     0.163 HD
BRANCH   4   7
ATOM      7  C   UNL A   1      27.687  30.396  23.838  1.00  0.00     0.329 C 
BRANCH   7   8
ATOM      8  O   UNL A   1      27.634  29.234  23.030  1.00  0.00    -0.481 OA
BRANCH   8   9
ATOM      9  C   UNL A   1      28.712  28.391  22.994  1.00  0.00     0.157 A 
ATOM     10  C   UNL A   1      30.752  26.433  23.005  1.00  0.00    -0.021 A 
ATOM     11  C   UNL A   1      29.512  26.154  23.576  1.00  0.00     0.032 A 
ATOM     12  C   UNL A   1      30.959  27.666  22.388  1.00  0.00     0.032 A 
ATOM     13  C   UNL A   1      28.504  27.121  23.563  1.00  0.00     0.085 A 
ATOM     14  C   UNL A   1      29.940  28.632  22.360  1.00  0.00     0.085 A 
ATOM     15  Cl  UNL A   1      26.978  26.681  24.259  1.00  0.00    -0.080 Cl
ATOM     16  Cl  UNL A   1      30.266  30.030  21.397  1.00  0.00    -0.080 Cl
BRANCH  10  17
ATOM     17  C   UNL A   1      31.799  25.412  23.037  1.00  0.00     0.028 C 
ATOM     18  N   UNL A   1      33.169  22.792  25.006  1.00  0.00    -0.253 N 
ATOM     19  C   UNL A   1      33.228  23.707  23.947  1.00  0.00     0.270 C 
ATOM     20  C   UNL A   1      32.902  23.190  26.320  1.00  0.00     0.187 C 
ATOM     21  O   UNL A   1      33.850  23.562  22.896  1.00  0.00    -0.268 OA
ATOM     22  C   UNL A   1      32.373  24.905  24.148  1.00  0.00     0.106 C 
ATOM     23  N   UNL A   1      32.443  24.473  26.487  1.00  0.00    -0.298 N 
ATOM     24  S   UNL A   1      33.144  22.307  27.730  1.00  0.00    -0.040 S 
ATOM     25  C   UNL A   1      32.092  25.367  25.518  1.00  0.00     0.263 C 
ATOM     26  H   UNL A   1      32.356  24.785  27.418  1.00  0.00     0.172 HD
ATOM     27  O   UNL A   1      31.588  26.445  25.803  1.00  0.00    -0.269 OA
BRANCH  18  28
ATOM     28  C   UNL A   1      33.324  21.408  24.667  1.00  0.00     0.052 A 
ATOM     29  C   UNL A   1      33.660  18.621  24.304  1.00  0.00    -0.048 A 
ATOM     30  C   UNL A   1      32.415  19.234  24.093  1.00  0.00     0.006 A 
ATOM     31  C   UNL A   1      34.743  19.429  24.669  1.00  0.00     0.006 A 
ATOM     32  C   UNL A   1      32.243  20.609  24.289  1.00  0.00     0.027 A 
ATOM     33  C   UNL A   1      34.576  20.803  24.850  1.00  0.00     0.027 A 
BRANCH  29  34
ATOM     34  C   UNL A   1      33.786  17.129  24.096  1.00  0.00     0.032 C 
ATOM     35  C   UNL A   1      34.879  16.430  24.896  1.00  0.00     0.009 C 
ENDBRANCH  29  34
ENDBRANCH  18  28
ENDBRANCH  10  17
ENDBRANCH   8   9
ENDBRANCH   7   8
ENDBRANCH   4   7
ENDBRANCH   2   3
ENDBRANCH   1   2
BRANCH   1  36
ATOM     36  C   UNL A   1      32.403  30.402  25.752  1.00  0.00     0.002 C 
BRANCH  36  37
ATOM     37  C   UNL A   1      32.340  31.116  27.105  1.00  0.00     0.002 C 
BRANCH  37  38
ATOM     38  C   UNL A   1      32.372  32.644  27.051  1.00  0.00     0.021 C 
BRANCH  38  39
ATOM     39  C   UNL A   1      33.496  33.306  27.845  1.00  0.00     0.116 C 
BRANCH  39  40
ATOM     40  N   UNL A   1      33.006  34.228  28.858  1.00  0.00    -0.352 N 
ATOM     41  C   UNL A   1      33.475  34.458  30.129  1.00  0.00     0.251 C 
ATOM     42  H   UNL A   1      32.223  34.765  28.595  1.00  0.00     0.163 HD
ATOM     43  O   UNL A   1      32.845  35.186  30.891  1.00  0.00    -0.269 OA
BRANCH  41  44
ATOM     44  C   UNL A   1      34.721  33.805  30.591  1.00  0.00     0.039 A 
ATOM     45  C   UNL A   1      35.944  34.435  30.337  1.00  0.00     0.014 A 
ATOM     46  C   UNL A   1      34.692  32.585  31.272  1.00  0.00     0.014 A 
ATOM     47  C   UNL A   1      37.128  33.878  30.829  1.00  0.00     0.010 A 
ATOM     48  C   UNL A   1      35.866  32.062  31.812  1.00  0.00     0.010 A 
ATOM     49  C   UNL A   1      37.094  32.708  31.605  1.00  0.00    -0.014 A 
BRANCH  49  50
ATOM     50  C   UNL A   1      38.325  32.165  32.233  1.00  0.00     0.031 A 
ATOM     51  C   UNL A   1      38.677  32.511  33.652  1.00  0.00     0.074 A 
ATOM     52  C   UNL A   1      39.171  31.417  31.495  1.00  0.00     0.049 A 
ATOM     53  N   UNL A   1      39.744  32.191  34.339  1.00  0.00    -0.248 NA
ATOM     54  C   UNL A   1      37.714  33.345  34.389  1.00  0.00     0.031 C 
ATOM     55  C   UNL A   1      38.971  31.047  30.093  1.00  0.00     0.029 A 
ATOM     56  N   UNL A   1      40.377  30.849  31.820  1.00  0.00    -0.354 N 
ATOM     57  C   UNL A   1      39.589  32.790  35.582  1.00  0.00     0.074 A 
ATOM     58  C   UNL A   1      38.345  33.531  35.539  1.00  0.00     0.031 C 
ATOM     59  C   UNL A   1      40.012  30.307  29.681  1.00  0.00     0.029 A 
ATOM     60  C   UNL A   1      40.968  30.177  30.776  1.00  0.00     0.049 A 
ATOM     61  H   UNL A   1      40.782  30.916  32.715  1.00  0.00     0.167 HD
ATOM     62  C   UNL A   1      40.397  32.721  36.668  1.00  0.00     0.031 A 
ATOM     63  C   UNL A   1      42.151  29.537  30.700  1.00  0.00     0.031 A 
ATOM     64  C   UNL A   1      41.634  31.987  36.712  1.00  0.00     0.049 A 
ATOM     65  C   UNL A   1      43.035  29.474  31.912  1.00  0.00     0.074 A 
ATOM     66  C   UNL A   1      42.499  31.819  37.779  1.00  0.00     0.029 A 
ATOM     67  N   UNL A   1      42.186  31.303  35.640  1.00  0.00    -0.354 N 
ATOM     68  N   UNL A   1      42.842  29.999  33.098  1.00  0.00    -0.248 NA
ATOM     69  C   UNL A   1      44.293  28.725  31.780  1.00  0.00     0.031 C 
ATOM     70  C   UNL A   1      43.595  31.066  37.341  1.00  0.00     0.029 A 
ATOM     71  C   UNL A   1      43.390  30.728  36.013  1.00  0.00     0.049 A 
ATOM     72  H   UNL A   1      41.782  31.235  34.744  1.00  0.00     0.167 HD
ATOM     73  C   UNL A   1      43.948  29.634  33.858  1.00  0.00     0.074 A 
ATOM     74  C   UNL A   1      44.796  28.829  33.002  1.00  0.00     0.031 C 
ATOM     75  C   UNL A   1      44.232  29.940  35.148  1.00  0.00     0.031 A 
BRANCH  62  76
ATOM     76  C   UNL A   1      39.962  33.474  37.896  1.00  0.00    -0.014 A 
ATOM     77  C   UNL A   1      40.590  34.677  38.266  1.00  0.00     0.010 A 
ATOM     78  C   UNL A   1      38.909  32.981  38.688  1.00  0.00     0.010 A 
ATOM     79  C   UNL A   1      40.214  35.342  39.435  1.00  0.00     0.020 A 
ATOM     80  C   UNL A   1      38.512  33.657  39.845  1.00  0.00     0.020 A 
ATOM     81  C   UNL A   1      39.184  34.821  40.225  1.00  0.00     0.054 A 
BRANCH  81  82
ATOM     82  S   UNL A   1      38.723  35.696  41.745  1.00  0.00     0.124 S 
ATOM     83  O   UNL A   1      38.749  37.089  41.308  1.00  0.00    -0.237 OA
ATOM     84  O   UNL A   1      37.399  35.155  42.041  1.00  0.00    -0.237 OA
ATOM     85  O   UNL A   1      39.771  35.320  42.691  1.00  0.00    -0.744 OA
ENDBRANCH  81  82
ENDBRANCH  62  76
BRANCH  63  86
ATOM     86  C   UNL A   1      42.556  28.900  29.419  1.00  0.00    -0.014 A 
ATOM     87  C   UNL A   1      42.153  27.588  29.116  1.00  0.00     0.010 A 
ATOM     88  C   UNL A   1      43.308  29.622  28.475  1.00  0.00     0.010 A 
ATOM     89  C   UNL A   1      42.496  27.009  27.892  1.00  0.00     0.020 A 
ATOM     90  C   UNL A   1      43.634  29.054  27.241  1.00  0.00     0.020 A 
ATOM     91  C   UNL A   1      43.231  27.747  26.959  1.00  0.00     0.054 A 
BRANCH  91  92
ATOM     92  S   UNL A   1      43.592  27.008  25.341  1.00  0.00     0.124 S 
ATOM     93  O   UNL A   1      44.833  27.682  24.971  1.00  0.00    -0.237 OA
ATOM     94  O   UNL A   1      43.713  25.589  25.661  1.00  0.00    -0.237 OA
ATOM     95  O   UNL A   1      42.422  27.360  24.538  1.00  0.00    -0.744 OA
ENDBRANCH  91  92
ENDBRANCH  63  86
BRANCH  75  96
ATOM     96  C   UNL A   1      45.513  29.395  35.719  1.00  0.00    -0.014 A 
ATOM     97  C   UNL A   1      45.550  28.129  36.332  1.00  0.00     0.010 A 
ATOM     98  C   UNL A   1      46.703  30.134  35.595  1.00  0.00     0.010 A 
ATOM     99  C   UNL A   1      46.752  27.624  36.833  1.00  0.00     0.020 A 
ATOM    100  C   UNL A   1      47.911  29.622  36.076  1.00  0.00     0.020 A 
ATOM    101  C   UNL A   1      47.926  28.374  36.703  1.00  0.00     0.054 A 
BRANCH 101 102
ATOM    102  S   UNL A   1      49.483  27.677  37.318  1.00  0.00     0.124 S 
ATOM    103  O   UNL A   1      50.299  28.875  37.504  1.00  0.00    -0.237 OA
ATOM    104  O   UNL A   1      49.072  27.001  38.545  1.00  0.00    -0.237 OA
ATOM    105  O   UNL A   1      49.914  26.790  36.240  1.00  0.00    -0.744 OA
ENDBRANCH 101 102
ENDBRANCH  75  96
ENDBRANCH  49  50
ENDBRANCH  41  44
ENDBRANCH  39  40
ENDBRANCH  38  39
ENDBRANCH  37  38
ENDBRANCH  36  37
ENDBRANCH   1  36
TORSDOF 21
ENDMDL
MODEL 2
REMARK VINA RESULT:     -10.4      2.476      3.431
REMARK SMILES CCc1ccc(N2C(=O)/C(=C/c3cc(Cl)c(OCC(=O)NCCCCCCNC(=O)c4ccc(-c5c6nc(c(-c7ccc(S(=O)(=O)[O-])cc7)c7ccc([nH]7)c(-c7ccc(S(=O)(=O)[O-])cc7)c7nc(c(-c8ccc(S(=O)(=O)[O-])cc8)c8ccc5[nH]8)C=C7)C=C6)cc4)c(Cl)c3)C(=O)NC2=S)cc1
REMARK SMILES IDX 23 1 22 2 21 3 19 4 20 5 18 7 17 8 16 9 12 10 13 11 93 12
REMARK SMILES IDX 14 13 91 14 15 15 92 16 11 17 7 18 8 19 97 20 9 21 10 22
REMARK SMILES IDX 96 23 98 24 94 25 95 27 6 28 3 29 4 30 100 31 5 32 99 33
REMARK SMILES IDX 2 34 1 35 24 36 25 37 26 38 27 39 28 40 29 41 30 43 31 44
REMARK SMILES IDX 32 45 90 46 33 47 89 48 34 49 35 50 36 51 83 52 37 53 88 54
REMARK SMILES IDX 82 55 84 56 38 57 87 58 81 59 80 60 39 62 69 63 50 64 68 65
REMARK SMILES IDX 51 66 54 67 67 68 85 69 52 70 53 71 66 73 86 74 55 75 40 76
REMARK SMILES IDX 41 77 49 78 42 79 48 80 43 81 44 82 45 83 46 84 47 85 70 86
REMARK SMILES IDX 71 87 79 88 72 89 78 90 73 91 74 92 75 93 76 94 77 95 56 96
REMARK SMILES IDX 57 97 65 98 58 99 64 100 59 101 60 102 61 103 62 104 63 105
REMARK H PARENT 21 6 96 26 28 42 84 61 54 72
REMARK Flexibility Score: inf
ROOT
ATOM      1  C   UNL A   1      31.107  30.098  24.947  1.00  0.00     0.021 C 
ENDROOT
BRANCH   1   2
ATOM      2  C   UNL A   1      30.374  31.365  25.389  1.00  0.00     0.116 C 
BRANCH   2   3
ATOM      3  N   UNL A   1      29.707  32.013  24.279  1.00  0.00    -0.353 N 
ATOM      4  C   UNL A   1      28.594  31.625  23.593  1.00  0.00     0.257 C 
ATOM      5  O   UNL A   1      28.160  32.376  22.717  1.00  0.00    -0.271 OA
ATOM      6  H   UNL A   1      30.115  32.855  23.975  1.00  0.00     0.163 HD
BRANCH   4   7
ATOM      7  C   UNL A   1      27.879  30.315  23.964  1.00  0.00     0.329 C 
BRANCH   7   8
ATOM      8  O   UNL A   1      27.818  29.218  23.069  1.00  0.00    -0.481 OA
BRANCH   8   9
ATOM      9  C   UNL A   1      28.873  28.349  22.998  1.00  0.00     0.157 A 
ATOM     10  C   UNL A   1      30.862  26.340  22.934  1.00  0.00    -0.021 A 
ATOM     11  C   UNL A   1      29.622  26.078  23.514  1.00  0.00     0.032 A 
ATOM     12  C   UNL A   1      31.094  27.583  22.346  1.00  0.00     0.032 A 
ATOM     13  C   UNL A   1      28.639  27.071  23.539  1.00  0.00     0.085 A 
ATOM     14  C   UNL A   1      30.100  28.575  22.356  1.00  0.00     0.085 A 
ATOM     15  Cl  UNL A   1      27.111  26.652  24.243  1.00  0.00    -0.080 Cl
ATOM     16  Cl  UNL A   1      30.449  29.988  21.423  1.00  0.00    -0.080 Cl
BRANCH  10  17
ATOM     17  C   UNL A   1      31.883  25.292  22.928  1.00  0.00     0.028 C 
ATOM     18  N   UNL A   1      33.339  22.716  24.891  1.00  0.00    -0.253 N 
ATOM     19  C   UNL A   1      33.336  23.585  23.793  1.00  0.00     0.270 C 
ATOM     20  C   UNL A   1      33.187  23.174  26.205  1.00  0.00     0.187 C 
ATOM     21  O   UNL A   1      33.870  23.381  22.704  1.00  0.00    -0.268 OA
ATOM     22  C   UNL A   1      32.530  24.815  24.010  1.00  0.00     0.106 C 
ATOM     23  N   UNL A   1      32.774  24.475  26.353  1.00  0.00    -0.298 N 
ATOM     24  S   UNL A   1      33.518  22.342  27.628  1.00  0.00    -0.040 S 
ATOM     25  C   UNL A   1      32.370  25.338  25.377  1.00  0.00     0.263 C 
ATOM     26  H   UNL A   1      32.769  24.826  27.274  1.00  0.00     0.172 HD
ATOM     27  O   UNL A   1      31.917  26.441  25.656  1.00  0.00    -0.269 OA
BRANCH  18  28
ATOM     28  C   UNL A   1      33.433  21.316  24.600  1.00  0.00     0.052 A 
ATOM     29  C   UNL A   1      33.621  18.505  24.334  1.00  0.00    -0.048 A 
ATOM     30  C   UNL A   1      32.435  19.184  24.015  1.00  0.00     0.006 A 
ATOM     31  C   UNL A   1      34.722  19.256  24.757  1.00  0.00     0.006 A 
ATOM     32  C   UNL A   1      32.334  20.572  24.163  1.00  0.00     0.027 A 
ATOM     33  C   UNL A   1      34.628  20.643  24.891  1.00  0.00     0.027 A 
BRANCH  29  34
ATOM     34  C   UNL A   1      33.669  17.002  24.172  1.00  0.00     0.032 C 
ATOM     35  C   UNL A   1      34.843  16.293  24.839  1.00  0.00     0.009 C 
ENDBRANCH  29  34
ENDBRANCH  18  28
ENDBRANCH  10  17
ENDBRANCH   8   9
ENDBRANCH   7   8
ENDBRANCH   4   7
ENDBRANCH   2   3
ENDBRANCH   1   2
BRANCH   1  36
ATOM     36  C   UNL A   1      32.499  29.890  25.558  1.00  0.00     0.002 C 
BRANCH  36  37
ATOM     37  C   UNL A   1      32.683  30.380  26.997  1.00  0.00     0.002 C 
BRANCH  37  38
ATOM     38  C   UNL A   1      33.729  31.478  27.195  1.00  0.00     0.021 C 
BRANCH  38  39
ATOM     39  C   UNL A   1      34.702  31.259  28.351  1.00  0.00     0.116 C 
BRANCH  39  40
ATOM     40  N   UNL A   1      34.368  32.041  29.530  1.00  0.00    -0.352 N 
ATOM     41  C   UNL A   1      35.045  32.159  30.720  1.00  0.00     0.251 C 
ATOM     42  H   UNL A   1      33.533  32.560  29.467  1.00  0.00     0.163 HD
ATOM     43  O   UNL A   1      34.534  32.768  31.656  1.00  0.00    -0.269 OA
BRANCH  41  44
ATOM     44  C   UNL A   1      36.375  31.529  30.885  1.00  0.00     0.039 A 
ATOM     45  C   UNL A   1      37.482  32.125  30.273  1.00  0.00     0.014 A 
ATOM     46  C   UNL A   1      36.536  30.362  31.635  1.00  0.00     0.014 A 
ATOM     47  C   UNL A   1      38.759  31.594  30.476  1.00  0.00     0.010 A 
ATOM     48  C   UNL A   1      37.815  29.867  31.885  1.00  0.00     0.010 A 
ATOM     49  C   UNL A   1      38.940  30.483  31.316  1.00  0.00    -0.014 A 
BRANCH  49  50
ATOM     50  C   UNL A   1      40.298  29.974  31.637  1.00  0.00     0.031 A 
ATOM     51  C   UNL A   1      41.138  30.642  32.689  1.00  0.00     0.074 A 
ATOM     52  C   UNL A   1      40.807  28.950  30.922  1.00  0.00     0.049 A 
ATOM     53  N   UNL A   1      42.368  30.383  33.049  1.00  0.00    -0.248 NA
ATOM     54  C   UNL A   1      40.521  31.764  33.414  1.00  0.00     0.031 C 
ATOM     55  C   UNL A   1      40.114  28.243  29.843  1.00  0.00     0.029 A 
ATOM     56  N   UNL A   1      42.033  28.337  30.987  1.00  0.00    -0.354 N 
ATOM     57  C   UNL A   1      42.679  31.312  34.033  1.00  0.00     0.074 A 
ATOM     58  C   UNL A   1      41.522  32.170  34.181  1.00  0.00     0.031 C 
ATOM     59  C   UNL A   1      40.922  27.288  29.354  1.00  0.00     0.029 A 
ATOM     60  C   UNL A   1      42.199  27.336  30.060  1.00  0.00     0.049 A 
ATOM     61  H   UNL A   1      42.730  28.591  31.635  1.00  0.00     0.167 HD
ATOM     62  C   UNL A   1      43.816  31.434  34.761  1.00  0.00     0.031 A 
ATOM     63  C   UNL A   1      43.259  26.550  29.795  1.00  0.00     0.031 A 
ATOM     64  C   UNL A   1      44.968  30.584  34.613  1.00  0.00     0.049 A 
ATOM     65  C   UNL A   1      44.513  26.702  30.609  1.00  0.00     0.074 A 
ATOM     66  C   UNL A   1      46.149  30.600  35.335  1.00  0.00     0.029 A 
ATOM     67  N   UNL A   1      45.086  29.568  33.677  1.00  0.00    -0.354 N 
ATOM     68  N   UNL A   1      44.765  27.550  31.576  1.00  0.00    -0.248 NA
ATOM     69  C   UNL A   1      45.621  25.787  30.301  1.00  0.00     0.031 C 
ATOM     70  C   UNL A   1      46.998  29.619  34.808  1.00  0.00     0.029 A 
ATOM     71  C   UNL A   1      46.327  28.963  33.788  1.00  0.00     0.049 A 
ATOM     72  H   UNL A   1      44.391  29.314  33.028  1.00  0.00     0.167 HD
ATOM     73  C   UNL A   1      46.058  27.262  32.003  1.00  0.00     0.074 A 
ATOM     74  C   UNL A   1      46.526  26.152  31.199  1.00  0.00     0.031 C 
ATOM     75  C   UNL A   1      46.787  27.866  32.973  1.00  0.00     0.031 A 
BRANCH  62  76
ATOM     76  C   UNL A   1      43.864  32.543  35.778  1.00  0.00    -0.014 A 
ATOM     77  C   UNL A   1      43.357  32.354  37.076  1.00  0.00     0.010 A 
ATOM     78  C   UNL A   1      44.427  33.786  35.438  1.00  0.00     0.010 A 
ATOM     79  C   UNL A   1      43.359  33.404  37.997  1.00  0.00     0.020 A 
ATOM     80  C   UNL A   1      44.455  34.831  36.365  1.00  0.00     0.020 A 
ATOM     81  C   UNL A   1      43.898  34.641  37.631  1.00  0.00     0.054 A 
BRANCH  81  82
ATOM     82  S   UNL A   1      43.878  35.993  38.840  1.00  0.00     0.124 S 
ATOM     83  O   UNL A   1      45.138  35.780  39.548  1.00  0.00    -0.237 OA
ATOM     84  O   UNL A   1      43.826  37.183  37.994  1.00  0.00    -0.237 OA
ATOM     85  O   UNL A   1      42.672  35.738  39.623  1.00  0.00    -0.744 OA
ENDBRANCH  81  82
ENDBRANCH  62  76
BRANCH  63  86
ATOM     86  C   UNL A   1      43.169  25.541  28.706  1.00  0.00    -0.014 A 
ATOM     87  C   UNL A   1      43.749  25.792  27.451  1.00  0.00     0.010 A 
ATOM     88  C   UNL A   1      42.542  24.304  28.937  1.00  0.00     0.010 A 
ATOM     89  C   UNL A   1      43.703  24.824  26.444  1.00  0.00     0.020 A 
ATOM     90  C   UNL A   1      42.513  23.324  27.940  1.00  0.00     0.020 A 
ATOM     91  C   UNL A   1      43.089  23.593  26.697  1.00  0.00     0.054 A 
BRANCH  91  92
ATOM     92  S   UNL A   1      43.116  22.317  25.407  1.00  0.00     0.124 S 
ATOM     93  O   UNL A   1      41.822  21.668  25.596  1.00  0.00    -0.237 OA
ATOM     94  O   UNL A   1      43.258  23.104  24.185  1.00  0.00    -0.237 OA
ATOM     95  O   UNL A   1      44.281  21.506  25.755  1.00  0.00    -0.744 OA
ENDBRANCH  91  92
ENDBRANCH  63  86
BRANCH  75  96
ATOM     96  C   UNL A   1      48.171  27.333  33.226  1.00  0.00    -0.014 A 
ATOM     97  C   UNL A   1      48.381  26.260  34.111  1.00  0.00     0.010 A 
ATOM     98  C   UNL A   1      49.267  27.878  32.534  1.00  0.00     0.010 A 
ATOM     99  C   UNL A   1      49.669  25.757  34.316  1.00  0.00     0.020 A 
ATOM    100  C   UNL A   1      50.553  27.363  32.720  1.00  0.00     0.020 A 
ATOM    101  C   UNL A   1      50.747  26.313  33.619  1.00  0.00     0.054 A 
BRANCH 101 102
ATOM    102  S   UNL A   1      52.402  25.612  33.865  1.00  0.00     0.124 S 
ATOM    103  O   UNL A   1      53.209  26.810  34.085  1.00  0.00    -0.237 OA
ATOM    104  O   UNL A   1      52.220  24.755  35.033  1.00  0.00    -0.237 OA
ATOM    105  O   UNL A   1      52.666  24.903  32.615  1.00  0.00    -0.744 OA
ENDBRANCH 101 102
ENDBRANCH  75  96
ENDBRANCH  49  50
ENDBRANCH  41  44
ENDBRANCH  39  40
ENDBRANCH  38  39
ENDBRANCH  37  38
ENDBRANCH  36  37
ENDBRANCH   1  36
TORSDOF 21
ENDMDL
MODEL 3
REMARK VINA RESULT:     -10.3      3.695     10.727
REMARK SMILES CCc1ccc(N2C(=O)/C(=C/c3cc(Cl)c(OCC(=O)NCCCCCCNC(=O)c4ccc(-c5c6nc(c(-c7ccc(S(=O)(=O)[O-])cc7)c7ccc([nH]7)c(-c7ccc(S(=O)(=O)[O-])cc7)c7nc(c(-c8ccc(S(=O)(=O)[O-])cc8)c8ccc5[nH]8)C=C7)C=C6)cc4)c(Cl)c3)C(=O)NC2=S)cc1
REMARK SMILES IDX 23 1 22 2 21 3 19 4 20 5 18 7 17 8 16 9 12 10 13 11 93 12
REMARK SMILES IDX 14 13 91 14 15 15 92 16 11 17 7 18 8 19 97 20 9 21 10 22
REMARK SMILES IDX 96 23 98 24 94 25 95 27 6 28 3 29 4 30 100 31 5 32 99 33
REMARK SMILES IDX 2 34 1 35 24 36 25 37 26 38 27 39 28 40 29 41 30 43 31 44
REMARK SMILES IDX 32 45 90 46 33 47 89 48 34 49 35 50 36 51 83 52 37 53 88 54
REMARK SMILES IDX 82 55 84 56 38 57 87 58 81 59 80 60 39 62 69 63 50 64 68 65
REMARK SMILES IDX 51 66 54 67 67 68 85 69 52 70 53 71 66 73 86 74 55 75 40 76
REMARK SMILES IDX 41 77 49 78 42 79 48 80 43 81 44 82 45 83 46 84 47 85 70 86
REMARK SMILES IDX 71 87 79 88 72 89 78 90 73 91 74 92 75 93 76 94 77 95 56 96
REMARK SMILES IDX 57 97 65 98 58 99 64 100 59 101 60 102 61 103 62 104 63 105
REMARK H PARENT 21 6 96 26 28 42 84 61 54 72
REMARK Flexibility Score: inf
ROOT
ATOM      1  C   UNL A   1      44.645  22.594  25.771  1.00  0.00     0.021 C 
ENDROOT
BRANCH   1   2
ATOM      2  C   UNL A   1      44.024  21.334  25.165  1.00  0.00     0.116 C 
BRANCH   2   3
ATOM      3  N   UNL A   1      43.462  20.472  26.184  1.00  0.00    -0.353 N 
ATOM      4  C   UNL A   1      42.206  20.465  26.715  1.00  0.00     0.257 C 
ATOM      5  O   UNL A   1      41.925  19.586  27.532  1.00  0.00    -0.271 OA
ATOM      6  H   UNL A   1      44.074  19.792  26.546  1.00  0.00     0.163 HD
BRANCH   4   7
ATOM      7  C   UNL A   1      41.165  21.494  26.243  1.00  0.00     0.329 C 
BRANCH   7   8
ATOM      8  O   UNL A   1      39.928  21.666  26.911  1.00  0.00    -0.481 OA
BRANCH   8   9
ATOM      9  C   UNL A   1      38.822  22.036  26.194  1.00  0.00     0.157 A 
ATOM     10  C   UNL A   1      36.613  23.082  24.773  1.00  0.00    -0.021 A 
ATOM     11  C   UNL A   1      37.367  23.911  25.601  1.00  0.00     0.032 A 
ATOM     12  C   UNL A   1      36.987  21.747  24.616  1.00  0.00     0.032 A 
ATOM     13  C   UNL A   1      38.462  23.392  26.298  1.00  0.00     0.085 A 
ATOM     14  C   UNL A   1      38.098  21.231  25.302  1.00  0.00     0.085 A 
ATOM     15  Cl  UNL A   1      39.371  24.498  27.276  1.00  0.00    -0.080 Cl
ATOM     16  Cl  UNL A   1      38.563  19.625  24.864  1.00  0.00    -0.080 Cl
BRANCH  10  17
ATOM     17  C   UNL A   1      35.463  23.639  24.061  1.00  0.00     0.028 C 
ATOM     18  N   UNL A   1      32.156  24.858  24.495  1.00  0.00    -0.253 N 
ATOM     19  C   UNL A   1      33.208  24.386  23.700  1.00  0.00     0.270 C 
ATOM     20  C   UNL A   1      31.684  24.150  25.605  1.00  0.00     0.187 C 
ATOM     21  O   UNL A   1      33.409  24.668  22.520  1.00  0.00    -0.268 OA
ATOM     22  C   UNL A   1      34.173  23.531  24.438  1.00  0.00     0.106 C 
ATOM     23  N   UNL A   1      32.462  23.105  26.037  1.00  0.00    -0.298 N 
ATOM     24  S   UNL A   1      30.239  24.380  26.432  1.00  0.00    -0.040 S 
ATOM     25  C   UNL A   1      33.704  22.752  25.596  1.00  0.00     0.263 C 
ATOM     26  H   UNL A   1      32.078  22.543  26.750  1.00  0.00     0.172 HD
ATOM     27  O   UNL A   1      34.341  21.862  26.146  1.00  0.00    -0.269 OA
BRANCH  18  28
ATOM     28  C   UNL A   1      31.628  26.149  24.159  1.00  0.00     0.052 A 
ATOM     29  C   UNL A   1      30.349  28.628  23.688  1.00  0.00    -0.048 A 
ATOM     30  C   UNL A   1      31.536  28.557  24.434  1.00  0.00     0.006 A 
ATOM     31  C   UNL A   1      29.829  27.445  23.154  1.00  0.00     0.006 A 
ATOM     32  C   UNL A   1      32.160  27.329  24.683  1.00  0.00     0.027 A 
ATOM     33  C   UNL A   1      30.459  26.221  23.389  1.00  0.00     0.027 A 
BRANCH  29  34
ATOM     34  C   UNL A   1      29.706  29.979  23.464  1.00  0.00     0.032 C 
ATOM     35  C   UNL A   1      28.361  29.971  22.748  1.00  0.00     0.009 C 
ENDBRANCH  29  34
ENDBRANCH  18  28
ENDBRANCH  10  17
ENDBRANCH   8   9
ENDBRANCH   7   8
ENDBRANCH   4   7
ENDBRANCH   2   3
ENDBRANCH   1   2
BRANCH   1  36
ATOM     36  C   UNL A   1      44.636  23.836  24.871  1.00  0.00     0.002 C 
BRANCH  36  37
ATOM     37  C   UNL A   1      43.650  24.941  25.260  1.00  0.00     0.002 C 
BRANCH  37  38
ATOM     38  C   UNL A   1      42.921  24.742  26.589  1.00  0.00     0.021 C 
BRANCH  38  39
ATOM     39  C   UNL A   1      43.442  25.575  27.757  1.00  0.00     0.116 C 
BRANCH  39  40
ATOM     40  N   UNL A   1      44.771  25.174  28.190  1.00  0.00    -0.352 N 
ATOM     41  C   UNL A   1      45.529  25.646  29.235  1.00  0.00     0.251 C 
ATOM     42  H   UNL A   1      45.190  24.460  27.655  1.00  0.00     0.163 HD
ATOM     43  O   UNL A   1      46.691  25.273  29.365  1.00  0.00    -0.269 OA
BRANCH  41  44
ATOM     44  C   UNL A   1      44.956  26.626  30.186  1.00  0.00     0.039 A 
ATOM     45  C   UNL A   1      44.223  26.152  31.279  1.00  0.00     0.014 A 
ATOM     46  C   UNL A   1      45.137  28.000  30.008  1.00  0.00     0.014 A 
ATOM     47  C   UNL A   1      43.737  27.052  32.232  1.00  0.00     0.010 A 
ATOM     48  C   UNL A   1      44.702  28.891  30.989  1.00  0.00     0.010 A 
ATOM     49  C   UNL A   1      44.007  28.425  32.115  1.00  0.00    -0.014 A 
BRANCH  49  50
ATOM     50  C   UNL A   1      43.599  29.383  33.175  1.00  0.00     0.031 A 
ATOM     51  C   UNL A   1      42.329  30.176  33.043  1.00  0.00     0.074 A 
ATOM     52  C   UNL A   1      44.417  29.595  34.226  1.00  0.00     0.049 A 
ATOM     53  N   UNL A   1      41.853  31.107  33.828  1.00  0.00    -0.248 NA
ATOM     54  C   UNL A   1      41.498  29.902  31.861  1.00  0.00     0.031 C 
ATOM     55  C   UNL A   1      45.699  28.926  34.450  1.00  0.00     0.029 A 
ATOM     56  N   UNL A   1      44.296  30.448  35.294  1.00  0.00    -0.354 N 
ATOM     57  C   UNL A   1      40.674  31.539  33.234  1.00  0.00     0.074 A 
ATOM     58  C   UNL A   1      40.531  30.798  31.998  1.00  0.00     0.031 C 
ATOM     59  C   UNL A   1      46.242  29.386  35.589  1.00  0.00     0.029 A 
ATOM     60  C   UNL A   1      45.365  30.405  36.157  1.00  0.00     0.049 A 
ATOM     61  H   UNL A   1      43.518  31.036  35.430  1.00  0.00     0.167 HD
ATOM     62  C   UNL A   1      39.782  32.456  33.681  1.00  0.00     0.031 A 
ATOM     63  C   UNL A   1      45.622  31.111  37.275  1.00  0.00     0.031 A 
ATOM     64  C   UNL A   1      39.924  33.195  34.907  1.00  0.00     0.049 A 
ATOM     65  C   UNL A   1      44.623  32.126  37.752  1.00  0.00     0.074 A 
ATOM     66  C   UNL A   1      39.051  34.112  35.467  1.00  0.00     0.029 A 
ATOM     67  N   UNL A   1      41.011  33.105  35.763  1.00  0.00    -0.354 N 
ATOM     68  N   UNL A   1      43.485  32.478  37.205  1.00  0.00    -0.248 NA
ATOM     69  C   UNL A   1      44.939  32.834  39.000  1.00  0.00     0.031 C 
ATOM     70  C   UNL A   1      39.630  34.607  36.642  1.00  0.00     0.029 A 
ATOM     71  C   UNL A   1      40.842  33.965  36.836  1.00  0.00     0.049 A 
ATOM     72  H   UNL A   1      41.790  32.518  35.629  1.00  0.00     0.167 HD
ATOM     73  C   UNL A   1      42.941  33.440  38.050  1.00  0.00     0.074 A 
ATOM     74  C   UNL A   1      43.868  33.601  39.152  1.00  0.00     0.031 C 
ATOM     75  C   UNL A   1      41.779  34.126  37.921  1.00  0.00     0.031 A 
BRANCH  62  76
ATOM     76  C   UNL A   1      38.575  32.714  32.820  1.00  0.00    -0.014 A 
ATOM     77  C   UNL A   1      37.415  31.928  32.948  1.00  0.00     0.010 A 
ATOM     78  C   UNL A   1      38.593  33.757  31.876  1.00  0.00     0.010 A 
ATOM     79  C   UNL A   1      36.319  32.142  32.109  1.00  0.00     0.020 A 
ATOM     80  C   UNL A   1      37.488  33.990  31.052  1.00  0.00     0.020 A 
ATOM     81  C   UNL A   1      36.367  33.165  31.158  1.00  0.00     0.054 A 
BRANCH  81  82
ATOM     82  S   UNL A   1      34.936  33.414  30.072  1.00  0.00     0.124 S 
ATOM     83  O   UNL A   1      34.662  32.052  29.621  1.00  0.00    -0.237 OA
ATOM     84  O   UNL A   1      33.940  33.989  30.973  1.00  0.00    -0.237 OA
ATOM     85  O   UNL A   1      35.437  34.322  29.043  1.00  0.00    -0.744 OA
ENDBRANCH  81  82
ENDBRANCH  62  76
BRANCH  63  86
ATOM     86  C   UNL A   1      46.886  30.868  38.019  1.00  0.00    -0.014 A 
ATOM     87  C   UNL A   1      46.952  29.870  39.006  1.00  0.00     0.010 A 
ATOM     88  C   UNL A   1      48.043  31.604  37.709  1.00  0.00     0.010 A 
ATOM     89  C   UNL A   1      48.154  29.612  39.671  1.00  0.00     0.020 A 
ATOM     90  C   UNL A   1      49.253  31.335  38.355  1.00  0.00     0.020 A 
ATOM     91  C   UNL A   1      49.299  30.343  39.338  1.00  0.00     0.054 A 
BRANCH  91  92
ATOM     92  S   UNL A   1      50.869  29.935  40.151  1.00  0.00     0.124 S 
ATOM     93  O   UNL A   1      51.847  30.429  39.187  1.00  0.00    -0.237 OA
ATOM     94  O   UNL A   1      50.781  30.681  41.403  1.00  0.00    -0.237 OA
ATOM     95  O   UNL A   1      50.809  28.482  40.296  1.00  0.00    -0.744 OA
ENDBRANCH  91  92
ENDBRANCH  63  86
BRANCH  75  96
ATOM     96  C   UNL A   1      41.437  35.112  39.005  1.00  0.00    -0.014 A 
ATOM     97  C   UNL A   1      41.818  36.462  38.900  1.00  0.00     0.010 A 
ATOM     98  C   UNL A   1      40.682  34.694  40.116  1.00  0.00     0.010 A 
ATOM     99  C   UNL A   1      41.469  37.372  39.902  1.00  0.00     0.020 A 
ATOM    100  C   UNL A   1      40.314  35.607  41.108  1.00  0.00     0.020 A 
ATOM    101  C   UNL A   1      40.720  36.938  41.000  1.00  0.00     0.054 A 
BRANCH 101 102
ATOM    102  S   UNL A   1      40.238  38.147  42.263  1.00  0.00     0.124 S 
ATOM    103  O   UNL A   1      39.579  37.303  43.256  1.00  0.00    -0.237 OA
ATOM    104  O   UNL A   1      41.520  38.714  42.674  1.00  0.00    -0.237 OA
ATOM    105  O   UNL A   1      39.360  39.067  41.545  1.00  0.00    -0.744 OA
ENDBRANCH 101 102
ENDBRANCH  75  96
ENDBRANCH  49  50
ENDBRANCH  41  44
ENDBRANCH  39  40
ENDBRANCH  38  39
ENDBRANCH  37  38
ENDBRANCH  36  37
ENDBRANCH   1  36
TORSDOF 21
ENDMDL
