MODEL 1
REMARK VINA RESULT:      -9.5      0.000      0.000
REMARK SMILES O=C(NCCCCCCNC(=O)c1ccc(C[NH2+]CCOc2ccccc2)nc1)c1ccc(-c2c3nc(c(-c4ccc(S(=O)(=O)[O-])cc4)c4ccc([nH]4)c(-c4ccc(S(=O)(=O)[O-])cc4)c4nc(c(-c5ccc(S(=O)(=O)[O-])cc5)c5ccc2[nH]5)C=C4)C=C3)cc1
REMARK SMILES IDX 8 1 7 2 6 3 5 4 4 5 3 6 1 7 2 8 30 10 31 11 89 12 32 13
REMARK SMILES IDX 88 14 33 15 34 16 35 17 82 18 36 19 87 20 81 21 83 22 37 23
REMARK SMILES IDX 86 24 80 25 79 26 38 28 68 29 49 30 67 31 50 32 53 33 66 34
REMARK SMILES IDX 84 35 51 36 52 37 65 39 85 40 54 41 39 42 40 43 48 44 41 45
REMARK SMILES IDX 47 46 42 47 43 48 44 49 45 50 46 51 69 52 70 53 78 54 71 55
REMARK SMILES IDX 77 56 72 57 73 58 74 59 75 60 76 61 55 62 56 63 64 64 57 65
REMARK SMILES IDX 63 66 58 67 59 68 60 69 61 70 62 71 9 72 10 73 11 74 12 76
REMARK SMILES IDX 13 77 14 78 29 79 15 80 28 81 16 82 17 83 18 84 19 87 20 88
REMARK SMILES IDX 21 89 22 90 23 91 27 92 24 93 26 94 25 95
REMARK H PARENT 3 9 83 27 53 38 10 75 18 85 18 86
REMARK Flexibility Score: inf
ROOT
ATOM      1  C   UNL A   1      33.712  27.890  22.486  1.00  0.00     0.021 C 
ENDROOT
BRANCH   1   2
ATOM      2  C   UNL A   1      33.282  29.207  23.139  1.00  0.00     0.002 C 
BRANCH   2   3
ATOM      3  C   UNL A   1      33.160  29.182  24.666  1.00  0.00     0.002 C 
BRANCH   3   4
ATOM      4  C   UNL A   1      33.886  28.037  25.371  1.00  0.00     0.021 C 
BRANCH   4   5
ATOM      5  C   UNL A   1      33.954  28.149  26.889  1.00  0.00     0.116 C 
BRANCH   5   6
ATOM      6  N   UNL A   1      33.652  29.489  27.363  1.00  0.00    -0.352 N 
ATOM      7  O   UNL A   1      33.965  31.384  28.542  1.00  0.00    -0.269 OA
ATOM      8  C   UNL A   1      34.442  30.349  28.088  1.00  0.00     0.251 C 
ATOM      9  H   UNL A   1      32.758  29.828  27.132  1.00  0.00     0.163 HD
BRANCH   8  10
ATOM     10  C   UNL A   1      35.861  30.010  28.339  1.00  0.00     0.039 A 
ATOM     11  C   UNL A   1      36.278  29.567  29.596  1.00  0.00     0.014 A 
ATOM     12  C   UNL A   1      36.785  30.130  27.296  1.00  0.00     0.014 A 
ATOM     13  C   UNL A   1      37.632  29.370  29.847  1.00  0.00     0.010 A 
ATOM     14  C   UNL A   1      38.136  29.853  27.529  1.00  0.00     0.010 A 
ATOM     15  C   UNL A   1      38.575  29.495  28.813  1.00  0.00    -0.014 A 
BRANCH  15  16
ATOM     16  C   UNL A   1      39.998  29.169  29.083  1.00  0.00     0.031 A 
ATOM     17  C   UNL A   1      40.582  27.835  28.706  1.00  0.00     0.074 A 
ATOM     18  C   UNL A   1      40.774  30.107  29.661  1.00  0.00     0.049 A 
ATOM     19  N   UNL A   1      41.811  27.409  28.851  1.00  0.00    -0.248 NA
ATOM     20  C   UNL A   1      39.675  26.852  28.095  1.00  0.00     0.031 C 
ATOM     21  C   UNL A   1      40.315  31.434  30.084  1.00  0.00     0.029 A 
ATOM     22  N   UNL A   1      42.107  30.102  29.978  1.00  0.00    -0.354 N 
ATOM     23  C   UNL A   1      41.823  26.104  28.372  1.00  0.00     0.074 A 
ATOM     24  C   UNL A   1      40.472  25.802  27.947  1.00  0.00     0.031 C 
ATOM     25  C   UNL A   1      41.357  32.128  30.564  1.00  0.00     0.029 A 
ATOM     26  C   UNL A   1      42.543  31.279  30.541  1.00  0.00     0.049 A 
ATOM     27  H   UNL A   1      42.697  29.331  29.818  1.00  0.00     0.167 HD
ATOM     28  C   UNL A   1      42.865  25.240  28.292  1.00  0.00     0.031 A 
ATOM     29  C   UNL A   1      43.754  31.636  31.005  1.00  0.00     0.031 A 
ATOM     30  C   UNL A   1      44.206  25.548  28.717  1.00  0.00     0.049 A 
ATOM     31  C   UNL A   1      44.886  30.656  30.917  1.00  0.00     0.074 A 
ATOM     32  C   UNL A   1      45.337  24.751  28.640  1.00  0.00     0.029 A 
ATOM     33  N   UNL A   1      44.600  26.742  29.303  1.00  0.00    -0.354 N 
ATOM     34  N   UNL A   1      44.883  29.442  30.422  1.00  0.00    -0.248 NA
ATOM     35  C   UNL A   1      46.183  31.094  31.446  1.00  0.00     0.031 C 
ATOM     36  C   UNL A   1      46.402  25.444  29.227  1.00  0.00     0.029 A 
ATOM     37  C   UNL A   1      45.949  26.695  29.617  1.00  0.00     0.049 A 
ATOM     38  H   UNL A   1      44.008  27.510  29.471  1.00  0.00     0.167 HD
ATOM     39  C   UNL A   1      46.182  28.972  30.570  1.00  0.00     0.074 A 
ATOM     40  C   UNL A   1      46.947  30.042  31.179  1.00  0.00     0.031 C 
ATOM     41  C   UNL A   1      46.694  27.763  30.233  1.00  0.00     0.031 A 
BRANCH  28  42
ATOM     42  C   UNL A   1      42.594  23.862  27.747  1.00  0.00    -0.014 A 
ATOM     43  C   UNL A   1      42.730  23.579  26.375  1.00  0.00     0.010 A 
ATOM     44  C   UNL A   1      42.257  22.818  28.628  1.00  0.00     0.010 A 
ATOM     45  C   UNL A   1      42.502  22.288  25.894  1.00  0.00     0.020 A 
ATOM     46  C   UNL A   1      42.050  21.520  28.153  1.00  0.00     0.020 A 
ATOM     47  C   UNL A   1      42.159  21.266  26.784  1.00  0.00     0.054 A 
BRANCH  47  48
ATOM     48  S   UNL A   1      41.892  19.594  26.133  1.00  0.00     0.124 S 
ATOM     49  O   UNL A   1      42.768  19.585  24.964  1.00  0.00    -0.237 OA
ATOM     50  O   UNL A   1      42.318  18.745  27.243  1.00  0.00    -0.237 OA
ATOM     51  O   UNL A   1      40.461  19.560  25.839  1.00  0.00    -0.744 OA
ENDBRANCH  47  48
ENDBRANCH  28  42
BRANCH  29  52
ATOM     52  C   UNL A   1      43.940  32.983  31.605  1.00  0.00    -0.014 A 
ATOM     53  C   UNL A   1      43.770  33.186  32.985  1.00  0.00     0.010 A 
ATOM     54  C   UNL A   1      44.336  34.066  30.796  1.00  0.00     0.010 A 
ATOM     55  C   UNL A   1      43.987  34.448  33.545  1.00  0.00     0.020 A 
ATOM     56  C   UNL A   1      44.581  35.321  31.357  1.00  0.00     0.020 A 
ATOM     57  C   UNL A   1      44.395  35.506  32.728  1.00  0.00     0.054 A 
BRANCH  57  58
ATOM     58  S   UNL A   1      44.740  37.118  33.486  1.00  0.00     0.124 S 
ATOM     59  O   UNL A   1      45.342  37.851  32.377  1.00  0.00    -0.237 OA
ATOM     60  O   UNL A   1      43.411  37.566  33.895  1.00  0.00    -0.237 OA
ATOM     61  O   UNL A   1      45.644  36.790  34.587  1.00  0.00    -0.744 OA
ENDBRANCH  57  58
ENDBRANCH  29  52
BRANCH  41  62
ATOM     62  C   UNL A   1      48.158  27.541  30.498  1.00  0.00    -0.014 A 
ATOM     63  C   UNL A   1      48.595  26.898  31.671  1.00  0.00     0.010 A 
ATOM     64  C   UNL A   1      49.106  27.946  29.543  1.00  0.00     0.010 A 
ATOM     65  C   UNL A   1      49.959  26.697  31.899  1.00  0.00     0.020 A 
ATOM     66  C   UNL A   1      50.469  27.723  29.754  1.00  0.00     0.020 A 
ATOM     67  C   UNL A   1      50.888  27.112  30.938  1.00  0.00     0.054 A 
BRANCH  67  68
ATOM     68  S   UNL A   1      52.650  26.808  31.238  1.00  0.00     0.124 S 
ATOM     69  O   UNL A   1      52.621  26.081  32.505  1.00  0.00    -0.237 OA
ATOM     70  O   UNL A   1      53.044  26.023  30.071  1.00  0.00    -0.237 OA
ATOM     71  O   UNL A   1      53.227  28.149  31.303  1.00  0.00    -0.744 OA
ENDBRANCH  67  68
ENDBRANCH  41  62
ENDBRANCH  15  16
ENDBRANCH   8  10
ENDBRANCH   5   6
ENDBRANCH   4   5
ENDBRANCH   3   4
ENDBRANCH   2   3
ENDBRANCH   1   2
BRANCH   1  72
ATOM     72  C   UNL A   1      32.573  27.029  21.947  1.00  0.00     0.116 C 
BRANCH  72  73
ATOM     73  N   UNL A   1      31.269  27.613  22.212  1.00  0.00    -0.352 N 
ATOM     74  C   UNL A   1      30.277  27.164  23.050  1.00  0.00     0.252 C 
ATOM     75  H   UNL A   1      31.069  28.446  21.725  1.00  0.00     0.163 HD
ATOM     76  O   UNL A   1      29.169  27.680  23.046  1.00  0.00    -0.269 OA
BRANCH  74  77
ATOM     77  C   UNL A   1      30.553  26.033  23.949  1.00  0.00     0.058 A 
ATOM     78  C   UNL A   1      30.712  24.733  23.476  1.00  0.00     0.017 A 
ATOM     79  C   UNL A   1      30.657  26.263  25.309  1.00  0.00     0.125 A 
ATOM     80  C   UNL A   1      30.898  23.701  24.391  1.00  0.00     0.030 A 
ATOM     81  N   UNL A   1      30.838  25.275  26.220  1.00  0.00    -0.255 NA
ATOM     82  C   UNL A   1      30.940  24.002  25.754  1.00  0.00     0.094 A 
BRANCH  82  83
ATOM     83  C   UNL A   1      31.130  22.886  26.772  1.00  0.00     0.318 C 
BRANCH  83  84
ATOM     84  N   UNL A   1      32.216  23.172  27.715  1.00  0.00    -0.338 N 
ATOM     85  H   UNL A   1      31.803  23.467  28.600  1.00  0.00     0.346 HD
ATOM     86  H   UNL A   1      32.793  23.898  27.289  1.00  0.00     0.346 HD
BRANCH  84  87
ATOM     87  C   UNL A   1      33.097  22.031  27.975  1.00  0.00     0.302 C 
BRANCH  87  88
ATOM     88  C   UNL A   1      33.489  21.168  26.758  1.00  0.00     0.290 C 
BRANCH  88  89
ATOM     89  O   UNL A   1      34.768  21.555  26.232  1.00  0.00    -0.488 OA
BRANCH  89  90
ATOM     90  C   UNL A   1      34.671  22.507  25.256  1.00  0.00     0.119 A 
ATOM     91  C   UNL A   1      34.872  23.860  25.525  1.00  0.00     0.046 A 
ATOM     92  C   UNL A   1      34.294  22.088  23.982  1.00  0.00     0.046 A 
ATOM     93  C   UNL A   1      34.752  24.791  24.492  1.00  0.00     0.004 A 
ATOM     94  C   UNL A   1      34.202  23.015  22.946  1.00  0.00     0.004 A 
ATOM     95  C   UNL A   1      34.433  24.367  23.200  1.00  0.00     0.000 A 
ENDBRANCH  89  90
ENDBRANCH  88  89
ENDBRANCH  87  88
ENDBRANCH  84  87
ENDBRANCH  83  84
ENDBRANCH  82  83
ENDBRANCH  74  77
ENDBRANCH  72  73
ENDBRANCH   1  72
TORSDOF 22
ENDMDL
MODEL 2
REMARK VINA RESULT:      -9.2      2.852      8.453
REMARK SMILES O=C(NCCCCCCNC(=O)c1ccc(C[NH2+]CCOc2ccccc2)nc1)c1ccc(-c2c3nc(c(-c4ccc(S(=O)(=O)[O-])cc4)c4ccc([nH]4)c(-c4ccc(S(=O)(=O)[O-])cc4)c4nc(c(-c5ccc(S(=O)(=O)[O-])cc5)c5ccc2[nH]5)C=C4)C=C3)cc1
REMARK SMILES IDX 8 1 7 2 6 3 5 4 4 5 3 6 1 7 2 8 30 10 31 11 89 12 32 13
REMARK SMILES IDX 88 14 33 15 34 16 35 17 82 18 36 19 87 20 81 21 83 22 37 23
REMARK SMILES IDX 86 24 80 25 79 26 38 28 68 29 49 30 67 31 50 32 53 33 66 34
REMARK SMILES IDX 84 35 51 36 52 37 65 39 85 40 54 41 39 42 40 43 48 44 41 45
REMARK SMILES IDX 47 46 42 47 43 48 44 49 45 50 46 51 69 52 70 53 78 54 71 55
REMARK SMILES IDX 77 56 72 57 73 58 74 59 75 60 76 61 55 62 56 63 64 64 57 65
REMARK SMILES IDX 63 66 58 67 59 68 60 69 61 70 62 71 9 72 10 73 11 74 12 76
REMARK SMILES IDX 13 77 14 78 29 79 15 80 28 81 16 82 17 83 18 84 19 87 20 88
REMARK SMILES IDX 21 89 22 90 23 91 27 92 24 93 26 94 25 95
REMARK H PARENT 3 9 83 27 53 38 10 75 18 85 18 86
REMARK Flexibility Score: inf
ROOT
ATOM      1  C   UNL A   1      32.633  28.865  23.692  1.00  0.00     0.021 C 
ENDROOT
BRANCH   1   2
ATOM      2  C   UNL A   1      31.513  29.256  24.661  1.00  0.00     0.002 C 
BRANCH   2   3
ATOM      3  C   UNL A   1      31.797  28.998  26.143  1.00  0.00     0.002 C 
BRANCH   3   4
ATOM      4  C   UNL A   1      33.058  28.191  26.447  1.00  0.00     0.021 C 
BRANCH   4   5
ATOM      5  C   UNL A   1      34.302  29.019  26.743  1.00  0.00     0.116 C 
BRANCH   5   6
ATOM      6  N   UNL A   1      33.999  30.423  26.961  1.00  0.00    -0.352 N 
ATOM      7  O   UNL A   1      34.131  32.433  27.971  1.00  0.00    -0.269 OA
ATOM      8  C   UNL A   1      34.623  31.325  27.790  1.00  0.00     0.251 C 
ATOM      9  H   UNL A   1      33.242  30.778  26.443  1.00  0.00     0.163 HD
BRANCH   8  10
ATOM     10  C   UNL A   1      35.875  30.944  28.482  1.00  0.00     0.039 A 
ATOM     11  C   UNL A   1      37.056  31.659  28.267  1.00  0.00     0.014 A 
ATOM     12  C   UNL A   1      35.863  29.859  29.365  1.00  0.00     0.014 A 
ATOM     13  C   UNL A   1      38.247  31.214  28.830  1.00  0.00     0.010 A 
ATOM     14  C   UNL A   1      37.048  29.463  29.994  1.00  0.00     0.010 A 
ATOM     15  C   UNL A   1      38.255  30.120  29.713  1.00  0.00    -0.014 A 
BRANCH  15  16
ATOM     16  C   UNL A   1      39.522  29.737  30.386  1.00  0.00     0.031 A 
ATOM     17  C   UNL A   1      39.999  30.451  31.621  1.00  0.00     0.074 A 
ATOM     18  C   UNL A   1      40.236  28.715  29.877  1.00  0.00     0.049 A 
ATOM     19  N   UNL A   1      41.069  30.218  32.339  1.00  0.00    -0.248 NA
ATOM     20  C   UNL A   1      39.180  31.569  32.112  1.00  0.00     0.031 C 
ATOM     21  C   UNL A   1      39.880  27.956  28.674  1.00  0.00     0.029 A 
ATOM     22  N   UNL A   1      41.395  28.124  30.310  1.00  0.00    -0.354 N 
ATOM     23  C   UNL A   1      41.065  31.171  33.352  1.00  0.00     0.074 A 
ATOM     24  C   UNL A   1      39.894  31.997  33.145  1.00  0.00     0.031 C 
ATOM     25  C   UNL A   1      40.776  26.976  28.491  1.00  0.00     0.029 A 
ATOM     26  C   UNL A   1      41.802  27.072  29.523  1.00  0.00     0.049 A 
ATOM     27  H   UNL A   1      41.890  28.424  31.106  1.00  0.00     0.167 HD
ATOM     28  C   UNL A   1      41.956  31.338  34.361  1.00  0.00     0.031 A 
ATOM     29  C   UNL A   1      42.887  26.281  29.606  1.00  0.00     0.031 A 
ATOM     30  C   UNL A   1      43.118  30.512  34.560  1.00  0.00     0.049 A 
ATOM     31  C   UNL A   1      43.863  26.496  30.724  1.00  0.00     0.074 A 
ATOM     32  C   UNL A   1      44.057  30.580  35.576  1.00  0.00     0.029 A 
ATOM     33  N   UNL A   1      43.507  29.473  33.728  1.00  0.00    -0.354 N 
ATOM     34  N   UNL A   1      43.817  27.378  31.694  1.00  0.00    -0.248 NA
ATOM     35  C   UNL A   1      45.033  25.611  30.762  1.00  0.00     0.031 C 
ATOM     36  C   UNL A   1      45.041  29.616  35.329  1.00  0.00     0.029 A 
ATOM     37  C   UNL A   1      44.684  28.908  34.191  1.00  0.00     0.049 A 
ATOM     38  H   UNL A   1      43.018  29.179  32.925  1.00  0.00     0.167 HD
ATOM     39  C   UNL A   1      44.948  27.147  32.466  1.00  0.00     0.074 A 
ATOM     40  C   UNL A   1      45.645  26.027  31.863  1.00  0.00     0.031 C 
ATOM     41  C   UNL A   1      45.372  27.803  33.574  1.00  0.00     0.031 A 
BRANCH  28  42
ATOM     42  C   UNL A   1      41.724  32.478  35.319  1.00  0.00    -0.014 A 
ATOM     43  C   UNL A   1      42.254  33.758  35.073  1.00  0.00     0.010 A 
ATOM     44  C   UNL A   1      40.912  32.282  36.451  1.00  0.00     0.010 A 
ATOM     45  C   UNL A   1      42.004  34.809  35.960  1.00  0.00     0.020 A 
ATOM     46  C   UNL A   1      40.641  33.336  37.328  1.00  0.00     0.020 A 
ATOM     47  C   UNL A   1      41.202  34.591  37.084  1.00  0.00     0.054 A 
BRANCH  47  48
ATOM     48  S   UNL A   1      40.875  35.981  38.204  1.00  0.00     0.124 S 
ATOM     49  O   UNL A   1      42.157  36.683  38.193  1.00  0.00    -0.237 OA
ATOM     50  O   UNL A   1      39.774  36.675  37.540  1.00  0.00    -0.237 OA
ATOM     51  O   UNL A   1      40.529  35.335  39.468  1.00  0.00    -0.744 OA
ENDBRANCH  47  48
ENDBRANCH  28  42
BRANCH  29  52
ATOM     52  C   UNL A   1      43.101  25.224  28.583  1.00  0.00    -0.014 A 
ATOM     53  C   UNL A   1      42.606  23.923  28.779  1.00  0.00     0.010 A 
ATOM     54  C   UNL A   1      43.766  25.531  27.381  1.00  0.00     0.010 A 
ATOM     55  C   UNL A   1      42.777  22.946  27.794  1.00  0.00     0.020 A 
ATOM     56  C   UNL A   1      43.914  24.565  26.382  1.00  0.00     0.020 A 
ATOM     57  C   UNL A   1      43.426  23.275  26.600  1.00  0.00     0.054 A 
BRANCH  57  58
ATOM     58  S   UNL A   1      43.575  22.013  25.305  1.00  0.00     0.124 S 
ATOM     59  O   UNL A   1      43.373  22.799  24.093  1.00  0.00    -0.237 OA
ATOM     60  O   UNL A   1      44.929  21.505  25.513  1.00  0.00    -0.237 OA
ATOM     61  O   UNL A   1      42.508  21.068  25.627  1.00  0.00    -0.744 OA
ENDBRANCH  57  58
ENDBRANCH  29  52
BRANCH  41  62
ATOM     62  C   UNL A   1      46.641  27.313  34.217  1.00  0.00    -0.014 A 
ATOM     63  C   UNL A   1      47.888  27.870  33.882  1.00  0.00     0.010 A 
ATOM     64  C   UNL A   1      46.578  26.308  35.199  1.00  0.00     0.010 A 
ATOM     65  C   UNL A   1      49.055  27.405  34.494  1.00  0.00     0.020 A 
ATOM     66  C   UNL A   1      47.740  25.858  35.831  1.00  0.00     0.020 A 
ATOM     67  C   UNL A   1      48.973  26.400  35.464  1.00  0.00     0.054 A 
BRANCH  67  68
ATOM     68  S   UNL A   1      50.498  25.838  36.270  1.00  0.00     0.124 S 
ATOM     69  O   UNL A   1      50.419  26.504  37.566  1.00  0.00    -0.237 OA
ATOM     70  O   UNL A   1      50.330  24.387  36.297  1.00  0.00    -0.237 OA
ATOM     71  O   UNL A   1      51.555  26.320  35.384  1.00  0.00    -0.744 OA
ENDBRANCH  67  68
ENDBRANCH  41  62
ENDBRANCH  15  16
ENDBRANCH   8  10
ENDBRANCH   5   6
ENDBRANCH   4   5
ENDBRANCH   3   4
ENDBRANCH   2   3
ENDBRANCH   1   2
BRANCH   1  72
ATOM     72  C   UNL A   1      32.227  27.896  22.585  1.00  0.00     0.116 C 
BRANCH  72  73
ATOM     73  N   UNL A   1      31.173  26.989  23.008  1.00  0.00    -0.352 N 
ATOM     74  C   UNL A   1      31.269  25.671  23.386  1.00  0.00     0.252 C 
ATOM     75  H   UNL A   1      30.265  27.371  23.028  1.00  0.00     0.163 HD
ATOM     76  O   UNL A   1      30.267  24.994  23.563  1.00  0.00    -0.269 OA
BRANCH  74  77
ATOM     77  C   UNL A   1      32.599  25.068  23.560  1.00  0.00     0.058 A 
ATOM     78  C   UNL A   1      33.395  25.339  24.670  1.00  0.00     0.017 A 
ATOM     79  C   UNL A   1      33.079  24.204  22.593  1.00  0.00     0.125 A 
ATOM     80  C   UNL A   1      34.673  24.791  24.733  1.00  0.00     0.030 A 
ATOM     81  N   UNL A   1      34.319  23.657  22.632  1.00  0.00    -0.255 NA
ATOM     82  C   UNL A   1      35.110  23.969  23.693  1.00  0.00     0.094 A 
BRANCH  82  83
ATOM     83  C   UNL A   1      36.508  23.368  23.737  1.00  0.00     0.318 C 
BRANCH  83  84
ATOM     84  N   UNL A   1      36.484  21.908  23.869  1.00  0.00    -0.338 N 
ATOM     85  H   UNL A   1      37.184  21.517  23.239  1.00  0.00     0.346 HD
ATOM     86  H   UNL A   1      35.536  21.608  23.639  1.00  0.00     0.346 HD
BRANCH  84  87
ATOM     87  C   UNL A   1      36.762  21.426  25.223  1.00  0.00     0.302 C 
BRANCH  87  88
ATOM     88  C   UNL A   1      35.555  21.307  26.177  1.00  0.00     0.290 C 
BRANCH  88  89
ATOM     89  O   UNL A   1      34.377  20.878  25.479  1.00  0.00    -0.488 OA
BRANCH  89  90
ATOM     90  C   UNL A   1      33.260  21.572  25.851  1.00  0.00     0.119 A 
ATOM     91  C   UNL A   1      32.097  21.563  25.082  1.00  0.00     0.046 A 
ATOM     92  C   UNL A   1      33.340  22.354  27.002  1.00  0.00     0.046 A 
ATOM     93  C   UNL A   1      30.987  22.297  25.505  1.00  0.00     0.004 A 
ATOM     94  C   UNL A   1      32.223  23.063  27.438  1.00  0.00     0.004 A 
ATOM     95  C   UNL A   1      31.045  23.034  26.691  1.00  0.00     0.000 A 
ENDBRANCH  89  90
ENDBRANCH  88  89
ENDBRANCH  87  88
ENDBRANCH  84  87
ENDBRANCH  83  84
ENDBRANCH  82  83
ENDBRANCH  74  77
ENDBRANCH  72  73
ENDBRANCH   1  72
TORSDOF 22
ENDMDL
MODEL 3
REMARK VINA RESULT:      -9.1      5.199     10.777
REMARK SMILES O=C(NCCCCCCNC(=O)c1ccc(C[NH2+]CCOc2ccccc2)nc1)c1ccc(-c2c3nc(c(-c4ccc(S(=O)(=O)[O-])cc4)c4ccc([nH]4)c(-c4ccc(S(=O)(=O)[O-])cc4)c4nc(c(-c5ccc(S(=O)(=O)[O-])cc5)c5ccc2[nH]5)C=C4)C=C3)cc1
REMARK SMILES IDX 8 1 7 2 6 3 5 4 4 5 3 6 1 7 2 8 30 10 31 11 89 12 32 13
REMARK SMILES IDX 88 14 33 15 34 16 35 17 82 18 36 19 87 20 81 21 83 22 37 23
REMARK SMILES IDX 86 24 80 25 79 26 38 28 68 29 49 30 67 31 50 32 53 33 66 34
REMARK SMILES IDX 84 35 51 36 52 37 65 39 85 40 54 41 39 42 40 43 48 44 41 45
REMARK SMILES IDX 47 46 42 47 43 48 44 49 45 50 46 51 69 52 70 53 78 54 71 55
REMARK SMILES IDX 77 56 72 57 73 58 74 59 75 60 76 61 55 62 56 63 64 64 57 65
REMARK SMILES IDX 63 66 58 67 59 68 60 69 61 70 62 71 9 72 10 73 11 74 12 76
REMARK SMILES IDX 13 77 14 78 29 79 15 80 28 81 16 82 17 83 18 84 19 87 20 88
REMARK SMILES IDX 21 89 22 90 23 91 27 92 24 93 26 94 25 95
REMARK H PARENT 3 9 83 27 53 38 10 75 18 85 18 86
REMARK Flexibility Score: inf
ROOT
ATOM      1  C   UNL A   1      46.195  20.460  25.034  1.00  0.00     0.021 C 
ENDROOT
BRANCH   1   2
ATOM      2  C   UNL A   1      46.409  21.885  24.516  1.00  0.00     0.002 C 
BRANCH   2   3
ATOM      3  C   UNL A   1      45.358  22.914  24.945  1.00  0.00     0.002 C 
BRANCH   3   4
ATOM      4  C   UNL A   1      45.599  23.582  26.298  1.00  0.00     0.021 C 
BRANCH   4   5
ATOM      5  C   UNL A   1      44.499  24.532  26.756  1.00  0.00     0.116 C 
BRANCH   5   6
ATOM      6  N   UNL A   1      43.518  24.792  25.717  1.00  0.00    -0.352 N 
ATOM      7  O   UNL A   1      41.571  25.523  24.848  1.00  0.00    -0.269 OA
ATOM      8  C   UNL A   1      42.369  25.545  25.779  1.00  0.00     0.251 C 
ATOM      9  H   UNL A   1      43.701  24.371  24.847  1.00  0.00     0.163 HD
BRANCH   8  10
ATOM     10  C   UNL A   1      42.088  26.359  26.983  1.00  0.00     0.039 A 
ATOM     11  C   UNL A   1      42.642  27.633  27.129  1.00  0.00     0.014 A 
ATOM     12  C   UNL A   1      41.249  25.841  27.975  1.00  0.00     0.014 A 
ATOM     13  C   UNL A   1      42.466  28.332  28.318  1.00  0.00     0.010 A 
ATOM     14  C   UNL A   1      41.007  26.582  29.136  1.00  0.00     0.010 A 
ATOM     15  C   UNL A   1      41.634  27.823  29.329  1.00  0.00    -0.014 A 
BRANCH  15  16
ATOM     16  C   UNL A   1      41.374  28.643  30.540  1.00  0.00     0.031 A 
ATOM     17  C   UNL A   1      42.212  28.496  31.781  1.00  0.00     0.074 A 
ATOM     18  C   UNL A   1      40.375  29.545  30.503  1.00  0.00     0.049 A 
ATOM     19  N   UNL A   1      42.128  29.155  32.909  1.00  0.00    -0.248 NA
ATOM     20  C   UNL A   1      43.275  27.479  31.758  1.00  0.00     0.031 C 
ATOM     21  C   UNL A   1      39.484  29.767  29.360  1.00  0.00     0.029 A 
ATOM     22  N   UNL A   1      39.947  30.453  31.437  1.00  0.00    -0.354 N 
ATOM     23  C   UNL A   1      43.108  28.621  33.738  1.00  0.00     0.074 A 
ATOM     24  C   UNL A   1      43.764  27.570  32.988  1.00  0.00     0.031 C 
ATOM     25  C   UNL A   1      38.647  30.776  29.643  1.00  0.00     0.029 A 
ATOM     26  C   UNL A   1      38.898  31.231  31.006  1.00  0.00     0.049 A 
ATOM     27  H   UNL A   1      40.352  30.542  32.329  1.00  0.00     0.167 HD
ATOM     28  C   UNL A   1      43.432  28.977  35.005  1.00  0.00     0.031 A 
ATOM     29  C   UNL A   1      38.198  32.191  31.638  1.00  0.00     0.031 A 
ATOM     30  C   UNL A   1      42.775  30.025  35.744  1.00  0.00     0.049 A 
ATOM     31  C   UNL A   1      38.569  32.557  33.044  1.00  0.00     0.074 A 
ATOM     32  C   UNL A   1      43.057  30.484  37.020  1.00  0.00     0.029 A 
ATOM     33  N   UNL A   1      41.701  30.771  35.282  1.00  0.00    -0.354 N 
ATOM     34  N   UNL A   1      39.526  32.066  33.795  1.00  0.00    -0.248 NA
ATOM     35  C   UNL A   1      37.768  33.604  33.689  1.00  0.00     0.031 C 
ATOM     36  C   UNL A   1      42.122  31.472  37.347  1.00  0.00     0.029 A 
ATOM     37  C   UNL A   1      41.293  31.670  36.254  1.00  0.00     0.049 A 
ATOM     38  H   UNL A   1      41.290  30.677  34.392  1.00  0.00     0.167 HD
ATOM     39  C   UNL A   1      39.450  32.754  34.998  1.00  0.00     0.074 A 
ATOM     40  C   UNL A   1      38.368  33.710  34.867  1.00  0.00     0.031 C 
ATOM     41  C   UNL A   1      40.208  32.607  36.113  1.00  0.00     0.031 A 
BRANCH  28  42
ATOM     42  C   UNL A   1      44.533  28.210  35.691  1.00  0.00    -0.014 A 
ATOM     43  C   UNL A   1      44.263  27.035  36.414  1.00  0.00     0.010 A 
ATOM     44  C   UNL A   1      45.866  28.638  35.558  1.00  0.00     0.010 A 
ATOM     45  C   UNL A   1      45.302  26.322  37.019  1.00  0.00     0.020 A 
ATOM     46  C   UNL A   1      46.911  27.916  36.141  1.00  0.00     0.020 A 
ATOM     47  C   UNL A   1      46.620  26.769  36.883  1.00  0.00     0.054 A 
BRANCH  47  48
ATOM     48  S   UNL A   1      47.950  25.810  37.658  1.00  0.00     0.124 S 
ATOM     49  O   UNL A   1      49.113  26.660  37.416  1.00  0.00    -0.237 OA
ATOM     50  O   UNL A   1      47.515  25.725  39.051  1.00  0.00    -0.237 OA
ATOM     51  O   UNL A   1      47.939  24.545  36.927  1.00  0.00    -0.744 OA
ENDBRANCH  47  48
ENDBRANCH  28  42
BRANCH  29  52
ATOM     52  C   UNL A   1      37.071  32.857  30.935  1.00  0.00    -0.014 A 
ATOM     53  C   UNL A   1      35.742  32.471  31.179  1.00  0.00     0.010 A 
ATOM     54  C   UNL A   1      37.324  33.921  30.047  1.00  0.00     0.010 A 
ATOM     55  C   UNL A   1      34.686  33.131  30.544  1.00  0.00     0.020 A 
ATOM     56  C   UNL A   1      36.270  34.601  29.432  1.00  0.00     0.020 A 
ATOM     57  C   UNL A   1      34.957  34.195  29.678  1.00  0.00     0.054 A 
BRANCH  57  58
ATOM     58  S   UNL A   1      33.570  35.084  28.918  1.00  0.00     0.124 S 
ATOM     59  O   UNL A   1      33.382  36.196  29.843  1.00  0.00    -0.237 OA
ATOM     60  O   UNL A   1      34.101  35.434  27.604  1.00  0.00    -0.237 OA
ATOM     61  O   UNL A   1      32.497  34.091  28.903  1.00  0.00    -0.744 OA
ENDBRANCH  57  58
ENDBRANCH  29  52
BRANCH  41  62
ATOM     62  C   UNL A   1      39.904  33.515  37.273  1.00  0.00    -0.014 A 
ATOM     63  C   UNL A   1      40.409  34.828  37.320  1.00  0.00     0.010 A 
ATOM     64  C   UNL A   1      39.070  33.062  38.311  1.00  0.00     0.010 A 
ATOM     65  C   UNL A   1      40.112  35.659  38.404  1.00  0.00     0.020 A 
ATOM     66  C   UNL A   1      38.750  33.898  39.383  1.00  0.00     0.020 A 
ATOM     67  C   UNL A   1      39.285  35.187  39.430  1.00  0.00     0.054 A 
BRANCH  67  68
ATOM     68  S   UNL A   1      38.885  36.295  40.808  1.00  0.00     0.124 S 
ATOM     69  O   UNL A   1      37.790  35.584  41.461  1.00  0.00    -0.237 OA
ATOM     70  O   UNL A   1      40.138  36.344  41.557  1.00  0.00    -0.237 OA
ATOM     71  O   UNL A   1      38.512  37.545  40.150  1.00  0.00    -0.744 OA
ENDBRANCH  67  68
ENDBRANCH  41  62
ENDBRANCH  15  16
ENDBRANCH   8  10
ENDBRANCH   5   6
ENDBRANCH   4   5
ENDBRANCH   3   4
ENDBRANCH   2   3
ENDBRANCH   1   2
BRANCH   1  72
ATOM     72  C   UNL A   1      45.003  19.721  24.434  1.00  0.00     0.116 C 
BRANCH  72  73
ATOM     73  N   UNL A   1      44.620  18.563  25.223  1.00  0.00    -0.352 N 
ATOM     74  C   UNL A   1      43.561  18.419  26.087  1.00  0.00     0.252 C 
ATOM     75  H   UNL A   1      45.199  17.771  25.125  1.00  0.00     0.163 HD
ATOM     76  O   UNL A   1      43.462  17.433  26.801  1.00  0.00    -0.269 OA
BRANCH  74  77
ATOM     77  C   UNL A   1      42.545  19.480  26.161  1.00  0.00     0.058 A 
ATOM     78  C   UNL A   1      42.866  20.789  26.508  1.00  0.00     0.017 A 
ATOM     79  C   UNL A   1      41.227  19.171  25.880  1.00  0.00     0.125 A 
ATOM     80  C   UNL A   1      41.842  21.725  26.630  1.00  0.00     0.030 A 
ATOM     81  N   UNL A   1      40.212  20.064  25.991  1.00  0.00    -0.255 NA
ATOM     82  C   UNL A   1      40.527  21.328  26.381  1.00  0.00     0.094 A 
BRANCH  82  83
ATOM     83  C   UNL A   1      39.392  22.332  26.521  1.00  0.00     0.318 C 
BRANCH  83  84
ATOM     84  N   UNL A   1      38.524  22.359  25.339  1.00  0.00    -0.338 N 
ATOM     85  H   UNL A   1      38.574  21.449  24.883  1.00  0.00     0.346 HD
ATOM     86  H   UNL A   1      38.860  23.117  24.745  1.00  0.00     0.346 HD
BRANCH  84  87
ATOM     87  C   UNL A   1      37.119  22.647  25.637  1.00  0.00     0.302 C 
BRANCH  87  88
ATOM     88  C   UNL A   1      36.065  21.890  24.801  1.00  0.00     0.290 C 
BRANCH  88  89
ATOM     89  O   UNL A   1      36.119  20.477  25.048  1.00  0.00    -0.488 OA
BRANCH  89  90
ATOM     90  C   UNL A   1      34.905  19.868  24.897  1.00  0.00     0.119 A 
ATOM     91  C   UNL A   1      33.713  20.512  25.227  1.00  0.00     0.046 A 
ATOM     92  C   UNL A   1      34.896  18.545  24.462  1.00  0.00     0.046 A 
ATOM     93  C   UNL A   1      32.501  19.841  25.060  1.00  0.00     0.004 A 
ATOM     94  C   UNL A   1      33.683  17.886  24.269  1.00  0.00     0.004 A 
ATOM     95  C   UNL A   1      32.485  18.534  24.567  1.00  0.00     0.000 A 
ENDBRANCH  89  90
ENDBRANCH  88  89
ENDBRANCH  87  88
ENDBRANCH  84  87
ENDBRANCH  83  84
ENDBRANCH  82  83
ENDBRANCH  74  77
ENDBRANCH  72  73
ENDBRANCH   1  72
TORSDOF 22
ENDMDL
