MODEL 1
REMARK VINA RESULT:     -13.2      0.000      0.000
REMARK SMILES Cc1ccc(C(=O)NCCCCCCNC(=O)c2ccc(-c3c4nc(c(-c5ccc(S(=O)(=O)[O-])cc5)c5ccc([nH]5)c(-c5ccc(S(=O)(=O)[O-])cc5)c5nc(c(-c6ccc(S(=O)(=O)[O-])cc6)c6ccc3[nH]6)C=C5)C=C4)cc2)c(Oc2cccc(F)c2C(N)=O)c1
REMARK SMILES IDX 11 1 10 2 9 3 8 4 6 5 7 6 5 8 1 9 2 10 3 11 90 12 4 13 78 14
REMARK SMILES IDX 79 15 80 16 81 17 86 18 82 19 84 20 83 21 85 22 87 23 88 24
REMARK SMILES IDX 89 25 12 28 13 29 14 30 15 31 16 32 17 34 18 35 19 36 77 37
REMARK SMILES IDX 20 38 76 39 21 40 22 41 23 42 70 43 24 44 75 45 69 46 71 47
REMARK SMILES IDX 25 48 74 49 68 50 67 51 26 53 56 54 37 55 55 56 38 57 41 58
REMARK SMILES IDX 54 59 72 60 39 61 40 62 53 64 73 65 42 66 27 67 28 68 36 69
REMARK SMILES IDX 29 70 35 71 30 72 31 73 32 74 33 75 34 76 57 77 58 78 66 79
REMARK SMILES IDX 59 80 65 81 60 82 61 83 62 84 63 85 64 86 43 87 44 88 52 89
REMARK SMILES IDX 45 90 51 91 46 92 47 93 48 94 49 95 50 96
REMARK H PARENT 8 7 88 26 88 27 15 33 71 52 41 63
REMARK Flexibility Score: inf
ROOT
ATOM      1  C   UNL A   1      31.453  27.966  26.016  1.00  0.00     0.002 C 
ENDROOT
BRANCH   1   2
ATOM      2  C   UNL A   1      31.902  27.382  24.675  1.00  0.00     0.021 C 
BRANCH   2   3
ATOM      3  C   UNL A   1      32.115  25.876  24.577  1.00  0.00     0.116 C 
BRANCH   3   4
ATOM      4  N   UNL A   1      31.600  25.073  25.655  1.00  0.00    -0.352 N 
ATOM      5  C   UNL A   1      32.224  24.133  26.445  1.00  0.00     0.255 C 
ATOM      6  O   UNL A   1      31.573  23.709  27.406  1.00  0.00    -0.269 OA
ATOM      7  H   UNL A   1      30.649  25.219  25.860  1.00  0.00     0.163 HD
BRANCH   5   8
ATOM      8  C   UNL A   1      33.580  23.527  26.204  1.00  0.00     0.082 A 
ATOM      9  C   UNL A   1      37.667  22.356  25.290  1.00  0.00     0.044 C 
ATOM     10  C   UNL A   1      36.257  22.774  25.584  1.00  0.00    -0.047 A 
ATOM     11  C   UNL A   1      35.939  24.109  25.814  1.00  0.00     0.004 A 
ATOM     12  C   UNL A   1      35.229  21.830  25.611  1.00  0.00     0.051 A 
ATOM     13  C   UNL A   1      34.622  24.477  26.105  1.00  0.00     0.018 A 
ATOM     14  C   UNL A   1      33.914  22.181  25.975  1.00  0.00     0.140 A 
BRANCH  14  15
ATOM     15  O   UNL A   1      32.946  21.212  25.975  1.00  0.00    -0.456 OA
BRANCH  15  16
ATOM     16  C   UNL A   1      32.640  20.482  24.838  1.00  0.00     0.143 A 
ATOM     17  C   UNL A   1      32.708  19.097  25.086  1.00  0.00     0.048 A 
ATOM     18  C   UNL A   1      32.382  20.924  23.527  1.00  0.00     0.117 A 
ATOM     19  C   UNL A   1      32.503  18.165  24.068  1.00  0.00     0.007 A 
ATOM     20  C   UNL A   1      32.178  19.975  22.517  1.00  0.00     0.139 A 
ATOM     21  C   UNL A   1      32.239  18.608  22.778  1.00  0.00     0.040 A 
ATOM     22  F   UNL A   1      31.940  20.358  21.254  1.00  0.00    -0.206 F 
BRANCH  18  23
ATOM     23  C   UNL A   1      32.211  22.323  23.098  1.00  0.00     0.255 C 
ATOM     24  N   UNL A   1      33.269  22.948  22.504  1.00  0.00    -0.365 N 
ATOM     25  O   UNL A   1      31.140  22.894  23.263  1.00  0.00    -0.269 OA
ATOM     26  H   UNL A   1      34.119  22.468  22.382  1.00  0.00     0.159 HD
ATOM     27  H   UNL A   1      33.181  23.879  22.196  1.00  0.00     0.159 HD
ENDBRANCH  18  23
ENDBRANCH  15  16
ENDBRANCH  14  15
ENDBRANCH   5   8
ENDBRANCH   3   4
ENDBRANCH   2   3
ENDBRANCH   1   2
BRANCH   1  28
ATOM     28  C   UNL A   1      32.509  28.184  27.108  1.00  0.00     0.002 C 
BRANCH  28  29
ATOM     29  C   UNL A   1      33.066  29.595  27.291  1.00  0.00     0.021 C 
BRANCH  29  30
ATOM     30  C   UNL A   1      34.509  29.788  26.847  1.00  0.00     0.116 C 
BRANCH  30  31
ATOM     31  N   UNL A   1      35.127  30.974  27.423  1.00  0.00    -0.352 N 
ATOM     32  C   UNL A   1      36.282  31.039  28.188  1.00  0.00     0.251 C 
ATOM     33  H   UNL A   1      34.672  31.829  27.252  1.00  0.00     0.163 HD
ATOM     34  O   UNL A   1      36.611  32.023  28.815  1.00  0.00    -0.269 OA
BRANCH  32  35
ATOM     35  C   UNL A   1      37.177  29.866  28.104  1.00  0.00     0.039 A 
ATOM     36  C   UNL A   1      37.247  29.040  29.230  1.00  0.00     0.014 A 
ATOM     37  C   UNL A   1      38.117  29.786  27.081  1.00  0.00     0.014 A 
ATOM     38  C   UNL A   1      38.371  28.243  29.418  1.00  0.00     0.010 A 
ATOM     39  C   UNL A   1      39.273  29.069  27.315  1.00  0.00     0.010 A 
ATOM     40  C   UNL A   1      39.417  28.333  28.501  1.00  0.00    -0.014 A 
BRANCH  40  41
ATOM     41  C   UNL A   1      40.731  27.747  28.727  1.00  0.00     0.031 A 
ATOM     42  C   UNL A   1      40.973  26.331  28.378  1.00  0.00     0.074 A 
ATOM     43  C   UNL A   1      41.749  28.507  29.188  1.00  0.00     0.049 A 
ATOM     44  N   UNL A   1      41.873  25.590  28.933  1.00  0.00    -0.248 NA
ATOM     45  C   UNL A   1      40.172  25.623  27.383  1.00  0.00     0.031 C 
ATOM     46  C   UNL A   1      43.167  28.155  29.199  1.00  0.00     0.029 A 
ATOM     47  N   UNL A   1      41.687  29.675  29.952  1.00  0.00    -0.354 N 
ATOM     48  C   UNL A   1      41.988  24.458  28.162  1.00  0.00     0.074 A 
ATOM     49  C   UNL A   1      40.851  24.479  27.270  1.00  0.00     0.031 C 
ATOM     50  C   UNL A   1      43.778  28.870  30.157  1.00  0.00     0.029 A 
ATOM     51  C   UNL A   1      42.740  29.590  30.878  1.00  0.00     0.049 A 
ATOM     52  H   UNL A   1      41.036  30.409  29.861  1.00  0.00     0.167 HD
ATOM     53  C   UNL A   1      43.116  23.698  28.223  1.00  0.00     0.031 A 
ATOM     54  C   UNL A   1      42.571  29.580  32.232  1.00  0.00     0.031 A 
ATOM     55  C   UNL A   1      44.070  24.203  29.203  1.00  0.00     0.049 A 
ATOM     56  C   UNL A   1      43.178  28.361  32.895  1.00  0.00     0.074 A 
ATOM     57  C   UNL A   1      45.226  24.961  29.091  1.00  0.00     0.029 A 
ATOM     58  N   UNL A   1      43.729  24.204  30.550  1.00  0.00    -0.354 N 
ATOM     59  N   UNL A   1      43.524  27.278  32.256  1.00  0.00    -0.248 NA
ATOM     60  C   UNL A   1      43.409  28.249  34.332  1.00  0.00     0.031 C 
ATOM     61  C   UNL A   1      45.552  25.460  30.378  1.00  0.00     0.029 A 
ATOM     62  C   UNL A   1      44.607  24.990  31.272  1.00  0.00     0.049 A 
ATOM     63  H   UNL A   1      42.968  23.714  30.936  1.00  0.00     0.167 HD
ATOM     64  C   UNL A   1      44.021  26.351  33.138  1.00  0.00     0.074 A 
ATOM     65  C   UNL A   1      43.930  27.012  34.428  1.00  0.00     0.031 C 
ATOM     66  C   UNL A   1      44.461  25.126  32.717  1.00  0.00     0.031 A 
BRANCH  53  67
ATOM     67  C   UNL A   1      43.454  22.704  27.139  1.00  0.00    -0.014 A 
ATOM     68  C   UNL A   1      42.636  21.571  26.951  1.00  0.00     0.010 A 
ATOM     69  C   UNL A   1      44.596  22.801  26.321  1.00  0.00     0.010 A 
ATOM     70  C   UNL A   1      42.991  20.538  26.075  1.00  0.00     0.020 A 
ATOM     71  C   UNL A   1      44.984  21.756  25.467  1.00  0.00     0.020 A 
ATOM     72  C   UNL A   1      44.182  20.622  25.358  1.00  0.00     0.054 A 
BRANCH  72  73
ATOM     73  S   UNL A   1      44.671  19.229  24.308  1.00  0.00     0.124 S 
ATOM     74  O   UNL A   1      46.077  19.043  24.661  1.00  0.00    -0.237 OA
ATOM     75  O   UNL A   1      43.766  18.172  24.752  1.00  0.00    -0.237 OA
ATOM     76  O   UNL A   1      44.439  19.719  22.951  1.00  0.00    -0.744 OA
ENDBRANCH  72  73
ENDBRANCH  53  67
BRANCH  54  77
ATOM     77  C   UNL A   1      41.355  30.298  32.706  1.00  0.00    -0.014 A 
ATOM     78  C   UNL A   1      40.213  29.521  32.998  1.00  0.00     0.010 A 
ATOM     79  C   UNL A   1      41.457  31.588  33.254  1.00  0.00     0.010 A 
ATOM     80  C   UNL A   1      39.279  29.954  33.944  1.00  0.00     0.020 A 
ATOM     81  C   UNL A   1      40.515  32.027  34.198  1.00  0.00     0.020 A 
ATOM     82  C   UNL A   1      39.470  31.180  34.580  1.00  0.00     0.054 A 
BRANCH  82  83
ATOM     83  S   UNL A   1      38.449  31.552  36.039  1.00  0.00     0.124 S 
ATOM     84  O   UNL A   1      39.319  32.432  36.810  1.00  0.00    -0.237 OA
ATOM     85  O   UNL A   1      37.280  32.192  35.438  1.00  0.00    -0.237 OA
ATOM     86  O   UNL A   1      38.206  30.236  36.621  1.00  0.00    -0.744 OA
ENDBRANCH  82  83
ENDBRANCH  54  77
BRANCH  66  87
ATOM     87  C   UNL A   1      44.881  23.943  33.572  1.00  0.00    -0.014 A 
ATOM     88  C   UNL A   1      44.070  22.845  33.888  1.00  0.00     0.010 A 
ATOM     89  C   UNL A   1      46.228  23.876  34.017  1.00  0.00     0.010 A 
ATOM     90  C   UNL A   1      44.560  21.762  34.639  1.00  0.00     0.020 A 
ATOM     91  C   UNL A   1      46.739  22.787  34.728  1.00  0.00     0.020 A 
ATOM     92  C   UNL A   1      45.891  21.740  35.054  1.00  0.00     0.054 A 
BRANCH  92  93
ATOM     93  S   UNL A   1      46.526  20.304  35.954  1.00  0.00     0.124 S 
ATOM     94  O   UNL A   1      45.608  19.251  35.528  1.00  0.00    -0.237 OA
ATOM     95  O   UNL A   1      47.893  20.185  35.450  1.00  0.00    -0.237 OA
ATOM     96  O   UNL A   1      46.421  20.699  37.356  1.00  0.00    -0.744 OA
ENDBRANCH  92  93
ENDBRANCH  66  87
ENDBRANCH  40  41
ENDBRANCH  32  35
ENDBRANCH  30  31
ENDBRANCH  29  30
ENDBRANCH  28  29
ENDBRANCH   1  28
TORSDOF 19
ENDMDL
MODEL 2
REMARK VINA RESULT:     -13.1      1.371      2.373
REMARK SMILES Cc1ccc(C(=O)NCCCCCCNC(=O)c2ccc(-c3c4nc(c(-c5ccc(S(=O)(=O)[O-])cc5)c5ccc([nH]5)c(-c5ccc(S(=O)(=O)[O-])cc5)c5nc(c(-c6ccc(S(=O)(=O)[O-])cc6)c6ccc3[nH]6)C=C5)C=C4)cc2)c(Oc2cccc(F)c2C(N)=O)c1
REMARK SMILES IDX 11 1 10 2 9 3 8 4 6 5 7 6 5 8 1 9 2 10 3 11 90 12 4 13 78 14
REMARK SMILES IDX 79 15 80 16 81 17 86 18 82 19 84 20 83 21 85 22 87 23 88 24
REMARK SMILES IDX 89 25 12 28 13 29 14 30 15 31 16 32 17 34 18 35 19 36 77 37
REMARK SMILES IDX 20 38 76 39 21 40 22 41 23 42 70 43 24 44 75 45 69 46 71 47
REMARK SMILES IDX 25 48 74 49 68 50 67 51 26 53 56 54 37 55 55 56 38 57 41 58
REMARK SMILES IDX 54 59 72 60 39 61 40 62 53 64 73 65 42 66 27 67 28 68 36 69
REMARK SMILES IDX 29 70 35 71 30 72 31 73 32 74 33 75 34 76 57 77 58 78 66 79
REMARK SMILES IDX 59 80 65 81 60 82 61 83 62 84 63 85 64 86 43 87 44 88 52 89
REMARK SMILES IDX 45 90 51 91 46 92 47 93 48 94 49 95 50 96
REMARK H PARENT 8 7 88 26 88 27 15 33 71 52 41 63
REMARK Flexibility Score: inf
ROOT
ATOM      1  C   UNL A   1      32.526  28.120  25.431  1.00  0.00     0.002 C 
ENDROOT
BRANCH   1   2
ATOM      2  C   UNL A   1      33.710  27.196  25.145  1.00  0.00     0.021 C 
BRANCH   2   3
ATOM      3  C   UNL A   1      33.647  25.760  25.654  1.00  0.00     0.116 C 
BRANCH   3   4
ATOM      4  N   UNL A   1      32.477  25.384  26.403  1.00  0.00    -0.352 N 
ATOM      5  C   UNL A   1      31.927  24.144  26.636  1.00  0.00     0.255 C 
ATOM      6  O   UNL A   1      31.000  24.102  27.452  1.00  0.00    -0.269 OA
ATOM      7  H   UNL A   1      31.991  26.135  26.813  1.00  0.00     0.163 HD
BRANCH   5   8
ATOM      8  C   UNL A   1      32.297  22.861  25.941  1.00  0.00     0.082 A 
ATOM      9  C   UNL A   1      33.919  19.194  24.258  1.00  0.00     0.044 C 
ATOM     10  C   UNL A   1      33.382  20.470  24.838  1.00  0.00    -0.047 A 
ATOM     11  C   UNL A   1      33.844  20.951  26.059  1.00  0.00     0.004 A 
ATOM     12  C   UNL A   1      32.423  21.213  24.147  1.00  0.00     0.051 A 
ATOM     13  C   UNL A   1      33.318  22.132  26.592  1.00  0.00     0.018 A 
ATOM     14  C   UNL A   1      31.836  22.363  24.710  1.00  0.00     0.140 A 
BRANCH  14  15
ATOM     15  O   UNL A   1      30.905  23.056  23.982  1.00  0.00    -0.456 OA
BRANCH  15  16
ATOM     16  C   UNL A   1      31.240  24.185  23.251  1.00  0.00     0.143 A 
ATOM     17  C   UNL A   1      32.319  23.931  22.383  1.00  0.00     0.048 A 
ATOM     18  C   UNL A   1      30.731  25.494  23.335  1.00  0.00     0.117 A 
ATOM     19  C   UNL A   1      32.871  24.941  21.594  1.00  0.00     0.007 A 
ATOM     20  C   UNL A   1      31.296  26.496  22.535  1.00  0.00     0.139 A 
ATOM     21  C   UNL A   1      32.357  26.229  21.674  1.00  0.00     0.040 A 
ATOM     22  F   UNL A   1      30.844  27.758  22.595  1.00  0.00    -0.206 F 
BRANCH  18  23
ATOM     23  C   UNL A   1      29.571  25.928  24.134  1.00  0.00     0.255 C 
ATOM     24  N   UNL A   1      28.348  25.957  23.530  1.00  0.00    -0.365 N 
ATOM     25  O   UNL A   1      29.713  26.238  25.310  1.00  0.00    -0.269 OA
ATOM     26  H   UNL A   1      28.260  25.703  22.584  1.00  0.00     0.159 HD
ATOM     27  H   UNL A   1      27.553  26.231  24.042  1.00  0.00     0.159 HD
ENDBRANCH  18  23
ENDBRANCH  15  16
ENDBRANCH  14  15
ENDBRANCH   5   8
ENDBRANCH   3   4
ENDBRANCH   2   3
ENDBRANCH   1   2
BRANCH   1  28
ATOM     28  C   UNL A   1      32.363  28.682  26.851  1.00  0.00     0.002 C 
BRANCH  28  29
ATOM     29  C   UNL A   1      33.147  29.942  27.214  1.00  0.00     0.021 C 
BRANCH  29  30
ATOM     30  C   UNL A   1      34.660  29.776  27.260  1.00  0.00     0.116 C 
BRANCH  30  31
ATOM     31  N   UNL A   1      35.356  31.012  27.591  1.00  0.00    -0.352 N 
ATOM     32  C   UNL A   1      36.600  31.147  28.190  1.00  0.00     0.251 C 
ATOM     33  H   UNL A   1      34.890  31.848  27.365  1.00  0.00     0.163 HD
ATOM     34  O   UNL A   1      37.014  32.195  28.635  1.00  0.00    -0.269 OA
BRANCH  32  35
ATOM     35  C   UNL A   1      37.466  29.950  28.153  1.00  0.00     0.039 A 
ATOM     36  C   UNL A   1      37.520  29.170  29.312  1.00  0.00     0.014 A 
ATOM     37  C   UNL A   1      38.401  29.806  27.132  1.00  0.00     0.014 A 
ATOM     38  C   UNL A   1      38.626  28.355  29.530  1.00  0.00     0.010 A 
ATOM     39  C   UNL A   1      39.540  29.071  27.393  1.00  0.00     0.010 A 
ATOM     40  C   UNL A   1      39.671  28.382  28.607  1.00  0.00    -0.014 A 
BRANCH  40  41
ATOM     41  C   UNL A   1      40.971  27.775  28.855  1.00  0.00     0.031 A 
ATOM     42  C   UNL A   1      41.210  26.369  28.468  1.00  0.00     0.074 A 
ATOM     43  C   UNL A   1      41.982  28.509  29.371  1.00  0.00     0.049 A 
ATOM     44  N   UNL A   1      42.085  25.601  29.025  1.00  0.00    -0.248 NA
ATOM     45  C   UNL A   1      40.433  25.702  27.426  1.00  0.00     0.031 C 
ATOM     46  C   UNL A   1      43.395  28.141  29.414  1.00  0.00     0.029 A 
ATOM     47  N   UNL A   1      41.908  29.652  30.170  1.00  0.00    -0.354 N 
ATOM     48  C   UNL A   1      42.212  24.492  28.222  1.00  0.00     0.074 A 
ATOM     49  C   UNL A   1      41.104  24.554  27.297  1.00  0.00     0.031 C 
ATOM     50  C   UNL A   1      43.983  28.818  30.413  1.00  0.00     0.029 A 
ATOM     51  C   UNL A   1      42.931  29.527  31.124  1.00  0.00     0.049 A 
ATOM     52  H   UNL A   1      41.267  30.396  30.083  1.00  0.00     0.167 HD
ATOM     53  C   UNL A   1      43.331  23.719  28.293  1.00  0.00     0.031 A 
ATOM     54  C   UNL A   1      42.720  29.474  32.471  1.00  0.00     0.031 A 
ATOM     55  C   UNL A   1      44.259  24.182  29.317  1.00  0.00     0.049 A 
ATOM     56  C   UNL A   1      43.295  28.229  33.113  1.00  0.00     0.074 A 
ATOM     57  C   UNL A   1      45.425  24.930  29.265  1.00  0.00     0.029 A 
ATOM     58  N   UNL A   1      43.877  24.144  30.653  1.00  0.00    -0.354 N 
ATOM     59  N   UNL A   1      43.649  27.162  32.450  1.00  0.00    -0.248 NA
ATOM     60  C   UNL A   1      43.480  28.068  34.551  1.00  0.00     0.031 C 
ATOM     61  C   UNL A   1      45.716  25.384  30.577  1.00  0.00     0.029 A 
ATOM     62  C   UNL A   1      44.740  24.896  31.426  1.00  0.00     0.049 A 
ATOM     63  H   UNL A   1      43.099  23.649  30.999  1.00  0.00     0.167 HD
ATOM     64  C   UNL A   1      44.110  26.203  33.316  1.00  0.00     0.074 A 
ATOM     65  C   UNL A   1      43.986  26.823  34.623  1.00  0.00     0.031 C 
ATOM     66  C   UNL A   1      44.550  24.987  32.869  1.00  0.00     0.031 A 
BRANCH  53  67
ATOM     67  C   UNL A   1      43.692  22.756  27.188  1.00  0.00    -0.014 A 
ATOM     68  C   UNL A   1      42.889  21.620  26.962  1.00  0.00     0.010 A 
ATOM     69  C   UNL A   1      44.841  22.887  26.385  1.00  0.00     0.010 A 
ATOM     70  C   UNL A   1      43.266  20.613  26.064  1.00  0.00     0.020 A 
ATOM     71  C   UNL A   1      45.251  21.868  25.510  1.00  0.00     0.020 A 
ATOM     72  C   UNL A   1      44.464  20.729  25.363  1.00  0.00     0.054 A 
BRANCH  72  73
ATOM     73  S   UNL A   1      44.980  19.368  24.284  1.00  0.00     0.124 S 
ATOM     74  O   UNL A   1      44.425  19.760  22.990  1.00  0.00    -0.237 OA
ATOM     75  O   UNL A   1      46.436  19.425  24.386  1.00  0.00    -0.237 OA
ATOM     76  O   UNL A   1      44.358  18.192  24.888  1.00  0.00    -0.744 OA
ENDBRANCH  72  73
ENDBRANCH  53  67
BRANCH  54  77
ATOM     77  C   UNL A   1      41.497  30.190  32.931  1.00  0.00    -0.014 A 
ATOM     78  C   UNL A   1      40.339  29.417  33.162  1.00  0.00     0.010 A 
ATOM     79  C   UNL A   1      41.595  31.461  33.524  1.00  0.00     0.010 A 
ATOM     80  C   UNL A   1      39.381  29.830  34.093  1.00  0.00     0.020 A 
ATOM     81  C   UNL A   1      40.629  31.879  34.452  1.00  0.00     0.020 A 
ATOM     82  C   UNL A   1      39.565  31.032  34.774  1.00  0.00     0.054 A 
BRANCH  82  83
ATOM     83  S   UNL A   1      38.503  31.368  36.213  1.00  0.00     0.124 S 
ATOM     84  O   UNL A   1      38.156  30.024  36.663  1.00  0.00    -0.237 OA
ATOM     85  O   UNL A   1      39.405  32.112  37.091  1.00  0.00    -0.237 OA
ATOM     86  O   UNL A   1      37.407  32.146  35.646  1.00  0.00    -0.744 OA
ENDBRANCH  82  83
ENDBRANCH  54  77
BRANCH  66  87
ATOM     87  C   UNL A   1      44.932  23.773  33.697  1.00  0.00    -0.014 A 
ATOM     88  C   UNL A   1      44.079  22.706  34.011  1.00  0.00     0.010 A 
ATOM     89  C   UNL A   1      46.282  23.640  34.117  1.00  0.00     0.010 A 
ATOM     90  C   UNL A   1      44.533  21.592  34.737  1.00  0.00     0.020 A 
ATOM     91  C   UNL A   1      46.757  22.517  34.801  1.00  0.00     0.020 A 
ATOM     92  C   UNL A   1      45.869  21.504  35.127  1.00  0.00     0.054 A 
BRANCH  92  93
ATOM     93  S   UNL A   1      46.455  20.026  35.993  1.00  0.00     0.124 S 
ATOM     94  O   UNL A   1      46.019  18.959  35.097  1.00  0.00    -0.237 OA
ATOM     95  O   UNL A   1      47.900  20.240  36.055  1.00  0.00    -0.237 OA
ATOM     96  O   UNL A   1      45.770  20.085  37.281  1.00  0.00    -0.744 OA
ENDBRANCH  92  93
ENDBRANCH  66  87
ENDBRANCH  40  41
ENDBRANCH  32  35
ENDBRANCH  30  31
ENDBRANCH  29  30
ENDBRANCH  28  29
ENDBRANCH   1  28
TORSDOF 19
ENDMDL
MODEL 3
REMARK VINA RESULT:     -12.7      1.225      2.572
REMARK SMILES Cc1ccc(C(=O)NCCCCCCNC(=O)c2ccc(-c3c4nc(c(-c5ccc(S(=O)(=O)[O-])cc5)c5ccc([nH]5)c(-c5ccc(S(=O)(=O)[O-])cc5)c5nc(c(-c6ccc(S(=O)(=O)[O-])cc6)c6ccc3[nH]6)C=C5)C=C4)cc2)c(Oc2cccc(F)c2C(N)=O)c1
REMARK SMILES IDX 11 1 10 2 9 3 8 4 6 5 7 6 5 8 1 9 2 10 3 11 90 12 4 13 78 14
REMARK SMILES IDX 79 15 80 16 81 17 86 18 82 19 84 20 83 21 85 22 87 23 88 24
REMARK SMILES IDX 89 25 12 28 13 29 14 30 15 31 16 32 17 34 18 35 19 36 77 37
REMARK SMILES IDX 20 38 76 39 21 40 22 41 23 42 70 43 24 44 75 45 69 46 71 47
REMARK SMILES IDX 25 48 74 49 68 50 67 51 26 53 56 54 37 55 55 56 38 57 41 58
REMARK SMILES IDX 54 59 72 60 39 61 40 62 53 64 73 65 42 66 27 67 28 68 36 69
REMARK SMILES IDX 29 70 35 71 30 72 31 73 32 74 33 75 34 76 57 77 58 78 66 79
REMARK SMILES IDX 59 80 65 81 60 82 61 83 62 84 63 85 64 86 43 87 44 88 52 89
REMARK SMILES IDX 45 90 51 91 46 92 47 93 48 94 49 95 50 96
REMARK H PARENT 8 7 88 26 88 27 15 33 71 52 41 63
REMARK Flexibility Score: inf
ROOT
ATOM      1  C   UNL A   1      32.024  29.127  24.320  1.00  0.00     0.002 C 
ENDROOT
BRANCH   1   2
ATOM      2  C   UNL A   1      33.029  29.342  23.186  1.00  0.00     0.021 C 
BRANCH   2   3
ATOM      3  C   UNL A   1      34.006  28.218  22.863  1.00  0.00     0.116 C 
BRANCH   3   4
ATOM      4  N   UNL A   1      33.584  27.245  21.890  1.00  0.00    -0.352 N 
ATOM      5  C   UNL A   1      32.619  26.266  21.968  1.00  0.00     0.255 C 
ATOM      6  O   UNL A   1      32.358  25.671  20.916  1.00  0.00    -0.269 OA
ATOM      7  H   UNL A   1      34.062  27.286  21.031  1.00  0.00     0.163 HD
BRANCH   5   8
ATOM      8  C   UNL A   1      31.914  25.808  23.216  1.00  0.00     0.082 A 
ATOM      9  C   UNL A   1      29.422  24.908  26.665  1.00  0.00     0.044 C 
ATOM     10  C   UNL A   1      30.276  25.243  25.477  1.00  0.00    -0.047 A 
ATOM     11  C   UNL A   1      29.719  25.796  24.329  1.00  0.00     0.004 A 
ATOM     12  C   UNL A   1      31.655  25.027  25.513  1.00  0.00     0.051 A 
ATOM     13  C   UNL A   1      30.528  26.084  23.225  1.00  0.00     0.018 A 
ATOM     14  C   UNL A   1      32.465  25.245  24.381  1.00  0.00     0.140 A 
BRANCH  14  15
ATOM     15  O   UNL A   1      33.813  25.023  24.478  1.00  0.00    -0.456 OA
BRANCH  15  16
ATOM     16  C   UNL A   1      34.330  23.770  24.763  1.00  0.00     0.143 A 
ATOM     17  C   UNL A   1      35.514  23.864  25.520  1.00  0.00     0.048 A 
ATOM     18  C   UNL A   1      33.900  22.500  24.335  1.00  0.00     0.117 A 
ATOM     19  C   UNL A   1      36.247  22.730  25.870  1.00  0.00     0.007 A 
ATOM     20  C   UNL A   1      34.647  21.371  24.696  1.00  0.00     0.139 A 
ATOM     21  C   UNL A   1      35.811  21.479  25.453  1.00  0.00     0.040 A 
ATOM     22  F   UNL A   1      34.274  20.146  24.298  1.00  0.00    -0.206 F 
BRANCH  18  23
ATOM     23  C   UNL A   1      32.659  22.204  23.597  1.00  0.00     0.255 C 
ATOM     24  N   UNL A   1      32.670  22.343  22.239  1.00  0.00    -0.365 N 
ATOM     25  O   UNL A   1      31.658  21.832  24.195  1.00  0.00    -0.269 OA
ATOM     26  H   UNL A   1      33.487  22.643  21.782  1.00  0.00     0.159 HD
ATOM     27  H   UNL A   1      31.859  22.141  21.718  1.00  0.00     0.159 HD
ENDBRANCH  18  23
ENDBRANCH  15  16
ENDBRANCH  14  15
ENDBRANCH   5   8
ENDBRANCH   3   4
ENDBRANCH   2   3
ENDBRANCH   1   2
BRANCH   1  28
ATOM     28  C   UNL A   1      32.551  28.662  25.684  1.00  0.00     0.002 C 
BRANCH  28  29
ATOM     29  C   UNL A   1      33.135  29.718  26.622  1.00  0.00     0.021 C 
BRANCH  29  30
ATOM     30  C   UNL A   1      34.610  29.548  26.956  1.00  0.00     0.116 C 
BRANCH  30  31
ATOM     31  N   UNL A   1      35.222  30.769  27.463  1.00  0.00    -0.352 N 
ATOM     32  C   UNL A   1      36.401  30.888  28.183  1.00  0.00     0.251 C 
ATOM     33  H   UNL A   1      34.743  31.607  27.274  1.00  0.00     0.163 HD
ATOM     34  O   UNL A   1      36.731  31.902  28.759  1.00  0.00    -0.269 OA
BRANCH  32  35
ATOM     35  C   UNL A   1      37.318  29.730  28.114  1.00  0.00     0.039 A 
ATOM     36  C   UNL A   1      37.421  28.934  29.259  1.00  0.00     0.014 A 
ATOM     37  C   UNL A   1      38.243  29.643  27.079  1.00  0.00     0.014 A 
ATOM     38  C   UNL A   1      38.564  28.164  29.449  1.00  0.00     0.010 A 
ATOM     39  C   UNL A   1      39.417  28.954  27.312  1.00  0.00     0.010 A 
ATOM     40  C   UNL A   1      39.594  28.252  28.513  1.00  0.00    -0.014 A 
BRANCH  40  41
ATOM     41  C   UNL A   1      40.922  27.697  28.733  1.00  0.00     0.031 A 
ATOM     42  C   UNL A   1      41.205  26.297  28.353  1.00  0.00     0.074 A 
ATOM     43  C   UNL A   1      41.917  28.475  29.216  1.00  0.00     0.049 A 
ATOM     44  N   UNL A   1      42.123  25.569  28.895  1.00  0.00    -0.248 NA
ATOM     45  C   UNL A   1      40.429  25.590  27.337  1.00  0.00     0.031 C 
ATOM     46  C   UNL A   1      43.343  28.162  29.227  1.00  0.00     0.029 A 
ATOM     47  N   UNL A   1      41.818  29.622  30.006  1.00  0.00    -0.354 N 
ATOM     48  C   UNL A   1      42.272  24.458  28.099  1.00  0.00     0.074 A 
ATOM     49  C   UNL A   1      41.139  24.468  27.203  1.00  0.00     0.031 C 
ATOM     50  C   UNL A   1      43.930  28.871  30.204  1.00  0.00     0.029 A 
ATOM     51  C   UNL A   1      42.870  29.546  30.935  1.00  0.00     0.049 A 
ATOM     52  H   UNL A   1      41.148  30.340  29.928  1.00  0.00     0.167 HD
ATOM     53  C   UNL A   1      43.421  23.729  28.149  1.00  0.00     0.031 A 
ATOM     54  C   UNL A   1      42.694  29.499  32.288  1.00  0.00     0.031 A 
ATOM     55  C   UNL A   1      44.356  24.238  29.145  1.00  0.00     0.049 A 
ATOM     56  C   UNL A   1      43.332  28.283  32.926  1.00  0.00     0.074 A 
ATOM     57  C   UNL A   1      45.491  25.029  29.057  1.00  0.00     0.029 A 
ATOM     58  N   UNL A   1      44.009  24.198  30.490  1.00  0.00    -0.354 N 
ATOM     59  N   UNL A   1      43.711  27.225  32.265  1.00  0.00    -0.248 NA
ATOM     60  C   UNL A   1      43.559  28.145  34.361  1.00  0.00     0.031 C 
ATOM     61  C   UNL A   1      45.797  25.507  30.356  1.00  0.00     0.029 A 
ATOM     62  C   UNL A   1      44.862  24.991  31.235  1.00  0.00     0.049 A 
ATOM     63  H   UNL A   1      43.260  23.678  30.861  1.00  0.00     0.167 HD
ATOM     64  C   UNL A   1      44.230  26.292  33.128  1.00  0.00     0.074 A 
ATOM     65  C   UNL A   1      44.114  26.921  34.432  1.00  0.00     0.031 C 
ATOM     66  C   UNL A   1      44.705  25.089  32.681  1.00  0.00     0.031 A 
BRANCH  53  67
ATOM     67  C   UNL A   1      43.791  22.769  27.045  1.00  0.00    -0.014 A 
ATOM     68  C   UNL A   1      42.932  21.695  26.736  1.00  0.00     0.010 A 
ATOM     69  C   UNL A   1      44.999  22.839  26.323  1.00  0.00     0.010 A 
ATOM     70  C   UNL A   1      43.302  20.685  25.838  1.00  0.00     0.020 A 
ATOM     71  C   UNL A   1      45.398  21.816  25.449  1.00  0.00     0.020 A 
ATOM     72  C   UNL A   1      44.548  20.736  25.220  1.00  0.00     0.054 A 
BRANCH  72  73
ATOM     73  S   UNL A   1      45.045  19.368  24.140  1.00  0.00     0.124 S 
ATOM     74  O   UNL A   1      44.457  19.746  22.857  1.00  0.00    -0.237 OA
ATOM     75  O   UNL A   1      46.503  19.433  24.207  1.00  0.00    -0.237 OA
ATOM     76  O   UNL A   1      44.444  18.195  24.770  1.00  0.00    -0.744 OA
ENDBRANCH  72  73
ENDBRANCH  53  67
BRANCH  54  77
ATOM     77  C   UNL A   1      41.457  30.173  32.772  1.00  0.00    -0.014 A 
ATOM     78  C   UNL A   1      40.362  29.351  33.118  1.00  0.00     0.010 A 
ATOM     79  C   UNL A   1      41.509  31.483  33.276  1.00  0.00     0.010 A 
ATOM     80  C   UNL A   1      39.432  29.769  34.075  1.00  0.00     0.020 A 
ATOM     81  C   UNL A   1      40.571  31.906  34.231  1.00  0.00     0.020 A 
ATOM     82  C   UNL A   1      39.579  31.023  34.667  1.00  0.00     0.054 A 
BRANCH  82  83
ATOM     83  S   UNL A   1      38.578  31.392  36.141  1.00  0.00     0.124 S 
ATOM     84  O   UNL A   1      37.475  32.164  35.582  1.00  0.00    -0.237 OA
ATOM     85  O   UNL A   1      38.231  30.052  36.617  1.00  0.00    -0.237 OA
ATOM     86  O   UNL A   1      39.500  32.134  36.995  1.00  0.00    -0.744 OA
ENDBRANCH  82  83
ENDBRANCH  54  77
BRANCH  66  87
ATOM     87  C   UNL A   1      45.154  23.900  33.511  1.00  0.00    -0.014 A 
ATOM     88  C   UNL A   1      46.447  23.706  34.015  1.00  0.00     0.010 A 
ATOM     89  C   UNL A   1      44.180  22.943  33.901  1.00  0.00     0.010 A 
ATOM     90  C   UNL A   1      46.762  22.602  34.825  1.00  0.00     0.020 A 
ATOM     91  C   UNL A   1      44.469  21.864  34.742  1.00  0.00     0.020 A 
ATOM     92  C   UNL A   1      45.771  21.688  35.185  1.00  0.00     0.054 A 
BRANCH  92  93
ATOM     93  S   UNL A   1      46.176  20.315  36.292  1.00  0.00     0.124 S 
ATOM     94  O   UNL A   1      45.397  19.223  35.715  1.00  0.00    -0.237 OA
ATOM     95  O   UNL A   1      47.625  20.197  36.144  1.00  0.00    -0.237 OA
ATOM     96  O   UNL A   1      45.728  20.782  37.601  1.00  0.00    -0.744 OA
ENDBRANCH  92  93
ENDBRANCH  66  87
ENDBRANCH  40  41
ENDBRANCH  32  35
ENDBRANCH  30  31
ENDBRANCH  29  30
ENDBRANCH  28  29
ENDBRANCH   1  28
TORSDOF 19
ENDMDL
