MODEL 1
REMARK VINA RESULT:     -12.8      0.000      0.000
REMARK SMILES Cc1cccc2c1[C@H]1c3c(C)cccc3[C@H](CC(=O)NCCCCCCNC(=O)c3ccc(-c4c5nc(c(-c6ccc(S(=O)(=O)[O-])cc6)c6ccc([nH]6)c(-c6ccc(S(=O)(=O)[O-])cc6)c6nc(c(-c7ccc(S(=O)(=O)[O-])cc7)c7ccc4[nH]7)C=C6)C=C5)cc3)C[C@H]1CC2
REMARK SMILES IDX 24 1 23 2 22 3 21 4 20 5 18 6 19 7 17 9 16 10 1 11 2 12 3 13
REMARK SMILES IDX 7 14 4 15 6 16 8 17 5 18 93 19 9 20 91 21 92 22 10 23 15 24
REMARK SMILES IDX 90 25 12 26 11 27 14 28 13 29 25 30 26 31 27 32 28 33 29 35
REMARK SMILES IDX 30 36 31 37 89 38 32 39 88 40 33 41 34 42 35 43 82 44 36 45
REMARK SMILES IDX 87 46 81 47 83 48 37 49 86 50 80 51 79 52 38 54 68 55 49 56
REMARK SMILES IDX 67 57 50 58 53 59 66 60 84 61 51 62 52 63 65 65 85 66 54 67
REMARK SMILES IDX 39 68 40 69 48 70 41 71 47 72 42 73 43 74 44 75 45 76 46 77
REMARK SMILES IDX 69 78 70 79 78 80 71 81 77 82 72 83 73 84 74 85 75 86 76 87
REMARK SMILES IDX 55 88 56 89 64 90 57 91 63 92 58 93 59 94 60 95 61 96 62 97
REMARK H PARENT 20 8 27 34 83 53 53 64
REMARK Flexibility Score: inf
ROOT
ATOM      1  C   UNL A   1      40.051  22.518  26.900  1.00  0.00     0.002 C 
ENDROOT
BRANCH   1   2
ATOM      2  C   UNL A   1      39.650  21.260  26.126  1.00  0.00     0.002 C 
BRANCH   2   3
ATOM      3  C   UNL A   1      38.316  21.333  25.375  1.00  0.00     0.021 C 
BRANCH   3   4
ATOM      4  C   UNL A   1      37.478  22.582  25.632  1.00  0.00     0.116 C 
BRANCH   4   5
ATOM      5  N   UNL A   1      36.357  22.316  26.501  1.00  0.00    -0.356 N 
ATOM      6  C   UNL A   1      35.142  21.787  26.211  1.00  0.00     0.220 C 
ATOM      7  O   UNL A   1      34.418  21.453  27.154  1.00  0.00    -0.275 OA
ATOM      8  H   UNL A   1      36.495  22.555  27.446  1.00  0.00     0.163 HD
BRANCH   6   9
ATOM      9  C   UNL A   1      34.693  21.579  24.774  1.00  0.00     0.108 C 
BRANCH   9  10
ATOM     10  C   UNL A   1      33.815  22.677  24.112  1.00  0.00     0.029 C 
ATOM     11  C   UNL A   1      33.442  28.324  25.937  1.00  0.00     0.044 C 
ATOM     12  C   UNL A   1      32.562  28.120  24.729  1.00  0.00    -0.047 A 
ATOM     13  C   UNL A   1      31.775  29.228  24.355  1.00  0.00     0.004 A 
ATOM     14  C   UNL A   1      32.500  26.929  23.957  1.00  0.00    -0.034 A 
ATOM     15  C   UNL A   1      30.987  29.198  23.212  1.00  0.00     0.001 A 
ATOM     16  C   UNL A   1      31.821  26.975  22.716  1.00  0.00    -0.044 A 
ATOM     17  C   UNL A   1      33.147  25.611  24.396  1.00  0.00     0.053 C 
ATOM     18  C   UNL A   1      31.040  28.092  22.376  1.00  0.00     0.004 A 
ATOM     19  C   UNL A   1      32.040  25.941  21.635  1.00  0.00     0.036 C 
ATOM     20  C   UNL A   1      32.252  24.531  25.072  1.00  0.00    -0.034 A 
ATOM     21  C   UNL A   1      33.865  25.033  23.152  1.00  0.00     0.002 C 
ATOM     22  C   UNL A   1      32.857  24.719  22.035  1.00  0.00     0.009 C 
ATOM     23  C   UNL A   1      31.137  24.815  25.913  1.00  0.00    -0.047 A 
ATOM     24  C   UNL A   1      32.588  23.151  24.887  1.00  0.00    -0.040 A 
ATOM     25  C   UNL A   1      34.688  23.818  23.577  1.00  0.00     0.013 C 
ATOM     26  C   UNL A   1      30.339  23.766  26.418  1.00  0.00     0.004 A 
ATOM     27  C   UNL A   1      30.707  26.189  26.343  1.00  0.00     0.044 C 
ATOM     28  C   UNL A   1      31.722  22.142  25.358  1.00  0.00     0.004 A 
ATOM     29  C   UNL A   1      30.613  22.443  26.126  1.00  0.00     0.001 A 
ENDBRANCH   9  10
ENDBRANCH   6   9
ENDBRANCH   4   5
ENDBRANCH   3   4
ENDBRANCH   2   3
ENDBRANCH   1   2
BRANCH   1  30
ATOM     30  C   UNL A   1      41.272  22.371  27.810  1.00  0.00     0.021 C 
BRANCH  30  31
ATOM     31  C   UNL A   1      42.278  23.510  27.717  1.00  0.00     0.116 C 
BRANCH  31  32
ATOM     32  N   UNL A   1      42.217  24.186  26.434  1.00  0.00    -0.352 N 
ATOM     33  C   UNL A   1      41.772  25.456  26.157  1.00  0.00     0.251 C 
ATOM     34  H   UNL A   1      42.535  23.666  25.661  1.00  0.00     0.163 HD
ATOM     35  O   UNL A   1      41.593  25.816  25.001  1.00  0.00    -0.269 OA
BRANCH  33  36
ATOM     36  C   UNL A   1      41.498  26.380  27.277  1.00  0.00     0.039 A 
ATOM     37  C   UNL A   1      40.440  26.101  28.147  1.00  0.00     0.014 A 
ATOM     38  C   UNL A   1      42.294  27.515  27.468  1.00  0.00     0.014 A 
ATOM     39  C   UNL A   1      40.208  26.940  29.238  1.00  0.00     0.010 A 
ATOM     40  C   UNL A   1      42.091  28.321  28.584  1.00  0.00     0.010 A 
ATOM     41  C   UNL A   1      41.041  28.045  29.472  1.00  0.00    -0.014 A 
BRANCH  41  42
ATOM     42  C   UNL A   1      40.795  28.960  30.612  1.00  0.00     0.031 A 
ATOM     43  C   UNL A   1      41.630  28.833  31.855  1.00  0.00     0.074 A 
ATOM     44  C   UNL A   1      39.806  29.872  30.547  1.00  0.00     0.049 A 
ATOM     45  N   UNL A   1      41.544  29.502  32.975  1.00  0.00    -0.248 NA
ATOM     46  C   UNL A   1      42.691  27.810  31.844  1.00  0.00     0.031 C 
ATOM     47  C   UNL A   1      38.917  30.078  29.403  1.00  0.00     0.029 A 
ATOM     48  N   UNL A   1      39.382  30.794  31.470  1.00  0.00    -0.354 N 
ATOM     49  C   UNL A   1      42.531  28.979  33.801  1.00  0.00     0.074 A 
ATOM     50  C   UNL A   1      43.177  27.911  33.073  1.00  0.00     0.031 C 
ATOM     51  C   UNL A   1      38.064  31.078  29.686  1.00  0.00     0.029 A 
ATOM     52  C   UNL A   1      38.327  31.563  31.038  1.00  0.00     0.049 A 
ATOM     53  H   UNL A   1      39.793  30.896  32.359  1.00  0.00     0.167 HD
ATOM     54  C   UNL A   1      42.879  29.368  35.049  1.00  0.00     0.031 A 
ATOM     55  C   UNL A   1      37.646  32.546  31.661  1.00  0.00     0.031 A 
ATOM     56  C   UNL A   1      42.250  30.443  35.765  1.00  0.00     0.049 A 
ATOM     57  C   UNL A   1      38.040  32.948  33.055  1.00  0.00     0.074 A 
ATOM     58  C   UNL A   1      42.569  30.939  37.016  1.00  0.00     0.029 A 
ATOM     59  N   UNL A   1      41.181  31.188  35.294  1.00  0.00    -0.354 N 
ATOM     60  N   UNL A   1      38.998  32.465  33.808  1.00  0.00    -0.248 NA
ATOM     61  C   UNL A   1      37.266  34.029  33.683  1.00  0.00     0.031 C 
ATOM     62  C   UNL A   1      41.665  31.962  37.320  1.00  0.00     0.029 A 
ATOM     63  C   UNL A   1      40.814  32.128  36.240  1.00  0.00     0.049 A 
ATOM     64  H   UNL A   1      40.748  31.066  34.419  1.00  0.00     0.167 HD
ATOM     65  C   UNL A   1      38.955  33.193  34.991  1.00  0.00     0.074 A 
ATOM     66  C   UNL A   1      37.880  34.154  34.853  1.00  0.00     0.031 C 
ATOM     67  C   UNL A   1      39.740  33.077  36.089  1.00  0.00     0.031 A 
BRANCH  54  68
ATOM     68  C   UNL A   1      44.002  28.633  35.722  1.00  0.00    -0.014 A 
ATOM     69  C   UNL A   1      43.743  27.525  36.549  1.00  0.00     0.010 A 
ATOM     70  C   UNL A   1      45.334  29.007  35.467  1.00  0.00     0.010 A 
ATOM     71  C   UNL A   1      44.798  26.811  37.120  1.00  0.00     0.020 A 
ATOM     72  C   UNL A   1      46.392  28.282  36.022  1.00  0.00     0.020 A 
ATOM     73  C   UNL A   1      46.116  27.190  36.847  1.00  0.00     0.054 A 
BRANCH  73  74
ATOM     74  S   UNL A   1      47.461  26.215  37.575  1.00  0.00     0.124 S 
ATOM     75  O   UNL A   1      47.151  24.866  37.103  1.00  0.00    -0.237 OA
ATOM     76  O   UNL A   1      48.648  26.829  36.986  1.00  0.00    -0.237 OA
ATOM     77  O   UNL A   1      47.300  26.419  39.012  1.00  0.00    -0.744 OA
ENDBRANCH  73  74
ENDBRANCH  54  68
BRANCH  55  78
ATOM     78  C   UNL A   1      36.532  33.227  30.952  1.00  0.00    -0.014 A 
ATOM     79  C   UNL A   1      35.245  33.257  31.514  1.00  0.00     0.010 A 
ATOM     80  C   UNL A   1      36.766  33.892  29.735  1.00  0.00     0.010 A 
ATOM     81  C   UNL A   1      34.211  33.946  30.874  1.00  0.00     0.020 A 
ATOM     82  C   UNL A   1      35.738  34.597  29.100  1.00  0.00     0.020 A 
ATOM     83  C   UNL A   1      34.468  34.622  29.677  1.00  0.00     0.054 A 
BRANCH  83  84
ATOM     84  S   UNL A   1      33.122  35.564  28.907  1.00  0.00     0.124 S 
ATOM     85  O   UNL A   1      32.527  34.578  28.011  1.00  0.00    -0.237 OA
ATOM     86  O   UNL A   1      32.312  35.942  30.062  1.00  0.00    -0.237 OA
ATOM     87  O   UNL A   1      33.811  36.671  28.247  1.00  0.00    -0.744 OA
ENDBRANCH  83  84
ENDBRANCH  55  78
BRANCH  67  88
ATOM     88  C   UNL A   1      39.491  34.013  37.237  1.00  0.00    -0.014 A 
ATOM     89  C   UNL A   1      38.780  33.585  38.370  1.00  0.00     0.010 A 
ATOM     90  C   UNL A   1      40.083  35.289  37.233  1.00  0.00     0.010 A 
ATOM     91  C   UNL A   1      38.666  34.421  39.484  1.00  0.00     0.020 A 
ATOM     92  C   UNL A   1      39.986  36.120  38.351  1.00  0.00     0.020 A 
ATOM     93  C   UNL A   1      39.279  35.678  39.471  1.00  0.00     0.054 A 
BRANCH  93  94
ATOM     94  S   UNL A   1      39.173  36.708  40.961  1.00  0.00     0.124 S 
ATOM     95  O   UNL A   1      40.562  36.740  41.412  1.00  0.00    -0.237 OA
ATOM     96  O   UNL A   1      38.654  37.968  40.435  1.00  0.00    -0.237 OA
ATOM     97  O   UNL A   1      38.255  35.974  41.829  1.00  0.00    -0.744 OA
ENDBRANCH  93  94
ENDBRANCH  67  88
ENDBRANCH  41  42
ENDBRANCH  33  36
ENDBRANCH  31  32
ENDBRANCH  30  31
ENDBRANCH   1  30
TORSDOF 17
ENDMDL
MODEL 2
REMARK VINA RESULT:     -12.8      5.104     12.107
REMARK SMILES Cc1cccc2c1[C@H]1c3c(C)cccc3[C@H](CC(=O)NCCCCCCNC(=O)c3ccc(-c4c5nc(c(-c6ccc(S(=O)(=O)[O-])cc6)c6ccc([nH]6)c(-c6ccc(S(=O)(=O)[O-])cc6)c6nc(c(-c7ccc(S(=O)(=O)[O-])cc7)c7ccc4[nH]7)C=C6)C=C5)cc3)C[C@H]1CC2
REMARK SMILES IDX 24 1 23 2 22 3 21 4 20 5 18 6 19 7 17 9 16 10 1 11 2 12 3 13
REMARK SMILES IDX 7 14 4 15 6 16 8 17 5 18 93 19 9 20 91 21 92 22 10 23 15 24
REMARK SMILES IDX 90 25 12 26 11 27 14 28 13 29 25 30 26 31 27 32 28 33 29 35
REMARK SMILES IDX 30 36 31 37 89 38 32 39 88 40 33 41 34 42 35 43 82 44 36 45
REMARK SMILES IDX 87 46 81 47 83 48 37 49 86 50 80 51 79 52 38 54 68 55 49 56
REMARK SMILES IDX 67 57 50 58 53 59 66 60 84 61 51 62 52 63 65 65 85 66 54 67
REMARK SMILES IDX 39 68 40 69 48 70 41 71 47 72 42 73 43 74 44 75 45 76 46 77
REMARK SMILES IDX 69 78 70 79 78 80 71 81 77 82 72 83 73 84 74 85 75 86 76 87
REMARK SMILES IDX 55 88 56 89 64 90 57 91 63 92 58 93 59 94 60 95 61 96 62 97
REMARK H PARENT 20 8 27 34 83 53 53 64
REMARK Flexibility Score: inf
ROOT
ATOM      1  C   UNL A   1      33.476  34.396  28.507  1.00  0.00     0.002 C 
ENDROOT
BRANCH   1   2
ATOM      2  C   UNL A   1      34.039  35.807  28.699  1.00  0.00     0.002 C 
BRANCH   2   3
ATOM      3  C   UNL A   1      33.260  36.714  29.657  1.00  0.00     0.021 C 
BRANCH   3   4
ATOM      4  C   UNL A   1      32.752  36.050  30.933  1.00  0.00     0.116 C 
BRANCH   4   5
ATOM      5  N   UNL A   1      33.706  36.141  32.012  1.00  0.00    -0.356 N 
ATOM      6  C   UNL A   1      34.645  35.250  32.417  1.00  0.00     0.220 C 
ATOM      7  O   UNL A   1      35.493  35.634  33.228  1.00  0.00    -0.275 OA
ATOM      8  H   UNL A   1      33.670  36.976  32.531  1.00  0.00     0.163 HD
BRANCH   6   9
ATOM      9  C   UNL A   1      34.678  33.834  31.869  1.00  0.00     0.108 C 
BRANCH   9  10
ATOM     10  C   UNL A   1      35.959  32.984  32.103  1.00  0.00     0.029 C 
ATOM     11  C   UNL A   1      40.239  34.257  36.030  1.00  0.00     0.044 C 
ATOM     12  C   UNL A   1      40.579  32.981  35.301  1.00  0.00    -0.047 A 
ATOM     13  C   UNL A   1      41.839  32.426  35.601  1.00  0.00     0.004 A 
ATOM     14  C   UNL A   1      39.725  32.313  34.384  1.00  0.00    -0.034 A 
ATOM     15  C   UNL A   1      42.237  31.209  35.063  1.00  0.00     0.001 A 
ATOM     16  C   UNL A   1      40.079  31.005  33.975  1.00  0.00    -0.044 A 
ATOM     17  C   UNL A   1      38.436  32.935  33.833  1.00  0.00     0.053 C 
ATOM     18  C   UNL A   1      41.345  30.483  34.286  1.00  0.00     0.004 A 
ATOM     19  C   UNL A   1      39.079  30.049  33.365  1.00  0.00     0.036 C 
ATOM     20  C   UNL A   1      38.473  33.598  32.424  1.00  0.00    -0.034 A 
ATOM     21  C   UNL A   1      37.350  31.834  33.897  1.00  0.00     0.002 C 
ATOM     22  C   UNL A   1      37.724  30.643  33.000  1.00  0.00     0.009 C 
ATOM     23  C   UNL A   1      39.599  34.280  31.880  1.00  0.00    -0.047 A 
ATOM     24  C   UNL A   1      37.284  33.572  31.626  1.00  0.00    -0.040 A 
ATOM     25  C   UNL A   1      35.999  32.452  33.541  1.00  0.00     0.013 C 
ATOM     26  C   UNL A   1      39.560  34.783  30.562  1.00  0.00     0.004 A 
ATOM     27  C   UNL A   1      40.888  34.539  32.609  1.00  0.00     0.044 C 
ATOM     28  C   UNL A   1      37.317  34.030  30.292  1.00  0.00     0.004 A 
ATOM     29  C   UNL A   1      38.440  34.639  29.765  1.00  0.00     0.001 A 
ENDBRANCH   9  10
ENDBRANCH   6   9
ENDBRANCH   4   5
ENDBRANCH   3   4
ENDBRANCH   2   3
ENDBRANCH   1   2
BRANCH   1  30
ATOM     30  C   UNL A   1      34.416  33.398  27.827  1.00  0.00     0.021 C 
BRANCH  30  31
ATOM     31  C   UNL A   1      34.871  32.246  28.712  1.00  0.00     0.116 C 
BRANCH  31  32
ATOM     32  N   UNL A   1      34.216  30.999  28.359  1.00  0.00    -0.352 N 
ATOM     33  C   UNL A   1      34.788  29.782  28.078  1.00  0.00     0.251 C 
ATOM     34  H   UNL A   1      33.233  31.030  28.315  1.00  0.00     0.163 HD
ATOM     35  O   UNL A   1      34.120  28.874  27.601  1.00  0.00    -0.269 OA
BRANCH  33  36
ATOM     36  C   UNL A   1      36.228  29.588  28.345  1.00  0.00     0.039 A 
ATOM     37  C   UNL A   1      36.638  29.205  29.624  1.00  0.00     0.014 A 
ATOM     38  C   UNL A   1      37.168  29.779  27.326  1.00  0.00     0.014 A 
ATOM     39  C   UNL A   1      37.991  28.968  29.871  1.00  0.00     0.010 A 
ATOM     40  C   UNL A   1      38.510  29.494  27.561  1.00  0.00     0.010 A 
ATOM     41  C   UNL A   1      38.933  29.097  28.838  1.00  0.00    -0.014 A 
BRANCH  41  42
ATOM     42  C   UNL A   1      40.376  28.871  29.088  1.00  0.00     0.031 A 
ATOM     43  C   UNL A   1      40.987  27.542  28.745  1.00  0.00     0.074 A 
ATOM     44  C   UNL A   1      41.125  29.839  29.651  1.00  0.00     0.049 A 
ATOM     45  N   UNL A   1      42.215  27.130  28.926  1.00  0.00    -0.248 NA
ATOM     46  C   UNL A   1      40.100  26.539  28.131  1.00  0.00     0.031 C 
ATOM     47  C   UNL A   1      40.641  31.164  30.044  1.00  0.00     0.029 A 
ATOM     48  N   UNL A   1      42.453  29.853  29.994  1.00  0.00    -0.354 N 
ATOM     49  C   UNL A   1      42.245  25.823  28.458  1.00  0.00     0.074 A 
ATOM     50  C   UNL A   1      40.908  25.493  28.022  1.00  0.00     0.031 C 
ATOM     51  C   UNL A   1      41.664  31.868  30.558  1.00  0.00     0.029 A 
ATOM     52  C   UNL A   1      42.865  31.038  30.557  1.00  0.00     0.049 A 
ATOM     53  H   UNL A   1      43.055  29.087  29.851  1.00  0.00     0.167 HD
ATOM     54  C   UNL A   1      43.300  24.980  28.382  1.00  0.00     0.031 A 
ATOM     55  C   UNL A   1      44.074  31.413  31.022  1.00  0.00     0.031 A 
ATOM     56  C   UNL A   1      44.634  25.314  28.796  1.00  0.00     0.049 A 
ATOM     57  C   UNL A   1      45.227  30.451  30.943  1.00  0.00     0.074 A 
ATOM     58  C   UNL A   1      45.776  24.538  28.711  1.00  0.00     0.029 A 
ATOM     59  N   UNL A   1      45.005  26.520  29.369  1.00  0.00    -0.354 N 
ATOM     60  N   UNL A   1      45.245  29.230  30.465  1.00  0.00    -0.248 NA
ATOM     61  C   UNL A   1      46.522  30.916  31.460  1.00  0.00     0.031 C 
ATOM     62  C   UNL A   1      46.834  25.262  29.270  1.00  0.00     0.029 A 
ATOM     63  C   UNL A   1      46.357  26.503  29.661  1.00  0.00     0.049 A 
ATOM     64  H   UNL A   1      44.398  27.274  29.541  1.00  0.00     0.167 HD
ATOM     65  C   UNL A   1      46.554  28.786  30.607  1.00  0.00     0.074 A 
ATOM     66  C   UNL A   1      47.301  29.870  31.210  1.00  0.00     0.031 C 
ATOM     67  C   UNL A   1      47.087  27.589  30.263  1.00  0.00     0.031 A 
BRANCH  54  68
ATOM     68  C   UNL A   1      43.059  23.609  27.816  1.00  0.00    -0.014 A 
ATOM     69  C   UNL A   1      42.526  22.584  28.618  1.00  0.00     0.010 A 
ATOM     70  C   UNL A   1      43.297  23.364  26.452  1.00  0.00     0.010 A 
ATOM     71  C   UNL A   1      42.248  21.332  28.068  1.00  0.00     0.020 A 
ATOM     72  C   UNL A   1      43.002  22.117  25.894  1.00  0.00     0.020 A 
ATOM     73  C   UNL A   1      42.481  21.109  26.707  1.00  0.00     0.054 A 
BRANCH  73  74
ATOM     74  S   UNL A   1      42.070  19.482  26.018  1.00  0.00     0.124 S 
ATOM     75  O   UNL A   1      42.514  18.580  27.080  1.00  0.00    -0.237 OA
ATOM     76  O   UNL A   1      40.625  19.574  25.835  1.00  0.00    -0.237 OA
ATOM     77  O   UNL A   1      42.853  19.418  24.786  1.00  0.00    -0.744 OA
ENDBRANCH  73  74
ENDBRANCH  54  68
BRANCH  55  78
ATOM     78  C   UNL A   1      44.250  32.777  31.586  1.00  0.00    -0.014 A 
ATOM     79  C   UNL A   1      44.341  33.891  30.736  1.00  0.00     0.010 A 
ATOM     80  C   UNL A   1      44.277  32.971  32.979  1.00  0.00     0.010 A 
ATOM     81  C   UNL A   1      44.450  35.178  31.268  1.00  0.00     0.020 A 
ATOM     82  C   UNL A   1      44.369  34.258  33.516  1.00  0.00     0.020 A 
ATOM     83  C   UNL A   1      44.451  35.354  32.655  1.00  0.00     0.054 A 
BRANCH  83  84
ATOM     84  S   UNL A   1      44.524  37.043  33.315  1.00  0.00     0.124 S 
ATOM     85  O   UNL A   1      45.163  36.841  34.612  1.00  0.00    -0.237 OA
ATOM     86  O   UNL A   1      45.330  37.731  32.311  1.00  0.00    -0.237 OA
ATOM     87  O   UNL A   1      43.122  37.453  33.368  1.00  0.00    -0.744 OA
ENDBRANCH  83  84
ENDBRANCH  55  78
BRANCH  67  88
ATOM     88  C   UNL A   1      48.553  27.372  30.511  1.00  0.00    -0.014 A 
ATOM     89  C   UNL A   1      49.505  27.745  29.549  1.00  0.00     0.010 A 
ATOM     90  C   UNL A   1      48.983  26.908  31.767  1.00  0.00     0.010 A 
ATOM     91  C   UNL A   1      50.869  27.660  29.841  1.00  0.00     0.020 A 
ATOM     92  C   UNL A   1      50.345  26.837  32.069  1.00  0.00     0.020 A 
ATOM     93  C   UNL A   1      51.279  27.217  31.103  1.00  0.00     0.054 A 
BRANCH  93  94
ATOM     94  S   UNL A   1      53.055  27.187  31.474  1.00  0.00     0.124 S 
ATOM     95  O   UNL A   1      53.585  28.155  30.519  1.00  0.00    -0.237 OA
ATOM     96  O   UNL A   1      53.089  27.602  32.875  1.00  0.00    -0.237 OA
ATOM     97  O   UNL A   1      53.440  25.799  31.229  1.00  0.00    -0.744 OA
ENDBRANCH  93  94
ENDBRANCH  67  88
ENDBRANCH  41  42
ENDBRANCH  33  36
ENDBRANCH  31  32
ENDBRANCH  30  31
ENDBRANCH   1  30
TORSDOF 17
ENDMDL
MODEL 3
REMARK VINA RESULT:     -12.6      5.998     11.521
REMARK SMILES Cc1cccc2c1[C@H]1c3c(C)cccc3[C@H](CC(=O)NCCCCCCNC(=O)c3ccc(-c4c5nc(c(-c6ccc(S(=O)(=O)[O-])cc6)c6ccc([nH]6)c(-c6ccc(S(=O)(=O)[O-])cc6)c6nc(c(-c7ccc(S(=O)(=O)[O-])cc7)c7ccc4[nH]7)C=C6)C=C5)cc3)C[C@H]1CC2
REMARK SMILES IDX 24 1 23 2 22 3 21 4 20 5 18 6 19 7 17 9 16 10 1 11 2 12 3 13
REMARK SMILES IDX 7 14 4 15 6 16 8 17 5 18 93 19 9 20 91 21 92 22 10 23 15 24
REMARK SMILES IDX 90 25 12 26 11 27 14 28 13 29 25 30 26 31 27 32 28 33 29 35
REMARK SMILES IDX 30 36 31 37 89 38 32 39 88 40 33 41 34 42 35 43 82 44 36 45
REMARK SMILES IDX 87 46 81 47 83 48 37 49 86 50 80 51 79 52 38 54 68 55 49 56
REMARK SMILES IDX 67 57 50 58 53 59 66 60 84 61 51 62 52 63 65 65 85 66 54 67
REMARK SMILES IDX 39 68 40 69 48 70 41 71 47 72 42 73 43 74 44 75 45 76 46 77
REMARK SMILES IDX 69 78 70 79 78 80 71 81 77 82 72 83 73 84 74 85 75 86 76 87
REMARK SMILES IDX 55 88 56 89 64 90 57 91 63 92 58 93 59 94 60 95 61 96 62 97
REMARK H PARENT 20 8 27 34 83 53 53 64
REMARK Flexibility Score: inf
ROOT
ATOM      1  C   UNL A   1      34.883  32.801  29.152  1.00  0.00     0.002 C 
ENDROOT
BRANCH   1   2
ATOM      2  C   UNL A   1      34.843  31.677  28.115  1.00  0.00     0.002 C 
BRANCH   2   3
ATOM      3  C   UNL A   1      33.462  31.346  27.540  1.00  0.00     0.021 C 
BRANCH   3   4
ATOM      4  C   UNL A   1      33.247  29.892  27.128  1.00  0.00     0.116 C 
BRANCH   4   5
ATOM      5  N   UNL A   1      33.639  29.650  25.760  1.00  0.00    -0.356 N 
ATOM      6  C   UNL A   1      32.910  29.171  24.721  1.00  0.00     0.220 C 
ATOM      7  O   UNL A   1      33.396  29.250  23.589  1.00  0.00    -0.275 OA
ATOM      8  H   UNL A   1      34.575  29.865  25.549  1.00  0.00     0.163 HD
BRANCH   6   9
ATOM      9  C   UNL A   1      31.524  28.584  24.933  1.00  0.00     0.108 C 
BRANCH   9  10
ATOM     10  C   UNL A   1      31.382  27.037  24.983  1.00  0.00     0.029 C 
ATOM     11  C   UNL A   1      35.888  23.199  25.551  1.00  0.00     0.044 C 
ATOM     12  C   UNL A   1      34.584  22.445  25.470  1.00  0.00    -0.047 A 
ATOM     13  C   UNL A   1      34.694  21.041  25.435  1.00  0.00     0.004 A 
ATOM     14  C   UNL A   1      33.296  23.044  25.455  1.00  0.00    -0.034 A 
ATOM     15  C   UNL A   1      33.567  20.230  25.447  1.00  0.00     0.001 A 
ATOM     16  C   UNL A   1      32.170  22.204  25.629  1.00  0.00    -0.044 A 
ATOM     17  C   UNL A   1      33.073  24.550  25.279  1.00  0.00     0.053 C 
ATOM     18  C   UNL A   1      32.313  20.807  25.584  1.00  0.00     0.004 A 
ATOM     19  C   UNL A   1      30.820  22.737  26.051  1.00  0.00     0.036 C 
ATOM     20  C   UNL A   1      32.702  25.086  23.864  1.00  0.00    -0.034 A 
ATOM     21  C   UNL A   1      32.009  24.967  26.323  1.00  0.00     0.002 C 
ATOM     22  C   UNL A   1      30.673  24.254  26.058  1.00  0.00     0.009 C 
ATOM     23  C   UNL A   1      33.171  24.529  22.639  1.00  0.00    -0.047 A 
ATOM     24  C   UNL A   1      31.874  26.251  23.770  1.00  0.00    -0.040 A 
ATOM     25  C   UNL A   1      31.887  26.490  26.323  1.00  0.00     0.013 C 
ATOM     26  C   UNL A   1      32.717  25.039  21.404  1.00  0.00     0.004 A 
ATOM     27  C   UNL A   1      34.155  23.399  22.524  1.00  0.00     0.044 C 
ATOM     28  C   UNL A   1      31.397  26.681  22.514  1.00  0.00     0.004 A 
ATOM     29  C   UNL A   1      31.821  26.089  21.339  1.00  0.00     0.001 A 
ENDBRANCH   9  10
ENDBRANCH   6   9
ENDBRANCH   4   5
ENDBRANCH   3   4
ENDBRANCH   2   3
ENDBRANCH   1   2
BRANCH   1  30
ATOM     30  C   UNL A   1      36.250  33.459  29.359  1.00  0.00     0.021 C 
BRANCH  30  31
ATOM     31  C   UNL A   1      36.963  33.059  30.643  1.00  0.00     0.116 C 
BRANCH  31  32
ATOM     32  N   UNL A   1      36.375  31.876  31.246  1.00  0.00    -0.352 N 
ATOM     33  C   UNL A   1      36.820  30.577  31.193  1.00  0.00     0.251 C 
ATOM     34  H   UNL A   1      35.548  32.024  31.759  1.00  0.00     0.163 HD
ATOM     35  O   UNL A   1      36.110  29.658  31.581  1.00  0.00    -0.269 OA
BRANCH  33  36
ATOM     36  C   UNL A   1      38.164  30.303  30.646  1.00  0.00     0.039 A 
ATOM     37  C   UNL A   1      39.223  30.069  31.528  1.00  0.00     0.014 A 
ATOM     38  C   UNL A   1      38.372  30.270  29.263  1.00  0.00     0.014 A 
ATOM     39  C   UNL A   1      40.485  29.756  31.019  1.00  0.00     0.010 A 
ATOM     40  C   UNL A   1      39.618  29.910  28.759  1.00  0.00     0.010 A 
ATOM     41  C   UNL A   1      40.686  29.660  29.633  1.00  0.00    -0.014 A 
BRANCH  41  42
ATOM     42  C   UNL A   1      42.025  29.352  29.075  1.00  0.00     0.031 A 
ATOM     43  C   UNL A   1      42.315  27.966  28.573  1.00  0.00     0.074 A 
ATOM     44  C   UNL A   1      42.983  30.298  29.054  1.00  0.00     0.049 A 
ATOM     45  N   UNL A   1      43.430  27.483  28.092  1.00  0.00    -0.248 NA
ATOM     46  C   UNL A   1      41.211  26.991  28.632  1.00  0.00     0.031 C 
ATOM     47  C   UNL A   1      42.827  31.674  29.529  1.00  0.00     0.029 A 
ATOM     48  N   UNL A   1      44.282  30.241  28.615  1.00  0.00    -0.354 N 
ATOM     49  C   UNL A   1      43.167  26.151  27.799  1.00  0.00     0.074 A 
ATOM     50  C   UNL A   1      41.801  25.888  28.191  1.00  0.00     0.031 C 
ATOM     51  C   UNL A   1      43.981  32.336  29.340  1.00  0.00     0.029 A 
ATOM     52  C   UNL A   1      44.964  31.426  28.757  1.00  0.00     0.049 A 
ATOM     53  H   UNL A   1      44.688  29.429  28.236  1.00  0.00     0.167 HD
ATOM     54  C   UNL A   1      43.986  25.234  27.234  1.00  0.00     0.031 A 
ATOM     55  C   UNL A   1      46.239  31.745  28.455  1.00  0.00     0.031 A 
ATOM     56  C   UNL A   1      45.336  25.501  26.825  1.00  0.00     0.049 A 
ATOM     57  C   UNL A   1      47.136  30.703  27.845  1.00  0.00     0.074 A 
ATOM     58  C   UNL A   1      46.226  24.645  26.200  1.00  0.00     0.029 A 
ATOM     59  N   UNL A   1      45.991  26.710  26.995  1.00  0.00    -0.354 N 
ATOM     60  N   UNL A   1      46.858  29.457  27.543  1.00  0.00    -0.248 NA
ATOM     61  C   UNL A   1      48.514  31.108  27.531  1.00  0.00     0.031 C 
ATOM     62  C   UNL A   1      47.434  25.326  26.027  1.00  0.00     0.029 A 
ATOM     63  C   UNL A   1      47.280  26.617  26.505  1.00  0.00     0.049 A 
ATOM     64  H   UNL A   1      45.596  27.513  27.404  1.00  0.00     0.167 HD
ATOM     65  C   UNL A   1      48.020  28.935  26.988  1.00  0.00     0.074 A 
ATOM     66  C   UNL A   1      49.002  29.999  26.989  1.00  0.00     0.031 C 
ATOM     67  C   UNL A   1      48.247  27.685  26.516  1.00  0.00     0.031 A 
BRANCH  54  68
ATOM     68  C   UNL A   1      43.440  23.852  27.013  1.00  0.00    -0.014 A 
ATOM     69  C   UNL A   1      43.266  22.967  28.093  1.00  0.00     0.010 A 
ATOM     70  C   UNL A   1      43.029  23.460  25.727  1.00  0.00     0.010 A 
ATOM     71  C   UNL A   1      42.701  21.707  27.886  1.00  0.00     0.020 A 
ATOM     72  C   UNL A   1      42.445  22.207  25.521  1.00  0.00     0.020 A 
ATOM     73  C   UNL A   1      42.287  21.339  26.602  1.00  0.00     0.054 A 
BRANCH  73  74
ATOM     74  S   UNL A   1      41.521  19.710  26.378  1.00  0.00     0.124 S 
ATOM     75  O   UNL A   1      41.761  19.079  27.675  1.00  0.00    -0.237 OA
ATOM     76  O   UNL A   1      40.131  20.054  26.094  1.00  0.00    -0.237 OA
ATOM     77  O   UNL A   1      42.261  19.128  25.262  1.00  0.00    -0.744 OA
ENDBRANCH  73  74
ENDBRANCH  54  68
BRANCH  55  78
ATOM     78  C   UNL A   1      46.729  33.124  28.711  1.00  0.00    -0.014 A 
ATOM     79  C   UNL A   1      46.593  34.120  27.730  1.00  0.00     0.010 A 
ATOM     80  C   UNL A   1      47.290  33.459  29.956  1.00  0.00     0.010 A 
ATOM     81  C   UNL A   1      47.003  35.430  27.991  1.00  0.00     0.020 A 
ATOM     82  C   UNL A   1      47.685  34.772  30.229  1.00  0.00     0.020 A 
ATOM     83  C   UNL A   1      47.535  35.750  29.244  1.00  0.00     0.054 A 
BRANCH  83  84
ATOM     84  S   UNL A   1      47.993  37.474  29.577  1.00  0.00     0.124 S 
ATOM     85  O   UNL A   1      48.341  37.964  28.247  1.00  0.00    -0.237 OA
ATOM     86  O   UNL A   1      46.764  38.014  30.150  1.00  0.00    -0.237 OA
ATOM     87  O   UNL A   1      49.111  37.359  30.511  1.00  0.00    -0.744 OA
ENDBRANCH  83  84
ENDBRANCH  55  78
BRANCH  67  88
ATOM     88  C   UNL A   1      49.603  27.383  25.943  1.00  0.00    -0.014 A 
ATOM     89  C   UNL A   1      50.598  26.784  26.733  1.00  0.00     0.010 A 
ATOM     90  C   UNL A   1      49.838  27.586  24.571  1.00  0.00     0.010 A 
ATOM     91  C   UNL A   1      51.808  26.389  26.157  1.00  0.00     0.020 A 
ATOM     92  C   UNL A   1      51.040  27.177  23.989  1.00  0.00     0.020 A 
ATOM     93  C   UNL A   1      52.017  26.578  24.787  1.00  0.00     0.054 A 
BRANCH  93  94
ATOM     94  S   UNL A   1      53.570  25.989  24.058  1.00  0.00     0.124 S 
ATOM     95  O   UNL A   1      54.525  26.995  24.514  1.00  0.00    -0.237 OA
ATOM     96  O   UNL A   1      53.716  24.666  24.659  1.00  0.00    -0.237 OA
ATOM     97  O   UNL A   1      53.305  25.992  22.621  1.00  0.00    -0.744 OA
ENDBRANCH  93  94
ENDBRANCH  67  88
ENDBRANCH  41  42
ENDBRANCH  33  36
ENDBRANCH  31  32
ENDBRANCH  30  31
ENDBRANCH   1  30
TORSDOF 17
ENDMDL
