MODEL 1
REMARK VINA RESULT:     -12.1      0.000      0.000
REMARK SMILES O=C(NCCCCCCNC(=O)c1cccn2c(=O)c3ccc(Cl)cc3nc12)c1ccc(-c2c3nc(c(-c4ccc(S(=O)(=O)[O-])cc4)c4ccc([nH]4)c(-c4ccc(S(=O)(=O)[O-])cc4)c4nc(c(-c5ccc(S(=O)(=O)[O-])cc5)c5ccc2[nH]5)C=C4)C=C3)cc1
REMARK SMILES IDX 5 1 4 2 3 3 1 4 2 5 29 7 30 8 88 9 31 10 87 11 32 12 33 13
REMARK SMILES IDX 34 14 81 15 35 16 86 17 80 18 82 19 36 20 85 21 79 22 78 23
REMARK SMILES IDX 37 25 67 26 48 27 66 28 49 29 52 30 65 31 83 32 50 33 51 34
REMARK SMILES IDX 64 36 84 37 53 38 38 39 39 40 47 41 40 42 46 43 41 44 42 45
REMARK SMILES IDX 43 46 44 47 45 48 68 49 69 50 77 51 70 52 76 53 71 54 72 55
REMARK SMILES IDX 73 56 74 57 75 58 54 59 55 60 63 61 56 62 62 63 57 64 58 65
REMARK SMILES IDX 59 66 60 67 61 68 6 69 7 70 8 71 9 72 10 73 11 74 12 76
REMARK SMILES IDX 13 77 14 78 28 79 15 80 17 81 27 82 16 83 18 84 26 85 19 86
REMARK SMILES IDX 20 87 25 88 21 89 23 90 22 91 24 92
REMARK H PARENT 3 6 82 24 52 35 10 75
REMARK Flexibility Score: inf
ROOT
ATOM      1  C   UNL A   1      33.275  28.636  24.690  1.00  0.00     0.021 C 
ENDROOT
BRANCH   1   2
ATOM      2  C   UNL A   1      34.073  28.818  25.975  1.00  0.00     0.116 C 
BRANCH   2   3
ATOM      3  N   UNL A   1      33.746  30.057  26.661  1.00  0.00    -0.352 N 
ATOM      4  O   UNL A   1      33.903  31.650  28.242  1.00  0.00    -0.269 OA
ATOM      5  C   UNL A   1      34.426  30.695  27.667  1.00  0.00     0.251 C 
ATOM      6  H   UNL A   1      32.921  30.501  26.359  1.00  0.00     0.163 HD
BRANCH   5   7
ATOM      7  C   UNL A   1      35.770  30.230  28.073  1.00  0.00     0.039 A 
ATOM      8  C   UNL A   1      35.928  29.632  29.324  1.00  0.00     0.014 A 
ATOM      9  C   UNL A   1      36.878  30.400  27.236  1.00  0.00     0.014 A 
ATOM     10  C   UNL A   1      37.189  29.182  29.721  1.00  0.00     0.010 A 
ATOM     11  C   UNL A   1      38.110  29.859  27.591  1.00  0.00     0.010 A 
ATOM     12  C   UNL A   1      38.289  29.275  28.851  1.00  0.00    -0.014 A 
BRANCH  12  13
ATOM     13  C   UNL A   1      39.636  28.806  29.273  1.00  0.00     0.031 A 
ATOM     14  C   UNL A   1      40.479  29.650  30.192  1.00  0.00     0.074 A 
ATOM     15  C   UNL A   1      40.104  27.623  28.827  1.00  0.00     0.049 A 
ATOM     16  N   UNL A   1      41.657  29.389  30.699  1.00  0.00    -0.248 NA
ATOM     17  C   UNL A   1      39.944  30.968  30.575  1.00  0.00     0.031 C 
ATOM     18  C   UNL A   1      39.401  26.738  27.896  1.00  0.00     0.029 A 
ATOM     19  N   UNL A   1      41.267  26.952  29.111  1.00  0.00    -0.354 N 
ATOM     20  C   UNL A   1      41.995  30.501  31.461  1.00  0.00     0.074 A 
ATOM     21  C   UNL A   1      40.946  31.476  31.279  1.00  0.00     0.031 C 
ATOM     22  C   UNL A   1      40.119  25.617  27.732  1.00  0.00     0.029 A 
ATOM     23  C   UNL A   1      41.352  25.718  28.511  1.00  0.00     0.049 A 
ATOM     24  H   UNL A   1      41.974  27.321  29.690  1.00  0.00     0.167 HD
ATOM     25  C   UNL A   1      43.058  30.677  32.280  1.00  0.00     0.031 A 
ATOM     26  C   UNL A   1      42.302  24.764  28.587  1.00  0.00     0.031 A 
ATOM     27  C   UNL A   1      44.095  29.696  32.468  1.00  0.00     0.049 A 
ATOM     28  C   UNL A   1      43.485  24.982  29.488  1.00  0.00     0.074 A 
ATOM     29  C   UNL A   1      45.198  29.764  33.301  1.00  0.00     0.029 A 
ATOM     30  N   UNL A   1      44.157  28.469  31.821  1.00  0.00    -0.354 N 
ATOM     31  N   UNL A   1      43.757  26.015  30.251  1.00  0.00    -0.248 NA
ATOM     32  C   UNL A   1      44.478  23.903  29.556  1.00  0.00     0.031 C 
ATOM     33  C   UNL A   1      45.963  28.610  33.104  1.00  0.00     0.029 A 
ATOM     34  C   UNL A   1      45.297  27.785  32.211  1.00  0.00     0.049 A 
ATOM     35  H   UNL A   1      43.489  28.134  31.181  1.00  0.00     0.167 HD
ATOM     36  C   UNL A   1      44.953  25.711  30.890  1.00  0.00     0.074 A 
ATOM     37  C   UNL A   1      45.329  24.380  30.456  1.00  0.00     0.031 C 
ATOM     38  C   UNL A   1      45.679  26.471  31.749  1.00  0.00     0.031 A 
BRANCH  25  39
ATOM     39  C   UNL A   1      43.138  31.964  33.066  1.00  0.00    -0.014 A 
ATOM     40  C   UNL A   1      42.501  32.073  34.316  1.00  0.00     0.010 A 
ATOM     41  C   UNL A   1      43.777  33.097  32.529  1.00  0.00     0.010 A 
ATOM     42  C   UNL A   1      42.481  33.291  35.000  1.00  0.00     0.020 A 
ATOM     43  C   UNL A   1      43.792  34.308  33.227  1.00  0.00     0.020 A 
ATOM     44  C   UNL A   1      43.122  34.403  34.447  1.00  0.00     0.054 A 
BRANCH  44  45
ATOM     45  S   UNL A   1      43.074  35.980  35.344  1.00  0.00     0.124 S 
ATOM     46  O   UNL A   1      42.207  36.790  34.495  1.00  0.00    -0.237 OA
ATOM     47  O   UNL A   1      42.512  35.594  36.636  1.00  0.00    -0.237 OA
ATOM     48  O   UNL A   1      44.475  36.394  35.384  1.00  0.00    -0.744 OA
ENDBRANCH  44  45
ENDBRANCH  25  39
BRANCH  26  49
ATOM     49  C   UNL A   1      42.109  23.497  27.824  1.00  0.00    -0.014 A 
ATOM     50  C   UNL A   1      41.249  22.497  28.314  1.00  0.00     0.010 A 
ATOM     51  C   UNL A   1      42.883  23.230  26.681  1.00  0.00     0.010 A 
ATOM     52  C   UNL A   1      41.229  21.228  27.729  1.00  0.00     0.020 A 
ATOM     53  C   UNL A   1      42.840  21.972  26.071  1.00  0.00     0.020 A 
ATOM     54  C   UNL A   1      42.043  20.968  26.626  1.00  0.00     0.054 A 
BRANCH  54  55
ATOM     55  S   UNL A   1      42.089  19.279  25.961  1.00  0.00     0.124 S 
ATOM     56  O   UNL A   1      40.676  19.029  25.688  1.00  0.00    -0.237 OA
ATOM     57  O   UNL A   1      42.940  19.426  24.783  1.00  0.00    -0.237 OA
ATOM     58  O   UNL A   1      42.663  18.496  27.051  1.00  0.00    -0.744 OA
ENDBRANCH  54  55
ENDBRANCH  26  49
BRANCH  38  59
ATOM     59  C   UNL A   1      46.986  25.910  32.253  1.00  0.00    -0.014 A 
ATOM     60  C   UNL A   1      48.162  26.063  31.495  1.00  0.00     0.010 A 
ATOM     61  C   UNL A   1      47.030  25.141  33.431  1.00  0.00     0.010 A 
ATOM     62  C   UNL A   1      49.348  25.438  31.889  1.00  0.00     0.020 A 
ATOM     63  C   UNL A   1      48.223  24.546  33.848  1.00  0.00     0.020 A 
ATOM     64  C   UNL A   1      49.370  24.680  33.062  1.00  0.00     0.054 A 
BRANCH  64  65
ATOM     65  S   UNL A   1      50.918  23.874  33.556  1.00  0.00     0.124 S 
ATOM     66  O   UNL A   1      51.629  23.769  32.286  1.00  0.00    -0.237 OA
ATOM     67  O   UNL A   1      51.480  24.821  34.517  1.00  0.00    -0.237 OA
ATOM     68  O   UNL A   1      50.475  22.605  34.132  1.00  0.00    -0.744 OA
ENDBRANCH  64  65
ENDBRANCH  38  59
ENDBRANCH  12  13
ENDBRANCH   5   7
ENDBRANCH   2   3
ENDBRANCH   1   2
BRANCH   1  69
ATOM     69  C   UNL A   1      32.685  27.241  24.489  1.00  0.00     0.002 C 
BRANCH  69  70
ATOM     70  C   UNL A   1      31.287  27.025  25.078  1.00  0.00     0.002 C 
BRANCH  70  71
ATOM     71  C   UNL A   1      30.368  26.098  24.279  1.00  0.00     0.021 C 
BRANCH  71  72
ATOM     72  C   UNL A   1      30.710  24.614  24.362  1.00  0.00     0.116 C 
BRANCH  72  73
ATOM     73  N   UNL A   1      30.524  24.074  25.700  1.00  0.00    -0.352 N 
ATOM     74  C   UNL A   1      31.434  23.489  26.537  1.00  0.00     0.255 C 
ATOM     75  H   UNL A   1      29.608  24.139  26.055  1.00  0.00     0.163 HD
ATOM     76  O   UNL A   1      31.074  23.077  27.636  1.00  0.00    -0.269 OA
BRANCH  74  77
ATOM     77  C   UNL A   1      32.849  23.409  26.103  1.00  0.00     0.083 A 
ATOM     78  C   UNL A   1      33.598  24.522  26.181  1.00  0.00     0.019 A 
ATOM     79  C   UNL A   1      33.482  22.120  25.675  1.00  0.00     0.153 A 
ATOM     80  C   UNL A   1      34.965  24.523  25.743  1.00  0.00     0.019 A 
ATOM     81  N   UNL A   1      34.827  22.183  25.292  1.00  0.00    -0.267 N 
ATOM     82  N   UNL A   1      32.792  21.020  25.662  1.00  0.00    -0.229 NA
ATOM     83  C   UNL A   1      35.525  23.387  25.317  1.00  0.00     0.096 A 
ATOM     84  C   UNL A   1      35.510  21.037  24.871  1.00  0.00     0.265 A 
ATOM     85  C   UNL A   1      33.420  19.825  25.303  1.00  0.00     0.080 A 
ATOM     86  O   UNL A   1      36.681  21.014  24.492  1.00  0.00    -0.268 OA
ATOM     87  C   UNL A   1      34.753  19.776  24.904  1.00  0.00     0.066 A 
ATOM     88  C   UNL A   1      32.690  18.635  25.370  1.00  0.00     0.049 A 
ATOM     89  C   UNL A   1      35.364  18.559  24.569  1.00  0.00     0.017 A 
ATOM     90  C   UNL A   1      33.294  17.419  25.044  1.00  0.00     0.043 A 
ATOM     91  C   UNL A   1      34.628  17.377  24.642  1.00  0.00     0.021 A 
ATOM     92  Cl  UNL A   1      32.391  15.958  25.149  1.00  0.00    -0.084 Cl
ENDBRANCH  74  77
ENDBRANCH  72  73
ENDBRANCH  71  72
ENDBRANCH  70  71
ENDBRANCH  69  70
ENDBRANCH   1  69
TORSDOF 16
ENDMDL
MODEL 2
REMARK VINA RESULT:     -12.0      1.628      2.765
REMARK SMILES O=C(NCCCCCCNC(=O)c1cccn2c(=O)c3ccc(Cl)cc3nc12)c1ccc(-c2c3nc(c(-c4ccc(S(=O)(=O)[O-])cc4)c4ccc([nH]4)c(-c4ccc(S(=O)(=O)[O-])cc4)c4nc(c(-c5ccc(S(=O)(=O)[O-])cc5)c5ccc2[nH]5)C=C4)C=C3)cc1
REMARK SMILES IDX 5 1 4 2 3 3 1 4 2 5 29 7 30 8 88 9 31 10 87 11 32 12 33 13
REMARK SMILES IDX 34 14 81 15 35 16 86 17 80 18 82 19 36 20 85 21 79 22 78 23
REMARK SMILES IDX 37 25 67 26 48 27 66 28 49 29 52 30 65 31 83 32 50 33 51 34
REMARK SMILES IDX 64 36 84 37 53 38 38 39 39 40 47 41 40 42 46 43 41 44 42 45
REMARK SMILES IDX 43 46 44 47 45 48 68 49 69 50 77 51 70 52 76 53 71 54 72 55
REMARK SMILES IDX 73 56 74 57 75 58 54 59 55 60 63 61 56 62 62 63 57 64 58 65
REMARK SMILES IDX 59 66 60 67 61 68 6 69 7 70 8 71 9 72 10 73 11 74 12 76
REMARK SMILES IDX 13 77 14 78 28 79 15 80 17 81 27 82 16 83 18 84 26 85 19 86
REMARK SMILES IDX 20 87 25 88 21 89 23 90 22 91 24 92
REMARK H PARENT 3 6 82 24 52 35 10 75
REMARK Flexibility Score: inf
ROOT
ATOM      1  C   UNL A   1      32.445  27.902  26.613  1.00  0.00     0.021 C 
ENDROOT
BRANCH   1   2
ATOM      2  C   UNL A   1      33.378  28.513  27.650  1.00  0.00     0.116 C 
BRANCH   2   3
ATOM      3  N   UNL A   1      33.331  29.965  27.654  1.00  0.00    -0.352 N 
ATOM      4  O   UNL A   1      34.005  32.057  28.140  1.00  0.00    -0.269 OA
ATOM      5  C   UNL A   1      34.291  30.863  28.048  1.00  0.00     0.251 C 
ATOM      6  H   UNL A   1      32.491  30.361  27.326  1.00  0.00     0.163 HD
BRANCH   5   7
ATOM      7  C   UNL A   1      35.656  30.399  28.378  1.00  0.00     0.039 A 
ATOM      8  C   UNL A   1      36.643  30.451  27.393  1.00  0.00     0.014 A 
ATOM      9  C   UNL A   1      35.961  29.892  29.646  1.00  0.00     0.014 A 
ATOM     10  C   UNL A   1      37.939  30.022  27.690  1.00  0.00     0.010 A 
ATOM     11  C   UNL A   1      37.274  29.563  29.968  1.00  0.00     0.010 A 
ATOM     12  C   UNL A   1      38.272  29.591  28.986  1.00  0.00    -0.014 A 
BRANCH  12  13
ATOM     13  C   UNL A   1      39.647  29.124  29.304  1.00  0.00     0.031 A 
ATOM     14  C   UNL A   1      40.576  29.993  30.111  1.00  0.00     0.074 A 
ATOM     15  C   UNL A   1      40.065  27.921  28.862  1.00  0.00     0.049 A 
ATOM     16  N   UNL A   1      41.792  29.738  30.520  1.00  0.00    -0.248 NA
ATOM     17  C   UNL A   1      40.087  31.329  30.491  1.00  0.00     0.031 C 
ATOM     18  C   UNL A   1      39.275  27.010  28.032  1.00  0.00     0.029 A 
ATOM     19  N   UNL A   1      41.244  27.249  29.067  1.00  0.00    -0.354 N 
ATOM     20  C   UNL A   1      42.206  30.873  31.207  1.00  0.00     0.074 A 
ATOM     21  C   UNL A   1      41.151  31.852  31.083  1.00  0.00     0.031 C 
ATOM     22  C   UNL A   1      39.968  25.876  27.847  1.00  0.00     0.029 A 
ATOM     23  C   UNL A   1      41.266  25.993  28.508  1.00  0.00     0.049 A 
ATOM     24  H   UNL A   1      42.003  27.631  29.565  1.00  0.00     0.167 HD
ATOM     25  C   UNL A   1      43.339  31.068  31.921  1.00  0.00     0.031 A 
ATOM     26  C   UNL A   1      42.212  25.032  28.534  1.00  0.00     0.031 A 
ATOM     27  C   UNL A   1      44.381  30.084  32.052  1.00  0.00     0.049 A 
ATOM     28  C   UNL A   1      43.472  25.270  29.318  1.00  0.00     0.074 A 
ATOM     29  C   UNL A   1      45.555  30.171  32.780  1.00  0.00     0.029 A 
ATOM     30  N   UNL A   1      44.376  28.834  31.449  1.00  0.00    -0.354 N 
ATOM     31  N   UNL A   1      43.819  26.328  30.013  1.00  0.00    -0.248 NA
ATOM     32  C   UNL A   1      44.460  24.184  29.336  1.00  0.00     0.031 C 
ATOM     33  C   UNL A   1      46.291  29.003  32.559  1.00  0.00     0.029 A 
ATOM     34  C   UNL A   1      45.542  28.152  31.761  1.00  0.00     0.049 A 
ATOM     35  H   UNL A   1      43.651  28.483  30.883  1.00  0.00     0.167 HD
ATOM     36  C   UNL A   1      45.066  26.035  30.554  1.00  0.00     0.074 A 
ATOM     37  C   UNL A   1      45.392  24.685  30.138  1.00  0.00     0.031 C 
ATOM     38  C   UNL A   1      45.871  26.818  31.316  1.00  0.00     0.031 A 
BRANCH  25  39
ATOM     39  C   UNL A   1      43.498  32.383  32.648  1.00  0.00    -0.014 A 
ATOM     40  C   UNL A   1      42.967  32.547  33.940  1.00  0.00     0.010 A 
ATOM     41  C   UNL A   1      44.104  33.485  32.017  1.00  0.00     0.010 A 
ATOM     42  C   UNL A   1      43.017  33.791  34.576  1.00  0.00     0.020 A 
ATOM     43  C   UNL A   1      44.191  34.721  32.664  1.00  0.00     0.020 A 
ATOM     44  C   UNL A   1      43.625  34.872  33.931  1.00  0.00     0.054 A 
BRANCH  44  45
ATOM     45  S   UNL A   1      43.668  36.481  34.767  1.00  0.00     0.124 S 
ATOM     46  O   UNL A   1      45.098  36.682  34.972  1.00  0.00    -0.237 OA
ATOM     47  O   UNL A   1      43.039  37.365  33.789  1.00  0.00    -0.237 OA
ATOM     48  O   UNL A   1      42.887  36.257  35.982  1.00  0.00    -0.744 OA
ENDBRANCH  44  45
ENDBRANCH  25  39
BRANCH  26  49
ATOM     49  C   UNL A   1      41.943  23.740  27.840  1.00  0.00    -0.014 A 
ATOM     50  C   UNL A   1      41.236  22.715  28.496  1.00  0.00     0.010 A 
ATOM     51  C   UNL A   1      42.504  23.480  26.577  1.00  0.00     0.010 A 
ATOM     52  C   UNL A   1      41.169  21.433  27.944  1.00  0.00     0.020 A 
ATOM     53  C   UNL A   1      42.410  22.207  26.005  1.00  0.00     0.020 A 
ATOM     54  C   UNL A   1      41.777  21.182  26.713  1.00  0.00     0.054 A 
BRANCH  54  55
ATOM     55  S   UNL A   1      41.780  19.482  26.077  1.00  0.00     0.124 S 
ATOM     56  O   UNL A   1      42.260  18.733  27.236  1.00  0.00    -0.237 OA
ATOM     57  O   UNL A   1      40.377  19.272  25.730  1.00  0.00    -0.237 OA
ATOM     58  O   UNL A   1      42.701  19.540  24.945  1.00  0.00    -0.744 OA
ENDBRANCH  54  55
ENDBRANCH  26  49
BRANCH  38  59
ATOM     59  C   UNL A   1      47.214  26.262  31.722  1.00  0.00    -0.014 A 
ATOM     60  C   UNL A   1      48.314  26.358  30.848  1.00  0.00     0.010 A 
ATOM     61  C   UNL A   1      47.362  25.553  32.928  1.00  0.00     0.010 A 
ATOM     62  C   UNL A   1      49.525  25.735  31.160  1.00  0.00     0.020 A 
ATOM     63  C   UNL A   1      48.583  24.961  33.261  1.00  0.00     0.020 A 
ATOM     64  C   UNL A   1      49.650  25.036  32.364  1.00  0.00     0.054 A 
BRANCH  64  65
ATOM     65  S   UNL A   1      51.229  24.232  32.749  1.00  0.00     0.124 S 
ATOM     66  O   UNL A   1      52.140  24.874  31.808  1.00  0.00    -0.237 OA
ATOM     67  O   UNL A   1      51.429  24.575  34.155  1.00  0.00    -0.237 OA
ATOM     68  O   UNL A   1      50.964  22.816  32.495  1.00  0.00    -0.744 OA
ENDBRANCH  64  65
ENDBRANCH  38  59
ENDBRANCH  12  13
ENDBRANCH   5   7
ENDBRANCH   2   3
ENDBRANCH   1   2
BRANCH   1  69
ATOM     69  C   UNL A   1      32.622  28.435  25.191  1.00  0.00     0.002 C 
BRANCH  69  70
ATOM     70  C   UNL A   1      34.069  28.517  24.694  1.00  0.00     0.002 C 
BRANCH  70  71
ATOM     71  C   UNL A   1      34.243  28.608  23.176  1.00  0.00     0.021 C 
BRANCH  71  72
ATOM     72  C   UNL A   1      32.960  28.462  22.365  1.00  0.00     0.116 C 
BRANCH  72  73
ATOM     73  N   UNL A   1      32.974  27.287  21.508  1.00  0.00    -0.352 N 
ATOM     74  C   UNL A   1      32.450  26.043  21.728  1.00  0.00     0.255 C 
ATOM     75  H   UNL A   1      33.429  27.405  20.642  1.00  0.00     0.163 HD
ATOM     76  O   UNL A   1      32.581  25.167  20.877  1.00  0.00    -0.269 OA
BRANCH  74  77
ATOM     77  C   UNL A   1      31.696  25.802  22.981  1.00  0.00     0.083 A 
ATOM     78  C   UNL A   1      30.457  26.311  23.080  1.00  0.00     0.019 A 
ATOM     79  C   UNL A   1      32.233  24.940  24.083  1.00  0.00     0.153 A 
ATOM     80  C   UNL A   1      29.686  26.145  24.280  1.00  0.00     0.019 A 
ATOM     81  N   UNL A   1      31.418  24.791  25.212  1.00  0.00    -0.267 N 
ATOM     82  N   UNL A   1      33.400  24.380  23.974  1.00  0.00    -0.229 NA
ATOM     83  C   UNL A   1      30.176  25.415  25.287  1.00  0.00     0.096 A 
ATOM     84  C   UNL A   1      31.828  24.013  26.299  1.00  0.00     0.265 A 
ATOM     85  C   UNL A   1      33.855  23.545  24.997  1.00  0.00     0.080 A 
ATOM     86  O   UNL A   1      31.184  23.856  27.336  1.00  0.00    -0.268 OA
ATOM     87  C   UNL A   1      33.124  23.330  26.162  1.00  0.00     0.066 A 
ATOM     88  C   UNL A   1      35.076  22.884  24.832  1.00  0.00     0.049 A 
ATOM     89  C   UNL A   1      33.596  22.471  27.164  1.00  0.00     0.017 A 
ATOM     90  C   UNL A   1      35.548  22.022  25.823  1.00  0.00     0.043 A 
ATOM     91  C   UNL A   1      34.814  21.814  26.990  1.00  0.00     0.021 A 
ATOM     92  Cl  UNL A   1      37.044  21.200  25.602  1.00  0.00    -0.084 Cl
ENDBRANCH  74  77
ENDBRANCH  72  73
ENDBRANCH  71  72
ENDBRANCH  70  71
ENDBRANCH  69  70
ENDBRANCH   1  69
TORSDOF 16
ENDMDL
MODEL 3
REMARK VINA RESULT:     -11.8      4.599      8.029
REMARK SMILES O=C(NCCCCCCNC(=O)c1cccn2c(=O)c3ccc(Cl)cc3nc12)c1ccc(-c2c3nc(c(-c4ccc(S(=O)(=O)[O-])cc4)c4ccc([nH]4)c(-c4ccc(S(=O)(=O)[O-])cc4)c4nc(c(-c5ccc(S(=O)(=O)[O-])cc5)c5ccc2[nH]5)C=C4)C=C3)cc1
REMARK SMILES IDX 5 1 4 2 3 3 1 4 2 5 29 7 30 8 88 9 31 10 87 11 32 12 33 13
REMARK SMILES IDX 34 14 81 15 35 16 86 17 80 18 82 19 36 20 85 21 79 22 78 23
REMARK SMILES IDX 37 25 67 26 48 27 66 28 49 29 52 30 65 31 83 32 50 33 51 34
REMARK SMILES IDX 64 36 84 37 53 38 38 39 39 40 47 41 40 42 46 43 41 44 42 45
REMARK SMILES IDX 43 46 44 47 45 48 68 49 69 50 77 51 70 52 76 53 71 54 72 55
REMARK SMILES IDX 73 56 74 57 75 58 54 59 55 60 63 61 56 62 62 63 57 64 58 65
REMARK SMILES IDX 59 66 60 67 61 68 6 69 7 70 8 71 9 72 10 73 11 74 12 76
REMARK SMILES IDX 13 77 14 78 28 79 15 80 17 81 27 82 16 83 18 84 26 85 19 86
REMARK SMILES IDX 20 87 25 88 21 89 23 90 22 91 24 92
REMARK H PARENT 3 6 82 24 52 35 10 75
REMARK Flexibility Score: inf
ROOT
ATOM      1  C   UNL A   1      34.285  34.531  27.927  1.00  0.00     0.021 C 
ENDROOT
BRANCH   1   2
ATOM      2  C   UNL A   1      35.025  33.202  28.010  1.00  0.00     0.116 C 
BRANCH   2   3
ATOM      3  N   UNL A   1      34.136  32.061  27.875  1.00  0.00    -0.352 N 
ATOM      4  O   UNL A   1      33.567  29.903  27.586  1.00  0.00    -0.269 OA
ATOM      5  C   UNL A   1      34.436  30.722  27.886  1.00  0.00     0.251 C 
ATOM      6  H   UNL A   1      33.182  32.280  27.761  1.00  0.00     0.163 HD
BRANCH   5   7
ATOM      7  C   UNL A   1      35.798  30.265  28.237  1.00  0.00     0.039 A 
ATOM      8  C   UNL A   1      36.023  29.728  29.506  1.00  0.00     0.014 A 
ATOM      9  C   UNL A   1      36.857  30.383  27.331  1.00  0.00     0.014 A 
ATOM     10  C   UNL A   1      37.302  29.286  29.852  1.00  0.00     0.010 A 
ATOM     11  C   UNL A   1      38.104  29.848  27.642  1.00  0.00     0.010 A 
ATOM     12  C   UNL A   1      38.351  29.325  28.917  1.00  0.00    -0.014 A 
BRANCH  12  13
ATOM     13  C   UNL A   1      39.716  28.865  29.285  1.00  0.00     0.031 A 
ATOM     14  C   UNL A   1      40.598  29.725  30.151  1.00  0.00     0.074 A 
ATOM     15  C   UNL A   1      40.166  27.676  28.837  1.00  0.00     0.049 A 
ATOM     16  N   UNL A   1      41.799  29.474  30.608  1.00  0.00    -0.248 NA
ATOM     17  C   UNL A   1      40.079  31.048  30.538  1.00  0.00     0.031 C 
ATOM     18  C   UNL A   1      39.424  26.775  27.953  1.00  0.00     0.029 A 
ATOM     19  N   UNL A   1      41.342  27.012  29.079  1.00  0.00    -0.354 N 
ATOM     20  C   UNL A   1      42.169  30.598  31.337  1.00  0.00     0.074 A 
ATOM     21  C   UNL A   1      41.110  31.568  31.187  1.00  0.00     0.031 C 
ATOM     22  C   UNL A   1      40.136  25.653  27.774  1.00  0.00     0.029 A 
ATOM     23  C   UNL A   1      41.403  25.768  28.494  1.00  0.00     0.049 A 
ATOM     24  H   UNL A   1      42.074  27.390  29.618  1.00  0.00     0.167 HD
ATOM     25  C   UNL A   1      43.268  30.789  32.104  1.00  0.00     0.031 A 
ATOM     26  C   UNL A   1      42.357  24.817  28.542  1.00  0.00     0.031 A 
ATOM     27  C   UNL A   1      44.314  29.812  32.259  1.00  0.00     0.049 A 
ATOM     28  C   UNL A   1      43.579  25.051  29.385  1.00  0.00     0.074 A 
ATOM     29  C   UNL A   1      45.454  29.895  33.040  1.00  0.00     0.029 A 
ATOM     30  N   UNL A   1      44.349  28.576  31.630  1.00  0.00    -0.354 N 
ATOM     31  N   UNL A   1      43.884  26.096  30.118  1.00  0.00    -0.248 NA
ATOM     32  C   UNL A   1      44.577  23.974  29.424  1.00  0.00     0.031 C 
ATOM     33  C   UNL A   1      46.211  28.740  32.827  1.00  0.00     0.029 A 
ATOM     34  C   UNL A   1      45.508  27.899  31.978  1.00  0.00     0.049 A 
ATOM     35  H   UNL A   1      43.654  28.230  31.026  1.00  0.00     0.167 HD
ATOM     36  C   UNL A   1      45.109  25.804  30.707  1.00  0.00     0.074 A 
ATOM     37  C   UNL A   1      45.467  24.467  30.277  1.00  0.00     0.031 C 
ATOM     38  C   UNL A   1      45.871  26.579  31.520  1.00  0.00     0.031 A 
BRANCH  25  39
ATOM     39  C   UNL A   1      43.380  32.088  32.865  1.00  0.00    -0.014 A 
ATOM     40  C   UNL A   1      43.971  33.214  32.263  1.00  0.00     0.010 A 
ATOM     41  C   UNL A   1      42.972  32.172  34.209  1.00  0.00     0.010 A 
ATOM     42  C   UNL A   1      44.173  34.388  32.995  1.00  0.00     0.020 A 
ATOM     43  C   UNL A   1      43.137  33.356  34.934  1.00  0.00     0.020 A 
ATOM     44  C   UNL A   1      43.760  34.448  34.329  1.00  0.00     0.054 A 
BRANCH  44  45
ATOM     45  S   UNL A   1      44.043  35.975  35.267  1.00  0.00     0.124 S 
ATOM     46  O   UNL A   1      43.136  36.911  34.612  1.00  0.00    -0.237 OA
ATOM     47  O   UNL A   1      43.677  35.586  36.626  1.00  0.00    -0.237 OA
ATOM     48  O   UNL A   1      45.467  36.240  35.068  1.00  0.00    -0.744 OA
ENDBRANCH  44  45
ENDBRANCH  25  39
BRANCH  26  49
ATOM     49  C   UNL A   1      42.133  23.538  27.808  1.00  0.00    -0.014 A 
ATOM     50  C   UNL A   1      41.407  22.492  28.410  1.00  0.00     0.010 A 
ATOM     51  C   UNL A   1      42.754  23.310  26.568  1.00  0.00     0.010 A 
ATOM     52  C   UNL A   1      41.379  21.222  27.829  1.00  0.00     0.020 A 
ATOM     53  C   UNL A   1      42.699  22.049  25.965  1.00  0.00     0.020 A 
ATOM     54  C   UNL A   1      42.045  21.004  26.622  1.00  0.00     0.054 A 
BRANCH  54  55
ATOM     55  S   UNL A   1      42.094  19.318  25.951  1.00  0.00     0.124 S 
ATOM     56  O   UNL A   1      42.985  19.480  24.805  1.00  0.00    -0.237 OA
ATOM     57  O   UNL A   1      42.639  18.549  27.067  1.00  0.00    -0.237 OA
ATOM     58  O   UNL A   1      40.699  19.037  25.623  1.00  0.00    -0.744 OA
ENDBRANCH  54  55
ENDBRANCH  26  49
BRANCH  38  59
ATOM     59  C   UNL A   1      47.200  26.027  31.973  1.00  0.00    -0.014 A 
ATOM     60  C   UNL A   1      48.343  26.180  31.164  1.00  0.00     0.010 A 
ATOM     61  C   UNL A   1      47.298  25.269  33.153  1.00  0.00     0.010 A 
ATOM     62  C   UNL A   1      49.548  25.564  31.513  1.00  0.00     0.020 A 
ATOM     63  C   UNL A   1      48.511  24.683  33.525  1.00  0.00     0.020 A 
ATOM     64  C   UNL A   1      49.623  24.815  32.690  1.00  0.00     0.054 A 
BRANCH  64  65
ATOM     65  S   UNL A   1      51.194  24.020  33.124  1.00  0.00     0.124 S 
ATOM     66  O   UNL A   1      50.947  22.629  32.761  1.00  0.00    -0.237 OA
ATOM     67  O   UNL A   1      52.155  24.731  32.284  1.00  0.00    -0.237 OA
ATOM     68  O   UNL A   1      51.324  24.278  34.558  1.00  0.00    -0.744 OA
ENDBRANCH  64  65
ENDBRANCH  38  59
ENDBRANCH  12  13
ENDBRANCH   5   7
ENDBRANCH   2   3
ENDBRANCH   1   2
BRANCH   1  69
ATOM     69  C   UNL A   1      33.173  34.716  28.959  1.00  0.00     0.002 C 
BRANCH  69  70
ATOM     70  C   UNL A   1      33.286  35.970  29.832  1.00  0.00     0.002 C 
BRANCH  70  71
ATOM     71  C   UNL A   1      32.925  35.783  31.308  1.00  0.00     0.021 C 
BRANCH  71  72
ATOM     72  C   UNL A   1      34.022  35.170  32.172  1.00  0.00     0.116 C 
BRANCH  72  73
ATOM     73  N   UNL A   1      34.039  33.717  32.103  1.00  0.00    -0.352 N 
ATOM     74  C   UNL A   1      35.084  32.870  31.852  1.00  0.00     0.255 C 
ATOM     75  H   UNL A   1      33.171  33.279  32.258  1.00  0.00     0.163 HD
ATOM     76  O   UNL A   1      34.891  31.658  31.819  1.00  0.00    -0.269 OA
BRANCH  74  77
ATOM     77  C   UNL A   1      36.437  33.447  31.670  1.00  0.00     0.083 A 
ATOM     78  C   UNL A   1      36.804  33.818  30.432  1.00  0.00     0.019 A 
ATOM     79  C   UNL A   1      37.356  33.710  32.824  1.00  0.00     0.153 A 
ATOM     80  C   UNL A   1      38.113  34.350  30.180  1.00  0.00     0.019 A 
ATOM     81  N   UNL A   1      38.605  34.262  32.514  1.00  0.00    -0.267 N 
ATOM     82  N   UNL A   1      36.989  33.424  34.036  1.00  0.00    -0.229 NA
ATOM     83  C   UNL A   1      38.956  34.546  31.197  1.00  0.00     0.096 A 
ATOM     84  C   UNL A   1      39.538  34.540  33.517  1.00  0.00     0.265 A 
ATOM     85  C   UNL A   1      37.848  33.723  35.098  1.00  0.00     0.080 A 
ATOM     86  O   UNL A   1      40.664  34.997  33.324  1.00  0.00    -0.268 OA
ATOM     87  C   UNL A   1      39.112  34.271  34.900  1.00  0.00     0.066 A 
ATOM     88  C   UNL A   1      37.410  33.486  36.404  1.00  0.00     0.049 A 
ATOM     89  C   UNL A   1      39.944  34.579  35.984  1.00  0.00     0.017 A 
ATOM     90  C   UNL A   1      38.231  33.797  37.488  1.00  0.00     0.043 A 
ATOM     91  C   UNL A   1      39.498  34.342  37.284  1.00  0.00     0.021 A 
ATOM     92  Cl  UNL A   1      37.675  33.518  39.093  1.00  0.00    -0.084 Cl
ENDBRANCH  74  77
ENDBRANCH  72  73
ENDBRANCH  71  72
ENDBRANCH  70  71
ENDBRANCH  69  70
ENDBRANCH   1  69
TORSDOF 16
ENDMDL
