MODEL 1
REMARK VINA RESULT:     -12.9      0.000      0.000
REMARK SMILES CC1(C)S[C@@H](c2cccc3c2sc2ccccc23)[NH2+][C@@H]1C(=O)NCCCCCCNC(=O)c1ccc(-c2c3nc(c(-c4ccc(S(=O)(=O)[O-])cc4)c4ccc([nH]4)c(-c4ccc(S(=O)(=O)[O-])cc4)c4nc(c(-c5ccc(S(=O)(=O)[O-])cc5)c5ccc2[nH]5)C=C4)C=C3)cc1
REMARK SMILES IDX 27 1 26 2 25 3 24 4 23 5 21 6 22 7 20 9 1 10 2 11 3 12 4 13
REMARK SMILES IDX 5 14 19 15 6 18 7 19 11 20 8 21 10 22 12 23 9 24 18 25 13 26
REMARK SMILES IDX 17 27 14 28 16 29 15 30 28 31 29 32 30 33 31 34 32 36 33 37
REMARK SMILES IDX 34 38 92 39 35 40 91 41 36 42 37 43 38 44 85 45 39 46 90 47
REMARK SMILES IDX 84 48 86 49 40 50 89 51 83 52 82 53 41 55 71 56 52 57 70 58
REMARK SMILES IDX 53 59 56 60 69 61 87 62 54 63 55 64 68 66 88 67 57 68 42 69
REMARK SMILES IDX 43 70 51 71 44 72 50 73 45 74 46 75 47 76 48 77 49 78 72 79
REMARK SMILES IDX 73 80 81 81 74 82 80 83 75 84 76 85 77 86 78 87 79 88 58 89
REMARK SMILES IDX 59 90 67 91 60 92 66 93 61 94 62 95 63 96 64 97 65 98
REMARK H PARENT 23 8 19 16 19 17 30 35 86 54 56 65
REMARK Flexibility Score: inf
ROOT
ATOM      1  C   UNL A   1      33.260  30.993  27.504  1.00  0.00     0.002 C 
ENDROOT
BRANCH   1   2
ATOM      2  C   UNL A   1      32.729  30.425  26.187  1.00  0.00     0.002 C 
BRANCH   2   3
ATOM      3  C   UNL A   1      31.686  29.310  26.311  1.00  0.00     0.021 C 
BRANCH   3   4
ATOM      4  C   UNL A   1      31.868  28.351  27.486  1.00  0.00     0.116 C 
BRANCH   4   5
ATOM      5  N   UNL A   1      31.183  27.091  27.273  1.00  0.00    -0.351 N 
ATOM      6  C   UNL A   1      31.488  26.033  26.470  1.00  0.00     0.279 C 
ATOM      7  O   UNL A   1      30.672  25.107  26.487  1.00  0.00    -0.268 OA
ATOM      8  H   UNL A   1      30.357  26.981  27.798  1.00  0.00     0.163 HD
BRANCH   6   9
ATOM      9  C   UNL A   1      32.707  26.065  25.500  1.00  0.00     0.289 C 
ATOM     10  C   UNL A   1      33.561  26.517  23.138  1.00  0.00     0.030 C 
ATOM     11  C   UNL A   1      32.397  25.948  23.978  1.00  0.00     0.077 C 
ATOM     12  C   UNL A   1      31.102  26.585  23.472  1.00  0.00     0.030 C 
ATOM     13  S   UNL A   1      32.353  24.138  23.688  1.00  0.00    -0.081 SA
ATOM     14  C   UNL A   1      33.151  23.735  25.271  1.00  0.00     0.276 C 
ATOM     15  N   UNL A   1      33.689  24.988  25.816  1.00  0.00    -0.320 N 
ATOM     16  H   UNL A   1      34.588  25.198  25.384  1.00  0.00     0.348 HD
ATOM     17  H   UNL A   1      33.831  24.912  26.822  1.00  0.00     0.348 HD
BRANCH  14  18
ATOM     18  C   UNL A   1      34.237  22.679  25.158  1.00  0.00     0.038 A 
ATOM     19  C   UNL A   1      35.601  23.040  25.287  1.00  0.00     0.012 A 
ATOM     20  C   UNL A   1      33.962  21.291  24.970  1.00  0.00     0.046 A 
ATOM     21  C   UNL A   1      36.623  22.108  25.216  1.00  0.00     0.001 A 
ATOM     22  C   UNL A   1      34.979  20.333  24.879  1.00  0.00     0.001 A 
ATOM     23  S   UNL A   1      32.417  20.534  24.834  1.00  0.00    -0.135 S 
ATOM     24  C   UNL A   1      36.322  20.767  25.006  1.00  0.00     0.010 A 
ATOM     25  C   UNL A   1      34.464  18.992  24.655  1.00  0.00     0.000 A 
ATOM     26  C   UNL A   1      33.073  18.967  24.620  1.00  0.00     0.036 A 
ATOM     27  C   UNL A   1      35.151  17.762  24.479  1.00  0.00     0.010 A 
ATOM     28  C   UNL A   1      32.357  17.768  24.427  1.00  0.00     0.019 A 
ATOM     29  C   UNL A   1      34.449  16.571  24.281  1.00  0.00     0.001 A 
ATOM     30  C   UNL A   1      33.063  16.575  24.259  1.00  0.00     0.002 A 
ENDBRANCH  14  18
ENDBRANCH   6   9
ENDBRANCH   4   5
ENDBRANCH   3   4
ENDBRANCH   2   3
ENDBRANCH   1   2
BRANCH   1  31
ATOM     31  C   UNL A   1      34.782  31.095  27.618  1.00  0.00     0.021 C 
BRANCH  31  32
ATOM     32  C   UNL A   1      35.467  29.939  28.342  1.00  0.00     0.116 C 
BRANCH  32  33
ATOM     33  N   UNL A   1      35.549  30.143  29.778  1.00  0.00    -0.352 N 
ATOM     34  C   UNL A   1      36.608  29.946  30.624  1.00  0.00     0.251 C 
ATOM     35  H   UNL A   1      34.723  30.467  30.205  1.00  0.00     0.163 HD
ATOM     36  O   UNL A   1      36.437  30.042  31.841  1.00  0.00    -0.269 OA
BRANCH  34  37
ATOM     37  C   UNL A   1      37.946  29.598  30.093  1.00  0.00     0.039 A 
ATOM     38  C   UNL A   1      38.887  29.045  30.966  1.00  0.00     0.014 A 
ATOM     39  C   UNL A   1      38.294  29.848  28.762  1.00  0.00     0.014 A 
ATOM     40  C   UNL A   1      40.161  28.714  30.498  1.00  0.00     0.010 A 
ATOM     41  C   UNL A   1      39.541  29.451  28.279  1.00  0.00     0.010 A 
ATOM     42  C   UNL A   1      40.496  28.900  29.147  1.00  0.00    -0.014 A 
BRANCH  42  43
ATOM     43  C   UNL A   1      41.852  28.555  28.647  1.00  0.00     0.031 A 
ATOM     44  C   UNL A   1      42.926  29.609  28.579  1.00  0.00     0.074 A 
ATOM     45  C   UNL A   1      42.113  27.299  28.236  1.00  0.00     0.049 A 
ATOM     46  N   UNL A   1      44.171  29.494  28.188  1.00  0.00    -0.248 NA
ATOM     47  C   UNL A   1      42.548  30.974  28.977  1.00  0.00     0.031 C 
ATOM     48  C   UNL A   1      41.147  26.197  28.207  1.00  0.00     0.029 A 
ATOM     49  N   UNL A   1      43.273  26.733  27.767  1.00  0.00    -0.354 N 
ATOM     50  C   UNL A   1      44.718  30.769  28.282  1.00  0.00     0.074 A 
ATOM     51  C   UNL A   1      43.656  31.652  28.713  1.00  0.00     0.031 C 
ATOM     52  C   UNL A   1      41.762  25.084  27.779  1.00  0.00     0.029 A 
ATOM     53  C   UNL A   1      43.156  25.395  27.476  1.00  0.00     0.049 A 
ATOM     54  H   UNL A   1      44.109  27.239  27.651  1.00  0.00     0.167 HD
ATOM     55  C   UNL A   1      45.992  31.168  28.055  1.00  0.00     0.031 A 
ATOM     56  C   UNL A   1      44.069  24.514  27.023  1.00  0.00     0.031 A 
ATOM     57  C   UNL A   1      47.051  30.285  27.641  1.00  0.00     0.049 A 
ATOM     58  C   UNL A   1      45.482  24.976  26.793  1.00  0.00     0.074 A 
ATOM     59  C   UNL A   1      48.388  30.581  27.439  1.00  0.00     0.029 A 
ATOM     60  N   UNL A   1      46.894  28.935  27.367  1.00  0.00    -0.354 N 
ATOM     61  N   UNL A   1      45.995  26.173  26.954  1.00  0.00    -0.248 NA
ATOM     62  C   UNL A   1      46.443  23.963  26.337  1.00  0.00     0.031 C 
ATOM     63  C   UNL A   1      49.031  29.418  26.997  1.00  0.00     0.029 A 
ATOM     64  C   UNL A   1      48.105  28.387  26.978  1.00  0.00     0.049 A 
ATOM     65  H   UNL A   1      46.046  28.440  27.438  1.00  0.00     0.167 HD
ATOM     66  C   UNL A   1      47.344  26.051  26.641  1.00  0.00     0.074 A 
ATOM     67  C   UNL A   1      47.570  24.660  26.302  1.00  0.00     0.031 C 
ATOM     68  C   UNL A   1      48.310  27.003  26.632  1.00  0.00     0.031 A 
BRANCH  55  69
ATOM     69  C   UNL A   1      46.307  32.629  28.250  1.00  0.00    -0.014 A 
ATOM     70  C   UNL A   1      46.271  33.530  27.169  1.00  0.00     0.010 A 
ATOM     71  C   UNL A   1      46.616  33.113  29.534  1.00  0.00     0.010 A 
ATOM     72  C   UNL A   1      46.585  34.879  27.361  1.00  0.00     0.020 A 
ATOM     73  C   UNL A   1      46.901  34.468  29.734  1.00  0.00     0.020 A 
ATOM     74  C   UNL A   1      46.902  35.338  28.642  1.00  0.00     0.054 A 
BRANCH  74  75
ATOM     75  S   UNL A   1      47.291  37.095  28.864  1.00  0.00     0.124 S 
ATOM     76  O   UNL A   1      46.221  37.529  29.761  1.00  0.00    -0.237 OA
ATOM     77  O   UNL A   1      48.627  37.057  29.453  1.00  0.00    -0.237 OA
ATOM     78  O   UNL A   1      47.226  37.639  27.510  1.00  0.00    -0.744 OA
ENDBRANCH  74  75
ENDBRANCH  55  69
BRANCH  56  79
ATOM     79  C   UNL A   1      43.680  23.097  26.785  1.00  0.00    -0.014 A 
ATOM     80  C   UNL A   1      43.943  22.481  25.549  1.00  0.00     0.010 A 
ATOM     81  C   UNL A   1      43.053  22.353  27.800  1.00  0.00     0.010 A 
ATOM     82  C   UNL A   1      43.569  21.152  25.326  1.00  0.00     0.020 A 
ATOM     83  C   UNL A   1      42.702  21.016  27.590  1.00  0.00     0.020 A 
ATOM     84  C   UNL A   1      42.951  20.428  26.349  1.00  0.00     0.054 A 
BRANCH  84  85
ATOM     85  S   UNL A   1      42.522  18.689  26.057  1.00  0.00     0.124 S 
ATOM     86  O   UNL A   1      41.117  18.783  25.679  1.00  0.00    -0.237 OA
ATOM     87  O   UNL A   1      43.444  18.312  24.987  1.00  0.00    -0.237 OA
ATOM     88  O   UNL A   1      42.786  18.053  27.346  1.00  0.00    -0.744 OA
ENDBRANCH  84  85
ENDBRANCH  56  79
BRANCH  68  89
ATOM     89  C   UNL A   1      49.704  26.564  26.265  1.00  0.00    -0.014 A 
ATOM     90  C   UNL A   1      50.204  26.743  24.963  1.00  0.00     0.010 A 
ATOM     91  C   UNL A   1      50.530  25.984  27.245  1.00  0.00     0.010 A 
ATOM     92  C   UNL A   1      51.489  26.303  24.634  1.00  0.00     0.020 A 
ATOM     93  C   UNL A   1      51.825  25.570  26.928  1.00  0.00     0.020 A 
ATOM     94  C   UNL A   1      52.289  25.713  25.619  1.00  0.00     0.054 A 
BRANCH  94  95
ATOM     95  S   UNL A   1      53.958  25.160  25.172  1.00  0.00     0.124 S 
ATOM     96  O   UNL A   1      54.224  25.942  23.967  1.00  0.00    -0.237 OA
ATOM     97  O   UNL A   1      54.744  25.527  26.347  1.00  0.00    -0.237 OA
ATOM     98  O   UNL A   1      53.800  23.722  24.960  1.00  0.00    -0.744 OA
ENDBRANCH  94  95
ENDBRANCH  68  89
ENDBRANCH  42  43
ENDBRANCH  34  37
ENDBRANCH  32  33
ENDBRANCH  31  32
ENDBRANCH   1  31
TORSDOF 17
ENDMDL
MODEL 2
REMARK VINA RESULT:     -12.8      6.263     12.498
REMARK SMILES CC1(C)S[C@@H](c2cccc3c2sc2ccccc23)[NH2+][C@@H]1C(=O)NCCCCCCNC(=O)c1ccc(-c2c3nc(c(-c4ccc(S(=O)(=O)[O-])cc4)c4ccc([nH]4)c(-c4ccc(S(=O)(=O)[O-])cc4)c4nc(c(-c5ccc(S(=O)(=O)[O-])cc5)c5ccc2[nH]5)C=C4)C=C3)cc1
REMARK SMILES IDX 27 1 26 2 25 3 24 4 23 5 21 6 22 7 20 9 1 10 2 11 3 12 4 13
REMARK SMILES IDX 5 14 19 15 6 18 7 19 11 20 8 21 10 22 12 23 9 24 18 25 13 26
REMARK SMILES IDX 17 27 14 28 16 29 15 30 28 31 29 32 30 33 31 34 32 36 33 37
REMARK SMILES IDX 34 38 92 39 35 40 91 41 36 42 37 43 38 44 85 45 39 46 90 47
REMARK SMILES IDX 84 48 86 49 40 50 89 51 83 52 82 53 41 55 71 56 52 57 70 58
REMARK SMILES IDX 53 59 56 60 69 61 87 62 54 63 55 64 68 66 88 67 57 68 42 69
REMARK SMILES IDX 43 70 51 71 44 72 50 73 45 74 46 75 47 76 48 77 49 78 72 79
REMARK SMILES IDX 73 80 81 81 74 82 80 83 75 84 76 85 77 86 78 87 79 88 58 89
REMARK SMILES IDX 59 90 67 91 60 92 66 93 61 94 62 95 63 96 64 97 65 98
REMARK H PARENT 23 8 19 16 19 17 30 35 86 54 56 65
REMARK Flexibility Score: inf
ROOT
ATOM      1  C   UNL A   1      39.510  21.331  26.068  1.00  0.00     0.002 C 
ENDROOT
BRANCH   1   2
ATOM      2  C   UNL A   1      38.241  22.120  25.745  1.00  0.00     0.002 C 
BRANCH   2   3
ATOM      3  C   UNL A   1      37.425  21.618  24.549  1.00  0.00     0.021 C 
BRANCH   3   4
ATOM      4  C   UNL A   1      35.915  21.833  24.633  1.00  0.00     0.116 C 
BRANCH   4   5
ATOM      5  N   UNL A   1      35.440  22.758  23.623  1.00  0.00    -0.351 N 
ATOM      6  C   UNL A   1      34.597  23.827  23.716  1.00  0.00     0.279 C 
ATOM      7  O   UNL A   1      34.357  24.402  22.651  1.00  0.00    -0.268 OA
ATOM      8  H   UNL A   1      35.782  22.587  22.716  1.00  0.00     0.163 HD
BRANCH   6   9
ATOM      9  C   UNL A   1      33.886  24.195  25.052  1.00  0.00     0.289 C 
ATOM     10  C   UNL A   1      32.057  23.629  26.739  1.00  0.00     0.030 C 
ATOM     11  C   UNL A   1      32.432  23.672  25.242  1.00  0.00     0.077 C 
ATOM     12  C   UNL A   1      32.090  22.309  24.638  1.00  0.00     0.030 C 
ATOM     13  S   UNL A   1      31.403  24.973  24.461  1.00  0.00    -0.081 SA
ATOM     14  C   UNL A   1      32.751  26.191  24.413  1.00  0.00     0.276 C 
ATOM     15  N   UNL A   1      33.834  25.672  25.258  1.00  0.00    -0.320 N 
ATOM     16  H   UNL A   1      33.642  25.881  26.237  1.00  0.00     0.348 HD
ATOM     17  H   UNL A   1      34.724  26.103  25.010  1.00  0.00     0.348 HD
BRANCH  14  18
ATOM     18  C   UNL A   1      32.335  27.584  24.854  1.00  0.00     0.038 A 
ATOM     19  C   UNL A   1      32.997  28.218  25.934  1.00  0.00     0.012 A 
ATOM     20  C   UNL A   1      31.317  28.340  24.201  1.00  0.00     0.046 A 
ATOM     21  C   UNL A   1      32.668  29.496  26.354  1.00  0.00     0.001 A 
ATOM     22  C   UNL A   1      30.956  29.627  24.617  1.00  0.00     0.001 A 
ATOM     23  S   UNL A   1      30.374  27.872  22.832  1.00  0.00    -0.135 S 
ATOM     24  C   UNL A   1      31.654  30.196  25.712  1.00  0.00     0.010 A 
ATOM     25  C   UNL A   1      29.875  30.188  23.825  1.00  0.00     0.000 A 
ATOM     26  C   UNL A   1      29.472  29.327  22.808  1.00  0.00     0.036 A 
ATOM     27  C   UNL A   1      29.206  31.436  23.937  1.00  0.00     0.010 A 
ATOM     28  C   UNL A   1      28.445  29.672  21.906  1.00  0.00     0.019 A 
ATOM     29  C   UNL A   1      28.182  31.782  23.051  1.00  0.00     0.001 A 
ATOM     30  C   UNL A   1      27.809  30.908  22.042  1.00  0.00     0.002 A 
ENDBRANCH  14  18
ENDBRANCH   6   9
ENDBRANCH   4   5
ENDBRANCH   3   4
ENDBRANCH   2   3
ENDBRANCH   1   2
BRANCH   1  31
ATOM     31  C   UNL A   1      40.403  21.927  27.159  1.00  0.00     0.021 C 
BRANCH  31  32
ATOM     32  C   UNL A   1      40.304  23.439  27.337  1.00  0.00     0.116 C 
BRANCH  32  33
ATOM     33  N   UNL A   1      40.883  24.176  26.228  1.00  0.00    -0.352 N 
ATOM     34  C   UNL A   1      41.160  25.514  26.125  1.00  0.00     0.251 C 
ATOM     35  H   UNL A   1      41.108  23.637  25.436  1.00  0.00     0.163 HD
ATOM     36  O   UNL A   1      41.525  25.975  25.042  1.00  0.00    -0.269 OA
BRANCH  34  37
ATOM     37  C   UNL A   1      41.004  26.412  27.293  1.00  0.00     0.039 A 
ATOM     38  C   UNL A   1      39.940  26.187  28.170  1.00  0.00     0.014 A 
ATOM     39  C   UNL A   1      41.867  27.491  27.508  1.00  0.00     0.014 A 
ATOM     40  C   UNL A   1      39.760  27.021  29.276  1.00  0.00     0.010 A 
ATOM     41  C   UNL A   1      41.730  28.278  28.651  1.00  0.00     0.010 A 
ATOM     42  C   UNL A   1      40.663  28.065  29.536  1.00  0.00    -0.014 A 
BRANCH  42  43
ATOM     43  C   UNL A   1      40.471  28.958  30.708  1.00  0.00     0.031 A 
ATOM     44  C   UNL A   1      41.325  28.789  31.938  1.00  0.00     0.074 A 
ATOM     45  C   UNL A   1      39.517  29.909  30.676  1.00  0.00     0.049 A 
ATOM     46  N   UNL A   1      41.316  29.481  33.050  1.00  0.00    -0.248 NA
ATOM     47  C   UNL A   1      42.298  27.684  31.929  1.00  0.00     0.031 C 
ATOM     48  C   UNL A   1      38.592  30.145  29.564  1.00  0.00     0.029 A 
ATOM     49  N   UNL A   1      39.168  30.859  31.603  1.00  0.00    -0.354 N 
ATOM     50  C   UNL A   1      42.268  28.890  33.873  1.00  0.00     0.074 A 
ATOM     51  C   UNL A   1      42.796  27.750  33.155  1.00  0.00     0.031 C 
ATOM     52  C   UNL A   1      37.808  31.193  29.859  1.00  0.00     0.029 A 
ATOM     53  C   UNL A   1      38.151  31.686  31.190  1.00  0.00     0.049 A 
ATOM     54  H   UNL A   1      39.606  30.939  32.481  1.00  0.00     0.167 HD
ATOM     55  C   UNL A   1      42.686  29.272  35.103  1.00  0.00     0.031 A 
ATOM     56  C   UNL A   1      37.565  32.729  31.809  1.00  0.00     0.031 A 
ATOM     57  C   UNL A   1      42.170  30.415  35.810  1.00  0.00     0.049 A 
ATOM     58  C   UNL A   1      38.055  33.146  33.168  1.00  0.00     0.074 A 
ATOM     59  C   UNL A   1      42.566  30.919  37.037  1.00  0.00     0.029 A 
ATOM     60  N   UNL A   1      41.149  31.233  35.352  1.00  0.00    -0.354 N 
ATOM     61  N   UNL A   1      39.006  32.614  33.900  1.00  0.00    -0.248 NA
ATOM     62  C   UNL A   1      37.406  34.314  33.776  1.00  0.00     0.031 C 
ATOM     63  C   UNL A   1      41.752  32.016  37.342  1.00  0.00     0.029 A 
ATOM     64  C   UNL A   1      40.886  32.227  36.281  1.00  0.00     0.049 A 
ATOM     65  H   UNL A   1      40.679  31.123  34.495  1.00  0.00     0.167 HD
ATOM     66  C   UNL A   1      39.083  33.398  35.046  1.00  0.00     0.074 A 
ATOM     67  C   UNL A   1      38.098  34.451  34.898  1.00  0.00     0.031 C 
ATOM     68  C   UNL A   1      39.893  33.260  36.125  1.00  0.00     0.031 A 
BRANCH  55  69
ATOM     69  C   UNL A   1      43.755  28.440  35.763  1.00  0.00    -0.014 A 
ATOM     70  C   UNL A   1      43.426  27.284  36.495  1.00  0.00     0.010 A 
ATOM     71  C   UNL A   1      45.108  28.801  35.627  1.00  0.00     0.010 A 
ATOM     72  C   UNL A   1      44.427  26.532  37.119  1.00  0.00     0.020 A 
ATOM     73  C   UNL A   1      46.113  28.034  36.225  1.00  0.00     0.020 A 
ATOM     74  C   UNL A   1      45.764  26.915  36.983  1.00  0.00     0.054 A 
BRANCH  74  75
ATOM     75  S   UNL A   1      47.042  25.913  37.790  1.00  0.00     0.124 S 
ATOM     76  O   UNL A   1      46.369  25.500  39.019  1.00  0.00    -0.237 OA
ATOM     77  O   UNL A   1      47.280  24.850  36.816  1.00  0.00    -0.237 OA
ATOM     78  O   UNL A   1      48.151  26.846  37.971  1.00  0.00    -0.744 OA
ENDBRANCH  74  75
ENDBRANCH  55  69
BRANCH  56  79
ATOM     79  C   UNL A   1      36.467  33.472  31.132  1.00  0.00    -0.014 A 
ATOM     80  C   UNL A   1      36.574  33.830  29.777  1.00  0.00     0.010 A 
ATOM     81  C   UNL A   1      35.302  33.818  31.840  1.00  0.00     0.010 A 
ATOM     82  C   UNL A   1      35.545  34.535  29.146  1.00  0.00     0.020 A 
ATOM     83  C   UNL A   1      34.258  34.499  31.205  1.00  0.00     0.020 A 
ATOM     84  C   UNL A   1      34.392  34.864  29.865  1.00  0.00     0.054 A 
BRANCH  84  85
ATOM     85  S   UNL A   1      33.045  35.733  29.013  1.00  0.00     0.124 S 
ATOM     86  O   UNL A   1      32.501  34.684  28.159  1.00  0.00    -0.237 OA
ATOM     87  O   UNL A   1      32.192  36.156  30.122  1.00  0.00    -0.237 OA
ATOM     88  O   UNL A   1      33.729  36.820  28.316  1.00  0.00    -0.744 OA
ENDBRANCH  84  85
ENDBRANCH  56  79
BRANCH  68  89
ATOM     89  C   UNL A   1      39.762  34.287  37.218  1.00  0.00    -0.014 A 
ATOM     90  C   UNL A   1      39.019  34.021  38.382  1.00  0.00     0.010 A 
ATOM     91  C   UNL A   1      40.411  35.529  37.086  1.00  0.00     0.010 A 
ATOM     92  C   UNL A   1      38.885  34.997  39.373  1.00  0.00     0.020 A 
ATOM     93  C   UNL A   1      40.303  36.496  38.088  1.00  0.00     0.020 A 
ATOM     94  C   UNL A   1      39.523  36.232  39.216  1.00  0.00     0.054 A 
BRANCH  94  95
ATOM     95  S   UNL A   1      39.345  37.480  40.520  1.00  0.00     0.124 S 
ATOM     96  O   UNL A   1      40.692  38.040  40.590  1.00  0.00    -0.237 OA
ATOM     97  O   UNL A   1      38.321  38.369  39.977  1.00  0.00    -0.237 OA
ATOM     98  O   UNL A   1      38.931  36.703  41.687  1.00  0.00    -0.744 OA
ENDBRANCH  94  95
ENDBRANCH  68  89
ENDBRANCH  42  43
ENDBRANCH  34  37
ENDBRANCH  32  33
ENDBRANCH  31  32
ENDBRANCH   1  31
TORSDOF 17
ENDMDL
MODEL 3
REMARK VINA RESULT:     -12.5      5.960      8.084
REMARK SMILES CC1(C)S[C@@H](c2cccc3c2sc2ccccc23)[NH2+][C@@H]1C(=O)NCCCCCCNC(=O)c1ccc(-c2c3nc(c(-c4ccc(S(=O)(=O)[O-])cc4)c4ccc([nH]4)c(-c4ccc(S(=O)(=O)[O-])cc4)c4nc(c(-c5ccc(S(=O)(=O)[O-])cc5)c5ccc2[nH]5)C=C4)C=C3)cc1
REMARK SMILES IDX 27 1 26 2 25 3 24 4 23 5 21 6 22 7 20 9 1 10 2 11 3 12 4 13
REMARK SMILES IDX 5 14 19 15 6 18 7 19 11 20 8 21 10 22 12 23 9 24 18 25 13 26
REMARK SMILES IDX 17 27 14 28 16 29 15 30 28 31 29 32 30 33 31 34 32 36 33 37
REMARK SMILES IDX 34 38 92 39 35 40 91 41 36 42 37 43 38 44 85 45 39 46 90 47
REMARK SMILES IDX 84 48 86 49 40 50 89 51 83 52 82 53 41 55 71 56 52 57 70 58
REMARK SMILES IDX 53 59 56 60 69 61 87 62 54 63 55 64 68 66 88 67 57 68 42 69
REMARK SMILES IDX 43 70 51 71 44 72 50 73 45 74 46 75 47 76 48 77 49 78 72 79
REMARK SMILES IDX 73 80 81 81 74 82 80 83 75 84 76 85 77 86 78 87 79 88 58 89
REMARK SMILES IDX 59 90 67 91 60 92 66 93 61 94 62 95 63 96 64 97 65 98
REMARK H PARENT 23 8 19 16 19 17 30 35 86 54 56 65
REMARK Flexibility Score: inf
ROOT
ATOM      1  C   UNL A   1      31.368  31.235  26.685  1.00  0.00     0.002 C 
ENDROOT
BRANCH   1   2
ATOM      2  C   UNL A   1      32.227  30.318  25.813  1.00  0.00     0.002 C 
BRANCH   2   3
ATOM      3  C   UNL A   1      31.789  28.851  25.748  1.00  0.00     0.021 C 
BRANCH   3   4
ATOM      4  C   UNL A   1      31.744  28.107  27.081  1.00  0.00     0.116 C 
BRANCH   4   5
ATOM      5  N   UNL A   1      31.128  26.801  26.956  1.00  0.00    -0.351 N 
ATOM      6  C   UNL A   1      31.493  25.706  26.230  1.00  0.00     0.279 C 
ATOM      7  O   UNL A   1      30.728  24.742  26.310  1.00  0.00    -0.268 OA
ATOM      8  H   UNL A   1      30.306  26.684  27.485  1.00  0.00     0.163 HD
BRANCH   6   9
ATOM      9  C   UNL A   1      32.714  25.735  25.262  1.00  0.00     0.289 C 
ATOM     10  C   UNL A   1      33.571  26.172  22.899  1.00  0.00     0.030 C 
ATOM     11  C   UNL A   1      32.408  25.605  23.741  1.00  0.00     0.077 C 
ATOM     12  C   UNL A   1      31.112  26.234  23.227  1.00  0.00     0.030 C 
ATOM     13  S   UNL A   1      32.370  23.793  23.465  1.00  0.00    -0.081 SA
ATOM     14  C   UNL A   1      33.167  23.405  25.052  1.00  0.00     0.276 C 
ATOM     15  N   UNL A   1      33.699  24.663  25.588  1.00  0.00    -0.320 N 
ATOM     16  H   UNL A   1      34.598  24.873  25.157  1.00  0.00     0.348 HD
ATOM     17  H   UNL A   1      33.840  24.596  26.596  1.00  0.00     0.348 HD
BRANCH  14  18
ATOM     18  C   UNL A   1      34.256  22.351  24.950  1.00  0.00     0.038 A 
ATOM     19  C   UNL A   1      35.620  22.732  24.955  1.00  0.00     0.012 A 
ATOM     20  C   UNL A   1      33.988  20.951  24.893  1.00  0.00     0.046 A 
ATOM     21  C   UNL A   1      36.647  21.805  24.888  1.00  0.00     0.001 A 
ATOM     22  C   UNL A   1      35.008  19.996  24.810  1.00  0.00     0.001 A 
ATOM     23  S   UNL A   1      32.447  20.173  24.927  1.00  0.00    -0.135 S 
ATOM     24  C   UNL A   1      36.351  20.450  24.809  1.00  0.00     0.010 A 
ATOM     25  C   UNL A   1      34.497  18.638  24.730  1.00  0.00     0.000 A 
ATOM     26  C   UNL A   1      33.107  18.599  24.794  1.00  0.00     0.036 A 
ATOM     27  C   UNL A   1      35.187  17.402  24.607  1.00  0.00     0.010 A 
ATOM     28  C   UNL A   1      32.396  17.383  24.749  1.00  0.00     0.019 A 
ATOM     29  C   UNL A   1      34.488  16.194  24.555  1.00  0.00     0.001 A 
ATOM     30  C   UNL A   1      33.104  16.186  24.629  1.00  0.00     0.002 A 
ENDBRANCH  14  18
ENDBRANCH   6   9
ENDBRANCH   4   5
ENDBRANCH   3   4
ENDBRANCH   2   3
ENDBRANCH   1   2
BRANCH   1  31
ATOM     31  C   UNL A   1      31.716  32.724  26.626  1.00  0.00     0.021 C 
BRANCH  31  32
ATOM     32  C   UNL A   1      32.876  33.164  27.514  1.00  0.00     0.116 C 
BRANCH  32  33
ATOM     33  N   UNL A   1      32.728  34.522  28.005  1.00  0.00    -0.352 N 
ATOM     34  C   UNL A   1      33.410  35.165  29.004  1.00  0.00     0.251 C 
ATOM     35  H   UNL A   1      32.035  35.059  27.555  1.00  0.00     0.163 HD
ATOM     36  O   UNL A   1      33.039  36.282  29.369  1.00  0.00    -0.269 OA
BRANCH  34  37
ATOM     37  C   UNL A   1      34.570  34.522  29.663  1.00  0.00     0.039 A 
ATOM     38  C   UNL A   1      34.367  33.862  30.877  1.00  0.00     0.014 A 
ATOM     39  C   UNL A   1      35.856  34.599  29.119  1.00  0.00     0.014 A 
ATOM     40  C   UNL A   1      35.443  33.253  31.528  1.00  0.00     0.010 A 
ATOM     41  C   UNL A   1      36.915  33.929  29.732  1.00  0.00     0.010 A 
ATOM     42  C   UNL A   1      36.725  33.268  30.954  1.00  0.00    -0.014 A 
BRANCH  42  43
ATOM     43  C   UNL A   1      37.873  32.627  31.646  1.00  0.00     0.031 A 
ATOM     44  C   UNL A   1      38.330  33.136  32.988  1.00  0.00     0.074 A 
ATOM     45  C   UNL A   1      38.517  31.599  31.060  1.00  0.00     0.049 A 
ATOM     46  N   UNL A   1      39.299  32.695  33.751  1.00  0.00    -0.248 NA
ATOM     47  C   UNL A   1      37.624  34.306  33.534  1.00  0.00     0.031 C 
ATOM     48  C   UNL A   1      38.204  31.043  29.741  1.00  0.00     0.029 A 
ATOM     49  N   UNL A   1      39.569  30.835  31.500  1.00  0.00    -0.354 N 
ATOM     50  C   UNL A   1      39.326  33.539  34.856  1.00  0.00     0.074 A 
ATOM     51  C   UNL A   1      38.315  34.550  34.639  1.00  0.00     0.031 C 
ATOM     52  C   UNL A   1      39.020  30.006  29.496  1.00  0.00     0.029 A 
ATOM     53  C   UNL A   1      39.934  29.841  30.622  1.00  0.00     0.049 A 
ATOM     54  H   UNL A   1      40.020  30.985  32.362  1.00  0.00     0.167 HD
ATOM     55  C   UNL A   1      40.104  33.468  35.963  1.00  0.00     0.031 A 
ATOM     56  C   UNL A   1      40.891  28.897  30.717  1.00  0.00     0.031 A 
ATOM     57  C   UNL A   1      41.099  32.454  36.184  1.00  0.00     0.049 A 
ATOM     58  C   UNL A   1      41.731  28.828  31.962  1.00  0.00     0.074 A 
ATOM     59  C   UNL A   1      41.900  32.261  37.297  1.00  0.00     0.029 A 
ATOM     60  N   UNL A   1      41.431  31.459  35.277  1.00  0.00    -0.354 N 
ATOM     61  N   UNL A   1      41.694  29.594  33.027  1.00  0.00    -0.248 NA
ATOM     62  C   UNL A   1      42.731  27.753  32.026  1.00  0.00     0.031 C 
ATOM     63  C   UNL A   1      42.748  31.177  37.043  1.00  0.00     0.029 A 
ATOM     64  C   UNL A   1      42.437  30.661  35.795  1.00  0.00     0.049 A 
ATOM     65  H   UNL A   1      41.012  31.338  34.394  1.00  0.00     0.167 HD
ATOM     66  C   UNL A   1      42.650  29.080  33.897  1.00  0.00     0.074 A 
ATOM     67  C   UNL A   1      43.232  27.926  33.241  1.00  0.00     0.031 C 
ATOM     68  C   UNL A   1      43.015  29.524  35.125  1.00  0.00     0.031 A 
BRANCH  55  69
ATOM     69  C   UNL A   1      39.905  34.525  37.019  1.00  0.00    -0.014 A 
ATOM     70  C   UNL A   1      40.644  35.722  36.998  1.00  0.00     0.010 A 
ATOM     71  C   UNL A   1      38.947  34.332  38.031  1.00  0.00     0.010 A 
ATOM     72  C   UNL A   1      40.463  36.684  37.996  1.00  0.00     0.020 A 
ATOM     73  C   UNL A   1      38.742  35.306  39.014  1.00  0.00     0.020 A 
ATOM     74  C   UNL A   1      39.516  36.468  39.000  1.00  0.00     0.054 A 
BRANCH  74  75
ATOM     75  S   UNL A   1      39.292  37.740  40.273  1.00  0.00     0.124 S 
ATOM     76  O   UNL A   1      39.182  36.934  41.487  1.00  0.00    -0.237 OA
ATOM     77  O   UNL A   1      40.513  38.533  40.153  1.00  0.00    -0.237 OA
ATOM     78  O   UNL A   1      38.067  38.424  39.868  1.00  0.00    -0.744 OA
ENDBRANCH  74  75
ENDBRANCH  55  69
BRANCH  56  79
ATOM     79  C   UNL A   1      41.084  27.922  29.610  1.00  0.00    -0.014 A 
ATOM     80  C   UNL A   1      40.193  26.848  29.439  1.00  0.00     0.010 A 
ATOM     81  C   UNL A   1      42.157  28.068  28.713  1.00  0.00     0.010 A 
ATOM     82  C   UNL A   1      40.381  25.928  28.403  1.00  0.00     0.020 A 
ATOM     83  C   UNL A   1      42.333  27.166  27.659  1.00  0.00     0.020 A 
ATOM     84  C   UNL A   1      41.450  26.094  27.519  1.00  0.00     0.054 A 
BRANCH  84  85
ATOM     85  S   UNL A   1      41.646  24.920  26.149  1.00  0.00     0.124 S 
ATOM     86  O   UNL A   1      41.339  25.752  24.991  1.00  0.00    -0.237 OA
ATOM     87  O   UNL A   1      43.042  24.509  26.282  1.00  0.00    -0.237 OA
ATOM     88  O   UNL A   1      40.668  23.878  26.451  1.00  0.00    -0.744 OA
ENDBRANCH  84  85
ENDBRANCH  56  79
BRANCH  68  89
ATOM     89  C   UNL A   1      44.080  28.741  35.849  1.00  0.00    -0.014 A 
ATOM     90  C   UNL A   1      45.444  28.942  35.574  1.00  0.00     0.010 A 
ATOM     91  C   UNL A   1      43.707  27.806  36.832  1.00  0.00     0.010 A 
ATOM     92  C   UNL A   1      46.416  28.186  36.235  1.00  0.00     0.020 A 
ATOM     93  C   UNL A   1      44.677  27.069  37.516  1.00  0.00     0.020 A 
ATOM     94  C   UNL A   1      46.025  27.250  37.197  1.00  0.00     0.054 A 
BRANCH  94  95
ATOM     95  S   UNL A   1      47.304  26.287  38.051  1.00  0.00     0.124 S 
ATOM     96  O   UNL A   1      47.118  24.958  37.475  1.00  0.00    -0.237 OA
ATOM     97  O   UNL A   1      48.535  26.973  37.663  1.00  0.00    -0.237 OA
ATOM     98  O   UNL A   1      46.947  26.412  39.462  1.00  0.00    -0.744 OA
ENDBRANCH  94  95
ENDBRANCH  68  89
ENDBRANCH  42  43
ENDBRANCH  34  37
ENDBRANCH  32  33
ENDBRANCH  31  32
ENDBRANCH   1  31
TORSDOF 17
ENDMDL
