MODEL 1
REMARK VINA RESULT:      -8.5      0.000      0.000
REMARK SMILES CC(C)OCCS(=O)(=O)N1CCC[C@H](C(=O)NCCCCCCNC(=O)c2ccc(-c3c4nc(c(-c5ccc(S(=O)(=O)[O-])cc5)c5ccc([nH]5)c(-c5ccc(S(=O)(=O)[O-])cc5)c5nc(c(-c6ccc(S(=O)(=O)[O-])cc6)c6ccc3[nH]6)C=C5)C=C4)cc2)C1
REMARK SMILES IDX 19 1 18 2 17 3 15 4 16 5 14 7 10 8 11 9 87 10 12 11 13 12
REMARK SMILES IDX 7 13 8 14 9 15 6 16 5 17 4 18 2 19 1 20 3 21 20 22 21 23
REMARK SMILES IDX 22 24 23 25 24 26 25 27 26 29 27 30 28 31 86 32 29 33 85 34
REMARK SMILES IDX 30 35 31 36 32 37 79 38 33 39 84 40 78 41 80 42 34 43 83 44
REMARK SMILES IDX 77 45 76 46 35 48 65 49 46 50 64 51 47 52 50 53 63 54 81 55
REMARK SMILES IDX 48 56 49 57 62 59 82 60 51 61 36 62 37 63 45 64 38 65 44 66
REMARK SMILES IDX 39 67 40 68 41 69 42 70 43 71 66 72 67 73 75 74 68 75 74 76
REMARK SMILES IDX 69 77 70 78 71 79 72 80 73 81 52 82 53 83 61 84 54 85 60 86
REMARK SMILES IDX 55 87 56 88 57 89 58 90 59 91
REMARK H PARENT 17 6 24 28 80 47 50 58
REMARK Flexibility Score: inf
ROOT
ATOM      1  C   UNL A   1      39.634  25.357  28.206  1.00  0.00     0.021 C 
ENDROOT
BRANCH   1   2
ATOM      2  C   UNL A   1      38.728  24.610  27.233  1.00  0.00     0.116 C 
BRANCH   2   3
ATOM      3  N   UNL A   1      39.140  23.231  27.095  1.00  0.00    -0.356 N 
ATOM      4  C   UNL A   1      38.739  22.255  26.244  1.00  0.00     0.224 C 
ATOM      5  O   UNL A   1      39.258  21.142  26.393  1.00  0.00    -0.275 OA
ATOM      6  H   UNL A   1      39.836  22.950  27.732  1.00  0.00     0.163 HD
BRANCH   4   7
ATOM      7  C   UNL A   1      37.675  22.458  25.157  1.00  0.00     0.093 C 
ATOM      8  N   UNL A   1      35.078  22.468  25.500  1.00  0.00    -0.201 NA
ATOM      9  C   UNL A   1      35.106  20.964  25.353  1.00  0.00     0.102 C 
ATOM     10  C   UNL A   1      36.422  23.176  25.635  1.00  0.00     0.115 C 
ATOM     11  C   UNL A   1      36.421  20.309  24.927  1.00  0.00     0.018 C 
ATOM     12  C   UNL A   1      37.433  21.232  24.304  1.00  0.00     0.016 C 
BRANCH   8  13
ATOM     13  S   UNL A   1      33.910  23.168  26.593  1.00  0.00     0.216 S 
ATOM     14  O   UNL A   1      33.918  24.600  26.341  1.00  0.00    -0.212 OA
ATOM     15  O   UNL A   1      34.288  22.686  27.908  1.00  0.00    -0.212 OA
BRANCH  13  16
ATOM     16  C   UNL A   1      32.188  22.640  26.313  1.00  0.00     0.182 C 
BRANCH  16  17
ATOM     17  C   UNL A   1      31.384  23.089  25.084  1.00  0.00     0.178 C 
BRANCH  17  18
ATOM     18  O   UNL A   1      32.048  23.472  23.876  1.00  0.00    -0.378 OA
BRANCH  18  19
ATOM     19  C   UNL A   1      31.897  24.811  23.423  1.00  0.00     0.112 C 
ATOM     20  C   UNL A   1      32.458  24.961  22.012  1.00  0.00     0.038 C 
ATOM     21  C   UNL A   1      30.478  25.208  23.783  1.00  0.00     0.038 C 
ENDBRANCH  18  19
ENDBRANCH  17  18
ENDBRANCH  16  17
ENDBRANCH  13  16
ENDBRANCH   8  13
ENDBRANCH   4   7
ENDBRANCH   2   3
ENDBRANCH   1   2
BRANCH   1  22
ATOM     22  C   UNL A   1      39.715  26.844  27.887  1.00  0.00     0.002 C 
BRANCH  22  23
ATOM     23  C   UNL A   1      40.653  27.166  26.717  1.00  0.00     0.002 C 
BRANCH  23  24
ATOM     24  C   UNL A   1      41.313  25.945  26.068  1.00  0.00     0.021 C 
BRANCH  24  25
ATOM     25  C   UNL A   1      42.604  26.260  25.323  1.00  0.00     0.116 C 
BRANCH  25  26
ATOM     26  N   UNL A   1      43.712  25.450  25.816  1.00  0.00    -0.352 N 
ATOM     27  C   UNL A   1      44.490  25.637  26.921  1.00  0.00     0.251 C 
ATOM     28  H   UNL A   1      43.930  24.658  25.274  1.00  0.00     0.163 HD
ATOM     29  O   UNL A   1      45.564  25.040  27.033  1.00  0.00    -0.269 OA
BRANCH  27  30
ATOM     30  C   UNL A   1      44.028  26.548  27.979  1.00  0.00     0.039 A 
ATOM     31  C   UNL A   1      43.316  26.035  29.063  1.00  0.00     0.014 A 
ATOM     32  C   UNL A   1      44.302  27.916  27.886  1.00  0.00     0.014 A 
ATOM     33  C   UNL A   1      42.910  26.895  30.082  1.00  0.00     0.010 A 
ATOM     34  C   UNL A   1      43.970  28.756  28.939  1.00  0.00     0.010 A 
ATOM     35  C   UNL A   1      43.256  28.257  30.038  1.00  0.00    -0.014 A 
BRANCH  35  36
ATOM     36  C   UNL A   1      42.859  29.188  31.119  1.00  0.00     0.031 A 
ATOM     37  C   UNL A   1      41.576  29.965  30.997  1.00  0.00     0.074 A 
ATOM     38  C   UNL A   1      43.680  29.376  32.171  1.00  0.00     0.049 A 
ATOM     39  N   UNL A   1      41.089  30.878  31.795  1.00  0.00    -0.248 NA
ATOM     40  C   UNL A   1      40.743  29.701  29.810  1.00  0.00     0.031 C 
ATOM     41  C   UNL A   1      44.964  28.701  32.376  1.00  0.00     0.029 A 
ATOM     42  N   UNL A   1      43.558  30.197  33.263  1.00  0.00    -0.354 N 
ATOM     43  C   UNL A   1      39.910  31.311  31.199  1.00  0.00     0.074 A 
ATOM     44  C   UNL A   1      39.779  30.599  29.948  1.00  0.00     0.031 C 
ATOM     45  C   UNL A   1      45.496  29.114  33.538  1.00  0.00     0.029 A 
ATOM     46  C   UNL A   1      44.619  30.115  34.135  1.00  0.00     0.049 A 
ATOM     47  H   UNL A   1      42.785  30.789  33.409  1.00  0.00     0.167 HD
ATOM     48  C   UNL A   1      39.009  32.208  31.662  1.00  0.00     0.031 A 
ATOM     49  C   UNL A   1      44.860  30.782  35.280  1.00  0.00     0.031 A 
ATOM     50  C   UNL A   1      39.140  32.897  32.919  1.00  0.00     0.049 A 
ATOM     51  C   UNL A   1      43.848  31.788  35.763  1.00  0.00     0.074 A 
ATOM     52  C   UNL A   1      38.254  33.780  33.509  1.00  0.00     0.029 A 
ATOM     53  N   UNL A   1      40.223  32.781  33.775  1.00  0.00    -0.354 N 
ATOM     54  N   UNL A   1      42.706  32.134  35.217  1.00  0.00    -0.248 NA
ATOM     55  C   UNL A   1      44.152  32.484  37.020  1.00  0.00     0.031 C 
ATOM     56  C   UNL A   1      38.830  34.247  34.693  1.00  0.00     0.029 A 
ATOM     57  C   UNL A   1      40.041  33.599  34.877  1.00  0.00     0.049 A 
ATOM     58  H   UNL A   1      41.006  32.203  33.624  1.00  0.00     0.167 HD
ATOM     59  C   UNL A   1      42.138  33.059  36.087  1.00  0.00     0.074 A 
ATOM     60  C   UNL A   1      43.056  33.208  37.197  1.00  0.00     0.031 C 
ATOM     61  C   UNL A   1      40.961  33.723  35.979  1.00  0.00     0.031 A 
BRANCH  48  62
ATOM     62  C   UNL A   1      37.804  32.503  30.810  1.00  0.00    -0.014 A 
ATOM     63  C   UNL A   1      36.591  31.817  30.997  1.00  0.00     0.010 A 
ATOM     64  C   UNL A   1      37.865  33.533  29.852  1.00  0.00     0.010 A 
ATOM     65  C   UNL A   1      35.470  32.137  30.227  1.00  0.00     0.020 A 
ATOM     66  C   UNL A   1      36.738  33.877  29.100  1.00  0.00     0.020 A 
ATOM     67  C   UNL A   1      35.550  33.168  29.286  1.00  0.00     0.054 A 
BRANCH  67  68
ATOM     68  S   UNL A   1      34.064  33.597  28.340  1.00  0.00     0.124 S 
ATOM     69  O   UNL A   1      33.236  34.245  29.355  1.00  0.00    -0.237 OA
ATOM     70  O   UNL A   1      34.591  34.481  27.304  1.00  0.00    -0.237 OA
ATOM     71  O   UNL A   1      33.568  32.308  27.864  1.00  0.00    -0.744 OA
ENDBRANCH  67  68
ENDBRANCH  48  62
BRANCH  49  72
ATOM     72  C   UNL A   1      46.105  30.522  36.054  1.00  0.00    -0.014 A 
ATOM     73  C   UNL A   1      46.134  29.533  37.055  1.00  0.00     0.010 A 
ATOM     74  C   UNL A   1      47.269  31.272  35.806  1.00  0.00     0.010 A 
ATOM     75  C   UNL A   1      47.287  29.330  37.818  1.00  0.00     0.020 A 
ATOM     76  C   UNL A   1      48.435  31.048  36.543  1.00  0.00     0.020 A 
ATOM     77  C   UNL A   1      48.430  30.090  37.559  1.00  0.00     0.054 A 
BRANCH  77  78
ATOM     78  S   UNL A   1      49.919  29.798  38.552  1.00  0.00     0.124 S 
ATOM     79  O   UNL A   1      50.740  30.958  38.215  1.00  0.00    -0.237 OA
ATOM     80  O   UNL A   1      49.389  29.769  39.913  1.00  0.00    -0.237 OA
ATOM     81  O   UNL A   1      50.414  28.515  38.056  1.00  0.00    -0.744 OA
ENDBRANCH  77  78
ENDBRANCH  49  72
BRANCH  61  82
ATOM     82  C   UNL A   1      40.565  34.629  37.115  1.00  0.00    -0.014 A 
ATOM     83  C   UNL A   1      40.906  35.992  37.123  1.00  0.00     0.010 A 
ATOM     84  C   UNL A   1      39.773  34.114  38.159  1.00  0.00     0.010 A 
ATOM     85  C   UNL A   1      40.488  36.817  38.169  1.00  0.00     0.020 A 
ATOM     86  C   UNL A   1      39.326  34.943  39.190  1.00  0.00     0.020 A 
ATOM     87  C   UNL A   1      39.698  36.288  39.195  1.00  0.00     0.054 A 
BRANCH  87  88
ATOM     88  S   UNL A   1      39.124  37.394  40.512  1.00  0.00     0.124 S 
ATOM     89  O   UNL A   1      38.433  36.470  41.405  1.00  0.00    -0.237 OA
ATOM     90  O   UNL A   1      40.372  37.952  41.026  1.00  0.00    -0.237 OA
ATOM     91  O   UNL A   1      38.262  38.347  39.814  1.00  0.00    -0.744 OA
ENDBRANCH  87  88
ENDBRANCH  61  82
ENDBRANCH  35  36
ENDBRANCH  27  30
ENDBRANCH  25  26
ENDBRANCH  24  25
ENDBRANCH  23  24
ENDBRANCH  22  23
ENDBRANCH   1  22
TORSDOF 21
ENDMDL
MODEL 2
REMARK VINA RESULT:      -8.4      5.389     13.233
REMARK SMILES CC(C)OCCS(=O)(=O)N1CCC[C@H](C(=O)NCCCCCCNC(=O)c2ccc(-c3c4nc(c(-c5ccc(S(=O)(=O)[O-])cc5)c5ccc([nH]5)c(-c5ccc(S(=O)(=O)[O-])cc5)c5nc(c(-c6ccc(S(=O)(=O)[O-])cc6)c6ccc3[nH]6)C=C5)C=C4)cc2)C1
REMARK SMILES IDX 19 1 18 2 17 3 15 4 16 5 14 7 10 8 11 9 87 10 12 11 13 12
REMARK SMILES IDX 7 13 8 14 9 15 6 16 5 17 4 18 2 19 1 20 3 21 20 22 21 23
REMARK SMILES IDX 22 24 23 25 24 26 25 27 26 29 27 30 28 31 86 32 29 33 85 34
REMARK SMILES IDX 30 35 31 36 32 37 79 38 33 39 84 40 78 41 80 42 34 43 83 44
REMARK SMILES IDX 77 45 76 46 35 48 65 49 46 50 64 51 47 52 50 53 63 54 81 55
REMARK SMILES IDX 48 56 49 57 62 59 82 60 51 61 36 62 37 63 45 64 38 65 44 66
REMARK SMILES IDX 39 67 40 68 41 69 42 70 43 71 66 72 67 73 75 74 68 75 74 76
REMARK SMILES IDX 69 77 70 78 71 79 72 80 73 81 52 82 53 83 61 84 54 85 60 86
REMARK SMILES IDX 55 87 56 88 57 89 58 90 59 91
REMARK H PARENT 17 6 24 28 80 47 50 58
REMARK Flexibility Score: inf
ROOT
ATOM      1  C   UNL A   1      35.346  34.508  31.883  1.00  0.00     0.021 C 
ENDROOT
BRANCH   1   2
ATOM      2  C   UNL A   1      34.907  35.368  33.063  1.00  0.00     0.116 C 
BRANCH   2   3
ATOM      3  N   UNL A   1      35.089  34.665  34.314  1.00  0.00    -0.356 N 
ATOM      4  C   UNL A   1      36.164  34.025  34.835  1.00  0.00     0.224 C 
ATOM      5  O   UNL A   1      36.003  33.475  35.931  1.00  0.00    -0.275 OA
ATOM      6  H   UNL A   1      34.291  34.649  34.889  1.00  0.00     0.163 HD
BRANCH   4   7
ATOM      7  C   UNL A   1      37.522  33.926  34.128  1.00  0.00     0.093 C 
ATOM      8  N   UNL A   1      39.329  32.061  34.474  1.00  0.00    -0.201 NA
ATOM      9  C   UNL A   1      39.864  32.869  35.634  1.00  0.00     0.102 C 
ATOM     10  C   UNL A   1      37.996  32.501  33.880  1.00  0.00     0.115 C 
ATOM     11  C   UNL A   1      39.293  34.271  35.856  1.00  0.00     0.018 C 
ATOM     12  C   UNL A   1      38.568  34.869  34.681  1.00  0.00     0.016 C 
BRANCH   8  13
ATOM     13  S   UNL A   1      39.403  30.319  34.579  1.00  0.00     0.216 S 
ATOM     14  O   UNL A   1      38.118  29.826  34.111  1.00  0.00    -0.212 OA
ATOM     15  O   UNL A   1      39.805  30.041  35.944  1.00  0.00    -0.212 OA
BRANCH  13  16
ATOM     16  C   UNL A   1      40.642  29.539  33.495  1.00  0.00     0.182 C 
BRANCH  16  17
ATOM     17  C   UNL A   1      42.078  30.072  33.379  1.00  0.00     0.178 C 
BRANCH  17  18
ATOM     18  O   UNL A   1      42.831  29.890  32.175  1.00  0.00    -0.378 OA
BRANCH  18  19
ATOM     19  C   UNL A   1      43.678  28.752  32.078  1.00  0.00     0.112 C 
ATOM     20  C   UNL A   1      42.911  27.568  31.499  1.00  0.00     0.038 C 
ATOM     21  C   UNL A   1      44.975  29.257  31.477  1.00  0.00     0.038 C 
ENDBRANCH  18  19
ENDBRANCH  17  18
ENDBRANCH  16  17
ENDBRANCH  13  16
ENDBRANCH   8  13
ENDBRANCH   4   7
ENDBRANCH   2   3
ENDBRANCH   1   2
BRANCH   1  22
ATOM     22  C   UNL A   1      34.182  34.154  30.967  1.00  0.00     0.002 C 
BRANCH  22  23
ATOM     23  C   UNL A   1      34.617  33.781  29.544  1.00  0.00     0.002 C 
BRANCH  23  24
ATOM     24  C   UNL A   1      36.112  33.965  29.261  1.00  0.00     0.021 C 
BRANCH  24  25
ATOM     25  C   UNL A   1      36.819  32.692  28.811  1.00  0.00     0.116 C 
BRANCH  25  26
ATOM     26  N   UNL A   1      36.211  31.509  29.407  1.00  0.00    -0.352 N 
ATOM     27  C   UNL A   1      36.657  30.219  29.409  1.00  0.00     0.251 C 
ATOM     28  H   UNL A   1      35.357  31.662  29.872  1.00  0.00     0.163 HD
ATOM     29  O   UNL A   1      35.888  29.296  29.692  1.00  0.00    -0.269 OA
BRANCH  27  30
ATOM     30  C   UNL A   1      38.065  29.946  29.083  1.00  0.00     0.039 A 
ATOM     31  C   UNL A   1      39.021  29.969  30.098  1.00  0.00     0.014 A 
ATOM     32  C   UNL A   1      38.430  29.671  27.761  1.00  0.00     0.014 A 
ATOM     33  C   UNL A   1      40.349  29.675  29.791  1.00  0.00     0.010 A 
ATOM     34  C   UNL A   1      39.735  29.298  27.473  1.00  0.00     0.010 A 
ATOM     35  C   UNL A   1      40.710  29.314  28.481  1.00  0.00    -0.014 A 
BRANCH  35  36
ATOM     36  C   UNL A   1      42.108  28.973  28.134  1.00  0.00     0.031 A 
ATOM     37  C   UNL A   1      42.455  27.561  27.748  1.00  0.00     0.074 A 
ATOM     38  C   UNL A   1      43.066  29.916  28.228  1.00  0.00     0.049 A 
ATOM     39  N   UNL A   1      43.627  27.045  27.481  1.00  0.00    -0.248 NA
ATOM     40  C   UNL A   1      41.346  26.593  27.678  1.00  0.00     0.031 C 
ATOM     41  C   UNL A   1      42.849  31.310  28.624  1.00  0.00     0.029 A 
ATOM     42  N   UNL A   1      44.417  29.842  28.001  1.00  0.00    -0.354 N 
ATOM     43  C   UNL A   1      43.398  25.697  27.234  1.00  0.00     0.074 A 
ATOM     44  C   UNL A   1      41.986  25.460  27.431  1.00  0.00     0.031 C 
ATOM     45  C   UNL A   1      44.021  31.965  28.584  1.00  0.00     0.029 A 
ATOM     46  C   UNL A   1      45.076  31.031  28.209  1.00  0.00     0.049 A 
ATOM     47  H   UNL A   1      44.871  29.016  27.718  1.00  0.00     0.167 HD
ATOM     48  C   UNL A   1      44.284  24.745  26.858  1.00  0.00     0.031 A 
ATOM     49  C   UNL A   1      46.387  31.329  28.116  1.00  0.00     0.031 A 
ATOM     50  C   UNL A   1      45.685  24.997  26.645  1.00  0.00     0.049 A 
ATOM     51  C   UNL A   1      47.352  30.246  27.713  1.00  0.00     0.074 A 
ATOM     52  C   UNL A   1      46.657  24.115  26.205  1.00  0.00     0.029 A 
ATOM     53  N   UNL A   1      46.312  26.214  26.857  1.00  0.00    -0.354 N 
ATOM     54  N   UNL A   1      47.107  28.992  27.418  1.00  0.00    -0.248 NA
ATOM     55  C   UNL A   1      48.769  30.623  27.619  1.00  0.00     0.031 C 
ATOM     56  C   UNL A   1      47.883  24.784  26.211  1.00  0.00     0.029 A 
ATOM     57  C   UNL A   1      47.664  26.101  26.584  1.00  0.00     0.049 A 
ATOM     58  H   UNL A   1      45.863  27.038  27.157  1.00  0.00     0.167 HD
ATOM     59  C   UNL A   1      48.334  28.440  27.065  1.00  0.00     0.074 A 
ATOM     60  C   UNL A   1      49.315  29.500  27.172  1.00  0.00     0.031 C 
ATOM     61  C   UNL A   1      48.623  27.172  26.683  1.00  0.00     0.031 A 
BRANCH  48  62
ATOM     62  C   UNL A   1      43.773  23.344  26.656  1.00  0.00    -0.014 A 
ATOM     63  C   UNL A   1      43.953  22.669  25.435  1.00  0.00     0.010 A 
ATOM     64  C   UNL A   1      43.163  22.666  27.728  1.00  0.00     0.010 A 
ATOM     65  C   UNL A   1      43.511  21.353  25.282  1.00  0.00     0.020 A 
ATOM     66  C   UNL A   1      42.747  21.338  27.588  1.00  0.00     0.020 A 
ATOM     67  C   UNL A   1      42.915  20.694  26.361  1.00  0.00     0.054 A 
BRANCH  67  68
ATOM     68  S   UNL A   1      42.401  18.968  26.149  1.00  0.00     0.124 S 
ATOM     69  O   UNL A   1      40.994  19.114  25.784  1.00  0.00    -0.237 OA
ATOM     70  O   UNL A   1      43.281  18.503  25.080  1.00  0.00    -0.237 OA
ATOM     71  O   UNL A   1      42.644  18.368  27.459  1.00  0.00    -0.744 OA
ENDBRANCH  67  68
ENDBRANCH  48  62
BRANCH  49  72
ATOM     72  C   UNL A   1      46.866  32.710  28.405  1.00  0.00    -0.014 A 
ATOM     73  C   UNL A   1      46.711  33.735  27.454  1.00  0.00     0.010 A 
ATOM     74  C   UNL A   1      47.495  33.005  29.628  1.00  0.00     0.010 A 
ATOM     75  C   UNL A   1      47.212  35.016  27.705  1.00  0.00     0.020 A 
ATOM     76  C   UNL A   1      47.967  34.293  29.897  1.00  0.00     0.020 A 
ATOM     77  C   UNL A   1      47.839  35.286  28.924  1.00  0.00     0.054 A 
BRANCH  77  78
ATOM     78  S   UNL A   1      48.468  36.959  29.233  1.00  0.00     0.124 S 
ATOM     79  O   UNL A   1      48.332  37.581  27.919  1.00  0.00    -0.237 OA
ATOM     80  O   UNL A   1      47.560  37.451  30.266  1.00  0.00    -0.237 OA
ATOM     81  O   UNL A   1      49.841  36.730  29.678  1.00  0.00    -0.744 OA
ENDBRANCH  77  78
ENDBRANCH  49  72
BRANCH  61  82
ATOM     82  C   UNL A   1      50.045  26.868  26.295  1.00  0.00    -0.014 A 
ATOM     83  C   UNL A   1      51.024  26.572  27.259  1.00  0.00     0.010 A 
ATOM     84  C   UNL A   1      50.387  26.808  24.931  1.00  0.00     0.010 A 
ATOM     85  C   UNL A   1      52.326  26.252  26.867  1.00  0.00     0.020 A 
ATOM     86  C   UNL A   1      51.679  26.457  24.533  1.00  0.00     0.020 A 
ATOM     87  C   UNL A   1      52.644  26.193  25.506  1.00  0.00     0.054 A 
BRANCH  87  88
ATOM     88  S   UNL A   1      54.327  25.721  25.024  1.00  0.00     0.124 S 
ATOM     89  O   UNL A   1      55.134  26.398  26.035  1.00  0.00    -0.237 OA
ATOM     90  O   UNL A   1      54.290  24.264  25.120  1.00  0.00    -0.237 OA
ATOM     91  O   UNL A   1      54.460  26.248  23.667  1.00  0.00    -0.744 OA
ENDBRANCH  87  88
ENDBRANCH  61  82
ENDBRANCH  35  36
ENDBRANCH  27  30
ENDBRANCH  25  26
ENDBRANCH  24  25
ENDBRANCH  23  24
ENDBRANCH  22  23
ENDBRANCH   1  22
TORSDOF 21
ENDMDL
MODEL 3
REMARK VINA RESULT:      -8.2      4.795     10.527
REMARK SMILES CC(C)OCCS(=O)(=O)N1CCC[C@H](C(=O)NCCCCCCNC(=O)c2ccc(-c3c4nc(c(-c5ccc(S(=O)(=O)[O-])cc5)c5ccc([nH]5)c(-c5ccc(S(=O)(=O)[O-])cc5)c5nc(c(-c6ccc(S(=O)(=O)[O-])cc6)c6ccc3[nH]6)C=C5)C=C4)cc2)C1
REMARK SMILES IDX 19 1 18 2 17 3 15 4 16 5 14 7 10 8 11 9 87 10 12 11 13 12
REMARK SMILES IDX 7 13 8 14 9 15 6 16 5 17 4 18 2 19 1 20 3 21 20 22 21 23
REMARK SMILES IDX 22 24 23 25 24 26 25 27 26 29 27 30 28 31 86 32 29 33 85 34
REMARK SMILES IDX 30 35 31 36 32 37 79 38 33 39 84 40 78 41 80 42 34 43 83 44
REMARK SMILES IDX 77 45 76 46 35 48 65 49 46 50 64 51 47 52 50 53 63 54 81 55
REMARK SMILES IDX 48 56 49 57 62 59 82 60 51 61 36 62 37 63 45 64 38 65 44 66
REMARK SMILES IDX 39 67 40 68 41 69 42 70 43 71 66 72 67 73 75 74 68 75 74 76
REMARK SMILES IDX 69 77 70 78 71 79 72 80 73 81 52 82 53 83 61 84 54 85 60 86
REMARK SMILES IDX 55 87 56 88 57 89 58 90 59 91
REMARK H PARENT 17 6 24 28 80 47 50 58
REMARK Flexibility Score: inf
ROOT
ATOM      1  C   UNL A   1      40.197  26.195  28.086  1.00  0.00     0.021 C 
ENDROOT
BRANCH   1   2
ATOM      2  C   UNL A   1      39.302  27.410  28.306  1.00  0.00     0.116 C 
BRANCH   2   3
ATOM      3  N   UNL A   1      38.711  27.387  29.626  1.00  0.00    -0.356 N 
ATOM      4  C   UNL A   1      38.998  28.088  30.749  1.00  0.00     0.224 C 
ATOM      5  O   UNL A   1      38.331  27.820  31.755  1.00  0.00    -0.275 OA
ATOM      6  H   UNL A   1      37.967  26.750  29.726  1.00  0.00     0.163 HD
BRANCH   4   7
ATOM      7  C   UNL A   1      40.107  29.145  30.833  1.00  0.00     0.093 C 
ATOM      8  N   UNL A   1      40.781  30.536  32.949  1.00  0.00    -0.201 NA
ATOM      9  C   UNL A   1      39.705  31.529  32.573  1.00  0.00     0.102 C 
ATOM     10  C   UNL A   1      40.803  29.217  32.185  1.00  0.00     0.115 C 
ATOM     11  C   UNL A   1      39.008  31.355  31.222  1.00  0.00     0.018 C 
ATOM     12  C   UNL A   1      39.726  30.480  30.231  1.00  0.00     0.016 C 
BRANCH   8  13
ATOM     13  S   UNL A   1      41.092  30.261  34.646  1.00  0.00     0.216 S 
ATOM     14  O   UNL A   1      39.807  29.964  35.256  1.00  0.00    -0.212 OA
ATOM     15  O   UNL A   1      41.824  31.433  35.088  1.00  0.00    -0.212 OA
BRANCH  13  16
ATOM     16  C   UNL A   1      42.142  28.816  35.006  1.00  0.00     0.182 C 
BRANCH  16  17
ATOM     17  C   UNL A   1      41.681  27.679  35.930  1.00  0.00     0.178 C 
BRANCH  17  18
ATOM     18  O   UNL A   1      41.519  26.349  35.427  1.00  0.00    -0.378 OA
BRANCH  18  19
ATOM     19  C   UNL A   1      41.715  25.265  36.326  1.00  0.00     0.112 C 
ATOM     20  C   UNL A   1      40.716  25.342  37.476  1.00  0.00     0.038 C 
ATOM     21  C   UNL A   1      41.863  24.032  35.455  1.00  0.00     0.038 C 
ENDBRANCH  18  19
ENDBRANCH  17  18
ENDBRANCH  16  17
ENDBRANCH  13  16
ENDBRANCH   8  13
ENDBRANCH   4   7
ENDBRANCH   2   3
ENDBRANCH   1   2
BRANCH   1  22
ATOM     22  C   UNL A   1      39.853  25.454  26.801  1.00  0.00     0.002 C 
BRANCH  22  23
ATOM     23  C   UNL A   1      38.670  24.489  26.951  1.00  0.00     0.002 C 
BRANCH  23  24
ATOM     24  C   UNL A   1      38.837  23.151  26.223  1.00  0.00     0.021 C 
BRANCH  24  25
ATOM     25  C   UNL A   1      39.828  22.203  26.886  1.00  0.00     0.116 C 
BRANCH  25  26
ATOM     26  N   UNL A   1      40.920  21.861  25.983  1.00  0.00    -0.352 N 
ATOM     27  C   UNL A   1      42.154  22.434  25.867  1.00  0.00     0.251 C 
ATOM     28  H   UNL A   1      40.743  21.112  25.370  1.00  0.00     0.163 HD
ATOM     29  O   UNL A   1      42.842  22.228  24.863  1.00  0.00    -0.269 OA
BRANCH  27  30
ATOM     30  C   UNL A   1      42.654  23.288  26.955  1.00  0.00     0.039 A 
ATOM     31  C   UNL A   1      43.563  24.305  26.665  1.00  0.00     0.014 A 
ATOM     32  C   UNL A   1      42.218  23.068  28.265  1.00  0.00     0.014 A 
ATOM     33  C   UNL A   1      44.007  25.135  27.693  1.00  0.00     0.010 A 
ATOM     34  C   UNL A   1      42.598  23.946  29.270  1.00  0.00     0.010 A 
ATOM     35  C   UNL A   1      43.509  24.976  28.998  1.00  0.00    -0.014 A 
BRANCH  35  36
ATOM     36  C   UNL A   1      43.947  25.860  30.103  1.00  0.00     0.031 A 
ATOM     37  C   UNL A   1      44.425  25.254  31.394  1.00  0.00     0.074 A 
ATOM     38  C   UNL A   1      43.853  27.196  29.963  1.00  0.00     0.049 A 
ATOM     39  N   UNL A   1      44.780  25.852  32.501  1.00  0.00    -0.248 NA
ATOM     40  C   UNL A   1      44.488  23.783  31.462  1.00  0.00     0.031 C 
ATOM     41  C   UNL A   1      43.371  27.893  28.767  1.00  0.00     0.029 A 
ATOM     42  N   UNL A   1      44.153  28.209  30.838  1.00  0.00    -0.354 N 
ATOM     43  C   UNL A   1      45.086  24.835  33.398  1.00  0.00     0.074 A 
ATOM     44  C   UNL A   1      44.829  23.582  32.726  1.00  0.00     0.031 C 
ATOM     45  C   UNL A   1      43.438  29.218  28.974  1.00  0.00     0.029 A 
ATOM     46  C   UNL A   1      43.917  29.465  30.329  1.00  0.00     0.049 A 
ATOM     47  H   UNL A   1      44.503  28.052  31.744  1.00  0.00     0.167 HD
ATOM     48  C   UNL A   1      45.559  24.938  34.662  1.00  0.00     0.031 A 
ATOM     49  C   UNL A   1      44.062  30.677  30.898  1.00  0.00     0.031 A 
ATOM     50  C   UNL A   1      45.831  26.192  35.314  1.00  0.00     0.049 A 
ATOM     51  C   UNL A   1      44.572  30.761  32.312  1.00  0.00     0.074 A 
ATOM     52  C   UNL A   1      46.368  26.405  36.571  1.00  0.00     0.029 A 
ATOM     53  N   UNL A   1      45.587  27.439  34.763  1.00  0.00    -0.354 N 
ATOM     54  N   UNL A   1      44.920  29.789  33.121  1.00  0.00    -0.248 NA
ATOM     55  C   UNL A   1      44.719  32.105  32.885  1.00  0.00     0.031 C 
ATOM     56  C   UNL A   1      46.390  27.782  36.806  1.00  0.00     0.029 A 
ATOM     57  C   UNL A   1      45.936  28.428  35.667  1.00  0.00     0.049 A 
ATOM     58  H   UNL A   1      45.220  27.600  33.864  1.00  0.00     0.167 HD
ATOM     59  C   UNL A   1      45.366  30.407  34.284  1.00  0.00     0.074 A 
ATOM     60  C   UNL A   1      45.254  31.835  34.068  1.00  0.00     0.031 C 
ATOM     61  C   UNL A   1      45.830  29.845  35.427  1.00  0.00     0.031 A 
BRANCH  48  62
ATOM     62  C   UNL A   1      45.809  23.667  35.428  1.00  0.00    -0.014 A 
ATOM     63  C   UNL A   1      46.704  22.691  34.954  1.00  0.00     0.010 A 
ATOM     64  C   UNL A   1      45.190  23.476  36.678  1.00  0.00     0.010 A 
ATOM     65  C   UNL A   1      46.957  21.539  35.702  1.00  0.00     0.020 A 
ATOM     66  C   UNL A   1      45.464  22.338  37.444  1.00  0.00     0.020 A 
ATOM     67  C   UNL A   1      46.338  21.372  36.944  1.00  0.00     0.054 A 
BRANCH  67  68
ATOM     68  S   UNL A   1      46.728  19.892  37.917  1.00  0.00     0.124 S 
ATOM     69  O   UNL A   1      46.178  20.237  39.226  1.00  0.00    -0.237 OA
ATOM     70  O   UNL A   1      46.017  18.840  37.195  1.00  0.00    -0.237 OA
ATOM     71  O   UNL A   1      48.185  19.809  37.857  1.00  0.00    -0.744 OA
ENDBRANCH  67  68
ENDBRANCH  48  62
BRANCH  49  72
ATOM     72  C   UNL A   1      43.725  31.911  30.134  1.00  0.00    -0.014 A 
ATOM     73  C   UNL A   1      44.644  32.464  29.224  1.00  0.00     0.010 A 
ATOM     74  C   UNL A   1      42.487  32.552  30.324  1.00  0.00     0.010 A 
ATOM     75  C   UNL A   1      44.349  33.653  28.551  1.00  0.00     0.020 A 
ATOM     76  C   UNL A   1      42.173  33.722  29.627  1.00  0.00     0.020 A 
ATOM     77  C   UNL A   1      43.115  34.275  28.758  1.00  0.00     0.054 A 
BRANCH  77  78
ATOM     78  S   UNL A   1      42.748  35.809  27.863  1.00  0.00     0.124 S 
ATOM     79  O   UNL A   1      41.500  36.234  28.490  1.00  0.00    -0.237 OA
ATOM     80  O   UNL A   1      43.919  36.632  28.155  1.00  0.00    -0.237 OA
ATOM     81  O   UNL A   1      42.632  35.374  26.472  1.00  0.00    -0.744 OA
ENDBRANCH  77  78
ENDBRANCH  49  72
BRANCH  61  82
ATOM     82  C   UNL A   1      46.308  30.770  36.515  1.00  0.00    -0.014 A 
ATOM     83  C   UNL A   1      47.631  31.243  36.551  1.00  0.00     0.010 A 
ATOM     84  C   UNL A   1      45.390  31.228  37.480  1.00  0.00     0.010 A 
ATOM     85  C   UNL A   1      48.035  32.133  37.548  1.00  0.00     0.020 A 
ATOM     86  C   UNL A   1      45.782  32.144  38.459  1.00  0.00     0.020 A 
ATOM     87  C   UNL A   1      47.106  32.580  38.494  1.00  0.00     0.054 A 
BRANCH  87  88
ATOM     88  S   UNL A   1      47.644  33.778  39.745  1.00  0.00     0.124 S 
ATOM     89  O   UNL A   1      46.942  34.988  39.328  1.00  0.00    -0.237 OA
ATOM     90  O   UNL A   1      47.173  33.174  40.988  1.00  0.00    -0.237 OA
ATOM     91  O   UNL A   1      49.097  33.816  39.587  1.00  0.00    -0.744 OA
ENDBRANCH  87  88
ENDBRANCH  61  82
ENDBRANCH  35  36
ENDBRANCH  27  30
ENDBRANCH  25  26
ENDBRANCH  24  25
ENDBRANCH  23  24
ENDBRANCH  22  23
ENDBRANCH   1  22
TORSDOF 21
ENDMDL
