MODEL 1
REMARK VINA RESULT:     -11.4      0.000      0.000
REMARK SMILES O=C(NCCCCCCNC(=O)c1ccc(-c2c3nc(c(-c4ccc(S(=O)(=O)[O-])cc4)c4ccc([nH]4)c(-c4ccc(S(=O)(=O)[O-])cc4)c4nc(c(-c5ccc(S(=O)(=O)[O-])cc5)c5ccc2[nH]5)C=C4)C=C3)cc1)c1ccc(NC(=O)[C@@H]2CC=CC[C@@H]2C(=O)Nc2ccc(Br)cc2)cc1
REMARK SMILES IDX 6 1 5 2 4 3 3 4 1 5 2 6 73 8 74 9 97 10 75 11 96 12 76 13
REMARK SMILES IDX 77 14 78 15 79 17 80 18 81 19 85 20 82 21 84 22 83 23 86 24
REMARK SMILES IDX 87 25 88 26 89 28 90 29 95 30 91 31 94 32 92 33 93 34 7 35
REMARK SMILES IDX 8 36 9 37 10 38 11 39 12 41 13 42 14 43 72 44 15 45 71 46
REMARK SMILES IDX 16 47 17 48 18 49 65 50 19 51 70 52 64 53 66 54 20 55 69 56
REMARK SMILES IDX 63 57 62 58 21 60 51 61 32 62 50 63 33 64 36 65 49 66 67 67
REMARK SMILES IDX 34 68 35 69 48 71 68 72 37 73 22 74 23 75 31 76 24 77 30 78
REMARK SMILES IDX 25 79 26 80 27 81 28 82 29 83 52 84 53 85 61 86 54 87 60 88
REMARK SMILES IDX 55 89 56 90 57 91 58 92 59 93 38 94 39 95 47 96 40 97 46 98
REMARK SMILES IDX 41 99 42 100 43 101 44 102 45 103
REMARK H PARENT 3 7 77 16 88 27 10 40 66 59 36 70
REMARK Flexibility Score: inf
ROOT
ATOM      1  C   UNL A   1      40.670  22.686  27.318  1.00  0.00     0.002 C 
ENDROOT
BRANCH   1   2
ATOM      2  C   UNL A   1      39.535  23.710  27.278  1.00  0.00     0.021 C 
BRANCH   2   3
ATOM      3  C   UNL A   1      38.527  23.499  26.153  1.00  0.00     0.116 C 
BRANCH   3   4
ATOM      4  N   UNL A   1      38.620  22.167  25.571  1.00  0.00    -0.352 N 
ATOM      5  O   UNL A   1      37.773  20.210  24.772  1.00  0.00    -0.269 OA
ATOM      6  C   UNL A   1      37.588  21.355  25.169  1.00  0.00     0.251 C 
ATOM      7  H   UNL A   1      39.529  21.807  25.454  1.00  0.00     0.163 HD
BRANCH   6   8
ATOM      8  C   UNL A   1      36.230  21.912  25.238  1.00  0.00     0.039 A 
ATOM      9  C   UNL A   1      35.857  22.891  24.317  1.00  0.00     0.016 A 
ATOM     10  C   UNL A   1      35.397  21.567  26.304  1.00  0.00     0.016 A 
ATOM     11  C   UNL A   1      34.671  23.588  24.513  1.00  0.00     0.027 A 
ATOM     12  C   UNL A   1      34.211  22.278  26.499  1.00  0.00     0.027 A 
ATOM     13  C   UNL A   1      33.860  23.312  25.622  1.00  0.00     0.041 A 
BRANCH  13  14
ATOM     14  N   UNL A   1      32.680  24.044  25.875  1.00  0.00    -0.326 N 
ATOM     15  C   UNL A   1      32.215  24.982  24.983  1.00  0.00     0.228 C 
ATOM     16  H   UNL A   1      32.180  23.880  26.707  1.00  0.00     0.169 HD
ATOM     17  O   UNL A   1      31.567  24.620  24.004  1.00  0.00    -0.274 OA
BRANCH  15  18
ATOM     18  C   UNL A   1      32.721  26.412  25.196  1.00  0.00     0.095 C 
ATOM     19  C   UNL A   1      31.720  27.347  25.895  1.00  0.00     0.041 C 
ATOM     20  C   UNL A   1      33.426  26.997  23.958  1.00  0.00     0.095 C 
ATOM     21  C   UNL A   1      31.961  28.811  25.664  1.00  0.00    -0.030 C 
ATOM     22  C   UNL A   1      33.950  28.418  24.214  1.00  0.00     0.041 C 
ATOM     23  C   UNL A   1      32.964  29.293  24.921  1.00  0.00    -0.030 C 
BRANCH  20  24
ATOM     24  C   UNL A   1      32.982  26.835  22.493  1.00  0.00     0.228 C 
ATOM     25  O   UNL A   1      33.766  26.269  21.711  1.00  0.00    -0.274 OA
ATOM     26  N   UNL A   1      31.758  27.106  21.981  1.00  0.00    -0.326 N 
ATOM     27  H   UNL A   1      31.547  26.572  21.181  1.00  0.00     0.169 HD
BRANCH  26  28
ATOM     28  C   UNL A   1      30.734  27.975  22.342  1.00  0.00     0.041 A 
ATOM     29  C   UNL A   1      30.903  29.332  22.046  1.00  0.00     0.027 A 
ATOM     30  C   UNL A   1      29.617  27.560  23.055  1.00  0.00     0.027 A 
ATOM     31  C   UNL A   1      29.901  30.254  22.352  1.00  0.00     0.018 A 
ATOM     32  C   UNL A   1      28.620  28.484  23.387  1.00  0.00     0.018 A 
ATOM     33  C   UNL A   1      28.755  29.820  23.012  1.00  0.00     0.018 A 
ATOM     34  Br  UNL A   1      27.374  31.052  23.390  1.00  0.00    -0.051 Br
ENDBRANCH  26  28
ENDBRANCH  20  24
ENDBRANCH  15  18
ENDBRANCH  13  14
ENDBRANCH   6   8
ENDBRANCH   3   4
ENDBRANCH   2   3
ENDBRANCH   1   2
BRANCH   1  35
ATOM     35  C   UNL A   1      42.082  23.263  27.179  1.00  0.00     0.002 C 
BRANCH  35  36
ATOM     36  C   UNL A   1      42.417  23.879  25.817  1.00  0.00     0.021 C 
BRANCH  36  37
ATOM     37  C   UNL A   1      42.199  25.385  25.705  1.00  0.00     0.116 C 
BRANCH  37  38
ATOM     38  N   UNL A   1      43.362  26.082  25.183  1.00  0.00    -0.352 N 
ATOM     39  C   UNL A   1      44.004  27.196  25.664  1.00  0.00     0.251 C 
ATOM     40  H   UNL A   1      43.746  25.699  24.362  1.00  0.00     0.163 HD
ATOM     41  O   UNL A   1      44.890  27.722  24.997  1.00  0.00    -0.269 OA
BRANCH  39  42
ATOM     42  C   UNL A   1      43.615  27.779  26.969  1.00  0.00     0.039 A 
ATOM     43  C   UNL A   1      43.777  29.154  27.163  1.00  0.00     0.014 A 
ATOM     44  C   UNL A   1      43.116  26.981  28.002  1.00  0.00     0.014 A 
ATOM     45  C   UNL A   1      43.384  29.738  28.369  1.00  0.00     0.010 A 
ATOM     46  C   UNL A   1      42.672  27.573  29.184  1.00  0.00     0.010 A 
ATOM     47  C   UNL A   1      42.801  28.956  29.379  1.00  0.00    -0.014 A 
BRANCH  47  48
ATOM     48  C   UNL A   1      42.314  29.570  30.641  1.00  0.00     0.031 A 
ATOM     49  C   UNL A   1      41.009  30.319  30.668  1.00  0.00     0.074 A 
ATOM     50  C   UNL A   1      43.077  29.508  31.750  1.00  0.00     0.049 A 
ATOM     51  N   UNL A   1      40.457  30.976  31.656  1.00  0.00    -0.248 NA
ATOM     52  C   UNL A   1      40.236  30.351  29.417  1.00  0.00     0.031 C 
ATOM     53  C   UNL A   1      44.379  28.843  31.848  1.00  0.00     0.029 A 
ATOM     54  N   UNL A   1      42.873  30.022  33.006  1.00  0.00    -0.354 N 
ATOM     55  C   UNL A   1      39.284  31.516  31.142  1.00  0.00     0.074 A 
ATOM     56  C   UNL A   1      39.222  31.139  29.746  1.00  0.00     0.031 C 
ATOM     57  C   UNL A   1      44.846  28.973  33.101  1.00  0.00     0.029 A 
ATOM     58  C   UNL A   1      43.896  29.757  33.885  1.00  0.00     0.049 A 
ATOM     59  H   UNL A   1      42.068  30.531  33.255  1.00  0.00     0.167 HD
ATOM     60  C   UNL A   1      38.336  32.247  31.777  1.00  0.00     0.031 A 
ATOM     61  C   UNL A   1      44.058  30.108  35.175  1.00  0.00     0.031 A 
ATOM     62  C   UNL A   1      38.388  32.608  33.169  1.00  0.00     0.049 A 
ATOM     63  C   UNL A   1      42.990  30.913  35.861  1.00  0.00     0.074 A 
ATOM     64  C   UNL A   1      37.448  33.300  33.914  1.00  0.00     0.029 A 
ATOM     65  N   UNL A   1      39.432  32.302  34.028  1.00  0.00    -0.354 N 
ATOM     66  N   UNL A   1      41.863  31.371  35.370  1.00  0.00    -0.248 NA
ATOM     67  C   UNL A   1      43.211  31.240  37.275  1.00  0.00     0.031 C 
ATOM     68  C   UNL A   1      37.942  33.446  35.215  1.00  0.00     0.029 A 
ATOM     69  C   UNL A   1      39.169  32.806  35.291  1.00  0.00     0.049 A 
ATOM     70  H   UNL A   1      40.242  31.801  33.777  1.00  0.00     0.167 HD
ATOM     71  C   UNL A   1      41.230  32.020  36.423  1.00  0.00     0.074 A 
ATOM     72  C   UNL A   1      42.093  31.887  37.578  1.00  0.00     0.031 C 
ATOM     73  C   UNL A   1      40.039  32.667  36.431  1.00  0.00     0.031 A 
BRANCH  60  74
ATOM     74  C   UNL A   1      37.161  32.714  30.961  1.00  0.00    -0.014 A 
ATOM     75  C   UNL A   1      35.898  32.110  31.098  1.00  0.00     0.010 A 
ATOM     76  C   UNL A   1      37.314  33.786  30.065  1.00  0.00     0.010 A 
ATOM     77  C   UNL A   1      34.820  32.540  30.321  1.00  0.00     0.020 A 
ATOM     78  C   UNL A   1      36.232  34.237  29.302  1.00  0.00     0.020 A 
ATOM     79  C   UNL A   1      34.996  33.596  29.421  1.00  0.00     0.054 A 
BRANCH  79  80
ATOM     80  S   UNL A   1      33.581  34.142  28.427  1.00  0.00     0.124 S 
ATOM     81  O   UNL A   1      32.661  34.622  29.455  1.00  0.00    -0.237 OA
ATOM     82  O   UNL A   1      34.163  35.174  27.575  1.00  0.00    -0.237 OA
ATOM     83  O   UNL A   1      33.160  32.929  27.731  1.00  0.00    -0.744 OA
ENDBRANCH  79  80
ENDBRANCH  60  74
BRANCH  61  84
ATOM     84  C   UNL A   1      45.278  29.680  35.910  1.00  0.00    -0.014 A 
ATOM     85  C   UNL A   1      45.296  28.458  36.603  1.00  0.00     0.010 A 
ATOM     86  C   UNL A   1      46.432  30.485  35.904  1.00  0.00     0.010 A 
ATOM     87  C   UNL A   1      46.444  28.051  37.289  1.00  0.00     0.020 A 
ATOM     88  C   UNL A   1      47.588  30.071  36.570  1.00  0.00     0.020 A 
ATOM     89  C   UNL A   1      47.583  28.860  37.267  1.00  0.00     0.054 A 
BRANCH  89  90
ATOM     90  S   UNL A   1      49.084  28.288  38.112  1.00  0.00     0.124 S 
ATOM     91  O   UNL A   1      49.807  29.538  38.323  1.00  0.00    -0.237 OA
ATOM     92  O   UNL A   1      48.550  27.655  39.315  1.00  0.00    -0.237 OA
ATOM     93  O   UNL A   1      49.685  27.370  37.149  1.00  0.00    -0.744 OA
ENDBRANCH  89  90
ENDBRANCH  61  84
BRANCH  73  94
ATOM     94  C   UNL A   1      39.582  33.257  37.737  1.00  0.00    -0.014 A 
ATOM     95  C   UNL A   1      38.772  32.523  38.620  1.00  0.00     0.010 A 
ATOM     96  C   UNL A   1      40.013  34.544  38.105  1.00  0.00     0.010 A 
ATOM     97  C   UNL A   1      38.378  33.078  39.841  1.00  0.00     0.020 A 
ATOM     98  C   UNL A   1      39.639  35.093  39.334  1.00  0.00     0.020 A 
ATOM     99  C   UNL A   1      38.812  34.362  40.189  1.00  0.00     0.054 A 
BRANCH  99 100
ATOM    100  S   UNL A   1      38.327  35.045  41.798  1.00  0.00     0.124 S 
ATOM    101  O   UNL A   1      36.895  34.763  41.828  1.00  0.00    -0.237 OA
ATOM    102  O   UNL A   1      39.139  34.272  42.735  1.00  0.00    -0.237 OA
ATOM    103  O   UNL A   1      38.684  36.458  41.695  1.00  0.00    -0.744 OA
ENDBRANCH  99 100
ENDBRANCH  73  94
ENDBRANCH  47  48
ENDBRANCH  39  42
ENDBRANCH  37  38
ENDBRANCH  36  37
ENDBRANCH  35  36
ENDBRANCH   1  35
TORSDOF 20
ENDMDL
MODEL 2
REMARK VINA RESULT:     -10.7      5.858     11.410
REMARK SMILES O=C(NCCCCCCNC(=O)c1ccc(-c2c3nc(c(-c4ccc(S(=O)(=O)[O-])cc4)c4ccc([nH]4)c(-c4ccc(S(=O)(=O)[O-])cc4)c4nc(c(-c5ccc(S(=O)(=O)[O-])cc5)c5ccc2[nH]5)C=C4)C=C3)cc1)c1ccc(NC(=O)[C@@H]2CC=CC[C@@H]2C(=O)Nc2ccc(Br)cc2)cc1
REMARK SMILES IDX 6 1 5 2 4 3 3 4 1 5 2 6 73 8 74 9 97 10 75 11 96 12 76 13
REMARK SMILES IDX 77 14 78 15 79 17 80 18 81 19 85 20 82 21 84 22 83 23 86 24
REMARK SMILES IDX 87 25 88 26 89 28 90 29 95 30 91 31 94 32 92 33 93 34 7 35
REMARK SMILES IDX 8 36 9 37 10 38 11 39 12 41 13 42 14 43 72 44 15 45 71 46
REMARK SMILES IDX 16 47 17 48 18 49 65 50 19 51 70 52 64 53 66 54 20 55 69 56
REMARK SMILES IDX 63 57 62 58 21 60 51 61 32 62 50 63 33 64 36 65 49 66 67 67
REMARK SMILES IDX 34 68 35 69 48 71 68 72 37 73 22 74 23 75 31 76 24 77 30 78
REMARK SMILES IDX 25 79 26 80 27 81 28 82 29 83 52 84 53 85 61 86 54 87 60 88
REMARK SMILES IDX 55 89 56 90 57 91 58 92 59 93 38 94 39 95 47 96 40 97 46 98
REMARK SMILES IDX 41 99 42 100 43 101 44 102 45 103
REMARK H PARENT 3 7 77 16 88 27 10 40 66 59 36 70
REMARK Flexibility Score: inf
ROOT
ATOM      1  C   UNL A   1      39.409  26.155  27.652  1.00  0.00     0.002 C 
ENDROOT
BRANCH   1   2
ATOM      2  C   UNL A   1      39.409  24.626  27.651  1.00  0.00     0.021 C 
BRANCH   2   3
ATOM      3  C   UNL A   1      38.547  23.990  26.566  1.00  0.00     0.116 C 
BRANCH   3   4
ATOM      4  N   UNL A   1      38.960  22.627  26.262  1.00  0.00    -0.352 N 
ATOM      5  O   UNL A   1      38.646  20.509  25.485  1.00  0.00    -0.269 OA
ATOM      6  C   UNL A   1      38.237  21.657  25.611  1.00  0.00     0.251 C 
ATOM      7  H   UNL A   1      39.864  22.370  26.558  1.00  0.00     0.163 HD
BRANCH   6   8
ATOM      8  C   UNL A   1      36.927  22.047  25.070  1.00  0.00     0.039 A 
ATOM      9  C   UNL A   1      35.774  21.611  25.721  1.00  0.00     0.016 A 
ATOM     10  C   UNL A   1      36.858  22.710  23.843  1.00  0.00     0.016 A 
ATOM     11  C   UNL A   1      34.543  21.771  25.098  1.00  0.00     0.027 A 
ATOM     12  C   UNL A   1      35.618  22.859  23.218  1.00  0.00     0.027 A 
ATOM     13  C   UNL A   1      34.461  22.362  23.829  1.00  0.00     0.041 A 
BRANCH  13  14
ATOM     14  N   UNL A   1      33.229  22.484  23.149  1.00  0.00    -0.326 N 
ATOM     15  C   UNL A   1      32.622  23.706  22.983  1.00  0.00     0.228 C 
ATOM     16  H   UNL A   1      32.797  21.677  22.787  1.00  0.00     0.169 HD
ATOM     17  O   UNL A   1      32.992  24.450  22.077  1.00  0.00    -0.274 OA
BRANCH  15  18
ATOM     18  C   UNL A   1      31.644  24.121  24.087  1.00  0.00     0.095 C 
ATOM     19  C   UNL A   1      30.334  24.744  23.579  1.00  0.00     0.041 C 
ATOM     20  C   UNL A   1      32.324  24.860  25.254  1.00  0.00     0.095 C 
ATOM     21  C   UNL A   1      29.612  25.597  24.583  1.00  0.00    -0.030 C 
ATOM     22  C   UNL A   1      31.323  25.232  26.358  1.00  0.00     0.041 C 
ATOM     23  C   UNL A   1      30.049  25.808  25.830  1.00  0.00    -0.030 C 
BRANCH  20  24
ATOM     24  C   UNL A   1      33.432  25.923  25.140  1.00  0.00     0.228 C 
ATOM     25  O   UNL A   1      34.542  25.656  25.634  1.00  0.00    -0.274 OA
ATOM     26  N   UNL A   1      33.384  27.071  24.424  1.00  0.00    -0.326 N 
ATOM     27  H   UNL A   1      34.273  27.388  24.141  1.00  0.00     0.169 HD
BRANCH  26  28
ATOM     28  C   UNL A   1      32.351  27.900  24.001  1.00  0.00     0.041 A 
ATOM     29  C   UNL A   1      31.811  28.790  24.936  1.00  0.00     0.027 A 
ATOM     30  C   UNL A   1      31.789  27.807  22.734  1.00  0.00     0.027 A 
ATOM     31  C   UNL A   1      30.794  29.671  24.568  1.00  0.00     0.018 A 
ATOM     32  C   UNL A   1      30.750  28.671  22.368  1.00  0.00     0.018 A 
ATOM     33  C   UNL A   1      30.277  29.615  23.278  1.00  0.00     0.018 A 
ATOM     34  Br  UNL A   1      28.930  30.835  22.758  1.00  0.00    -0.051 Br
ENDBRANCH  26  28
ENDBRANCH  20  24
ENDBRANCH  15  18
ENDBRANCH  13  14
ENDBRANCH   6   8
ENDBRANCH   3   4
ENDBRANCH   2   3
ENDBRANCH   1   2
BRANCH   1  35
ATOM     35  C   UNL A   1      39.781  26.812  28.984  1.00  0.00     0.002 C 
BRANCH  35  36
ATOM     36  C   UNL A   1      38.634  27.507  29.726  1.00  0.00     0.021 C 
BRANCH  36  37
ATOM     37  C   UNL A   1      38.741  27.507  31.249  1.00  0.00     0.116 C 
BRANCH  37  38
ATOM     38  N   UNL A   1      38.522  28.821  31.825  1.00  0.00    -0.352 N 
ATOM     39  C   UNL A   1      39.371  29.898  31.895  1.00  0.00     0.251 C 
ATOM     40  H   UNL A   1      37.635  28.961  32.227  1.00  0.00     0.163 HD
ATOM     41  O   UNL A   1      39.050  30.883  32.554  1.00  0.00    -0.269 OA
BRANCH  39  42
ATOM     42  C   UNL A   1      40.678  29.868  31.200  1.00  0.00     0.039 A 
ATOM     43  C   UNL A   1      41.777  29.313  31.864  1.00  0.00     0.014 A 
ATOM     44  C   UNL A   1      40.832  30.397  29.916  1.00  0.00     0.014 A 
ATOM     45  C   UNL A   1      43.014  29.235  31.220  1.00  0.00     0.010 A 
ATOM     46  C   UNL A   1      42.052  30.268  29.252  1.00  0.00     0.010 A 
ATOM     47  C   UNL A   1      43.154  29.686  29.897  1.00  0.00    -0.014 A 
BRANCH  47  48
ATOM     48  C   UNL A   1      44.443  29.549  29.172  1.00  0.00     0.031 A 
ATOM     49  C   UNL A   1      44.746  28.300  28.389  1.00  0.00     0.074 A 
ATOM     50  C   UNL A   1      45.370  30.522  29.270  1.00  0.00     0.049 A 
ATOM     51  N   UNL A   1      45.840  27.973  27.750  1.00  0.00    -0.248 NA
ATOM     52  C   UNL A   1      43.690  27.277  28.335  1.00  0.00     0.031 C 
ATOM     53  C   UNL A   1      45.215  31.767  30.026  1.00  0.00     0.029 A 
ATOM     54  N   UNL A   1      46.631  30.613  28.737  1.00  0.00    -0.354 N 
ATOM     55  C   UNL A   1      45.613  26.702  27.236  1.00  0.00     0.074 A 
ATOM     56  C   UNL A   1      44.291  26.303  27.668  1.00  0.00     0.031 C 
ATOM     57  C   UNL A   1      46.330  32.504  29.893  1.00  0.00     0.029 A 
ATOM     58  C   UNL A   1      47.290  31.772  29.072  1.00  0.00     0.049 A 
ATOM     59  H   UNL A   1      47.027  29.914  28.168  1.00  0.00     0.167 HD
ATOM     60  C   UNL A   1      46.425  25.941  26.463  1.00  0.00     0.031 A 
ATOM     61  C   UNL A   1      48.528  32.199  28.759  1.00  0.00     0.031 A 
ATOM     62  C   UNL A   1      47.734  26.344  26.019  1.00  0.00     0.049 A 
ATOM     63  C   UNL A   1      49.408  31.341  27.894  1.00  0.00     0.074 A 
ATOM     64  C   UNL A   1      48.608  25.664  25.189  1.00  0.00     0.029 A 
ATOM     65  N   UNL A   1      48.355  27.534  26.363  1.00  0.00    -0.354 N 
ATOM     66  N   UNL A   1      49.155  30.163  27.377  1.00  0.00    -0.248 NA
ATOM     67  C   UNL A   1      50.737  31.875  27.564  1.00  0.00     0.031 C 
ATOM     68  C   UNL A   1      49.774  26.427  25.062  1.00  0.00     0.029 A 
ATOM     69  C   UNL A   1      49.607  27.602  25.778  1.00  0.00     0.049 A 
ATOM     70  H   UNL A   1      47.963  28.230  26.941  1.00  0.00     0.167 HD
ATOM     71  C   UNL A   1      50.284  29.825  26.640  1.00  0.00     0.074 A 
ATOM     72  C   UNL A   1      51.216  30.925  26.770  1.00  0.00     0.031 C 
ATOM     73  C   UNL A   1      50.525  28.703  25.918  1.00  0.00     0.031 A 
BRANCH  60  74
ATOM     74  C   UNL A   1      45.918  24.584  26.055  1.00  0.00    -0.014 A 
ATOM     75  C   UNL A   1      45.410  24.359  24.763  1.00  0.00     0.010 A 
ATOM     76  C   UNL A   1      45.976  23.514  26.965  1.00  0.00     0.010 A 
ATOM     77  C   UNL A   1      44.925  23.100  24.403  1.00  0.00     0.020 A 
ATOM     78  C   UNL A   1      45.514  22.245  26.601  1.00  0.00     0.020 A 
ATOM     79  C   UNL A   1      44.973  22.052  25.328  1.00  0.00     0.054 A 
BRANCH  79  80
ATOM     80  S   UNL A   1      44.344  20.423  24.836  1.00  0.00     0.124 S 
ATOM     81  O   UNL A   1      45.240  19.525  25.560  1.00  0.00    -0.237 OA
ATOM     82  O   UNL A   1      42.964  20.452  25.314  1.00  0.00    -0.237 OA
ATOM     83  O   UNL A   1      44.495  20.419  23.384  1.00  0.00    -0.744 OA
ENDBRANCH  79  80
ENDBRANCH  60  74
BRANCH  61  84
ATOM     84  C   UNL A   1      49.002  33.519  29.254  1.00  0.00    -0.014 A 
ATOM     85  C   UNL A   1      49.617  33.625  30.513  1.00  0.00     0.010 A 
ATOM     86  C   UNL A   1      48.859  34.671  28.460  1.00  0.00     0.010 A 
ATOM     87  C   UNL A   1      50.069  34.864  30.977  1.00  0.00     0.020 A 
ATOM     88  C   UNL A   1      49.330  35.906  28.910  1.00  0.00     0.020 A 
ATOM     89  C   UNL A   1      49.923  35.997  30.172  1.00  0.00     0.054 A 
BRANCH  89  90
ATOM     90  S   UNL A   1      50.571  37.585  30.764  1.00  0.00     0.124 S 
ATOM     91  O   UNL A   1      50.419  38.431  29.585  1.00  0.00    -0.237 OA
ATOM     92  O   UNL A   1      49.684  37.893  31.883  1.00  0.00    -0.237 OA
ATOM     93  O   UNL A   1      51.947  37.271  31.139  1.00  0.00    -0.744 OA
ENDBRANCH  89  90
ENDBRANCH  61  84
BRANCH  73  94
ATOM     94  C   UNL A   1      51.837  28.620  25.189  1.00  0.00    -0.014 A 
ATOM     95  C   UNL A   1      53.004  28.189  25.844  1.00  0.00     0.010 A 
ATOM     96  C   UNL A   1      51.892  28.929  23.818  1.00  0.00     0.010 A 
ATOM     97  C   UNL A   1      54.210  28.093  25.145  1.00  0.00     0.020 A 
ATOM     98  C   UNL A   1      53.091  28.814  23.111  1.00  0.00     0.020 A 
ATOM     99  C   UNL A   1      54.247  28.409  23.782  1.00  0.00     0.054 A 
BRANCH  99 100
ATOM    100  S   UNL A   1      55.812  28.234  22.883  1.00  0.00     0.124 S 
ATOM    101  O   UNL A   1      55.677  26.904  22.296  1.00  0.00    -0.237 OA
ATOM    102  O   UNL A   1      55.769  29.346  21.937  1.00  0.00    -0.237 OA
ATOM    103  O   UNL A   1      56.826  28.354  23.929  1.00  0.00    -0.744 OA
ENDBRANCH  99 100
ENDBRANCH  73  94
ENDBRANCH  47  48
ENDBRANCH  39  42
ENDBRANCH  37  38
ENDBRANCH  36  37
ENDBRANCH  35  36
ENDBRANCH   1  35
TORSDOF 20
ENDMDL
MODEL 3
REMARK VINA RESULT:     -10.5      7.157     12.480
REMARK SMILES O=C(NCCCCCCNC(=O)c1ccc(-c2c3nc(c(-c4ccc(S(=O)(=O)[O-])cc4)c4ccc([nH]4)c(-c4ccc(S(=O)(=O)[O-])cc4)c4nc(c(-c5ccc(S(=O)(=O)[O-])cc5)c5ccc2[nH]5)C=C4)C=C3)cc1)c1ccc(NC(=O)[C@@H]2CC=CC[C@@H]2C(=O)Nc2ccc(Br)cc2)cc1
REMARK SMILES IDX 6 1 5 2 4 3 3 4 1 5 2 6 73 8 74 9 97 10 75 11 96 12 76 13
REMARK SMILES IDX 77 14 78 15 79 17 80 18 81 19 85 20 82 21 84 22 83 23 86 24
REMARK SMILES IDX 87 25 88 26 89 28 90 29 95 30 91 31 94 32 92 33 93 34 7 35
REMARK SMILES IDX 8 36 9 37 10 38 11 39 12 41 13 42 14 43 72 44 15 45 71 46
REMARK SMILES IDX 16 47 17 48 18 49 65 50 19 51 70 52 64 53 66 54 20 55 69 56
REMARK SMILES IDX 63 57 62 58 21 60 51 61 32 62 50 63 33 64 36 65 49 66 67 67
REMARK SMILES IDX 34 68 35 69 48 71 68 72 37 73 22 74 23 75 31 76 24 77 30 78
REMARK SMILES IDX 25 79 26 80 27 81 28 82 29 83 52 84 53 85 61 86 54 87 60 88
REMARK SMILES IDX 55 89 56 90 57 91 58 92 59 93 38 94 39 95 47 96 40 97 46 98
REMARK SMILES IDX 41 99 42 100 43 101 44 102 45 103
REMARK H PARENT 3 7 77 16 88 27 10 40 66 59 36 70
REMARK Flexibility Score: inf
ROOT
ATOM      1  C   UNL A   1      41.716  22.492  27.562  1.00  0.00     0.002 C 
ENDROOT
BRANCH   1   2
ATOM      2  C   UNL A   1      41.335  23.254  26.293  1.00  0.00     0.021 C 
BRANCH   2   3
ATOM      3  C   UNL A   1      41.001  24.726  26.510  1.00  0.00     0.116 C 
BRANCH   3   4
ATOM      4  N   UNL A   1      40.046  24.921  27.593  1.00  0.00    -0.352 N 
ATOM      5  O   UNL A   1      39.095  26.074  29.311  1.00  0.00    -0.269 OA
ATOM      6  C   UNL A   1      39.869  26.045  28.362  1.00  0.00     0.251 C 
ATOM      7  H   UNL A   1      39.460  24.156  27.799  1.00  0.00     0.163 HD
BRANCH   6   8
ATOM      8  C   UNL A   1      40.660  27.232  28.006  1.00  0.00     0.039 A 
ATOM      9  C   UNL A   1      40.236  28.027  26.942  1.00  0.00     0.016 A 
ATOM     10  C   UNL A   1      41.888  27.456  28.633  1.00  0.00     0.016 A 
ATOM     11  C   UNL A   1      41.088  29.008  26.449  1.00  0.00     0.027 A 
ATOM     12  C   UNL A   1      42.742  28.437  28.126  1.00  0.00     0.027 A 
ATOM     13  C   UNL A   1      42.358  29.194  27.013  1.00  0.00     0.041 A 
BRANCH  13  14
ATOM     14  N   UNL A   1      43.265  30.144  26.494  1.00  0.00    -0.326 N 
ATOM     15  C   UNL A   1      44.547  30.248  26.977  1.00  0.00     0.228 C 
ATOM     16  H   UNL A   1      42.972  30.745  25.770  1.00  0.00     0.169 HD
ATOM     17  O   UNL A   1      45.412  29.470  26.579  1.00  0.00    -0.274 OA
BRANCH  15  18
ATOM     18  C   UNL A   1      44.744  31.226  28.140  1.00  0.00     0.095 C 
ATOM     19  C   UNL A   1      43.490  32.031  28.517  1.00  0.00     0.041 C 
ATOM     20  C   UNL A   1      46.050  32.036  28.038  1.00  0.00     0.095 C 
ATOM     21  C   UNL A   1      43.762  33.307  29.262  1.00  0.00    -0.030 C 
ATOM     22  C   UNL A   1      46.233  32.982  29.234  1.00  0.00     0.041 C 
ATOM     23  C   UNL A   1      44.988  33.729  29.592  1.00  0.00    -0.030 C 
BRANCH  20  24
ATOM     24  C   UNL A   1      46.644  32.652  26.758  1.00  0.00     0.228 C 
ATOM     25  O   UNL A   1      47.666  32.125  26.284  1.00  0.00    -0.274 OA
ATOM     26  N   UNL A   1      46.092  33.622  25.992  1.00  0.00    -0.326 N 
ATOM     27  H   UNL A   1      46.382  33.585  25.051  1.00  0.00     0.169 HD
BRANCH  26  28
ATOM     28  C   UNL A   1      45.201  34.660  26.246  1.00  0.00     0.041 A 
ATOM     29  C   UNL A   1      43.866  34.473  25.874  1.00  0.00     0.027 A 
ATOM     30  C   UNL A   1      45.608  35.884  26.762  1.00  0.00     0.027 A 
ATOM     31  C   UNL A   1      42.915  35.461  26.129  1.00  0.00     0.018 A 
ATOM     32  C   UNL A   1      44.662  36.889  26.996  1.00  0.00     0.018 A 
ATOM     33  C   UNL A   1      43.318  36.663  26.703  1.00  0.00     0.018 A 
ATOM     34  Br  UNL A   1      42.030  37.989  27.094  1.00  0.00    -0.051 Br
ENDBRANCH  26  28
ENDBRANCH  20  24
ENDBRANCH  15  18
ENDBRANCH  13  14
ENDBRANCH   6   8
ENDBRANCH   3   4
ENDBRANCH   2   3
ENDBRANCH   1   2
BRANCH   1  35
ATOM     35  C   UNL A   1      41.293  21.021  27.598  1.00  0.00     0.002 C 
BRANCH  35  36
ATOM     36  C   UNL A   1      41.503  20.236  26.300  1.00  0.00     0.021 C 
BRANCH  36  37
ATOM     37  C   UNL A   1      42.745  19.349  26.261  1.00  0.00     0.116 C 
BRANCH  37  38
ATOM     38  N   UNL A   1      43.292  19.210  24.924  1.00  0.00    -0.352 N 
ATOM     39  C   UNL A   1      44.067  20.082  24.200  1.00  0.00     0.251 C 
ATOM     40  H   UNL A   1      43.076  18.364  24.468  1.00  0.00     0.163 HD
ATOM     41  O   UNL A   1      44.313  19.842  23.022  1.00  0.00    -0.269 OA
BRANCH  39  42
ATOM     42  C   UNL A   1      44.583  21.321  24.826  1.00  0.00     0.039 A 
ATOM     43  C   UNL A   1      45.504  21.210  25.872  1.00  0.00     0.014 A 
ATOM     44  C   UNL A   1      44.152  22.582  24.405  1.00  0.00     0.014 A 
ATOM     45  C   UNL A   1      46.037  22.361  26.456  1.00  0.00     0.010 A 
ATOM     46  C   UNL A   1      44.727  23.731  24.950  1.00  0.00     0.010 A 
ATOM     47  C   UNL A   1      45.675  23.631  25.979  1.00  0.00    -0.014 A 
BRANCH  47  48
ATOM     48  C   UNL A   1      46.283  24.864  26.542  1.00  0.00     0.031 A 
ATOM     49  C   UNL A   1      47.458  25.511  25.861  1.00  0.00     0.074 A 
ATOM     50  C   UNL A   1      45.817  25.368  27.702  1.00  0.00     0.049 A 
ATOM     51  N   UNL A   1      48.161  26.549  26.238  1.00  0.00    -0.248 NA
ATOM     52  C   UNL A   1      47.916  24.900  24.603  1.00  0.00     0.031 C 
ATOM     53  C   UNL A   1      44.706  24.815  28.481  1.00  0.00     0.029 A 
ATOM     54  N   UNL A   1      46.228  26.454  28.434  1.00  0.00    -0.354 N 
ATOM     55  C   UNL A   1      49.154  26.702  25.279  1.00  0.00     0.074 A 
ATOM     56  C   UNL A   1      48.985  25.630  24.321  1.00  0.00     0.031 C 
ATOM     57  C   UNL A   1      44.512  25.577  29.570  1.00  0.00     0.029 A 
ATOM     58  C   UNL A   1      45.503  26.649  29.586  1.00  0.00     0.049 A 
ATOM     59  H   UNL A   1      46.970  27.038  28.160  1.00  0.00     0.167 HD
ATOM     60  C   UNL A   1      50.112  27.657  25.193  1.00  0.00     0.031 A 
ATOM     61  C   UNL A   1      45.623  27.581  30.550  1.00  0.00     0.031 A 
ATOM     62  C   UNL A   1      50.271  28.733  26.136  1.00  0.00     0.049 A 
ATOM     63  C   UNL A   1      46.688  28.635  30.430  1.00  0.00     0.074 A 
ATOM     64  C   UNL A   1      51.178  29.778  26.103  1.00  0.00     0.029 A 
ATOM     65  N   UNL A   1      49.504  28.906  27.277  1.00  0.00    -0.354 N 
ATOM     66  N   UNL A   1      47.586  28.792  29.488  1.00  0.00    -0.248 NA
ATOM     67  C   UNL A   1      46.750  29.640  31.499  1.00  0.00     0.031 C 
ATOM     68  C   UNL A   1      50.983  30.563  27.245  1.00  0.00     0.029 A 
ATOM     69  C   UNL A   1      49.925  30.030  27.966  1.00  0.00     0.049 A 
ATOM     70  H   UNL A   1      48.766  28.315  27.557  1.00  0.00     0.167 HD
ATOM     71  C   UNL A   1      48.305  29.929  29.839  1.00  0.00     0.074 A 
ATOM     72  C   UNL A   1      47.732  30.425  31.072  1.00  0.00     0.031 C 
ATOM     73  C   UNL A   1      49.346  30.511  29.194  1.00  0.00     0.031 A 
BRANCH  60  74
ATOM     74  C   UNL A   1      51.073  27.571  24.038  1.00  0.00    -0.014 A 
ATOM     75  C   UNL A   1      50.765  28.155  22.796  1.00  0.00     0.010 A 
ATOM     76  C   UNL A   1      52.309  26.922  24.203  1.00  0.00     0.010 A 
ATOM     77  C   UNL A   1      51.657  28.052  21.726  1.00  0.00     0.020 A 
ATOM     78  C   UNL A   1      53.216  26.837  23.142  1.00  0.00     0.020 A 
ATOM     79  C   UNL A   1      52.874  27.386  21.903  1.00  0.00     0.054 A 
BRANCH  79  80
ATOM     80  S   UNL A   1      54.019  27.270  20.502  1.00  0.00     0.124 S 
ATOM     81  O   UNL A   1      53.292  26.387  19.593  1.00  0.00    -0.237 OA
ATOM     82  O   UNL A   1      54.138  28.659  20.066  1.00  0.00    -0.237 OA
ATOM     83  O   UNL A   1      55.229  26.701  21.090  1.00  0.00    -0.744 OA
ENDBRANCH  79  80
ENDBRANCH  60  74
BRANCH  61  84
ATOM     84  C   UNL A   1      44.691  27.571  31.709  1.00  0.00    -0.014 A 
ATOM     85  C   UNL A   1      44.962  26.770  32.831  1.00  0.00     0.010 A 
ATOM     86  C   UNL A   1      43.537  28.376  31.701  1.00  0.00     0.010 A 
ATOM     87  C   UNL A   1      44.090  26.764  33.923  1.00  0.00     0.020 A 
ATOM     88  C   UNL A   1      42.675  28.390  32.801  1.00  0.00     0.020 A 
ATOM     89  C   UNL A   1      42.952  27.575  33.902  1.00  0.00     0.054 A 
BRANCH  89  90
ATOM     90  S   UNL A   1      41.863  27.602  35.353  1.00  0.00     0.124 S 
ATOM     91  O   UNL A   1      42.810  27.852  36.435  1.00  0.00    -0.237 OA
ATOM     92  O   UNL A   1      40.950  28.700  35.045  1.00  0.00    -0.237 OA
ATOM     93  O   UNL A   1      41.255  26.275  35.344  1.00  0.00    -0.744 OA
ENDBRANCH  89  90
ENDBRANCH  61  84
BRANCH  73  94
ATOM     94  C   UNL A   1      49.915  31.766  29.794  1.00  0.00    -0.014 A 
ATOM     95  C   UNL A   1      49.478  33.034  29.375  1.00  0.00     0.010 A 
ATOM     96  C   UNL A   1      50.865  31.673  30.827  1.00  0.00     0.010 A 
ATOM     97  C   UNL A   1      50.000  34.190  29.961  1.00  0.00     0.020 A 
ATOM     98  C   UNL A   1      51.373  32.825  31.430  1.00  0.00     0.020 A 
ATOM     99  C   UNL A   1      50.948  34.078  30.984  1.00  0.00     0.054 A 
BRANCH  99 100
ATOM    100  S   UNL A   1      51.578  35.589  31.764  1.00  0.00     0.124 S 
ATOM    101  O   UNL A   1      52.481  36.105  30.740  1.00  0.00    -0.237 OA
ATOM    102  O   UNL A   1      50.363  36.372  31.982  1.00  0.00    -0.237 OA
ATOM    103  O   UNL A   1      52.225  35.105  32.982  1.00  0.00    -0.744 OA
ENDBRANCH  99 100
ENDBRANCH  73  94
ENDBRANCH  47  48
ENDBRANCH  39  42
ENDBRANCH  37  38
ENDBRANCH  36  37
ENDBRANCH  35  36
ENDBRANCH   1  35
TORSDOF 20
ENDMDL
