MODEL 1
REMARK VINA RESULT:     -11.4      0.000      0.000
REMARK SMILES Cc1cc(C(=O)N[C@@H]2C(=O)N3C(C(=O)NCCCCCCNC(=O)c4ccc(-c5c6nc(c(-c7ccc(S(=O)(=O)[O-])cc7)c7ccc([nH]7)c(-c7ccc(S(=O)(=O)[O-])cc7)c7nc(c(-c8ccc(S(=O)(=O)[O-])cc8)c8ccc5[nH]8)C=C7)C=C6)cc4)=C(CSc4nnc(C)s4)CS[C@H]23)n(C)n1
REMARK SMILES IDX 18 1 17 2 16 3 15 4 13 5 14 6 12 8 8 9 9 10 96 11 10 12
REMARK SMILES IDX 11 13 95 14 94 15 85 16 7 17 5 18 6 19 4 21 1 22 2 23 3 24
REMARK SMILES IDX 99 25 97 26 98 27 86 28 87 29 88 30 89 31 93 32 90 33 91 34
REMARK SMILES IDX 92 35 19 36 20 37 21 38 22 39 23 40 24 42 25 43 26 44 84 45
REMARK SMILES IDX 27 46 83 47 28 48 29 49 30 50 77 51 31 52 82 53 76 54 78 55
REMARK SMILES IDX 32 56 81 57 75 58 74 59 33 61 63 62 44 63 62 64 45 65 48 66
REMARK SMILES IDX 61 67 79 68 46 69 47 70 60 72 80 73 49 74 34 75 35 76 43 77
REMARK SMILES IDX 36 78 42 79 37 80 38 81 39 82 40 83 41 84 64 85 65 86 73 87
REMARK SMILES IDX 66 88 72 89 67 90 68 91 69 92 70 93 71 94 50 95 51 96 59 97
REMARK SMILES IDX 52 98 58 99 53 100 54 101 55 102 56 103 57 104
REMARK H PARENT 15 7 7 20 22 41 78 60 48 71
REMARK Flexibility Score: inf
ROOT
ATOM      1  C   UNL A   1      39.989  22.332  26.715  1.00  0.00     0.002 C 
ENDROOT
BRANCH   1   2
ATOM      2  C   UNL A   1      38.759  23.198  26.956  1.00  0.00     0.021 C 
BRANCH   2   3
ATOM      3  C   UNL A   1      37.767  23.320  25.791  1.00  0.00     0.116 C 
BRANCH   3   4
ATOM      4  N   UNL A   1      37.161  22.034  25.503  1.00  0.00    -0.351 N 
ATOM      5  C   UNL A   1      35.931  21.480  25.422  1.00  0.00     0.268 C 
ATOM      6  O   UNL A   1      35.977  20.348  24.920  1.00  0.00    -0.268 OA
ATOM      7  H   UNL A   1      37.854  21.364  25.307  1.00  0.00     0.163 HD
BRANCH   5   8
ATOM      8  C   UNL A   1      34.556  22.133  25.675  1.00  0.00     0.111 C 
ATOM      9  C   UNL A   1      34.247  25.448  24.752  1.00  0.00     0.206 C 
ATOM     10  C   UNL A   1      34.964  24.166  24.249  1.00  0.00     0.253 C 
ATOM     11  C   UNL A   1      33.566  24.454  25.734  1.00  0.00     0.181 C 
ATOM     12  O   UNL A   1      35.524  23.864  23.203  1.00  0.00    -0.272 OA
ATOM     13  N   UNL A   1      34.589  23.494  25.376  1.00  0.00    -0.290 N 
ATOM     14  S   UNL A   1      31.951  23.787  25.241  1.00  0.00    -0.129 SA
ATOM     15  C   UNL A   1      32.152  22.456  26.424  1.00  0.00     0.106 C 
ATOM     16  C   UNL A   1      33.348  21.594  26.037  1.00  0.00    -0.020 C 
BRANCH   9  17
ATOM     17  N   UNL A   1      33.422  26.222  23.784  1.00  0.00    -0.336 N 
ATOM     18  C   UNL A   1      32.895  27.496  23.896  1.00  0.00     0.270 C 
ATOM     19  O   UNL A   1      32.260  27.936  22.939  1.00  0.00    -0.268 OA
ATOM     20  H   UNL A   1      33.223  25.758  22.939  1.00  0.00     0.164 HD
BRANCH  18  21
ATOM     21  C   UNL A   1      33.052  28.211  25.144  1.00  0.00     0.126 A 
ATOM     22  C   UNL A   1      35.064  29.626  27.828  1.00  0.00     0.069 C 
ATOM     23  C   UNL A   1      33.994  29.135  26.927  1.00  0.00     0.060 A 
ATOM     24  C   UNL A   1      33.934  29.215  25.518  1.00  0.00     0.059 A 
ATOM     25  N   UNL A   1      32.972  28.428  27.408  1.00  0.00    -0.178 NA
ATOM     26  N   UNL A   1      32.354  27.948  26.304  1.00  0.00    -0.263 N 
ATOM     27  C   UNL A   1      31.139  27.193  26.499  1.00  0.00     0.174 C 
ENDBRANCH  18  21
ENDBRANCH   9  17
BRANCH  16  28
ATOM     28  C   UNL A   1      32.896  20.157  25.912  1.00  0.00     0.111 C 
BRANCH  28  29
ATOM     29  S   UNL A   1      32.707  19.732  24.188  1.00  0.00    -0.089 SA
BRANCH  29  30
ATOM     30  C   UNL A   1      32.968  18.042  24.043  1.00  0.00     0.174 A 
ATOM     31  N   UNL A   1      33.299  17.432  22.930  1.00  0.00    -0.132 NA
ATOM     32  S   UNL A   1      33.239  17.129  25.465  1.00  0.00    -0.091 S 
ATOM     33  N   UNL A   1      34.090  16.324  23.201  1.00  0.00    -0.143 NA
ATOM     34  C   UNL A   1      34.288  16.182  24.498  1.00  0.00     0.115 A 
ATOM     35  C   UNL A   1      35.383  15.422  25.138  1.00  0.00     0.081 C 
ENDBRANCH  29  30
ENDBRANCH  28  29
ENDBRANCH  16  28
ENDBRANCH   5   8
ENDBRANCH   3   4
ENDBRANCH   2   3
ENDBRANCH   1   2
BRANCH   1  36
ATOM     36  C   UNL A   1      40.998  22.339  27.858  1.00  0.00     0.002 C 
BRANCH  36  37
ATOM     37  C   UNL A   1      42.467  22.400  27.427  1.00  0.00     0.021 C 
BRANCH  37  38
ATOM     38  C   UNL A   1      43.067  23.804  27.389  1.00  0.00     0.116 C 
BRANCH  38  39
ATOM     39  N   UNL A   1      42.660  24.531  26.196  1.00  0.00    -0.352 N 
ATOM     40  C   UNL A   1      41.856  25.638  26.090  1.00  0.00     0.251 C 
ATOM     41  H   UNL A   1      43.010  24.179  25.346  1.00  0.00     0.163 HD
ATOM     42  O   UNL A   1      41.384  25.959  25.004  1.00  0.00    -0.269 OA
BRANCH  40  43
ATOM     43  C   UNL A   1      41.569  26.437  27.296  1.00  0.00     0.039 A 
ATOM     44  C   UNL A   1      40.529  26.054  28.147  1.00  0.00     0.014 A 
ATOM     45  C   UNL A   1      42.334  27.572  27.577  1.00  0.00     0.014 A 
ATOM     46  C   UNL A   1      40.292  26.785  29.313  1.00  0.00     0.010 A 
ATOM     47  C   UNL A   1      42.146  28.250  28.774  1.00  0.00     0.010 A 
ATOM     48  C   UNL A   1      41.115  27.872  29.647  1.00  0.00    -0.014 A 
BRANCH  48  49
ATOM     49  C   UNL A   1      40.906  28.666  30.884  1.00  0.00     0.031 A 
ATOM     50  C   UNL A   1      39.822  29.709  30.916  1.00  0.00     0.074 A 
ATOM     51  C   UNL A   1      41.740  28.516  31.931  1.00  0.00     0.049 A 
ATOM     52  N   UNL A   1      39.564  30.604  31.834  1.00  0.00    -0.248 NA
ATOM     53  C   UNL A   1      38.931  29.774  29.745  1.00  0.00     0.031 C 
ATOM     54  C   UNL A   1      42.842  27.555  32.011  1.00  0.00     0.029 A 
ATOM     55  N   UNL A   1      41.800  29.188  33.127  1.00  0.00    -0.354 N 
ATOM     56  C   UNL A   1      38.504  31.355  31.339  1.00  0.00     0.074 A 
ATOM     57  C   UNL A   1      38.200  30.843  30.021  1.00  0.00     0.031 C 
ATOM     58  C   UNL A   1      43.457  27.688  33.197  1.00  0.00     0.029 A 
ATOM     59  C   UNL A   1      42.828  28.775  33.941  1.00  0.00     0.049 A 
ATOM     60  H   UNL A   1      41.167  29.900  33.377  1.00  0.00     0.167 HD
ATOM     61  C   UNL A   1      37.830  32.366  31.936  1.00  0.00     0.031 A 
ATOM     62  C   UNL A   1      43.230  29.233  35.143  1.00  0.00     0.031 A 
ATOM     63  C   UNL A   1      38.130  32.859  33.253  1.00  0.00     0.049 A 
ATOM     64  C   UNL A   1      42.480  30.372  35.780  1.00  0.00     0.074 A 
ATOM     65  C   UNL A   1      37.479  33.846  33.971  1.00  0.00     0.029 A 
ATOM     66  N   UNL A   1      39.167  32.399  34.053  1.00  0.00    -0.354 N 
ATOM     67  N   UNL A   1      41.449  31.040  35.318  1.00  0.00    -0.248 NA
ATOM     68  C   UNL A   1      42.940  30.813  37.104  1.00  0.00     0.031 C 
ATOM     69  C   UNL A   1      38.157  34.024  35.181  1.00  0.00     0.029 A 
ATOM     70  C   UNL A   1      39.186  33.097  35.247  1.00  0.00     0.049 A 
ATOM     71  H   UNL A   1      39.796  31.683  33.806  1.00  0.00     0.167 HD
ATOM     72  C   UNL A   1      41.112  31.952  36.312  1.00  0.00     0.074 A 
ATOM     73  C   UNL A   1      42.046  31.747  37.401  1.00  0.00     0.031 C 
ATOM     74  C   UNL A   1      40.115  32.870  36.326  1.00  0.00     0.031 A 
BRANCH  61  75
ATOM     75  C   UNL A   1      36.712  33.013  31.161  1.00  0.00    -0.014 A 
ATOM     76  C   UNL A   1      35.366  32.820  31.522  1.00  0.00     0.010 A 
ATOM     77  C   UNL A   1      37.011  33.852  30.071  1.00  0.00     0.010 A 
ATOM     78  C   UNL A   1      34.340  33.411  30.780  1.00  0.00     0.020 A 
ATOM     79  C   UNL A   1      35.990  34.474  29.347  1.00  0.00     0.020 A 
ATOM     80  C   UNL A   1      34.660  34.233  29.695  1.00  0.00     0.054 A 
BRANCH  80  81
ATOM     81  S   UNL A   1      33.308  35.001  28.761  1.00  0.00     0.124 S 
ATOM     82  O   UNL A   1      32.783  33.866  28.005  1.00  0.00    -0.237 OA
ATOM     83  O   UNL A   1      32.437  35.508  29.818  1.00  0.00    -0.237 OA
ATOM     84  O   UNL A   1      33.976  36.024  27.961  1.00  0.00    -0.744 OA
ENDBRANCH  80  81
ENDBRANCH  61  75
BRANCH  62  85
ATOM     85  C   UNL A   1      44.393  28.602  35.829  1.00  0.00    -0.014 A 
ATOM     86  C   UNL A   1      44.206  27.503  36.685  1.00  0.00     0.010 A 
ATOM     87  C   UNL A   1      45.696  29.089  35.618  1.00  0.00     0.010 A 
ATOM     88  C   UNL A   1      45.296  26.914  37.332  1.00  0.00     0.020 A 
ATOM     89  C   UNL A   1      46.792  28.484  36.238  1.00  0.00     0.020 A 
ATOM     90  C   UNL A   1      46.584  27.407  37.102  1.00  0.00     0.054 A 
BRANCH  90  91
ATOM     91  S   UNL A   1      47.989  26.592  37.911  1.00  0.00     0.124 S 
ATOM     92  O   UNL A   1      49.100  27.465  37.543  1.00  0.00    -0.237 OA
ATOM     93  O   UNL A   1      47.599  26.618  39.318  1.00  0.00    -0.237 OA
ATOM     94  O   UNL A   1      48.008  25.263  37.302  1.00  0.00    -0.744 OA
ENDBRANCH  90  91
ENDBRANCH  62  85
BRANCH  74  95
ATOM     95  C   UNL A   1      39.933  33.688  37.578  1.00  0.00    -0.014 A 
ATOM     96  C   UNL A   1      40.680  34.855  37.811  1.00  0.00     0.010 A 
ATOM     97  C   UNL A   1      38.932  33.318  38.497  1.00  0.00     0.010 A 
ATOM     98  C   UNL A   1      40.445  35.627  38.953  1.00  0.00     0.020 A 
ATOM     99  C   UNL A   1      38.674  34.103  39.623  1.00  0.00     0.020 A 
ATOM    100  C   UNL A   1      39.439  35.247  39.848  1.00  0.00     0.054 A 
BRANCH 100 101
ATOM    101  S   UNL A   1      39.111  36.300  41.288  1.00  0.00     0.124 S 
ATOM    102  O   UNL A   1      38.807  37.584  40.664  1.00  0.00    -0.237 OA
ATOM    103  O   UNL A   1      37.980  35.626  41.924  1.00  0.00    -0.237 OA
ATOM    104  O   UNL A   1      40.360  36.255  42.044  1.00  0.00    -0.744 OA
ENDBRANCH 100 101
ENDBRANCH  74  95
ENDBRANCH  48  49
ENDBRANCH  40  43
ENDBRANCH  38  39
ENDBRANCH  37  38
ENDBRANCH  36  37
ENDBRANCH   1  36
TORSDOF 21
ENDMDL
MODEL 2
REMARK VINA RESULT:     -11.1      5.973     12.041
REMARK SMILES Cc1cc(C(=O)N[C@@H]2C(=O)N3C(C(=O)NCCCCCCNC(=O)c4ccc(-c5c6nc(c(-c7ccc(S(=O)(=O)[O-])cc7)c7ccc([nH]7)c(-c7ccc(S(=O)(=O)[O-])cc7)c7nc(c(-c8ccc(S(=O)(=O)[O-])cc8)c8ccc5[nH]8)C=C7)C=C6)cc4)=C(CSc4nnc(C)s4)CS[C@H]23)n(C)n1
REMARK SMILES IDX 18 1 17 2 16 3 15 4 13 5 14 6 12 8 8 9 9 10 96 11 10 12
REMARK SMILES IDX 11 13 95 14 94 15 85 16 7 17 5 18 6 19 4 21 1 22 2 23 3 24
REMARK SMILES IDX 99 25 97 26 98 27 86 28 87 29 88 30 89 31 93 32 90 33 91 34
REMARK SMILES IDX 92 35 19 36 20 37 21 38 22 39 23 40 24 42 25 43 26 44 84 45
REMARK SMILES IDX 27 46 83 47 28 48 29 49 30 50 77 51 31 52 82 53 76 54 78 55
REMARK SMILES IDX 32 56 81 57 75 58 74 59 33 61 63 62 44 63 62 64 45 65 48 66
REMARK SMILES IDX 61 67 79 68 46 69 47 70 60 72 80 73 49 74 34 75 35 76 43 77
REMARK SMILES IDX 36 78 42 79 37 80 38 81 39 82 40 83 41 84 64 85 65 86 73 87
REMARK SMILES IDX 66 88 72 89 67 90 68 91 69 92 70 93 71 94 50 95 51 96 59 97
REMARK SMILES IDX 52 98 58 99 53 100 54 101 55 102 56 103 57 104
REMARK H PARENT 15 7 7 20 22 41 78 60 48 71
REMARK Flexibility Score: inf
ROOT
ATOM      1  C   UNL A   1      33.543  29.423  26.060  1.00  0.00     0.002 C 
ENDROOT
BRANCH   1   2
ATOM      2  C   UNL A   1      32.155  29.172  26.635  1.00  0.00     0.021 C 
BRANCH   2   3
ATOM      3  C   UNL A   1      32.025  28.012  27.632  1.00  0.00     0.116 C 
BRANCH   3   4
ATOM      4  N   UNL A   1      30.956  27.116  27.234  1.00  0.00    -0.351 N 
ATOM      5  C   UNL A   1      30.708  26.175  26.297  1.00  0.00     0.268 C 
ATOM      6  O   UNL A   1      29.667  25.550  26.547  1.00  0.00    -0.268 OA
ATOM      7  H   UNL A   1      30.176  27.228  27.824  1.00  0.00     0.163 HD
BRANCH   5   8
ATOM      8  C   UNL A   1      31.617  25.688  25.150  1.00  0.00     0.111 C 
ATOM      9  C   UNL A   1      33.825  23.147  25.925  1.00  0.00     0.206 C 
ATOM     10  C   UNL A   1      32.382  23.582  26.296  1.00  0.00     0.253 C 
ATOM     11  C   UNL A   1      33.695  24.283  24.873  1.00  0.00     0.181 C 
ATOM     12  O   UNL A   1      31.451  23.029  26.867  1.00  0.00    -0.272 OA
ATOM     13  N   UNL A   1      32.541  24.751  25.610  1.00  0.00    -0.290 N 
ATOM     14  S   UNL A   1      33.160  23.803  23.205  1.00  0.00    -0.129 SA
ATOM     15  C   UNL A   1      32.717  25.507  22.869  1.00  0.00     0.106 C 
ATOM     16  C   UNL A   1      31.595  25.946  23.803  1.00  0.00    -0.020 C 
BRANCH   9  17
ATOM     17  N   UNL A   1      34.047  21.742  25.481  1.00  0.00    -0.336 N 
ATOM     18  C   UNL A   1      35.230  21.083  25.202  1.00  0.00     0.270 C 
ATOM     19  O   UNL A   1      35.160  19.900  24.874  1.00  0.00    -0.268 OA
ATOM     20  H   UNL A   1      33.230  21.204  25.371  1.00  0.00     0.164 HD
BRANCH  18  21
ATOM     21  C   UNL A   1      36.472  21.826  25.240  1.00  0.00     0.126 A 
ATOM     22  C   UNL A   1      38.878  24.019  26.867  1.00  0.00     0.069 C 
ATOM     23  C   UNL A   1      38.093  23.163  25.945  1.00  0.00     0.060 A 
ATOM     24  C   UNL A   1      37.435  21.947  26.231  1.00  0.00     0.059 A 
ATOM     25  N   UNL A   1      37.840  23.562  24.699  1.00  0.00    -0.178 NA
ATOM     26  N   UNL A   1      36.917  22.679  24.252  1.00  0.00    -0.263 N 
ATOM     27  C   UNL A   1      36.491  22.802  22.878  1.00  0.00     0.174 C 
ENDBRANCH  18  21
ENDBRANCH   9  17
BRANCH  16  28
ATOM     28  C   UNL A   1      30.444  26.466  22.974  1.00  0.00     0.111 C 
BRANCH  28  29
ATOM     29  S   UNL A   1      30.729  28.176  22.548  1.00  0.00    -0.089 SA
BRANCH  29  30
ATOM     30  C   UNL A   1      29.198  28.942  22.435  1.00  0.00     0.174 A 
ATOM     31  N   UNL A   1      28.073  28.424  22.867  1.00  0.00    -0.132 NA
ATOM     32  S   UNL A   1      29.144  30.628  22.144  1.00  0.00    -0.091 S 
ATOM     33  N   UNL A   1      27.211  29.427  23.291  1.00  0.00    -0.143 NA
ATOM     34  C   UNL A   1      27.752  30.621  23.141  1.00  0.00     0.115 A 
ATOM     35  C   UNL A   1      27.354  31.858  23.847  1.00  0.00     0.081 C 
ENDBRANCH  29  30
ENDBRANCH  28  29
ENDBRANCH  16  28
ENDBRANCH   5   8
ENDBRANCH   3   4
ENDBRANCH   2   3
ENDBRANCH   1   2
BRANCH   1  36
ATOM     36  C   UNL A   1      34.629  29.638  27.107  1.00  0.00     0.002 C 
BRANCH  36  37
ATOM     37  C   UNL A   1      34.672  31.041  27.720  1.00  0.00     0.021 C 
BRANCH  37  38
ATOM     38  C   UNL A   1      35.923  31.345  28.542  1.00  0.00     0.116 C 
BRANCH  38  39
ATOM     39  N   UNL A   1      35.814  30.829  29.898  1.00  0.00    -0.352 N 
ATOM     40  C   UNL A   1      36.673  30.004  30.582  1.00  0.00     0.251 C 
ATOM     41  H   UNL A   1      35.012  31.110  30.395  1.00  0.00     0.163 HD
ATOM     42  O   UNL A   1      36.304  29.437  31.605  1.00  0.00    -0.269 OA
BRANCH  40  43
ATOM     43  C   UNL A   1      38.043  29.811  30.070  1.00  0.00     0.039 A 
ATOM     44  C   UNL A   1      39.113  29.756  30.967  1.00  0.00     0.014 A 
ATOM     45  C   UNL A   1      38.262  29.689  28.696  1.00  0.00     0.014 A 
ATOM     46  C   UNL A   1      40.403  29.524  30.483  1.00  0.00     0.010 A 
ATOM     47  C   UNL A   1      39.532  29.381  28.226  1.00  0.00     0.010 A 
ATOM     48  C   UNL A   1      40.617  29.310  29.113  1.00  0.00    -0.014 A 
BRANCH  48  49
ATOM     49  C   UNL A   1      41.968  29.046  28.560  1.00  0.00     0.031 A 
ATOM     50  C   UNL A   1      42.319  27.658  28.099  1.00  0.00     0.074 A 
ATOM     51  C   UNL A   1      42.899  30.020  28.558  1.00  0.00     0.049 A 
ATOM     52  N   UNL A   1      43.475  27.180  27.720  1.00  0.00    -0.248 NA
ATOM     53  C   UNL A   1      41.228  26.667  28.095  1.00  0.00     0.031 C 
ATOM     54  C   UNL A   1      42.688  31.400  29.000  1.00  0.00     0.029 A 
ATOM     55  N   UNL A   1      44.220  29.991  28.186  1.00  0.00    -0.354 N 
ATOM     56  C   UNL A   1      43.259  25.831  27.463  1.00  0.00     0.074 A 
ATOM     57  C   UNL A   1      41.874  25.555  27.776  1.00  0.00     0.031 C 
ATOM     58  C   UNL A   1      43.832  32.088  28.858  1.00  0.00     0.029 A 
ATOM     59  C   UNL A   1      44.871  31.189  28.365  1.00  0.00     0.049 A 
ATOM     60  H   UNL A   1      44.661  29.187  27.826  1.00  0.00     0.167 HD
ATOM     61  C   UNL A   1      44.129  24.908  26.989  1.00  0.00     0.031 A 
ATOM     62  C   UNL A   1      46.163  31.521  28.169  1.00  0.00     0.031 A 
ATOM     63  C   UNL A   1      45.501  25.194  26.666  1.00  0.00     0.049 A 
ATOM     64  C   UNL A   1      47.118  30.474  27.663  1.00  0.00     0.074 A 
ATOM     65  C   UNL A   1      46.454  24.344  26.135  1.00  0.00     0.029 A 
ATOM     66  N   UNL A   1      46.115  26.425  26.843  1.00  0.00    -0.354 N 
ATOM     67  N   UNL A   1      46.885  29.214  27.379  1.00  0.00    -0.248 NA
ATOM     68  C   UNL A   1      48.508  30.896  27.438  1.00  0.00     0.031 C 
ATOM     69  C   UNL A   1      47.660  25.046  26.043  1.00  0.00     0.029 A 
ATOM     70  C   UNL A   1      47.440  26.353  26.451  1.00  0.00     0.049 A 
ATOM     71  H   UNL A   1      45.673  27.231  27.196  1.00  0.00     0.167 HD
ATOM     72  C   UNL A   1      48.089  28.703  26.905  1.00  0.00     0.074 A 
ATOM     73  C   UNL A   1      49.045  29.792  26.936  1.00  0.00     0.031 C 
ATOM     74  C   UNL A   1      48.374  27.450  26.475  1.00  0.00     0.031 A 
BRANCH  61  75
ATOM     75  C   UNL A   1      43.622  23.501  26.805  1.00  0.00    -0.014 A 
ATOM     76  C   UNL A   1      43.688  22.859  25.555  1.00  0.00     0.010 A 
ATOM     77  C   UNL A   1      43.099  22.797  27.906  1.00  0.00     0.010 A 
ATOM     78  C   UNL A   1      43.196  21.561  25.397  1.00  0.00     0.020 A 
ATOM     79  C   UNL A   1      42.637  21.486  27.761  1.00  0.00     0.020 A 
ATOM     80  C   UNL A   1      42.671  20.884  26.502  1.00  0.00     0.054 A 
BRANCH  80  81
ATOM     81  S   UNL A   1      42.054  19.194  26.271  1.00  0.00     0.124 S 
ATOM     82  O   UNL A   1      42.911  18.706  25.193  1.00  0.00    -0.237 OA
ATOM     83  O   UNL A   1      42.285  18.588  27.580  1.00  0.00    -0.237 OA
ATOM     84  O   UNL A   1      40.651  19.382  25.912  1.00  0.00    -0.744 OA
ENDBRANCH  80  81
ENDBRANCH  61  75
BRANCH  62  85
ATOM     85  C   UNL A   1      46.623  32.911  28.442  1.00  0.00    -0.014 A 
ATOM     86  C   UNL A   1      46.556  33.895  27.440  1.00  0.00     0.010 A 
ATOM     87  C   UNL A   1      47.118  33.264  29.712  1.00  0.00     0.010 A 
ATOM     88  C   UNL A   1      46.992  35.199  27.694  1.00  0.00     0.020 A 
ATOM     89  C   UNL A   1      47.526  34.572  29.980  1.00  0.00     0.020 A 
ATOM     90  C   UNL A   1      47.472  35.530  28.965  1.00  0.00     0.054 A 
BRANCH  90  91
ATOM     91  S   UNL A   1      47.982  37.241  29.287  1.00  0.00     0.124 S 
ATOM     92  O   UNL A   1      47.768  37.357  30.726  1.00  0.00    -0.237 OA
ATOM     93  O   UNL A   1      49.375  37.241  28.850  1.00  0.00    -0.237 OA
ATOM     94  O   UNL A   1      47.075  38.029  28.453  1.00  0.00    -0.744 OA
ENDBRANCH  90  91
ENDBRANCH  62  85
BRANCH  74  95
ATOM     95  C   UNL A   1      49.758  27.190  25.942  1.00  0.00    -0.014 A 
ATOM     96  C   UNL A   1      50.816  26.817  26.789  1.00  0.00     0.010 A 
ATOM     97  C   UNL A   1      49.978  27.243  24.552  1.00  0.00     0.010 A 
ATOM     98  C   UNL A   1      52.075  26.522  26.257  1.00  0.00     0.020 A 
ATOM     99  C   UNL A   1      51.225  26.920  24.014  1.00  0.00     0.020 A 
ATOM    100  C   UNL A   1      52.269  26.572  24.872  1.00  0.00     0.054 A 
BRANCH 100 101
ATOM    101  S   UNL A   1      53.893  26.123  24.202  1.00  0.00     0.124 S 
ATOM    102  O   UNL A   1      54.756  27.148  24.783  1.00  0.00    -0.237 OA
ATOM    103  O   UNL A   1      54.089  24.770  24.719  1.00  0.00    -0.237 OA
ATOM    104  O   UNL A   1      53.709  26.210  22.755  1.00  0.00    -0.744 OA
ENDBRANCH 100 101
ENDBRANCH  74  95
ENDBRANCH  48  49
ENDBRANCH  40  43
ENDBRANCH  38  39
ENDBRANCH  37  38
ENDBRANCH  36  37
ENDBRANCH   1  36
TORSDOF 21
ENDMDL
MODEL 3
REMARK VINA RESULT:     -10.9      5.783     11.561
REMARK SMILES Cc1cc(C(=O)N[C@@H]2C(=O)N3C(C(=O)NCCCCCCNC(=O)c4ccc(-c5c6nc(c(-c7ccc(S(=O)(=O)[O-])cc7)c7ccc([nH]7)c(-c7ccc(S(=O)(=O)[O-])cc7)c7nc(c(-c8ccc(S(=O)(=O)[O-])cc8)c8ccc5[nH]8)C=C7)C=C6)cc4)=C(CSc4nnc(C)s4)CS[C@H]23)n(C)n1
REMARK SMILES IDX 18 1 17 2 16 3 15 4 13 5 14 6 12 8 8 9 9 10 96 11 10 12
REMARK SMILES IDX 11 13 95 14 94 15 85 16 7 17 5 18 6 19 4 21 1 22 2 23 3 24
REMARK SMILES IDX 99 25 97 26 98 27 86 28 87 29 88 30 89 31 93 32 90 33 91 34
REMARK SMILES IDX 92 35 19 36 20 37 21 38 22 39 23 40 24 42 25 43 26 44 84 45
REMARK SMILES IDX 27 46 83 47 28 48 29 49 30 50 77 51 31 52 82 53 76 54 78 55
REMARK SMILES IDX 32 56 81 57 75 58 74 59 33 61 63 62 44 63 62 64 45 65 48 66
REMARK SMILES IDX 61 67 79 68 46 69 47 70 60 72 80 73 49 74 34 75 35 76 43 77
REMARK SMILES IDX 36 78 42 79 37 80 38 81 39 82 40 83 41 84 64 85 65 86 73 87
REMARK SMILES IDX 66 88 72 89 67 90 68 91 69 92 70 93 71 94 50 95 51 96 59 97
REMARK SMILES IDX 52 98 58 99 53 100 54 101 55 102 56 103 57 104
REMARK H PARENT 15 7 7 20 22 41 78 60 48 71
REMARK Flexibility Score: inf
ROOT
ATOM      1  C   UNL A   1      33.534  29.554  26.169  1.00  0.00     0.002 C 
ENDROOT
BRANCH   1   2
ATOM      2  C   UNL A   1      32.145  29.212  26.692  1.00  0.00     0.021 C 
BRANCH   2   3
ATOM      3  C   UNL A   1      32.048  28.015  27.648  1.00  0.00     0.116 C 
BRANCH   3   4
ATOM      4  N   UNL A   1      30.955  27.143  27.263  1.00  0.00    -0.351 N 
ATOM      5  C   UNL A   1      30.671  26.217  26.321  1.00  0.00     0.268 C 
ATOM      6  O   UNL A   1      29.624  25.608  26.587  1.00  0.00    -0.268 OA
ATOM      7  H   UNL A   1      30.190  27.261  27.871  1.00  0.00     0.163 HD
BRANCH   5   8
ATOM      8  C   UNL A   1      31.546  25.727  25.149  1.00  0.00     0.111 C 
ATOM      9  C   UNL A   1      33.778  23.190  25.866  1.00  0.00     0.206 C 
ATOM     10  C   UNL A   1      32.346  23.625  26.278  1.00  0.00     0.253 C 
ATOM     11  C   UNL A   1      33.616  24.324  24.815  1.00  0.00     0.181 C 
ATOM     12  O   UNL A   1      31.433  23.073  26.877  1.00  0.00    -0.272 OA
ATOM     13  N   UNL A   1      32.484  24.793  25.584  1.00  0.00    -0.290 N 
ATOM     14  S   UNL A   1      33.033  23.839  23.165  1.00  0.00    -0.129 SA
ATOM     15  C   UNL A   1      32.580  25.542  22.837  1.00  0.00     0.106 C 
ATOM     16  C   UNL A   1      31.485  25.983  23.803  1.00  0.00    -0.020 C 
BRANCH   9  17
ATOM     17  N   UNL A   1      33.988  21.785  25.419  1.00  0.00    -0.336 N 
ATOM     18  C   UNL A   1      35.167  21.114  25.146  1.00  0.00     0.270 C 
ATOM     19  O   UNL A   1      35.086  19.933  24.814  1.00  0.00    -0.268 OA
ATOM     20  H   UNL A   1      33.167  21.255  25.302  1.00  0.00     0.164 HD
BRANCH  18  21
ATOM     21  C   UNL A   1      36.416  21.844  25.194  1.00  0.00     0.126 A 
ATOM     22  C   UNL A   1      38.849  23.982  26.855  1.00  0.00     0.069 C 
ATOM     23  C   UNL A   1      38.052  23.152  25.919  1.00  0.00     0.060 A 
ATOM     24  C   UNL A   1      37.383  21.937  26.184  1.00  0.00     0.059 A 
ATOM     25  N   UNL A   1      37.799  23.577  24.682  1.00  0.00    -0.178 NA
ATOM     26  N   UNL A   1      36.866  22.712  24.221  1.00  0.00    -0.263 N 
ATOM     27  C   UNL A   1      36.437  22.866  22.851  1.00  0.00     0.174 C 
ENDBRANCH  18  21
ENDBRANCH   9  17
BRANCH  16  28
ATOM     28  C   UNL A   1      30.309  26.499  23.006  1.00  0.00     0.111 C 
BRANCH  28  29
ATOM     29  S   UNL A   1      30.628  28.174  22.476  1.00  0.00    -0.089 SA
BRANCH  29  30
ATOM     30  C   UNL A   1      29.116  28.980  22.378  1.00  0.00     0.174 A 
ATOM     31  N   UNL A   1      27.970  28.461  22.749  1.00  0.00    -0.132 NA
ATOM     32  S   UNL A   1      29.104  30.682  22.198  1.00  0.00    -0.091 S 
ATOM     33  N   UNL A   1      27.119  29.453  23.219  1.00  0.00    -0.143 NA
ATOM     34  C   UNL A   1      27.688  30.641  23.160  1.00  0.00     0.115 A 
ATOM     35  C   UNL A   1      27.299  31.838  23.936  1.00  0.00     0.081 C 
ENDBRANCH  29  30
ENDBRANCH  28  29
ENDBRANCH  16  28
ENDBRANCH   5   8
ENDBRANCH   3   4
ENDBRANCH   2   3
ENDBRANCH   1   2
BRANCH   1  36
ATOM     36  C   UNL A   1      34.556  29.870  27.255  1.00  0.00     0.002 C 
BRANCH  36  37
ATOM     37  C   UNL A   1      34.498  31.297  27.807  1.00  0.00     0.021 C 
BRANCH  37  38
ATOM     38  C   UNL A   1      35.727  31.727  28.605  1.00  0.00     0.116 C 
BRANCH  38  39
ATOM     39  N   UNL A   1      35.554  31.492  30.030  1.00  0.00    -0.352 N 
ATOM     40  C   UNL A   1      36.345  30.775  30.892  1.00  0.00     0.251 C 
ATOM     41  H   UNL A   1      34.756  31.905  30.433  1.00  0.00     0.163 HD
ATOM     42  O   UNL A   1      35.918  30.438  31.991  1.00  0.00    -0.269 OA
BRANCH  40  43
ATOM     43  C   UNL A   1      37.716  30.415  30.479  1.00  0.00     0.039 A 
ATOM     44  C   UNL A   1      38.697  30.206  31.451  1.00  0.00     0.014 A 
ATOM     45  C   UNL A   1      38.023  30.292  29.121  1.00  0.00     0.014 A 
ATOM     46  C   UNL A   1      39.980  29.819  31.058  1.00  0.00     0.010 A 
ATOM     47  C   UNL A   1      39.276  29.832  28.738  1.00  0.00     0.010 A 
ATOM     48  C   UNL A   1      40.271  29.605  29.701  1.00  0.00    -0.014 A 
BRANCH  48  49
ATOM     49  C   UNL A   1      41.617  29.180  29.243  1.00  0.00     0.031 A 
ATOM     50  C   UNL A   1      42.718  30.199  29.143  1.00  0.00     0.074 A 
ATOM     51  C   UNL A   1      41.821  27.913  28.832  1.00  0.00     0.049 A 
ATOM     52  N   UNL A   1      43.917  30.074  28.635  1.00  0.00    -0.248 NA
ATOM     53  C   UNL A   1      42.419  31.549  29.653  1.00  0.00     0.031 C 
ATOM     54  C   UNL A   1      40.826  26.838  28.860  1.00  0.00     0.029 A 
ATOM     55  N   UNL A   1      42.935  27.318  28.294  1.00  0.00    -0.354 N 
ATOM     56  C   UNL A   1      44.502  31.331  28.738  1.00  0.00     0.074 A 
ATOM     57  C   UNL A   1      43.510  32.216  29.309  1.00  0.00     0.031 C 
ATOM     58  C   UNL A   1      41.379  25.714  28.376  1.00  0.00     0.029 A 
ATOM     59  C   UNL A   1      42.748  25.998  27.958  1.00  0.00     0.049 A 
ATOM     60  H   UNL A   1      43.788  27.793  28.160  1.00  0.00     0.167 HD
ATOM     61  C   UNL A   1      45.758  31.711  28.405  1.00  0.00     0.031 A 
ATOM     62  C   UNL A   1      43.581  25.121  27.364  1.00  0.00     0.031 A 
ATOM     63  C   UNL A   1      46.742  30.821  27.851  1.00  0.00     0.049 A 
ATOM     64  C   UNL A   1      44.966  25.570  26.982  1.00  0.00     0.074 A 
ATOM     65  C   UNL A   1      48.059  31.092  27.523  1.00  0.00     0.029 A 
ATOM     66  N   UNL A   1      46.518  29.487  27.544  1.00  0.00    -0.354 N 
ATOM     67  N   UNL A   1      45.519  26.751  27.129  1.00  0.00    -0.248 NA
ATOM     68  C   UNL A   1      45.844  24.565  26.365  1.00  0.00     0.031 C 
ATOM     69  C   UNL A   1      48.614  29.937  26.965  1.00  0.00     0.029 A 
ATOM     70  C   UNL A   1      47.666  28.926  27.011  1.00  0.00     0.049 A 
ATOM     71  H   UNL A   1      45.669  29.010  27.684  1.00  0.00     0.167 HD
ATOM     72  C   UNL A   1      46.822  26.620  26.660  1.00  0.00     0.074 A 
ATOM     73  C   UNL A   1      46.974  25.245  26.228  1.00  0.00     0.031 C 
ATOM     74  C   UNL A   1      47.804  27.552  26.600  1.00  0.00     0.031 A 
BRANCH  61  75
ATOM     75  C   UNL A   1      46.130  33.155  28.621  1.00  0.00    -0.014 A 
ATOM     76  C   UNL A   1      45.922  34.120  27.618  1.00  0.00     0.010 A 
ATOM     77  C   UNL A   1      46.669  33.561  29.856  1.00  0.00     0.010 A 
ATOM     78  C   UNL A   1      46.291  35.451  27.827  1.00  0.00     0.020 A 
ATOM     79  C   UNL A   1      47.008  34.898  30.083  1.00  0.00     0.020 A 
ATOM     80  C   UNL A   1      46.834  35.831  29.058  1.00  0.00     0.054 A 
BRANCH  80  81
ATOM     81  S   UNL A   1      47.289  37.569  29.307  1.00  0.00     0.124 S 
ATOM     82  O   UNL A   1      46.305  37.998  30.298  1.00  0.00    -0.237 OA
ATOM     83  O   UNL A   1      48.665  37.474  29.789  1.00  0.00    -0.237 OA
ATOM     84  O   UNL A   1      47.134  38.162  27.981  1.00  0.00    -0.744 OA
ENDBRANCH  80  81
ENDBRANCH  61  75
BRANCH  62  85
ATOM     85  C   UNL A   1      43.129  23.725  27.105  1.00  0.00    -0.014 A 
ATOM     86  C   UNL A   1      43.260  22.737  28.097  1.00  0.00     0.010 A 
ATOM     87  C   UNL A   1      42.552  23.377  25.870  1.00  0.00     0.010 A 
ATOM     88  C   UNL A   1      42.841  21.426  27.854  1.00  0.00     0.020 A 
ATOM     89  C   UNL A   1      42.103  22.076  25.633  1.00  0.00     0.020 A 
ATOM     90  C   UNL A   1      42.261  21.105  26.623  1.00  0.00     0.054 A 
BRANCH  90  91
ATOM     91  S   UNL A   1      41.676  19.409  26.350  1.00  0.00     0.124 S 
ATOM     92  O   UNL A   1      40.361  19.633  25.756  1.00  0.00    -0.237 OA
ATOM     93  O   UNL A   1      42.693  18.865  25.454  1.00  0.00    -0.237 OA
ATOM     94  O   UNL A   1      41.666  18.832  27.693  1.00  0.00    -0.744 OA
ENDBRANCH  90  91
ENDBRANCH  62  85
BRANCH  74  95
ATOM     95  C   UNL A   1      49.158  27.112  26.106  1.00  0.00    -0.014 A 
ATOM     96  C   UNL A   1      49.562  27.322  24.777  1.00  0.00     0.010 A 
ATOM     97  C   UNL A   1      50.070  26.550  27.020  1.00  0.00     0.010 A 
ATOM     98  C   UNL A   1      50.846  26.958  24.364  1.00  0.00     0.020 A 
ATOM     99  C   UNL A   1      51.365  26.214  26.619  1.00  0.00     0.020 A 
ATOM    100  C   UNL A   1      51.741  26.411  25.290  1.00  0.00     0.054 A 
BRANCH 100 101
ATOM    101  S   UNL A   1      53.423  26.007  24.745  1.00  0.00     0.124 S 
ATOM    102  O   UNL A   1      53.216  25.676  23.338  1.00  0.00    -0.237 OA
ATOM    103  O   UNL A   1      54.147  27.250  24.999  1.00  0.00    -0.237 OA
ATOM    104  O   UNL A   1      53.805  24.884  25.599  1.00  0.00    -0.744 OA
ENDBRANCH 100 101
ENDBRANCH  74  95
ENDBRANCH  48  49
ENDBRANCH  40  43
ENDBRANCH  38  39
ENDBRANCH  37  38
ENDBRANCH  36  37
ENDBRANCH   1  36
TORSDOF 21
ENDMDL
