MODEL 1
REMARK VINA RESULT:     -10.3      0.000      0.000
REMARK SMILES O=C(Cc1ccc(=O)n(C(F)F)c1)NCCCCCCNC(=O)c1ccc(-c2c3nc(c(-c4ccc(S(=O)(=O)[O-])cc4)c4ccc([nH]4)c(-c4ccc(S(=O)(=O)[O-])cc4)c4nc(c(-c5ccc(S(=O)(=O)[O-])cc5)c5ccc2[nH]5)C=C4)C=C3)cc1
REMARK SMILES IDX 18 1 17 2 16 3 15 4 14 5 1 6 2 7 3 9 4 10 5 11 13 12 6 13
REMARK SMILES IDX 9 14 7 15 8 16 10 17 11 18 12 19 19 20 20 21 21 22 22 23
REMARK SMILES IDX 23 25 24 26 25 27 83 28 26 29 82 30 27 31 28 32 29 33 76 34
REMARK SMILES IDX 30 35 81 36 75 37 77 38 31 39 80 40 74 41 73 42 32 44 62 45
REMARK SMILES IDX 43 46 61 47 44 48 47 49 60 50 78 51 45 52 46 53 59 55 79 56
REMARK SMILES IDX 48 57 33 58 34 59 42 60 35 61 41 62 36 63 37 64 38 65 39 66
REMARK SMILES IDX 40 67 63 68 64 69 72 70 65 71 71 72 66 73 67 74 68 75 69 76
REMARK SMILES IDX 70 77 49 78 50 79 58 80 51 81 57 82 52 83 53 84 54 85 55 86
REMARK SMILES IDX 56 87
REMARK H PARENT 14 8 21 24 77 43 47 54
REMARK Flexibility Score: inf
ROOT
ATOM      1  C   UNL A   1      34.723  22.255  25.417  1.00  0.00     0.002 C 
ENDROOT
BRANCH   1   2
ATOM      2  C   UNL A   1      33.589  22.728  24.501  1.00  0.00     0.002 C 
BRANCH   2   3
ATOM      3  C   UNL A   1      32.395  21.772  24.362  1.00  0.00     0.021 C 
BRANCH   3   4
ATOM      4  C   UNL A   1      31.270  21.989  25.374  1.00  0.00     0.116 C 
BRANCH   4   5
ATOM      5  N   UNL A   1      30.684  23.305  25.238  1.00  0.00    -0.356 N 
ATOM      6  O   UNL A   1      31.255  24.095  27.321  1.00  0.00    -0.275 OA
ATOM      7  C   UNL A   1      30.716  24.258  26.231  1.00  0.00     0.224 C 
ATOM      8  H   UNL A   1      30.239  23.532  24.390  1.00  0.00     0.163 HD
BRANCH   7   9
ATOM      9  C   UNL A   1      29.974  25.545  25.891  1.00  0.00     0.137 C 
BRANCH   9  10
ATOM     10  C   UNL A   1      30.900  26.586  25.320  1.00  0.00    -0.022 A 
ATOM     11  C   UNL A   1      31.209  26.536  23.905  1.00  0.00     0.011 A 
ATOM     12  C   UNL A   1      31.447  27.560  26.069  1.00  0.00     0.099 A 
ATOM     13  C   UNL A   1      32.042  27.427  23.354  1.00  0.00     0.072 A 
ATOM     14  N   UNL A   1      32.307  28.497  25.521  1.00  0.00    -0.258 N 
ATOM     15  C   UNL A   1      32.657  28.501  24.181  1.00  0.00     0.254 A 
ATOM     16  O   UNL A   1      33.406  29.303  23.633  1.00  0.00    -0.269 OA
BRANCH  14  17
ATOM     17  C   UNL A   1      32.893  29.521  26.348  1.00  0.00     0.451 C 
ATOM     18  F   UNL A   1      32.158  29.722  27.468  1.00  0.00    -0.185 F 
ATOM     19  F   UNL A   1      34.149  29.178  26.726  1.00  0.00    -0.185 F 
ENDBRANCH  14  17
ENDBRANCH   9  10
ENDBRANCH   7   9
ENDBRANCH   4   5
ENDBRANCH   3   4
ENDBRANCH   2   3
ENDBRANCH   1   2
BRANCH   1  20
ATOM     20  C   UNL A   1      35.737  23.325  25.818  1.00  0.00     0.021 C 
BRANCH  20  21
ATOM     21  C   UNL A   1      37.016  23.357  24.988  1.00  0.00     0.116 C 
BRANCH  21  22
ATOM     22  N   UNL A   1      38.035  22.432  25.464  1.00  0.00    -0.352 N 
ATOM     23  C   UNL A   1      39.138  22.690  26.247  1.00  0.00     0.251 C 
ATOM     24  H   UNL A   1      37.917  21.493  25.190  1.00  0.00     0.163 HD
ATOM     25  O   UNL A   1      39.960  21.805  26.466  1.00  0.00    -0.269 OA
BRANCH  23  26
ATOM     26  C   UNL A   1      39.350  24.053  26.782  1.00  0.00     0.039 A 
ATOM     27  C   UNL A   1      40.015  25.020  26.025  1.00  0.00     0.014 A 
ATOM     28  C   UNL A   1      38.923  24.350  28.079  1.00  0.00     0.014 A 
ATOM     29  C   UNL A   1      40.405  26.214  26.623  1.00  0.00     0.010 A 
ATOM     30  C   UNL A   1      39.248  25.585  28.652  1.00  0.00     0.010 A 
ATOM     31  C   UNL A   1      40.041  26.504  27.948  1.00  0.00    -0.014 A 
BRANCH  31  32
ATOM     32  C   UNL A   1      40.522  27.762  28.581  1.00  0.00     0.031 A 
ATOM     33  C   UNL A   1      41.979  27.946  28.916  1.00  0.00     0.074 A 
ATOM     34  C   UNL A   1      39.654  28.771  28.788  1.00  0.00     0.049 A 
ATOM     35  N   UNL A   1      42.578  28.993  29.426  1.00  0.00    -0.248 NA
ATOM     36  C   UNL A   1      42.885  26.817  28.641  1.00  0.00     0.031 C 
ATOM     37  C   UNL A   1      38.223  28.724  28.480  1.00  0.00     0.029 A 
ATOM     38  N   UNL A   1      39.848  30.042  29.271  1.00  0.00    -0.354 N 
ATOM     39  C   UNL A   1      43.919  28.648  29.543  1.00  0.00     0.074 A 
ATOM     40  C   UNL A   1      44.047  27.284  29.080  1.00  0.00     0.031 C 
ATOM     41  C   UNL A   1      37.683  29.928  28.719  1.00  0.00     0.029 A 
ATOM     42  C   UNL A   1      38.711  30.815  29.259  1.00  0.00     0.049 A 
ATOM     43  H   UNL A   1      40.719  30.368  29.596  1.00  0.00     0.167 HD
ATOM     44  C   UNL A   1      44.953  29.404  29.981  1.00  0.00     0.031 A 
ATOM     45  C   UNL A   1      38.507  32.091  29.640  1.00  0.00     0.031 A 
ATOM     46  C   UNL A   1      44.827  30.767  30.429  1.00  0.00     0.049 A 
ATOM     47  C   UNL A   1      39.659  32.894  30.172  1.00  0.00     0.074 A 
ATOM     48  C   UNL A   1      45.823  31.613  30.884  1.00  0.00     0.029 A 
ATOM     49  N   UNL A   1      43.642  31.484  30.473  1.00  0.00    -0.354 N 
ATOM     50  N   UNL A   1      40.918  32.544  30.283  1.00  0.00    -0.248 NA
ATOM     51  C   UNL A   1      39.367  34.257  30.635  1.00  0.00     0.031 C 
ATOM     52  C   UNL A   1      45.234  32.823  31.255  1.00  0.00     0.029 A 
ATOM     53  C   UNL A   1      43.879  32.755  30.970  1.00  0.00     0.049 A 
ATOM     54  H   UNL A   1      42.763  31.142  30.192  1.00  0.00     0.167 HD
ATOM     55  C   UNL A   1      41.570  33.644  30.825  1.00  0.00     0.074 A 
ATOM     56  C   UNL A   1      40.572  34.680  31.000  1.00  0.00     0.031 C 
ATOM     57  C   UNL A   1      42.879  33.778  31.151  1.00  0.00     0.031 A 
BRANCH  44  58
ATOM     58  C   UNL A   1      46.329  28.790  30.006  1.00  0.00    -0.014 A 
ATOM     59  C   UNL A   1      47.131  28.824  28.850  1.00  0.00     0.010 A 
ATOM     60  C   UNL A   1      46.780  28.077  31.131  1.00  0.00     0.010 A 
ATOM     61  C   UNL A   1      48.347  28.137  28.809  1.00  0.00     0.020 A 
ATOM     62  C   UNL A   1      48.008  27.409  31.102  1.00  0.00     0.020 A 
ATOM     63  C   UNL A   1      48.774  27.425  29.933  1.00  0.00     0.054 A 
BRANCH  63  64
ATOM     64  S   UNL A   1      50.348  26.526  29.860  1.00  0.00     0.124 S 
ATOM     65  O   UNL A   1      51.263  27.548  29.363  1.00  0.00    -0.237 OA
ATOM     66  O   UNL A   1      50.549  26.119  31.249  1.00  0.00    -0.237 OA
ATOM     67  O   UNL A   1      50.070  25.429  28.935  1.00  0.00    -0.744 OA
ENDBRANCH  63  64
ENDBRANCH  44  58
BRANCH  45  68
ATOM     68  C   UNL A   1      37.145  32.674  29.504  1.00  0.00    -0.014 A 
ATOM     69  C   UNL A   1      36.724  33.213  28.274  1.00  0.00     0.010 A 
ATOM     70  C   UNL A   1      36.304  32.786  30.625  1.00  0.00     0.010 A 
ATOM     71  C   UNL A   1      35.519  33.912  28.181  1.00  0.00     0.020 A 
ATOM     72  C   UNL A   1      35.082  33.460  30.529  1.00  0.00     0.020 A 
ATOM     73  C   UNL A   1      34.713  34.047  29.315  1.00  0.00     0.054 A 
BRANCH  73  74
ATOM     74  S   UNL A   1      33.185  35.016  29.192  1.00  0.00     0.124 S 
ATOM     75  O   UNL A   1      33.686  36.303  28.719  1.00  0.00    -0.237 OA
ATOM     76  O   UNL A   1      32.399  34.254  28.225  1.00  0.00    -0.237 OA
ATOM     77  O   UNL A   1      32.666  35.008  30.556  1.00  0.00    -0.744 OA
ENDBRANCH  73  74
ENDBRANCH  45  68
BRANCH  57  78
ATOM     78  C   UNL A   1      43.333  35.083  31.745  1.00  0.00    -0.014 A 
ATOM     79  C   UNL A   1      43.125  35.338  33.114  1.00  0.00     0.010 A 
ATOM     80  C   UNL A   1      43.836  36.107  30.926  1.00  0.00     0.010 A 
ATOM     81  C   UNL A   1      43.377  36.604  33.646  1.00  0.00     0.020 A 
ATOM     82  C   UNL A   1      44.113  37.369  31.458  1.00  0.00     0.020 A 
ATOM     83  C   UNL A   1      43.857  37.617  32.810  1.00  0.00     0.054 A 
BRANCH  83  84
ATOM     84  S   UNL A   1      44.140  39.267  33.506  1.00  0.00     0.124 S 
ATOM     85  O   UNL A   1      42.786  39.695  33.845  1.00  0.00    -0.237 OA
ATOM     86  O   UNL A   1      45.018  38.993  34.642  1.00  0.00    -0.237 OA
ATOM     87  O   UNL A   1      44.770  39.998  32.408  1.00  0.00    -0.744 OA
ENDBRANCH  83  84
ENDBRANCH  57  78
ENDBRANCH  31  32
ENDBRANCH  23  26
ENDBRANCH  21  22
ENDBRANCH  20  21
ENDBRANCH   1  20
TORSDOF 18
ENDMDL
MODEL 2
REMARK VINA RESULT:     -10.2      6.100      8.140
REMARK SMILES O=C(Cc1ccc(=O)n(C(F)F)c1)NCCCCCCNC(=O)c1ccc(-c2c3nc(c(-c4ccc(S(=O)(=O)[O-])cc4)c4ccc([nH]4)c(-c4ccc(S(=O)(=O)[O-])cc4)c4nc(c(-c5ccc(S(=O)(=O)[O-])cc5)c5ccc2[nH]5)C=C4)C=C3)cc1
REMARK SMILES IDX 18 1 17 2 16 3 15 4 14 5 1 6 2 7 3 9 4 10 5 11 13 12 6 13
REMARK SMILES IDX 9 14 7 15 8 16 10 17 11 18 12 19 19 20 20 21 21 22 22 23
REMARK SMILES IDX 23 25 24 26 25 27 83 28 26 29 82 30 27 31 28 32 29 33 76 34
REMARK SMILES IDX 30 35 81 36 75 37 77 38 31 39 80 40 74 41 73 42 32 44 62 45
REMARK SMILES IDX 43 46 61 47 44 48 47 49 60 50 78 51 45 52 46 53 59 55 79 56
REMARK SMILES IDX 48 57 33 58 34 59 42 60 35 61 41 62 36 63 37 64 38 65 39 66
REMARK SMILES IDX 40 67 63 68 64 69 72 70 65 71 71 72 66 73 67 74 68 75 69 76
REMARK SMILES IDX 70 77 49 78 50 79 58 80 51 81 57 82 52 83 53 84 54 85 55 86
REMARK SMILES IDX 56 87
REMARK H PARENT 14 8 21 24 77 43 47 54
REMARK Flexibility Score: inf
ROOT
ATOM      1  C   UNL A   1      44.550  24.059  26.744  1.00  0.00     0.002 C 
ENDROOT
BRANCH   1   2
ATOM      2  C   UNL A   1      45.153  23.116  27.791  1.00  0.00     0.002 C 
BRANCH   2   3
ATOM      3  C   UNL A   1      44.657  23.309  29.232  1.00  0.00     0.021 C 
BRANCH   3   4
ATOM      4  C   UNL A   1      43.170  23.027  29.448  1.00  0.00     0.116 C 
BRANCH   4   5
ATOM      5  N   UNL A   1      42.728  21.892  28.665  1.00  0.00    -0.356 N 
ATOM      6  O   UNL A   1      40.934  22.916  27.654  1.00  0.00    -0.275 OA
ATOM      7  C   UNL A   1      41.633  21.924  27.831  1.00  0.00     0.224 C 
ATOM      8  H   UNL A   1      43.238  21.052  28.733  1.00  0.00     0.163 HD
BRANCH   7   9
ATOM      9  C   UNL A   1      41.315  20.592  27.162  1.00  0.00     0.137 C 
BRANCH   9  10
ATOM     10  C   UNL A   1      42.509  20.040  26.427  1.00  0.00    -0.022 A 
ATOM     11  C   UNL A   1      42.815  18.631  26.567  1.00  0.00     0.011 A 
ATOM     12  C   UNL A   1      43.296  20.800  25.646  1.00  0.00     0.099 A 
ATOM     13  C   UNL A   1      43.877  18.096  25.950  1.00  0.00     0.072 A 
ATOM     14  N   UNL A   1      44.395  20.270  24.993  1.00  0.00    -0.258 N 
ATOM     15  C   UNL A   1      44.756  18.936  25.091  1.00  0.00     0.254 A 
ATOM     16  O   UNL A   1      45.710  18.404  24.536  1.00  0.00    -0.269 OA
BRANCH  14  17
ATOM     17  C   UNL A   1      45.232  21.110  24.174  1.00  0.00     0.451 C 
ATOM     18  F   UNL A   1      44.599  22.264  23.853  1.00  0.00    -0.185 F 
ATOM     19  F   UNL A   1      46.380  21.428  24.822  1.00  0.00    -0.185 F 
ENDBRANCH  14  17
ENDBRANCH   9  10
ENDBRANCH   7   9
ENDBRANCH   4   5
ENDBRANCH   3   4
ENDBRANCH   2   3
ENDBRANCH   1   2
BRANCH   1  20
ATOM     20  C   UNL A   1      45.516  25.082  26.146  1.00  0.00     0.021 C 
BRANCH  20  21
ATOM     21  C   UNL A   1      44.862  26.310  25.520  1.00  0.00     0.116 C 
BRANCH  21  22
ATOM     22  N   UNL A   1      43.542  26.040  24.968  1.00  0.00    -0.352 N 
ATOM     23  C   UNL A   1      42.307  26.262  25.536  1.00  0.00     0.251 C 
ATOM     24  H   UNL A   1      43.531  25.647  24.065  1.00  0.00     0.163 HD
ATOM     25  O   UNL A   1      41.289  25.871  24.971  1.00  0.00    -0.269 OA
BRANCH  23  26
ATOM     26  C   UNL A   1      42.218  26.932  26.852  1.00  0.00     0.039 A 
ATOM     27  C   UNL A   1      41.768  26.235  27.976  1.00  0.00     0.014 A 
ATOM     28  C   UNL A   1      42.541  28.288  26.950  1.00  0.00     0.014 A 
ATOM     29  C   UNL A   1      41.475  26.931  29.145  1.00  0.00     0.010 A 
ATOM     30  C   UNL A   1      42.320  28.969  28.152  1.00  0.00     0.010 A 
ATOM     31  C   UNL A   1      41.731  28.309  29.242  1.00  0.00    -0.014 A 
BRANCH  31  32
ATOM     32  C   UNL A   1      41.353  29.038  30.482  1.00  0.00     0.031 A 
ATOM     33  C   UNL A   1      42.240  28.996  31.700  1.00  0.00     0.074 A 
ATOM     34  C   UNL A   1      40.244  29.802  30.487  1.00  0.00     0.049 A 
ATOM     35  N   UNL A   1      42.088  29.609  32.847  1.00  0.00    -0.248 NA
ATOM     36  C   UNL A   1      43.453  28.165  31.625  1.00  0.00     0.031 C 
ATOM     37  C   UNL A   1      39.320  29.948  29.360  1.00  0.00     0.029 A 
ATOM     38  N   UNL A   1      39.722  30.627  31.453  1.00  0.00    -0.354 N 
ATOM     39  C   UNL A   1      43.173  29.233  33.629  1.00  0.00     0.074 A 
ATOM     40  C   UNL A   1      43.964  28.313  32.841  1.00  0.00     0.031 C 
ATOM     41  C   UNL A   1      38.384  30.855  29.675  1.00  0.00     0.029 A 
ATOM     42  C   UNL A   1      38.599  31.310  31.047  1.00  0.00     0.049 A 
ATOM     43  H   UNL A   1      40.113  30.720  32.352  1.00  0.00     0.167 HD
ATOM     44  C   UNL A   1      43.491  29.630  34.884  1.00  0.00     0.031 A 
ATOM     45  C   UNL A   1      37.823  32.198  31.697  1.00  0.00     0.031 A 
ATOM     46  C   UNL A   1      42.710  30.555  35.662  1.00  0.00     0.049 A 
ATOM     47  C   UNL A   1      38.166  32.583  33.106  1.00  0.00     0.074 A 
ATOM     48  C   UNL A   1      42.961  31.020  36.942  1.00  0.00     0.029 A 
ATOM     49  N   UNL A   1      41.539  31.162  35.239  1.00  0.00    -0.354 N 
ATOM     50  N   UNL A   1      39.192  32.207  33.831  1.00  0.00    -0.248 NA
ATOM     51  C   UNL A   1      37.249  33.504  33.791  1.00  0.00     0.031 C 
ATOM     52  C   UNL A   1      41.913  31.865  37.314  1.00  0.00     0.029 A 
ATOM     53  C   UNL A   1      41.042  31.978  36.242  1.00  0.00     0.049 A 
ATOM     54  H   UNL A   1      41.121  31.032  34.357  1.00  0.00     0.167 HD
ATOM     55  C   UNL A   1      39.047  32.848  35.055  1.00  0.00     0.074 A 
ATOM     56  C   UNL A   1      37.846  33.653  34.967  1.00  0.00     0.031 C 
ATOM     57  C   UNL A   1      39.839  32.769  36.151  1.00  0.00     0.031 A 
BRANCH  44  58
ATOM     58  C   UNL A   1      44.740  29.071  35.515  1.00  0.00    -0.014 A 
ATOM     59  C   UNL A   1      44.664  27.916  36.314  1.00  0.00     0.010 A 
ATOM     60  C   UNL A   1      45.965  29.755  35.416  1.00  0.00     0.010 A 
ATOM     61  C   UNL A   1      45.781  27.466  37.022  1.00  0.00     0.020 A 
ATOM     62  C   UNL A   1      47.093  29.294  36.103  1.00  0.00     0.020 A 
ATOM     63  C   UNL A   1      46.988  28.164  36.919  1.00  0.00     0.054 A 
BRANCH  63  64
ATOM     64  S   UNL A   1      48.426  27.577  37.855  1.00  0.00     0.124 S 
ATOM     65  O   UNL A   1      48.978  28.820  38.385  1.00  0.00    -0.237 OA
ATOM     66  O   UNL A   1      47.824  26.683  38.841  1.00  0.00    -0.237 OA
ATOM     67  O   UNL A   1      49.243  26.911  36.842  1.00  0.00    -0.744 OA
ENDBRANCH  63  64
ENDBRANCH  44  58
BRANCH  45  68
ATOM     68  C   UNL A   1      36.655  32.788  30.988  1.00  0.00    -0.014 A 
ATOM     69  C   UNL A   1      36.848  33.590  29.848  1.00  0.00     0.010 A 
ATOM     70  C   UNL A   1      35.357  32.635  31.506  1.00  0.00     0.010 A 
ATOM     71  C   UNL A   1      35.779  34.284  29.279  1.00  0.00     0.020 A 
ATOM     72  C   UNL A   1      34.277  33.305  30.921  1.00  0.00     0.020 A 
ATOM     73  C   UNL A   1      34.502  34.151  29.831  1.00  0.00     0.054 A 
BRANCH  73  74
ATOM     74  S   UNL A   1      33.138  35.112  29.121  1.00  0.00     0.124 S 
ATOM     75  O   UNL A   1      32.299  35.349  30.292  1.00  0.00    -0.237 OA
ATOM     76  O   UNL A   1      33.817  36.289  28.586  1.00  0.00    -0.237 OA
ATOM     77  O   UNL A   1      32.574  34.213  28.117  1.00  0.00    -0.744 OA
ENDBRANCH  73  74
ENDBRANCH  45  68
BRANCH  57  78
ATOM     78  C   UNL A   1      39.447  33.560  37.370  1.00  0.00    -0.014 A 
ATOM     79  C   UNL A   1      39.758  34.932  37.442  1.00  0.00     0.010 A 
ATOM     80  C   UNL A   1      38.901  32.920  38.495  1.00  0.00     0.010 A 
ATOM     81  C   UNL A   1      39.563  35.641  38.629  1.00  0.00     0.020 A 
ATOM     82  C   UNL A   1      38.681  33.632  39.678  1.00  0.00     0.020 A 
ATOM     83  C   UNL A   1      39.038  34.982  39.745  1.00  0.00     0.054 A 
BRANCH  83  84
ATOM     84  S   UNL A   1      38.829  35.906  41.291  1.00  0.00     0.124 S 
ATOM     85  O   UNL A   1      37.550  35.402  41.781  1.00  0.00    -0.237 OA
ATOM     86  O   UNL A   1      40.003  35.508  42.066  1.00  0.00    -0.237 OA
ATOM     87  O   UNL A   1      38.827  37.302  40.857  1.00  0.00    -0.744 OA
ENDBRANCH  83  84
ENDBRANCH  57  78
ENDBRANCH  31  32
ENDBRANCH  23  26
ENDBRANCH  21  22
ENDBRANCH  20  21
ENDBRANCH   1  20
TORSDOF 18
ENDMDL
MODEL 3
REMARK VINA RESULT:     -10.1      3.172      9.630
REMARK SMILES O=C(Cc1ccc(=O)n(C(F)F)c1)NCCCCCCNC(=O)c1ccc(-c2c3nc(c(-c4ccc(S(=O)(=O)[O-])cc4)c4ccc([nH]4)c(-c4ccc(S(=O)(=O)[O-])cc4)c4nc(c(-c5ccc(S(=O)(=O)[O-])cc5)c5ccc2[nH]5)C=C4)C=C3)cc1
REMARK SMILES IDX 18 1 17 2 16 3 15 4 14 5 1 6 2 7 3 9 4 10 5 11 13 12 6 13
REMARK SMILES IDX 9 14 7 15 8 16 10 17 11 18 12 19 19 20 20 21 21 22 22 23
REMARK SMILES IDX 23 25 24 26 25 27 83 28 26 29 82 30 27 31 28 32 29 33 76 34
REMARK SMILES IDX 30 35 81 36 75 37 77 38 31 39 80 40 74 41 73 42 32 44 62 45
REMARK SMILES IDX 43 46 61 47 44 48 47 49 60 50 78 51 45 52 46 53 59 55 79 56
REMARK SMILES IDX 48 57 33 58 34 59 42 60 35 61 41 62 36 63 37 64 38 65 39 66
REMARK SMILES IDX 40 67 63 68 64 69 72 70 65 71 71 72 66 73 67 74 68 75 69 76
REMARK SMILES IDX 70 77 49 78 50 79 58 80 51 81 57 82 52 83 53 84 54 85 55 86
REMARK SMILES IDX 56 87
REMARK H PARENT 14 8 21 24 77 43 47 54
REMARK Flexibility Score: inf
ROOT
ATOM      1  C   UNL A   1      33.101  26.663  26.104  1.00  0.00     0.002 C 
ENDROOT
BRANCH   1   2
ATOM      2  C   UNL A   1      32.441  26.260  24.781  1.00  0.00     0.002 C 
BRANCH   2   3
ATOM      3  C   UNL A   1      33.042  26.885  23.514  1.00  0.00     0.021 C 
BRANCH   3   4
ATOM      4  C   UNL A   1      33.510  25.884  22.457  1.00  0.00     0.116 C 
BRANCH   4   5
ATOM      5  N   UNL A   1      33.286  24.520  22.886  1.00  0.00    -0.356 N 
ATOM      6  O   UNL A   1      33.291  23.553  20.799  1.00  0.00    -0.275 OA
ATOM      7  C   UNL A   1      33.185  23.457  22.017  1.00  0.00     0.224 C 
ATOM      8  H   UNL A   1      33.201  24.342  23.851  1.00  0.00     0.163 HD
BRANCH   7   9
ATOM      9  C   UNL A   1      32.879  22.123  22.689  1.00  0.00     0.137 C 
BRANCH   9  10
ATOM     10  C   UNL A   1      32.801  22.261  24.187  1.00  0.00    -0.022 A 
ATOM     11  C   UNL A   1      34.001  22.026  24.966  1.00  0.00     0.011 A 
ATOM     12  C   UNL A   1      31.668  22.596  24.828  1.00  0.00     0.099 A 
ATOM     13  C   UNL A   1      33.979  22.117  26.302  1.00  0.00     0.072 A 
ATOM     14  N   UNL A   1      31.621  22.703  26.208  1.00  0.00    -0.258 N 
ATOM     15  C   UNL A   1      32.724  22.479  27.015  1.00  0.00     0.254 A 
ATOM     16  O   UNL A   1      32.751  22.562  28.238  1.00  0.00    -0.269 OA
BRANCH  14  17
ATOM     17  C   UNL A   1      30.389  23.048  26.871  1.00  0.00     0.451 C 
ATOM     18  F   UNL A   1      30.000  24.305  26.553  1.00  0.00    -0.185 F 
ATOM     19  F   UNL A   1      29.394  22.197  26.518  1.00  0.00    -0.185 F 
ENDBRANCH  14  17
ENDBRANCH   9  10
ENDBRANCH   7   9
ENDBRANCH   4   5
ENDBRANCH   3   4
ENDBRANCH   2   3
ENDBRANCH   1   2
BRANCH   1  20
ATOM     20  C   UNL A   1      32.830  28.094  26.567  1.00  0.00     0.021 C 
BRANCH  20  21
ATOM     21  C   UNL A   1      33.895  29.117  26.185  1.00  0.00     0.116 C 
BRANCH  21  22
ATOM     22  N   UNL A   1      33.784  30.366  26.924  1.00  0.00    -0.352 N 
ATOM     23  C   UNL A   1      34.641  30.892  27.865  1.00  0.00     0.251 C 
ATOM     24  H   UNL A   1      32.988  30.910  26.722  1.00  0.00     0.163 HD
ATOM     25  O   UNL A   1      34.337  31.913  28.475  1.00  0.00    -0.269 OA
BRANCH  23  26
ATOM     26  C   UNL A   1      35.909  30.192  28.169  1.00  0.00     0.039 A 
ATOM     27  C   UNL A   1      36.083  29.532  29.388  1.00  0.00     0.014 A 
ATOM     28  C   UNL A   1      36.955  30.242  27.243  1.00  0.00     0.014 A 
ATOM     29  C   UNL A   1      37.348  29.078  29.750  1.00  0.00     0.010 A 
ATOM     30  C   UNL A   1      38.206  29.714  27.580  1.00  0.00     0.010 A 
ATOM     31  C   UNL A   1      38.428  29.179  28.858  1.00  0.00    -0.014 A 
BRANCH  31  32
ATOM     32  C   UNL A   1      39.781  28.740  29.294  1.00  0.00     0.031 A 
ATOM     33  C   UNL A   1      40.581  29.567  30.267  1.00  0.00     0.074 A 
ATOM     34  C   UNL A   1      40.260  27.555  28.868  1.00  0.00     0.049 A 
ATOM     35  N   UNL A   1      41.755  29.312  30.789  1.00  0.00    -0.248 NA
ATOM     36  C   UNL A   1      39.992  30.839  30.718  1.00  0.00     0.031 C 
ATOM     37  C   UNL A   1      39.567  26.651  27.948  1.00  0.00     0.029 A 
ATOM     38  N   UNL A   1      41.420  26.889  29.177  1.00  0.00    -0.354 N 
ATOM     39  C   UNL A   1      42.048  30.389  31.616  1.00  0.00     0.074 A 
ATOM     40  C   UNL A   1      40.946  31.319  31.506  1.00  0.00     0.031 C 
ATOM     41  C   UNL A   1      40.283  25.525  27.818  1.00  0.00     0.029 A 
ATOM     42  C   UNL A   1      41.516  25.648  28.592  1.00  0.00     0.049 A 
ATOM     43  H   UNL A   1      42.118  27.265  29.762  1.00  0.00     0.167 HD
ATOM     44  C   UNL A   1      43.130  30.580  32.407  1.00  0.00     0.031 A 
ATOM     45  C   UNL A   1      42.483  24.713  28.660  1.00  0.00     0.031 A 
ATOM     46  C   UNL A   1      44.221  29.647  32.525  1.00  0.00     0.049 A 
ATOM     47  C   UNL A   1      43.698  24.969  29.502  1.00  0.00     0.074 A 
ATOM     48  C   UNL A   1      45.357  29.755  33.309  1.00  0.00     0.029 A 
ATOM     49  N   UNL A   1      44.312  28.439  31.853  1.00  0.00    -0.354 N 
ATOM     50  N   UNL A   1      43.960  26.000  30.269  1.00  0.00    -0.248 NA
ATOM     51  C   UNL A   1      44.750  23.944  29.488  1.00  0.00     0.031 C 
ATOM     52  C   UNL A   1      46.160  28.638  33.070  1.00  0.00     0.029 A 
ATOM     53  C   UNL A   1      45.496  27.802  32.186  1.00  0.00     0.049 A 
ATOM     54  H   UNL A   1      43.636  28.085  31.232  1.00  0.00     0.167 HD
ATOM     55  C   UNL A   1      45.204  25.747  30.831  1.00  0.00     0.074 A 
ATOM     56  C   UNL A   1      45.635  24.456  30.336  1.00  0.00     0.031 C 
ATOM     57  C   UNL A   1      45.924  26.522  31.680  1.00  0.00     0.031 A 
BRANCH  44  58
ATOM     58  C   UNL A   1      43.208  31.846  33.220  1.00  0.00    -0.014 A 
ATOM     59  C   UNL A   1      43.819  32.990  32.674  1.00  0.00     0.010 A 
ATOM     60  C   UNL A   1      42.784  31.870  34.560  1.00  0.00     0.010 A 
ATOM     61  C   UNL A   1      44.028  34.127  33.460  1.00  0.00     0.020 A 
ATOM     62  C   UNL A   1      42.969  33.014  35.343  1.00  0.00     0.020 A 
ATOM     63  C   UNL A   1      43.610  34.128  34.794  1.00  0.00     0.054 A 
BRANCH  63  64
ATOM     64  S   UNL A   1      43.901  35.605  35.806  1.00  0.00     0.124 S 
ATOM     65  O   UNL A   1      42.549  35.969  36.216  1.00  0.00    -0.237 OA
ATOM     66  O   UNL A   1      44.769  35.100  36.867  1.00  0.00    -0.237 OA
ATOM     67  O   UNL A   1      44.545  36.532  34.877  1.00  0.00    -0.744 OA
ENDBRANCH  63  64
ENDBRANCH  44  58
BRANCH  45  68
ATOM     68  C   UNL A   1      42.306  23.440  27.909  1.00  0.00    -0.014 A 
ATOM     69  C   UNL A   1      41.489  22.418  28.427  1.00  0.00     0.010 A 
ATOM     70  C   UNL A   1      43.032  23.204  26.729  1.00  0.00     0.010 A 
ATOM     71  C   UNL A   1      41.451  21.162  27.819  1.00  0.00     0.020 A 
ATOM     72  C   UNL A   1      42.975  21.955  26.099  1.00  0.00     0.020 A 
ATOM     73  C   UNL A   1      42.210  20.933  26.668  1.00  0.00     0.054 A 
BRANCH  73  74
ATOM     74  S   UNL A   1      42.203  19.276  25.931  1.00  0.00     0.124 S 
ATOM     75  O   UNL A   1      40.783  19.081  25.652  1.00  0.00    -0.237 OA
ATOM     76  O   UNL A   1      43.057  19.442  24.758  1.00  0.00    -0.237 OA
ATOM     77  O   UNL A   1      42.756  18.431  26.985  1.00  0.00    -0.744 OA
ENDBRANCH  73  74
ENDBRANCH  45  68
BRANCH  57  78
ATOM     78  C   UNL A   1      47.267  26.019  32.135  1.00  0.00    -0.014 A 
ATOM     79  C   UNL A   1      48.407  26.254  31.341  1.00  0.00     0.010 A 
ATOM     80  C   UNL A   1      47.380  25.199  33.269  1.00  0.00     0.010 A 
ATOM     81  C   UNL A   1      49.625  25.649  31.653  1.00  0.00     0.020 A 
ATOM     82  C   UNL A   1      48.603  24.610  33.600  1.00  0.00     0.020 A 
ATOM     83  C   UNL A   1      49.712  24.818  32.774  1.00  0.00     0.054 A 
BRANCH  83  84
ATOM     84  S   UNL A   1      51.291  24.006  33.143  1.00  0.00     0.124 S 
ATOM     85  O   UNL A   1      51.531  24.412  34.524  1.00  0.00    -0.237 OA
ATOM     86  O   UNL A   1      50.980  22.591  32.946  1.00  0.00    -0.237 OA
ATOM     87  O   UNL A   1      52.207  24.575  32.156  1.00  0.00    -0.744 OA
ENDBRANCH  83  84
ENDBRANCH  57  78
ENDBRANCH  31  32
ENDBRANCH  23  26
ENDBRANCH  21  22
ENDBRANCH  20  21
ENDBRANCH   1  20
TORSDOF 18
ENDMDL
