MODEL 1
REMARK VINA RESULT:     -11.4      0.000      0.000
REMARK SMILES NC(=O)c1ccccc1NC(=O)[C@@H]1CC=CC[C@@H]1C(=O)NCCCCCCNC(=O)c1ccc(-c2c3nc(c(-c4ccc(S(=O)(=O)[O-])cc4)c4ccc([nH]4)c(-c4ccc(S(=O)(=O)[O-])cc4)c4nc(c(-c5ccc(S(=O)(=O)[O-])cc5)c5ccc2[nH]5)C=C4)C=C3)cc1
REMARK SMILES IDX 24 1 23 2 22 3 21 4 19 5 20 6 18 8 13 9 14 10 15 11 17 12
REMARK SMILES IDX 16 13 11 14 10 15 12 17 9 18 4 19 5 20 6 21 8 22 7 23 2 24
REMARK SMILES IDX 1 25 3 28 25 29 26 30 27 31 28 32 29 33 30 35 31 36 32 37
REMARK SMILES IDX 90 38 33 39 89 40 34 41 35 42 36 43 83 44 37 45 88 46 82 47
REMARK SMILES IDX 84 48 38 49 87 50 81 51 80 52 39 54 69 55 50 56 68 57 51 58
REMARK SMILES IDX 54 59 67 60 85 61 52 62 53 63 66 65 86 66 55 67 40 68 41 69
REMARK SMILES IDX 49 70 42 71 48 72 43 73 44 74 45 75 46 76 47 77 70 78 71 79
REMARK SMILES IDX 79 80 72 81 78 82 73 83 74 84 75 85 76 86 77 87 56 88 57 89
REMARK SMILES IDX 65 90 58 91 64 92 59 93 60 94 61 95 62 96 63 97
REMARK H PARENT 21 7 10 16 1 26 1 27 28 34 84 53 54 64
REMARK Flexibility Score: inf
ROOT
ATOM      1  C   UNL A   1      39.452  22.461  26.552  1.00  0.00     0.002 C 
ENDROOT
BRANCH   1   2
ATOM      2  C   UNL A   1      38.369  21.842  25.663  1.00  0.00     0.021 C 
BRANCH   2   3
ATOM      3  C   UNL A   1      37.094  22.664  25.517  1.00  0.00     0.116 C 
BRANCH   3   4
ATOM      4  N   UNL A   1      36.036  22.257  26.415  1.00  0.00    -0.356 N 
ATOM      5  C   UNL A   1      34.778  22.753  26.592  1.00  0.00     0.224 C 
ATOM      6  O   UNL A   1      34.107  22.214  27.475  1.00  0.00    -0.275 OA
ATOM      7  H   UNL A   1      36.260  21.495  26.996  1.00  0.00     0.163 HD
BRANCH   5   8
ATOM      8  C   UNL A   1      34.257  23.972  25.810  1.00  0.00     0.095 C 
ATOM      9  C   UNL A   1      32.726  23.915  25.580  1.00  0.00     0.095 C 
ATOM     10  C   UNL A   1      32.325  22.592  24.898  1.00  0.00     0.041 C 
ATOM     11  C   UNL A   1      33.148  22.391  23.653  1.00  0.00    -0.030 C 
ATOM     12  C   UNL A   1      34.818  24.121  24.366  1.00  0.00     0.041 C 
ATOM     13  C   UNL A   1      34.253  23.110  23.395  1.00  0.00    -0.030 C 
BRANCH   9  14
ATOM     14  C   UNL A   1      31.740  24.394  26.638  1.00  0.00     0.228 C 
ATOM     15  N   UNL A   1      31.425  25.751  26.678  1.00  0.00    -0.325 N 
ATOM     16  H   UNL A   1      30.687  25.996  27.281  1.00  0.00     0.169 HD
ATOM     17  O   UNL A   1      31.193  23.634  27.434  1.00  0.00    -0.274 OA
BRANCH  15  18
ATOM     18  C   UNL A   1      32.020  26.835  25.970  1.00  0.00     0.053 A 
ATOM     19  C   UNL A   1      31.571  27.186  24.687  1.00  0.00     0.063 A 
ATOM     20  C   UNL A   1      32.383  27.967  23.847  1.00  0.00     0.016 A 
ATOM     21  C   UNL A   1      33.589  28.488  24.314  1.00  0.00     0.001 A 
ATOM     22  C   UNL A   1      33.132  27.524  26.473  1.00  0.00     0.027 A 
ATOM     23  C   UNL A   1      33.937  28.308  25.645  1.00  0.00     0.002 A 
BRANCH  19  24
ATOM     24  C   UNL A   1      30.270  26.744  24.143  1.00  0.00     0.250 C 
ATOM     25  N   UNL A   1      29.536  27.693  23.489  1.00  0.00    -0.366 N 
ATOM     26  H   UNL A   1      28.661  27.458  23.104  1.00  0.00     0.159 HD
ATOM     27  H   UNL A   1      29.883  28.610  23.402  1.00  0.00     0.159 HD
ATOM     28  O   UNL A   1      29.903  25.573  24.200  1.00  0.00    -0.269 OA
ENDBRANCH  19  24
ENDBRANCH  15  18
ENDBRANCH   9  14
ENDBRANCH   5   8
ENDBRANCH   3   4
ENDBRANCH   2   3
ENDBRANCH   1   2
BRANCH   1  29
ATOM     29  C   UNL A   1      40.767  21.683  26.671  1.00  0.00     0.002 C 
BRANCH  29  30
ATOM     30  C   UNL A   1      41.701  22.096  27.811  1.00  0.00     0.021 C 
BRANCH  30  31
ATOM     31  C   UNL A   1      42.905  22.947  27.418  1.00  0.00     0.116 C 
BRANCH  31  32
ATOM     32  N   UNL A   1      42.676  23.748  26.229  1.00  0.00    -0.352 N 
ATOM     33  C   UNL A   1      42.218  25.037  26.117  1.00  0.00     0.251 C 
ATOM     34  H   UNL A   1      42.879  23.300  25.377  1.00  0.00     0.163 HD
ATOM     35  O   UNL A   1      41.994  25.504  25.004  1.00  0.00    -0.269 OA
BRANCH  33  36
ATOM     36  C   UNL A   1      41.960  25.856  27.325  1.00  0.00     0.039 A 
ATOM     37  C   UNL A   1      42.906  26.821  27.685  1.00  0.00     0.014 A 
ATOM     38  C   UNL A   1      40.819  25.672  28.113  1.00  0.00     0.014 A 
ATOM     39  C   UNL A   1      42.679  27.637  28.796  1.00  0.00     0.010 A 
ATOM     40  C   UNL A   1      40.563  26.532  29.182  1.00  0.00     0.010 A 
ATOM     41  C   UNL A   1      41.490  27.523  29.536  1.00  0.00    -0.014 A 
BRANCH  41  42
ATOM     42  C   UNL A   1      41.215  28.446  30.670  1.00  0.00     0.031 A 
ATOM     43  C   UNL A   1      42.028  28.370  31.935  1.00  0.00     0.074 A 
ATOM     44  C   UNL A   1      40.217  29.347  30.563  1.00  0.00     0.049 A 
ATOM     45  N   UNL A   1      41.932  29.098  33.019  1.00  0.00    -0.248 NA
ATOM     46  C   UNL A   1      43.073  27.334  32.000  1.00  0.00     0.031 C 
ATOM     47  C   UNL A   1      39.326  29.491  29.408  1.00  0.00     0.029 A 
ATOM     48  N   UNL A   1      39.784  30.313  31.436  1.00  0.00    -0.354 N 
ATOM     49  C   UNL A   1      42.903  28.616  33.889  1.00  0.00     0.074 A 
ATOM     50  C   UNL A   1      43.538  27.493  33.231  1.00  0.00     0.031 C 
ATOM     51  C   UNL A   1      38.476  30.506  29.632  1.00  0.00     0.029 A 
ATOM     52  C   UNL A   1      38.735  31.063  30.956  1.00  0.00     0.049 A 
ATOM     53  H   UNL A   1      40.187  30.457  32.323  1.00  0.00     0.167 HD
ATOM     54  C   UNL A   1      43.257  29.081  35.110  1.00  0.00     0.031 A 
ATOM     55  C   UNL A   1      38.056  32.082  31.516  1.00  0.00     0.031 A 
ATOM     56  C   UNL A   1      42.628  30.199  35.766  1.00  0.00     0.049 A 
ATOM     57  C   UNL A   1      38.460  32.569  32.882  1.00  0.00     0.074 A 
ATOM     58  C   UNL A   1      42.931  30.758  36.996  1.00  0.00     0.029 A 
ATOM     59  N   UNL A   1      41.575  30.934  35.244  1.00  0.00    -0.354 N 
ATOM     60  N   UNL A   1      39.417  32.129  33.664  1.00  0.00    -0.248 NA
ATOM     61  C   UNL A   1      37.703  33.701  33.433  1.00  0.00     0.031 C 
ATOM     62  C   UNL A   1      42.035  31.805  37.235  1.00  0.00     0.029 A 
ATOM     63  C   UNL A   1      41.210  31.932  36.130  1.00  0.00     0.049 A 
ATOM     64  H   UNL A   1      41.150  30.769  34.370  1.00  0.00     0.167 HD
ATOM     65  C   UNL A   1      39.393  32.949  34.787  1.00  0.00     0.074 A 
ATOM     66  C   UNL A   1      38.345  33.924  34.571  1.00  0.00     0.031 C 
ATOM     67  C   UNL A   1      40.164  32.897  35.901  1.00  0.00     0.031 A 
BRANCH  54  68
ATOM     68  C   UNL A   1      44.396  28.394  35.819  1.00  0.00    -0.014 A 
ATOM     69  C   UNL A   1      45.718  28.846  35.653  1.00  0.00     0.010 A 
ATOM     70  C   UNL A   1      44.141  27.337  36.711  1.00  0.00     0.010 A 
ATOM     71  C   UNL A   1      46.767  28.240  36.348  1.00  0.00     0.020 A 
ATOM     72  C   UNL A   1      45.185  26.744  37.428  1.00  0.00     0.020 A 
ATOM     73  C   UNL A   1      46.494  27.193  37.234  1.00  0.00     0.054 A 
BRANCH  73  74
ATOM     74  S   UNL A   1      47.870  26.459  38.160  1.00  0.00     0.124 S 
ATOM     75  O   UNL A   1      48.591  27.645  38.617  1.00  0.00    -0.237 OA
ATOM     76  O   UNL A   1      47.184  25.701  39.204  1.00  0.00    -0.237 OA
ATOM     77  O   UNL A   1      48.568  25.652  37.163  1.00  0.00    -0.744 OA
ENDBRANCH  73  74
ENDBRANCH  54  68
BRANCH  55  78
ATOM     78  C   UNL A   1      36.919  32.716  30.794  1.00  0.00    -0.014 A 
ATOM     79  C   UNL A   1      37.126  33.823  29.952  1.00  0.00     0.010 A 
ATOM     80  C   UNL A   1      35.610  32.230  30.973  1.00  0.00     0.010 A 
ATOM     81  C   UNL A   1      36.042  34.460  29.339  1.00  0.00     0.020 A 
ATOM     82  C   UNL A   1      34.528  32.845  30.337  1.00  0.00     0.020 A 
ATOM     83  C   UNL A   1      34.749  33.970  29.541  1.00  0.00     0.054 A 
BRANCH  83  84
ATOM     84  S   UNL A   1      33.354  34.803  28.734  1.00  0.00     0.124 S 
ATOM     85  O   UNL A   1      32.537  35.199  29.876  1.00  0.00    -0.237 OA
ATOM     86  O   UNL A   1      34.009  35.894  28.015  1.00  0.00    -0.237 OA
ATOM     87  O   UNL A   1      32.783  33.763  27.883  1.00  0.00    -0.744 OA
ENDBRANCH  83  84
ENDBRANCH  55  78
BRANCH  67  88
ATOM     88  C   UNL A   1      39.924  33.945  36.954  1.00  0.00    -0.014 A 
ATOM     89  C   UNL A   1      40.447  35.244  36.821  1.00  0.00     0.010 A 
ATOM     90  C   UNL A   1      39.143  33.633  38.081  1.00  0.00     0.010 A 
ATOM     91  C   UNL A   1      40.232  36.197  37.821  1.00  0.00     0.020 A 
ATOM     92  C   UNL A   1      38.901  34.591  39.068  1.00  0.00     0.020 A 
ATOM     93  C   UNL A   1      39.464  35.862  38.941  1.00  0.00     0.054 A 
BRANCH  93  94
ATOM     94  S   UNL A   1      39.185  37.122  40.215  1.00  0.00     0.124 S 
ATOM     95  O   UNL A   1      38.527  38.182  39.454  1.00  0.00    -0.237 OA
ATOM     96  O   UNL A   1      38.338  36.422  41.179  1.00  0.00    -0.237 OA
ATOM     97  O   UNL A   1      40.530  37.438  40.690  1.00  0.00    -0.744 OA
ENDBRANCH  93  94
ENDBRANCH  67  88
ENDBRANCH  41  42
ENDBRANCH  33  36
ENDBRANCH  31  32
ENDBRANCH  30  31
ENDBRANCH  29  30
ENDBRANCH   1  29
TORSDOF 19
ENDMDL
MODEL 2
REMARK VINA RESULT:     -11.2      4.502      9.894
REMARK SMILES NC(=O)c1ccccc1NC(=O)[C@@H]1CC=CC[C@@H]1C(=O)NCCCCCCNC(=O)c1ccc(-c2c3nc(c(-c4ccc(S(=O)(=O)[O-])cc4)c4ccc([nH]4)c(-c4ccc(S(=O)(=O)[O-])cc4)c4nc(c(-c5ccc(S(=O)(=O)[O-])cc5)c5ccc2[nH]5)C=C4)C=C3)cc1
REMARK SMILES IDX 24 1 23 2 22 3 21 4 19 5 20 6 18 8 13 9 14 10 15 11 17 12
REMARK SMILES IDX 16 13 11 14 10 15 12 17 9 18 4 19 5 20 6 21 8 22 7 23 2 24
REMARK SMILES IDX 1 25 3 28 25 29 26 30 27 31 28 32 29 33 30 35 31 36 32 37
REMARK SMILES IDX 90 38 33 39 89 40 34 41 35 42 36 43 83 44 37 45 88 46 82 47
REMARK SMILES IDX 84 48 38 49 87 50 81 51 80 52 39 54 69 55 50 56 68 57 51 58
REMARK SMILES IDX 54 59 67 60 85 61 52 62 53 63 66 65 86 66 55 67 40 68 41 69
REMARK SMILES IDX 49 70 42 71 48 72 43 73 44 74 45 75 46 76 47 77 70 78 71 79
REMARK SMILES IDX 79 80 72 81 78 82 73 83 74 84 75 85 76 86 77 87 56 88 57 89
REMARK SMILES IDX 65 90 58 91 64 92 59 93 60 94 61 95 62 96 63 97
REMARK H PARENT 21 7 10 16 1 26 1 27 28 34 84 53 54 64
REMARK Flexibility Score: inf
ROOT
ATOM      1  C   UNL A   1      31.409  26.813  26.493  1.00  0.00     0.002 C 
ENDROOT
BRANCH   1   2
ATOM      2  C   UNL A   1      31.246  25.399  25.927  1.00  0.00     0.021 C 
BRANCH   2   3
ATOM      3  C   UNL A   1      32.286  24.385  26.388  1.00  0.00     0.116 C 
BRANCH   3   4
ATOM      4  N   UNL A   1      33.650  24.813  26.167  1.00  0.00    -0.356 N 
ATOM      5  C   UNL A   1      34.636  24.279  25.393  1.00  0.00     0.224 C 
ATOM      6  O   UNL A   1      35.726  24.854  25.439  1.00  0.00    -0.275 OA
ATOM      7  H   UNL A   1      33.909  25.627  26.658  1.00  0.00     0.163 HD
BRANCH   5   8
ATOM      8  C   UNL A   1      34.439  22.983  24.588  1.00  0.00     0.095 C 
ATOM      9  C   UNL A   1      35.021  21.743  25.313  1.00  0.00     0.095 C 
ATOM     10  C   UNL A   1      36.503  21.966  25.673  1.00  0.00     0.041 C 
ATOM     11  C   UNL A   1      37.268  22.382  24.445  1.00  0.00    -0.030 C 
ATOM     12  C   UNL A   1      35.160  22.945  23.209  1.00  0.00     0.041 C 
ATOM     13  C   UNL A   1      36.659  22.787  23.319  1.00  0.00    -0.030 C 
BRANCH   9  14
ATOM     14  C   UNL A   1      34.227  20.994  26.376  1.00  0.00     0.228 C 
ATOM     15  N   UNL A   1      33.704  19.744  26.050  1.00  0.00    -0.325 N 
ATOM     16  H   UNL A   1      33.319  19.237  26.800  1.00  0.00     0.169 HD
ATOM     17  O   UNL A   1      34.053  21.432  27.512  1.00  0.00    -0.274 OA
BRANCH  15  18
ATOM     18  C   UNL A   1      33.648  19.094  24.782  1.00  0.00     0.053 A 
ATOM     19  C   UNL A   1      32.690  19.468  23.827  1.00  0.00     0.063 A 
ATOM     20  C   UNL A   1      32.379  18.599  22.766  1.00  0.00     0.016 A 
ATOM     21  C   UNL A   1      33.089  17.413  22.593  1.00  0.00     0.001 A 
ATOM     22  C   UNL A   1      34.470  18.001  24.476  1.00  0.00     0.027 A 
ATOM     23  C   UNL A   1      34.170  17.140  23.419  1.00  0.00     0.002 A 
BRANCH  19  24
ATOM     24  C   UNL A   1      31.948  20.744  23.890  1.00  0.00     0.250 C 
ATOM     25  N   UNL A   1      31.813  21.422  22.713  1.00  0.00    -0.366 N 
ATOM     26  H   UNL A   1      31.327  22.279  22.691  1.00  0.00     0.159 HD
ATOM     27  H   UNL A   1      32.199  21.054  21.886  1.00  0.00     0.159 HD
ATOM     28  O   UNL A   1      31.410  21.136  24.924  1.00  0.00    -0.269 OA
ENDBRANCH  19  24
ENDBRANCH  15  18
ENDBRANCH   9  14
ENDBRANCH   5   8
ENDBRANCH   3   4
ENDBRANCH   2   3
ENDBRANCH   1   2
BRANCH   1  29
ATOM     29  C   UNL A   1      31.749  27.918  25.487  1.00  0.00     0.002 C 
BRANCH  29  30
ATOM     30  C   UNL A   1      33.236  28.163  25.222  1.00  0.00     0.021 C 
BRANCH  30  31
ATOM     31  C   UNL A   1      34.105  28.414  26.451  1.00  0.00     0.116 C 
BRANCH  31  32
ATOM     32  N   UNL A   1      33.838  29.689  27.090  1.00  0.00    -0.352 N 
ATOM     33  C   UNL A   1      34.625  30.426  27.940  1.00  0.00     0.251 C 
ATOM     34  H   UNL A   1      32.961  30.086  26.882  1.00  0.00     0.163 HD
ATOM     35  O   UNL A   1      34.169  31.441  28.457  1.00  0.00    -0.269 OA
BRANCH  33  36
ATOM     36  C   UNL A   1      36.003  29.987  28.264  1.00  0.00     0.039 A 
ATOM     37  C   UNL A   1      36.970  30.045  27.255  1.00  0.00     0.014 A 
ATOM     38  C   UNL A   1      36.348  29.506  29.530  1.00  0.00     0.014 A 
ATOM     39  C   UNL A   1      38.288  29.676  27.533  1.00  0.00     0.010 A 
ATOM     40  C   UNL A   1      37.677  29.201  29.824  1.00  0.00     0.010 A 
ATOM     41  C   UNL A   1      38.662  29.282  28.829  1.00  0.00    -0.014 A 
BRANCH  41  42
ATOM     42  C   UNL A   1      40.082  28.966  29.141  1.00  0.00     0.031 A 
ATOM     43  C   UNL A   1      40.657  27.614  28.812  1.00  0.00     0.074 A 
ATOM     44  C   UNL A   1      40.851  29.898  29.739  1.00  0.00     0.049 A 
ATOM     45  N   UNL A   1      41.872  27.168  29.007  1.00  0.00    -0.248 NA
ATOM     46  C   UNL A   1      39.749  26.630  28.200  1.00  0.00     0.031 C 
ATOM     47  C   UNL A   1      40.401  31.231  30.152  1.00  0.00     0.029 A 
ATOM     48  N   UNL A   1      42.175  29.870  30.103  1.00  0.00    -0.354 N 
ATOM     49  C   UNL A   1      41.877  25.859  28.537  1.00  0.00     0.074 A 
ATOM     50  C   UNL A   1      40.529  25.562  28.103  1.00  0.00     0.031 C 
ATOM     51  C   UNL A   1      41.437  31.901  30.682  1.00  0.00     0.029 A 
ATOM     52  C   UNL A   1      42.614  31.039  30.680  1.00  0.00     0.049 A 
ATOM     53  H   UNL A   1      42.754  29.087  29.964  1.00  0.00     0.167 HD
ATOM     54  C   UNL A   1      42.915  24.993  28.446  1.00  0.00     0.031 A 
ATOM     55  C   UNL A   1      43.827  31.380  31.156  1.00  0.00     0.031 A 
ATOM     56  C   UNL A   1      44.258  25.287  28.875  1.00  0.00     0.049 A 
ATOM     57  C   UNL A   1      44.958  30.392  31.056  1.00  0.00     0.074 A 
ATOM     58  C   UNL A   1      45.380  24.481  28.804  1.00  0.00     0.029 A 
ATOM     59  N   UNL A   1      44.662  26.483  29.448  1.00  0.00    -0.354 N 
ATOM     60  N   UNL A   1      44.950  29.178  30.560  1.00  0.00    -0.248 NA
ATOM     61  C   UNL A   1      46.266  30.827  31.565  1.00  0.00     0.031 C 
ATOM     62  C   UNL A   1      46.456  25.174  29.370  1.00  0.00     0.029 A 
ATOM     63  C   UNL A   1      46.014  26.432  29.744  1.00  0.00     0.049 A 
ATOM     64  H   UNL A   1      44.074  27.255  29.617  1.00  0.00     0.167 HD
ATOM     65  C   UNL A   1      46.257  28.715  30.674  1.00  0.00     0.074 A 
ATOM     66  C   UNL A   1      47.031  29.788  31.262  1.00  0.00     0.031 C 
ATOM     67  C   UNL A   1      46.771  27.509  30.329  1.00  0.00     0.031 A 
BRANCH  54  68
ATOM     68  C   UNL A   1      42.646  23.641  27.837  1.00  0.00    -0.014 A 
ATOM     69  C   UNL A   1      42.999  23.375  26.501  1.00  0.00     0.010 A 
ATOM     70  C   UNL A   1      42.104  22.606  28.621  1.00  0.00     0.010 A 
ATOM     71  C   UNL A   1      42.794  22.106  25.954  1.00  0.00     0.020 A 
ATOM     72  C   UNL A   1      41.922  21.328  28.084  1.00  0.00     0.020 A 
ATOM     73  C   UNL A   1      42.259  21.089  26.750  1.00  0.00     0.054 A 
BRANCH  73  74
ATOM     74  S   UNL A   1      42.052  19.439  26.025  1.00  0.00     0.124 S 
ATOM     75  O   UNL A   1      42.871  19.535  24.820  1.00  0.00    -0.237 OA
ATOM     76  O   UNL A   1      42.575  18.563  27.072  1.00  0.00    -0.237 OA
ATOM     77  O   UNL A   1      40.613  19.339  25.794  1.00  0.00    -0.744 OA
ENDBRANCH  73  74
ENDBRANCH  54  68
BRANCH  55  78
ATOM     78  C   UNL A   1      44.044  32.717  31.774  1.00  0.00    -0.014 A 
ATOM     79  C   UNL A   1      44.453  33.815  30.996  1.00  0.00     0.010 A 
ATOM     80  C   UNL A   1      43.873  32.890  33.160  1.00  0.00     0.010 A 
ATOM     81  C   UNL A   1      44.730  35.047  31.598  1.00  0.00     0.020 A 
ATOM     82  C   UNL A   1      44.117  34.128  33.761  1.00  0.00     0.020 A 
ATOM     83  C   UNL A   1      44.565  35.193  32.978  1.00  0.00     0.054 A 
BRANCH  83  84
ATOM     84  S   UNL A   1      44.922  36.799  33.742  1.00  0.00     0.124 S 
ATOM     85  O   UNL A   1      45.326  36.410  35.089  1.00  0.00    -0.237 OA
ATOM     86  O   UNL A   1      45.984  37.328  32.889  1.00  0.00    -0.237 OA
ATOM     87  O   UNL A   1      43.649  37.510  33.649  1.00  0.00    -0.744 OA
ENDBRANCH  83  84
ENDBRANCH  55  78
BRANCH  67  88
ATOM     88  C   UNL A   1      48.246  27.301  30.548  1.00  0.00    -0.014 A 
ATOM     89  C   UNL A   1      49.182  27.615  29.547  1.00  0.00     0.010 A 
ATOM     90  C   UNL A   1      48.702  26.807  31.783  1.00  0.00     0.010 A 
ATOM     91  C   UNL A   1      50.545  27.393  29.761  1.00  0.00     0.020 A 
ATOM     92  C   UNL A   1      50.067  26.612  32.012  1.00  0.00     0.020 A 
ATOM     93  C   UNL A   1      50.978  26.888  30.991  1.00  0.00     0.054 A 
BRANCH  93  94
ATOM     94  S   UNL A   1      52.754  26.627  31.251  1.00  0.00     0.124 S 
ATOM     95  O   UNL A   1      53.046  27.573  32.325  1.00  0.00    -0.237 OA
ATOM     96  O   UNL A   1      52.820  25.215  31.622  1.00  0.00    -0.237 OA
ATOM     97  O   UNL A   1      53.345  26.953  29.955  1.00  0.00    -0.744 OA
ENDBRANCH  93  94
ENDBRANCH  67  88
ENDBRANCH  41  42
ENDBRANCH  33  36
ENDBRANCH  31  32
ENDBRANCH  30  31
ENDBRANCH  29  30
ENDBRANCH   1  29
TORSDOF 19
ENDMDL
MODEL 3
REMARK VINA RESULT:     -11.1      6.129      8.136
REMARK SMILES NC(=O)c1ccccc1NC(=O)[C@@H]1CC=CC[C@@H]1C(=O)NCCCCCCNC(=O)c1ccc(-c2c3nc(c(-c4ccc(S(=O)(=O)[O-])cc4)c4ccc([nH]4)c(-c4ccc(S(=O)(=O)[O-])cc4)c4nc(c(-c5ccc(S(=O)(=O)[O-])cc5)c5ccc2[nH]5)C=C4)C=C3)cc1
REMARK SMILES IDX 24 1 23 2 22 3 21 4 19 5 20 6 18 8 13 9 14 10 15 11 17 12
REMARK SMILES IDX 16 13 11 14 10 15 12 17 9 18 4 19 5 20 6 21 8 22 7 23 2 24
REMARK SMILES IDX 1 25 3 28 25 29 26 30 27 31 28 32 29 33 30 35 31 36 32 37
REMARK SMILES IDX 90 38 33 39 89 40 34 41 35 42 36 43 83 44 37 45 88 46 82 47
REMARK SMILES IDX 84 48 38 49 87 50 81 51 80 52 39 54 69 55 50 56 68 57 51 58
REMARK SMILES IDX 54 59 67 60 85 61 52 62 53 63 66 65 86 66 55 67 40 68 41 69
REMARK SMILES IDX 49 70 42 71 48 72 43 73 44 74 45 75 46 76 47 77 70 78 71 79
REMARK SMILES IDX 79 80 72 81 78 82 73 83 74 84 75 85 76 86 77 87 56 88 57 89
REMARK SMILES IDX 65 90 58 91 64 92 59 93 60 94 61 95 62 96 63 97
REMARK H PARENT 21 7 10 16 1 26 1 27 28 34 84 53 54 64
REMARK Flexibility Score: inf
ROOT
ATOM      1  C   UNL A   1      39.048  21.984  26.071  1.00  0.00     0.002 C 
ENDROOT
BRANCH   1   2
ATOM      2  C   UNL A   1      38.684  23.430  26.417  1.00  0.00     0.021 C 
BRANCH   2   3
ATOM      3  C   UNL A   1      37.284  23.870  26.005  1.00  0.00     0.116 C 
BRANCH   3   4
ATOM      4  N   UNL A   1      36.237  22.996  26.485  1.00  0.00    -0.356 N 
ATOM      5  C   UNL A   1      34.883  23.069  26.346  1.00  0.00     0.224 C 
ATOM      6  O   UNL A   1      34.236  22.182  26.908  1.00  0.00    -0.275 OA
ATOM      7  H   UNL A   1      36.554  22.217  26.996  1.00  0.00     0.163 HD
BRANCH   5   8
ATOM      8  C   UNL A   1      34.192  24.237  25.620  1.00  0.00     0.095 C 
ATOM      9  C   UNL A   1      32.668  24.011  25.455  1.00  0.00     0.095 C 
ATOM     10  C   UNL A   1      32.387  22.666  24.758  1.00  0.00     0.041 C 
ATOM     11  C   UNL A   1      33.168  22.585  23.474  1.00  0.00    -0.030 C 
ATOM     12  C   UNL A   1      34.664  24.478  24.156  1.00  0.00     0.041 C 
ATOM     13  C   UNL A   1      34.172  23.429  23.186  1.00  0.00    -0.030 C 
BRANCH   9  14
ATOM     14  C   UNL A   1      31.685  24.355  26.568  1.00  0.00     0.228 C 
ATOM     15  N   UNL A   1      30.878  25.480  26.410  1.00  0.00    -0.325 N 
ATOM     16  H   UNL A   1      30.167  25.588  27.082  1.00  0.00     0.169 HD
ATOM     17  O   UNL A   1      31.556  23.668  27.580  1.00  0.00    -0.274 OA
BRANCH  15  18
ATOM     18  C   UNL A   1      30.936  26.498  25.414  1.00  0.00     0.053 A 
ATOM     19  C   UNL A   1      31.549  27.732  25.685  1.00  0.00     0.063 A 
ATOM     20  C   UNL A   1      31.271  28.846  24.874  1.00  0.00     0.016 A 
ATOM     21  C   UNL A   1      30.475  28.714  23.738  1.00  0.00     0.001 A 
ATOM     22  C   UNL A   1      30.304  26.351  24.172  1.00  0.00     0.027 A 
ATOM     23  C   UNL A   1      30.035  27.454  23.359  1.00  0.00     0.002 A 
BRANCH  19  24
ATOM     24  C   UNL A   1      32.469  27.939  26.821  1.00  0.00     0.250 C 
ATOM     25  N   UNL A   1      33.797  28.028  26.513  1.00  0.00    -0.366 N 
ATOM     26  H   UNL A   1      34.460  28.166  27.229  1.00  0.00     0.159 HD
ATOM     27  H   UNL A   1      34.091  27.954  25.577  1.00  0.00     0.159 HD
ATOM     28  O   UNL A   1      32.062  28.107  27.969  1.00  0.00    -0.269 OA
ENDBRANCH  19  24
ENDBRANCH  15  18
ENDBRANCH   9  14
ENDBRANCH   5   8
ENDBRANCH   3   4
ENDBRANCH   2   3
ENDBRANCH   1   2
BRANCH   1  29
ATOM     29  C   UNL A   1      40.443  21.510  26.491  1.00  0.00     0.002 C 
BRANCH  29  30
ATOM     30  C   UNL A   1      40.819  20.077  26.108  1.00  0.00     0.021 C 
BRANCH  30  31
ATOM     31  C   UNL A   1      42.229  19.628  26.484  1.00  0.00     0.116 C 
BRANCH  31  32
ATOM     32  N   UNL A   1      43.031  19.243  25.338  1.00  0.00    -0.352 N 
ATOM     33  C   UNL A   1      43.954  19.973  24.630  1.00  0.00     0.251 C 
ATOM     34  H   UNL A   1      42.894  18.322  25.021  1.00  0.00     0.163 HD
ATOM     35  O   UNL A   1      44.456  19.492  23.618  1.00  0.00    -0.269 OA
BRANCH  33  36
ATOM     36  C   UNL A   1      44.321  21.344  25.056  1.00  0.00     0.039 A 
ATOM     37  C   UNL A   1      43.783  22.423  24.348  1.00  0.00     0.014 A 
ATOM     38  C   UNL A   1      45.196  21.579  26.121  1.00  0.00     0.014 A 
ATOM     39  C   UNL A   1      44.075  23.731  24.743  1.00  0.00     0.010 A 
ATOM     40  C   UNL A   1      45.434  22.883  26.555  1.00  0.00     0.010 A 
ATOM     41  C   UNL A   1      44.877  23.974  25.871  1.00  0.00    -0.014 A 
BRANCH  41  42
ATOM     42  C   UNL A   1      45.122  25.365  26.337  1.00  0.00     0.031 A 
ATOM     43  C   UNL A   1      46.506  25.957  26.291  1.00  0.00     0.074 A 
ATOM     44  C   UNL A   1      44.094  26.092  26.818  1.00  0.00     0.049 A 
ATOM     45  N   UNL A   1      46.902  27.152  26.648  1.00  0.00    -0.248 NA
ATOM     46  C   UNL A   1      47.589  25.091  25.795  1.00  0.00     0.031 C 
ATOM     47  C   UNL A   1      42.713  25.620  26.958  1.00  0.00     0.029 A 
ATOM     48  N   UNL A   1      44.047  27.386  27.277  1.00  0.00    -0.354 N 
ATOM     49  C   UNL A   1      48.272  27.186  26.416  1.00  0.00     0.074 A 
ATOM     50  C   UNL A   1      48.651  25.871  25.943  1.00  0.00     0.031 C 
ATOM     51  C   UNL A   1      41.953  26.617  27.438  1.00  0.00     0.029 A 
ATOM     52  C   UNL A   1      42.792  27.787  27.671  1.00  0.00     0.049 A 
ATOM     53  H   UNL A   1      44.838  27.971  27.318  1.00  0.00     0.167 HD
ATOM     54  C   UNL A   1      49.132  28.223  26.553  1.00  0.00     0.031 A 
ATOM     55  C   UNL A   1      42.363  28.964  28.168  1.00  0.00     0.031 A 
ATOM     56  C   UNL A   1      48.757  29.532  27.021  1.00  0.00     0.049 A 
ATOM     57  C   UNL A   1      43.345  30.095  28.325  1.00  0.00     0.074 A 
ATOM     58  C   UNL A   1      49.554  30.653  27.174  1.00  0.00     0.029 A 
ATOM     59  N   UNL A   1      47.476  29.899  27.405  1.00  0.00    -0.354 N 
ATOM     60  N   UNL A   1      44.627  30.117  28.049  1.00  0.00    -0.248 NA
ATOM     61  C   UNL A   1      42.817  31.364  28.845  1.00  0.00     0.031 C 
ATOM     62  C   UNL A   1      48.764  31.687  27.688  1.00  0.00     0.029 A 
ATOM     63  C   UNL A   1      47.464  31.225  27.803  1.00  0.00     0.049 A 
ATOM     64  H   UNL A   1      46.691  29.304  27.394  1.00  0.00     0.167 HD
ATOM     65  C   UNL A   1      45.052  31.410  28.337  1.00  0.00     0.074 A 
ATOM     66  C   UNL A   1      43.886  32.144  28.784  1.00  0.00     0.031 C 
ATOM     67  C   UNL A   1      46.295  31.942  28.245  1.00  0.00     0.031 A 
BRANCH  54  68
ATOM     68  C   UNL A   1      50.572  27.993  26.171  1.00  0.00    -0.014 A 
ATOM     69  C   UNL A   1      51.500  27.532  27.123  1.00  0.00     0.010 A 
ATOM     70  C   UNL A   1      50.988  28.168  24.839  1.00  0.00     0.010 A 
ATOM     71  C   UNL A   1      52.822  27.273  26.756  1.00  0.00     0.020 A 
ATOM     72  C   UNL A   1      52.304  27.885  24.462  1.00  0.00     0.020 A 
ATOM     73  C   UNL A   1      53.216  27.449  25.426  1.00  0.00     0.054 A 
BRANCH  73  74
ATOM     74  S   UNL A   1      54.927  27.055  24.970  1.00  0.00     0.124 S 
ATOM     75  O   UNL A   1      54.738  25.998  23.979  1.00  0.00    -0.237 OA
ATOM     76  O   UNL A   1      55.418  28.327  24.444  1.00  0.00    -0.237 OA
ATOM     77  O   UNL A   1      55.533  26.628  26.228  1.00  0.00    -0.744 OA
ENDBRANCH  73  74
ENDBRANCH  54  68
BRANCH  55  78
ATOM     78  C   UNL A   1      40.937  29.141  28.558  1.00  0.00    -0.014 A 
ATOM     79  C   UNL A   1      39.950  29.391  27.590  1.00  0.00     0.010 A 
ATOM     80  C   UNL A   1      40.566  29.092  29.914  1.00  0.00     0.010 A 
ATOM     81  C   UNL A   1      38.626  29.634  27.972  1.00  0.00     0.020 A 
ATOM     82  C   UNL A   1      39.239  29.303  30.298  1.00  0.00     0.020 A 
ATOM     83  C   UNL A   1      38.281  29.593  29.325  1.00  0.00     0.054 A 
BRANCH  83  84
ATOM     84  S   UNL A   1      36.559  29.904  29.805  1.00  0.00     0.124 S 
ATOM     85  O   UNL A   1      36.446  29.133  31.039  1.00  0.00    -0.237 OA
ATOM     86  O   UNL A   1      36.529  31.356  29.959  1.00  0.00    -0.237 OA
ATOM     87  O   UNL A   1      35.793  29.390  28.672  1.00  0.00    -0.744 OA
ENDBRANCH  83  84
ENDBRANCH  55  78
BRANCH  67  88
ATOM     88  C   UNL A   1      46.449  33.396  28.604  1.00  0.00    -0.014 A 
ATOM     89  C   UNL A   1      46.764  33.794  29.916  1.00  0.00     0.010 A 
ATOM     90  C   UNL A   1      46.301  34.377  27.607  1.00  0.00     0.010 A 
ATOM     91  C   UNL A   1      46.880  35.150  30.233  1.00  0.00     0.020 A 
ATOM     92  C   UNL A   1      46.446  35.732  27.914  1.00  0.00     0.020 A 
ATOM     93  C   UNL A   1      46.715  36.111  29.231  1.00  0.00     0.054 A 
BRANCH  93  94
ATOM     94  S   UNL A   1      46.889  37.863  29.664  1.00  0.00     0.124 S 
ATOM     95  O   UNL A   1      45.521  38.221  30.034  1.00  0.00    -0.237 OA
ATOM     96  O   UNL A   1      47.849  37.829  30.765  1.00  0.00    -0.237 OA
ATOM     97  O   UNL A   1      47.383  38.477  28.433  1.00  0.00    -0.744 OA
ENDBRANCH  93  94
ENDBRANCH  67  88
ENDBRANCH  41  42
ENDBRANCH  33  36
ENDBRANCH  31  32
ENDBRANCH  30  31
ENDBRANCH  29  30
ENDBRANCH   1  29
TORSDOF 19
ENDMDL
