MODEL 1
REMARK VINA RESULT:      -7.9      0.000      0.000
REMARK SMILES COCCCN1C(=O)CC[C@@H](C(=O)NCCCCCCNC(=O)c2ccc(-c3c4nc(c(-c5ccc(S(=O)(=O)[O-])cc5)c5ccc([nH]5)c(-c5ccc(S(=O)(=O)[O-])cc5)c5nc(c(-c6ccc(S(=O)(=O)[O-])cc6)c6ccc3[nH]6)C=C5)C=C4)cc2)[C@@H]1c1ccc(F)cc1
REMARK SMILES IDX 17 1 16 2 15 3 14 4 12 5 13 6 11 8 6 9 7 10 84 11 8 12 9 13
REMARK SMILES IDX 10 14 5 15 4 16 3 17 2 18 1 19 85 20 86 21 91 22 87 23 90 24
REMARK SMILES IDX 88 25 89 26 18 27 19 28 20 29 21 30 22 31 23 33 24 34 25 35
REMARK SMILES IDX 83 36 26 37 82 38 27 39 28 40 29 41 76 42 30 43 81 44 75 45
REMARK SMILES IDX 77 46 31 47 80 48 74 49 73 50 32 52 62 53 43 54 61 55 44 56
REMARK SMILES IDX 47 57 60 58 78 59 45 60 46 61 59 63 79 64 48 65 33 66 34 67
REMARK SMILES IDX 42 68 35 69 41 70 36 71 37 72 38 73 39 74 40 75 63 76 64 77
REMARK SMILES IDX 72 78 65 79 71 80 66 81 67 82 68 83 69 84 70 85 49 86 50 87
REMARK SMILES IDX 58 88 51 89 57 90 52 91 53 92 54 93 55 94 56 95
REMARK H PARENT 14 7 21 32 77 51 47 62
REMARK Flexibility Score: inf
ROOT
ATOM      1  C   UNL A   1      44.348  24.333  34.643  1.00  0.00     0.002 C 
ENDROOT
BRANCH   1   2
ATOM      2  C   UNL A   1      44.009  23.579  33.354  1.00  0.00     0.021 C 
BRANCH   2   3
ATOM      3  C   UNL A   1      44.498  24.249  32.072  1.00  0.00     0.116 C 
BRANCH   3   4
ATOM      4  N   UNL A   1      45.828  24.808  32.225  1.00  0.00    -0.356 N 
ATOM      5  C   UNL A   1      46.506  25.698  31.449  1.00  0.00     0.225 C 
ATOM      6  O   UNL A   1      47.681  25.922  31.734  1.00  0.00    -0.275 OA
ATOM      7  H   UNL A   1      46.319  24.492  33.018  1.00  0.00     0.163 HD
BRANCH   5   8
ATOM      8  C   UNL A   1      45.798  26.382  30.281  1.00  0.00     0.106 C 
ATOM      9  N   UNL A   1      47.787  26.498  28.750  1.00  0.00    -0.335 N 
ATOM     10  C   UNL A   1      47.526  25.234  28.241  1.00  0.00     0.223 C 
ATOM     11  C   UNL A   1      46.783  27.272  29.506  1.00  0.00     0.128 C 
ATOM     12  O   UNL A   1      48.366  24.595  27.604  1.00  0.00    -0.275 OA
ATOM     13  C   UNL A   1      46.176  24.594  28.510  1.00  0.00     0.101 C 
ATOM     14  C   UNL A   1      45.161  25.379  29.326  1.00  0.00     0.026 C 
BRANCH   9  15
ATOM     15  C   UNL A   1      49.184  26.969  28.768  1.00  0.00     0.122 C 
BRANCH  15  16
ATOM     16  C   UNL A   1      49.586  28.059  27.766  1.00  0.00     0.050 C 
BRANCH  16  17
ATOM     17  C   UNL A   1      49.237  27.814  26.303  1.00  0.00     0.161 C 
BRANCH  17  18
ATOM     18  O   UNL A   1      49.885  26.679  25.733  1.00  0.00    -0.385 OA
ATOM     19  C   UNL A   1      50.838  26.978  24.728  1.00  0.00     0.194 C 
ENDBRANCH  17  18
ENDBRANCH  16  17
ENDBRANCH  15  16
ENDBRANCH   9  15
BRANCH  11  20
ATOM     20  C   UNL A   1      46.055  28.319  28.658  1.00  0.00    -0.024 A 
ATOM     21  C   UNL A   1      45.909  28.201  27.266  1.00  0.00     0.009 A 
ATOM     22  C   UNL A   1      45.525  29.465  29.285  1.00  0.00     0.009 A 
ATOM     23  C   UNL A   1      45.330  29.230  26.518  1.00  0.00     0.039 A 
ATOM     24  C   UNL A   1      44.928  30.484  28.539  1.00  0.00     0.039 A 
ATOM     25  C   UNL A   1      44.853  30.364  27.159  1.00  0.00     0.123 A 
ATOM     26  F   UNL A   1      44.320  31.358  26.438  1.00  0.00    -0.207 F 
ENDBRANCH  11  20
ENDBRANCH   5   8
ENDBRANCH   3   4
ENDBRANCH   2   3
ENDBRANCH   1   2
BRANCH   1  27
ATOM     27  C   UNL A   1      44.508  23.462  35.893  1.00  0.00     0.002 C 
BRANCH  27  28
ATOM     28  C   UNL A   1      45.951  23.140  36.292  1.00  0.00     0.021 C 
BRANCH  28  29
ATOM     29  C   UNL A   1      46.941  24.288  36.126  1.00  0.00     0.116 C 
BRANCH  29  30
ATOM     30  N   UNL A   1      47.275  24.919  37.390  1.00  0.00    -0.352 N 
ATOM     31  C   UNL A   1      46.899  26.146  37.877  1.00  0.00     0.251 C 
ATOM     32  H   UNL A   1      47.854  24.390  37.984  1.00  0.00     0.163 HD
ATOM     33  O   UNL A   1      47.418  26.572  38.904  1.00  0.00    -0.269 OA
BRANCH  31  34
ATOM     34  C   UNL A   1      45.889  26.963  37.164  1.00  0.00     0.039 A 
ATOM     35  C   UNL A   1      44.535  26.717  37.411  1.00  0.00     0.014 A 
ATOM     36  C   UNL A   1      46.261  27.933  36.227  1.00  0.00     0.014 A 
ATOM     37  C   UNL A   1      43.559  27.458  36.738  1.00  0.00     0.010 A 
ATOM     38  C   UNL A   1      45.289  28.720  35.612  1.00  0.00     0.010 A 
ATOM     39  C   UNL A   1      43.928  28.474  35.842  1.00  0.00    -0.014 A 
BRANCH  39  40
ATOM     40  C   UNL A   1      42.897  29.247  35.102  1.00  0.00     0.031 A 
ATOM     41  C   UNL A   1      42.499  28.832  33.709  1.00  0.00     0.074 A 
ATOM     42  C   UNL A   1      42.338  30.335  35.667  1.00  0.00     0.049 A 
ATOM     43  N   UNL A   1      41.624  29.378  32.903  1.00  0.00    -0.248 NA
ATOM     44  C   UNL A   1      43.193  27.667  33.137  1.00  0.00     0.031 C 
ATOM     45  C   UNL A   1      42.668  30.870  36.989  1.00  0.00     0.029 A 
ATOM     46  N   UNL A   1      41.370  31.187  35.197  1.00  0.00    -0.354 N 
ATOM     47  C   UNL A   1      41.675  28.636  31.728  1.00  0.00     0.074 A 
ATOM     48  C   UNL A   1      42.706  27.637  31.905  1.00  0.00     0.031 C 
ATOM     49  C   UNL A   1      41.892  31.938  37.239  1.00  0.00     0.029 A 
ATOM     50  C   UNL A   1      41.031  32.180  36.085  1.00  0.00     0.049 A 
ATOM     51  H   UNL A   1      40.957  31.096  34.308  1.00  0.00     0.167 HD
ATOM     52  C   UNL A   1      40.919  28.756  30.610  1.00  0.00     0.031 A 
ATOM     53  C   UNL A   1      40.122  33.170  35.987  1.00  0.00     0.031 A 
ATOM     54  C   UNL A   1      39.879  29.737  30.441  1.00  0.00     0.049 A 
ATOM     55  C   UNL A   1      39.273  33.266  34.748  1.00  0.00     0.074 A 
ATOM     56  C   UNL A   1      39.023  29.909  29.368  1.00  0.00     0.029 A 
ATOM     57  N   UNL A   1      39.551  30.707  31.376  1.00  0.00    -0.354 N 
ATOM     58  N   UNL A   1      39.299  32.518  33.670  1.00  0.00    -0.248 NA
ATOM     59  C   UNL A   1      38.256  34.326  34.725  1.00  0.00     0.031 C 
ATOM     60  C   UNL A   1      38.201  31.010  29.638  1.00  0.00     0.029 A 
ATOM     61  C   UNL A   1      38.510  31.488  30.900  1.00  0.00     0.049 A 
ATOM     62  H   UNL A   1      39.992  30.824  32.248  1.00  0.00     0.167 HD
ATOM     63  C   UNL A   1      38.280  32.997  32.854  1.00  0.00     0.074 A 
ATOM     64  C   UNL A   1      37.649  34.087  33.571  1.00  0.00     0.031 C 
ATOM     65  C   UNL A   1      37.897  32.572  31.624  1.00  0.00     0.031 A 
BRANCH  52  66
ATOM     66  C   UNL A   1      41.194  27.795  29.483  1.00  0.00    -0.014 A 
ATOM     67  C   UNL A   1      40.487  26.584  29.370  1.00  0.00     0.010 A 
ATOM     68  C   UNL A   1      42.157  28.116  28.509  1.00  0.00     0.010 A 
ATOM     69  C   UNL A   1      40.772  25.689  28.337  1.00  0.00     0.020 A 
ATOM     70  C   UNL A   1      42.425  27.237  27.455  1.00  0.00     0.020 A 
ATOM     71  C   UNL A   1      41.745  26.019  27.387  1.00  0.00     0.054 A 
BRANCH  71  72
ATOM     72  S   UNL A   1      42.089  24.843  26.049  1.00  0.00     0.124 S 
ATOM     73  O   UNL A   1      40.847  24.075  25.998  1.00  0.00    -0.237 OA
ATOM     74  O   UNL A   1      42.334  25.719  24.907  1.00  0.00    -0.237 OA
ATOM     75  O   UNL A   1      43.257  24.107  26.528  1.00  0.00    -0.744 OA
ENDBRANCH  71  72
ENDBRANCH  52  66
BRANCH  53  76
ATOM     76  C   UNL A   1      39.939  34.126  37.112  1.00  0.00    -0.014 A 
ATOM     77  C   UNL A   1      40.588  35.374  37.100  1.00  0.00     0.010 A 
ATOM     78  C   UNL A   1      39.108  33.797  38.198  1.00  0.00     0.010 A 
ATOM     79  C   UNL A   1      40.427  36.266  38.164  1.00  0.00     0.020 A 
ATOM     80  C   UNL A   1      38.924  34.698  39.251  1.00  0.00     0.020 A 
ATOM     81  C   UNL A   1      39.595  35.923  39.233  1.00  0.00     0.054 A 
BRANCH  81  82
ATOM     82  S   UNL A   1      39.361  37.116  40.580  1.00  0.00     0.124 S 
ATOM     83  O   UNL A   1      38.613  38.179  39.916  1.00  0.00    -0.237 OA
ATOM     84  O   UNL A   1      38.616  36.337  41.566  1.00  0.00    -0.237 OA
ATOM     85  O   UNL A   1      40.726  37.459  40.971  1.00  0.00    -0.744 OA
ENDBRANCH  81  82
ENDBRANCH  53  76
BRANCH  65  86
ATOM     86  C   UNL A   1      36.715  33.262  30.997  1.00  0.00    -0.014 A 
ATOM     87  C   UNL A   1      35.518  33.455  31.708  1.00  0.00     0.010 A 
ATOM     88  C   UNL A   1      36.814  33.738  29.676  1.00  0.00     0.010 A 
ATOM     89  C   UNL A   1      34.420  34.062  31.090  1.00  0.00     0.020 A 
ATOM     90  C   UNL A   1      35.730  34.372  29.066  1.00  0.00     0.020 A 
ATOM     91  C   UNL A   1      34.531  34.509  29.770  1.00  0.00     0.054 A 
BRANCH  91  92
ATOM     92  S   UNL A   1      33.097  35.297  28.988  1.00  0.00     0.124 S 
ATOM     93  O   UNL A   1      33.677  36.530  28.465  1.00  0.00    -0.237 OA
ATOM     94  O   UNL A   1      32.696  34.315  27.983  1.00  0.00    -0.237 OA
ATOM     95  O   UNL A   1      32.154  35.469  30.091  1.00  0.00    -0.744 OA
ENDBRANCH  91  92
ENDBRANCH  65  86
ENDBRANCH  39  40
ENDBRANCH  31  34
ENDBRANCH  29  30
ENDBRANCH  28  29
ENDBRANCH  27  28
ENDBRANCH   1  27
TORSDOF 21
ENDMDL
MODEL 2
REMARK VINA RESULT:      -7.8      3.881      8.601
REMARK SMILES COCCCN1C(=O)CC[C@@H](C(=O)NCCCCCCNC(=O)c2ccc(-c3c4nc(c(-c5ccc(S(=O)(=O)[O-])cc5)c5ccc([nH]5)c(-c5ccc(S(=O)(=O)[O-])cc5)c5nc(c(-c6ccc(S(=O)(=O)[O-])cc6)c6ccc3[nH]6)C=C5)C=C4)cc2)[C@@H]1c1ccc(F)cc1
REMARK SMILES IDX 17 1 16 2 15 3 14 4 12 5 13 6 11 8 6 9 7 10 84 11 8 12 9 13
REMARK SMILES IDX 10 14 5 15 4 16 3 17 2 18 1 19 85 20 86 21 91 22 87 23 90 24
REMARK SMILES IDX 88 25 89 26 18 27 19 28 20 29 21 30 22 31 23 33 24 34 25 35
REMARK SMILES IDX 83 36 26 37 82 38 27 39 28 40 29 41 76 42 30 43 81 44 75 45
REMARK SMILES IDX 77 46 31 47 80 48 74 49 73 50 32 52 62 53 43 54 61 55 44 56
REMARK SMILES IDX 47 57 60 58 78 59 45 60 46 61 59 63 79 64 48 65 33 66 34 67
REMARK SMILES IDX 42 68 35 69 41 70 36 71 37 72 38 73 39 74 40 75 63 76 64 77
REMARK SMILES IDX 72 78 65 79 71 80 66 81 67 82 68 83 69 84 70 85 49 86 50 87
REMARK SMILES IDX 58 88 51 89 57 90 52 91 53 92 54 93 55 94 56 95
REMARK H PARENT 14 7 21 32 77 51 47 62
REMARK Flexibility Score: inf
ROOT
ATOM      1  C   UNL A   1      48.941  25.701  27.928  1.00  0.00     0.002 C 
ENDROOT
BRANCH   1   2
ATOM      2  C   UNL A   1      47.971  24.641  27.395  1.00  0.00     0.021 C 
BRANCH   2   3
ATOM      3  C   UNL A   1      46.982  25.146  26.348  1.00  0.00     0.116 C 
BRANCH   3   4
ATOM      4  N   UNL A   1      46.025  24.125  25.968  1.00  0.00    -0.356 N 
ATOM      5  C   UNL A   1      44.682  24.053  26.178  1.00  0.00     0.225 C 
ATOM      6  O   UNL A   1      44.111  23.011  25.858  1.00  0.00    -0.275 OA
ATOM      7  H   UNL A   1      46.409  23.360  25.481  1.00  0.00     0.163 HD
BRANCH   5   8
ATOM      8  C   UNL A   1      43.941  25.246  26.779  1.00  0.00     0.106 C 
ATOM      9  N   UNL A   1      42.303  23.923  28.151  1.00  0.00    -0.335 N 
ATOM     10  C   UNL A   1      43.184  23.857  29.221  1.00  0.00     0.223 C 
ATOM     11  C   UNL A   1      42.470  24.884  27.044  1.00  0.00     0.128 C 
ATOM     12  O   UNL A   1      43.036  23.057  30.147  1.00  0.00    -0.275 OA
ATOM     13  C   UNL A   1      44.395  24.772  29.237  1.00  0.00     0.101 C 
ATOM     14  C   UNL A   1      44.585  25.731  28.073  1.00  0.00     0.026 C 
BRANCH   9  15
ATOM     15  C   UNL A   1      41.331  22.828  27.979  1.00  0.00     0.122 C 
BRANCH  15  16
ATOM     16  C   UNL A   1      40.656  22.677  26.609  1.00  0.00     0.050 C 
BRANCH  16  17
ATOM     17  C   UNL A   1      40.072  21.310  26.274  1.00  0.00     0.161 C 
BRANCH  17  18
ATOM     18  O   UNL A   1      38.766  21.359  25.706  1.00  0.00    -0.385 OA
ATOM     19  C   UNL A   1      38.138  22.627  25.761  1.00  0.00     0.194 C 
ENDBRANCH  17  18
ENDBRANCH  16  17
ENDBRANCH  15  16
ENDBRANCH   9  15
BRANCH  11  20
ATOM     20  C   UNL A   1      41.595  26.133  27.184  1.00  0.00    -0.024 A 
ATOM     21  C   UNL A   1      41.666  27.214  26.289  1.00  0.00     0.009 A 
ATOM     22  C   UNL A   1      40.693  26.224  28.263  1.00  0.00     0.009 A 
ATOM     23  C   UNL A   1      40.926  28.378  26.514  1.00  0.00     0.039 A 
ATOM     24  C   UNL A   1      39.937  27.379  28.475  1.00  0.00     0.039 A 
ATOM     25  C   UNL A   1      40.075  28.453  27.608  1.00  0.00     0.123 A 
ATOM     26  F   UNL A   1      39.384  29.577  27.833  1.00  0.00    -0.207 F 
ENDBRANCH  11  20
ENDBRANCH   5   8
ENDBRANCH   3   4
ENDBRANCH   2   3
ENDBRANCH   1   2
BRANCH   1  27
ATOM     27  C   UNL A   1      50.380  25.226  28.149  1.00  0.00     0.002 C 
BRANCH  27  28
ATOM     28  C   UNL A   1      51.411  25.760  27.149  1.00  0.00     0.021 C 
BRANCH  28  29
ATOM     29  C   UNL A   1      50.869  26.057  25.756  1.00  0.00     0.116 C 
BRANCH  29  30
ATOM     30  N   UNL A   1      51.379  27.305  25.217  1.00  0.00    -0.352 N 
ATOM     31  C   UNL A   1      50.920  28.586  25.401  1.00  0.00     0.251 C 
ATOM     32  H   UNL A   1      52.168  27.220  24.636  1.00  0.00     0.163 HD
ATOM     33  O   UNL A   1      51.391  29.498  24.728  1.00  0.00    -0.269 OA
BRANCH  31  34
ATOM     34  C   UNL A   1      49.854  28.870  26.391  1.00  0.00     0.039 A 
ATOM     35  C   UNL A   1      48.527  28.614  26.036  1.00  0.00     0.014 A 
ATOM     36  C   UNL A   1      50.146  29.425  27.641  1.00  0.00     0.014 A 
ATOM     37  C   UNL A   1      47.498  28.892  26.940  1.00  0.00     0.010 A 
ATOM     38  C   UNL A   1      49.127  29.632  28.569  1.00  0.00     0.010 A 
ATOM     39  C   UNL A   1      47.790  29.392  28.220  1.00  0.00    -0.014 A 
BRANCH  39  40
ATOM     40  C   UNL A   1      46.702  29.716  29.178  1.00  0.00     0.031 A 
ATOM     41  C   UNL A   1      46.324  28.728  30.252  1.00  0.00     0.074 A 
ATOM     42  C   UNL A   1      46.036  30.882  29.069  1.00  0.00     0.049 A 
ATOM     43  N   UNL A   1      45.403  28.827  31.176  1.00  0.00    -0.248 NA
ATOM     44  C   UNL A   1      47.058  27.453  30.273  1.00  0.00     0.031 C 
ATOM     45  C   UNL A   1      46.273  31.903  28.047  1.00  0.00     0.029 A 
ATOM     46  N   UNL A   1      45.022  31.405  29.832  1.00  0.00    -0.354 N 
ATOM     47  C   UNL A   1      45.436  27.626  31.876  1.00  0.00     0.074 A 
ATOM     48  C   UNL A   1      46.430  26.792  31.233  1.00  0.00     0.031 C 
ATOM     49  C   UNL A   1      45.452  32.944  28.266  1.00  0.00     0.029 A 
ATOM     50  C   UNL A   1      44.613  32.653  29.424  1.00  0.00     0.049 A 
ATOM     51  H   UNL A   1      44.624  30.932  30.598  1.00  0.00     0.167 HD
ATOM     52  C   UNL A   1      44.726  27.254  32.968  1.00  0.00     0.031 A 
ATOM     53  C   UNL A   1      43.674  33.475  29.932  1.00  0.00     0.031 A 
ATOM     54  C   UNL A   1      43.753  28.091  33.619  1.00  0.00     0.049 A 
ATOM     55  C   UNL A   1      42.917  33.054  31.163  1.00  0.00     0.074 A 
ATOM     56  C   UNL A   1      43.015  27.826  34.760  1.00  0.00     0.029 A 
ATOM     57  N   UNL A   1      43.387  29.357  33.190  1.00  0.00    -0.354 N 
ATOM     58  N   UNL A   1      43.005  31.935  31.842  1.00  0.00    -0.248 NA
ATOM     59  C   UNL A   1      41.953  34.019  31.707  1.00  0.00     0.031 C 
ATOM     60  C   UNL A   1      42.174  28.921  34.999  1.00  0.00     0.029 A 
ATOM     61  C   UNL A   1      42.427  29.885  34.038  1.00  0.00     0.049 A 
ATOM     62  H   UNL A   1      43.755  29.814  32.400  1.00  0.00     0.167 HD
ATOM     63  C   UNL A   1      42.129  32.075  32.914  1.00  0.00     0.074 A 
ATOM     64  C   UNL A   1      41.536  33.393  32.799  1.00  0.00     0.031 C 
ATOM     65  C   UNL A   1      41.844  31.196  33.907  1.00  0.00     0.031 A 
BRANCH  52  66
ATOM     66  C   UNL A   1      44.981  25.877  33.524  1.00  0.00    -0.014 A 
ATOM     67  C   UNL A   1      45.893  25.675  34.576  1.00  0.00     0.010 A 
ATOM     68  C   UNL A   1      44.284  24.771  33.003  1.00  0.00     0.010 A 
ATOM     69  C   UNL A   1      46.142  24.390  35.063  1.00  0.00     0.020 A 
ATOM     70  C   UNL A   1      44.508  23.486  33.508  1.00  0.00     0.020 A 
ATOM     71  C   UNL A   1      45.451  23.301  34.521  1.00  0.00     0.054 A 
BRANCH  71  72
ATOM     72  S   UNL A   1      45.786  21.644  35.177  1.00  0.00     0.124 S 
ATOM     73  O   UNL A   1      44.666  20.876  34.637  1.00  0.00    -0.237 OA
ATOM     74  O   UNL A   1      47.094  21.331  34.609  1.00  0.00    -0.237 OA
ATOM     75  O   UNL A   1      45.767  21.835  36.626  1.00  0.00    -0.744 OA
ENDBRANCH  71  72
ENDBRANCH  52  66
BRANCH  53  76
ATOM     76  C   UNL A   1      43.425  34.799  29.301  1.00  0.00    -0.014 A 
ATOM     77  C   UNL A   1      42.483  34.929  28.265  1.00  0.00     0.010 A 
ATOM     78  C   UNL A   1      44.124  35.939  29.738  1.00  0.00     0.010 A 
ATOM     79  C   UNL A   1      42.261  36.171  27.662  1.00  0.00     0.020 A 
ATOM     80  C   UNL A   1      43.884  37.187  29.156  1.00  0.00     0.020 A 
ATOM     81  C   UNL A   1      42.962  37.292  28.112  1.00  0.00     0.054 A 
BRANCH  81  82
ATOM     82  S   UNL A   1      42.621  38.904  27.350  1.00  0.00     0.124 S 
ATOM     83  O   UNL A   1      43.838  39.139  26.581  1.00  0.00    -0.237 OA
ATOM     84  O   UNL A   1      41.417  38.634  26.567  1.00  0.00    -0.237 OA
ATOM     85  O   UNL A   1      42.423  39.787  28.497  1.00  0.00    -0.744 OA
ENDBRANCH  81  82
ENDBRANCH  53  76
BRANCH  65  86
ATOM     86  C   UNL A   1      40.878  31.650  34.969  1.00  0.00    -0.014 A 
ATOM     87  C   UNL A   1      41.315  32.357  36.102  1.00  0.00     0.010 A 
ATOM     88  C   UNL A   1      39.506  31.374  34.818  1.00  0.00     0.010 A 
ATOM     89  C   UNL A   1      40.404  32.732  37.094  1.00  0.00     0.020 A 
ATOM     90  C   UNL A   1      38.589  31.773  35.792  1.00  0.00     0.020 A 
ATOM     91  C   UNL A   1      39.048  32.430  36.936  1.00  0.00     0.054 A 
BRANCH  91  92
ATOM     92  S   UNL A   1      37.882  32.928  38.234  1.00  0.00     0.124 S 
ATOM     93  O   UNL A   1      38.494  34.157  38.733  1.00  0.00    -0.237 OA
ATOM     94  O   UNL A   1      36.633  33.101  37.497  1.00  0.00    -0.237 OA
ATOM     95  O   UNL A   1      37.898  31.801  39.163  1.00  0.00    -0.744 OA
ENDBRANCH  91  92
ENDBRANCH  65  86
ENDBRANCH  39  40
ENDBRANCH  31  34
ENDBRANCH  29  30
ENDBRANCH  28  29
ENDBRANCH  27  28
ENDBRANCH   1  27
TORSDOF 21
ENDMDL
MODEL 3
REMARK VINA RESULT:      -7.5      4.035     10.988
REMARK SMILES COCCCN1C(=O)CC[C@@H](C(=O)NCCCCCCNC(=O)c2ccc(-c3c4nc(c(-c5ccc(S(=O)(=O)[O-])cc5)c5ccc([nH]5)c(-c5ccc(S(=O)(=O)[O-])cc5)c5nc(c(-c6ccc(S(=O)(=O)[O-])cc6)c6ccc3[nH]6)C=C5)C=C4)cc2)[C@@H]1c1ccc(F)cc1
REMARK SMILES IDX 17 1 16 2 15 3 14 4 12 5 13 6 11 8 6 9 7 10 84 11 8 12 9 13
REMARK SMILES IDX 10 14 5 15 4 16 3 17 2 18 1 19 85 20 86 21 91 22 87 23 90 24
REMARK SMILES IDX 88 25 89 26 18 27 19 28 20 29 21 30 22 31 23 33 24 34 25 35
REMARK SMILES IDX 83 36 26 37 82 38 27 39 28 40 29 41 76 42 30 43 81 44 75 45
REMARK SMILES IDX 77 46 31 47 80 48 74 49 73 50 32 52 62 53 43 54 61 55 44 56
REMARK SMILES IDX 47 57 60 58 78 59 45 60 46 61 59 63 79 64 48 65 33 66 34 67
REMARK SMILES IDX 42 68 35 69 41 70 36 71 37 72 38 73 39 74 40 75 63 76 64 77
REMARK SMILES IDX 72 78 65 79 71 80 66 81 67 82 68 83 69 84 70 85 49 86 50 87
REMARK SMILES IDX 58 88 51 89 57 90 52 91 53 92 54 93 55 94 56 95
REMARK H PARENT 14 7 21 32 77 51 47 62
REMARK Flexibility Score: inf
ROOT
ATOM      1  C   UNL A   1      47.627  21.196  34.880  1.00  0.00     0.002 C 
ENDROOT
BRANCH   1   2
ATOM      2  C   UNL A   1      46.841  19.964  35.339  1.00  0.00     0.021 C 
BRANCH   2   3
ATOM      3  C   UNL A   1      46.800  19.758  36.851  1.00  0.00     0.116 C 
BRANCH   3   4
ATOM      4  N   UNL A   1      45.637  18.995  37.263  1.00  0.00    -0.356 N 
ATOM      5  C   UNL A   1      45.493  18.073  38.256  1.00  0.00     0.225 C 
ATOM      6  O   UNL A   1      44.421  17.473  38.324  1.00  0.00    -0.275 OA
ATOM      7  H   UNL A   1      44.821  19.170  36.741  1.00  0.00     0.163 HD
BRANCH   5   8
ATOM      8  C   UNL A   1      46.636  17.828  39.238  1.00  0.00     0.106 C 
ATOM      9  N   UNL A   1      45.994  19.602  40.897  1.00  0.00    -0.335 N 
ATOM     10  C   UNL A   1      45.151  18.730  41.572  1.00  0.00     0.223 C 
ATOM     11  C   UNL A   1      47.022  19.136  39.947  1.00  0.00     0.128 C 
ATOM     12  O   UNL A   1      44.298  19.124  42.369  1.00  0.00    -0.275 OA
ATOM     13  C   UNL A   1      45.251  17.242  41.290  1.00  0.00     0.101 C 
ATOM     14  C   UNL A   1      46.284  16.771  40.279  1.00  0.00     0.026 C 
BRANCH   9  15
ATOM     15  C   UNL A   1      45.677  21.041  40.926  1.00  0.00     0.122 C 
BRANCH  15  16
ATOM     16  C   UNL A   1      45.932  21.857  39.651  1.00  0.00     0.050 C 
BRANCH  16  17
ATOM     17  C   UNL A   1      47.121  22.810  39.668  1.00  0.00     0.161 C 
BRANCH  17  18
ATOM     18  O   UNL A   1      46.762  24.189  39.646  1.00  0.00    -0.385 OA
ATOM     19  C   UNL A   1      45.370  24.445  39.705  1.00  0.00     0.194 C 
ENDBRANCH  17  18
ENDBRANCH  16  17
ENDBRANCH  15  16
ENDBRANCH   9  15
BRANCH  11  20
ATOM     20  C   UNL A   1      48.425  19.058  40.557  1.00  0.00    -0.024 A 
ATOM     21  C   UNL A   1      49.583  18.902  39.779  1.00  0.00     0.009 A 
ATOM     22  C   UNL A   1      48.571  19.121  41.958  1.00  0.00     0.009 A 
ATOM     23  C   UNL A   1      50.833  18.730  40.382  1.00  0.00     0.039 A 
ATOM     24  C   UNL A   1      49.822  18.971  42.559  1.00  0.00     0.039 A 
ATOM     25  C   UNL A   1      50.939  18.757  41.765  1.00  0.00     0.123 A 
ATOM     26  F   UNL A   1      52.134  18.570  42.341  1.00  0.00    -0.207 F 
ENDBRANCH  11  20
ENDBRANCH   5   8
ENDBRANCH   3   4
ENDBRANCH   2   3
ENDBRANCH   1   2
BRANCH   1  27
ATOM     27  C   UNL A   1      46.971  22.547  35.182  1.00  0.00     0.002 C 
BRANCH  27  28
ATOM     28  C   UNL A   1      47.788  23.493  36.067  1.00  0.00     0.021 C 
BRANCH  28  29
ATOM     29  C   UNL A   1      47.379  24.961  35.997  1.00  0.00     0.116 C 
BRANCH  29  30
ATOM     30  N   UNL A   1      47.819  25.715  37.156  1.00  0.00    -0.352 N 
ATOM     31  C   UNL A   1      47.401  26.942  37.608  1.00  0.00     0.251 C 
ATOM     32  H   UNL A   1      48.519  25.283  37.697  1.00  0.00     0.163 HD
ATOM     33  O   UNL A   1      48.012  27.488  38.522  1.00  0.00    -0.269 OA
BRANCH  31  34
ATOM     34  C   UNL A   1      46.234  27.615  36.991  1.00  0.00     0.039 A 
ATOM     35  C   UNL A   1      44.951  27.209  37.370  1.00  0.00     0.014 A 
ATOM     36  C   UNL A   1      46.392  28.604  36.015  1.00  0.00     0.014 A 
ATOM     37  C   UNL A   1      43.831  27.811  36.790  1.00  0.00     0.010 A 
ATOM     38  C   UNL A   1      45.275  29.255  35.492  1.00  0.00     0.010 A 
ATOM     39  C   UNL A   1      43.983  28.848  35.855  1.00  0.00    -0.014 A 
BRANCH  39  40
ATOM     40  C   UNL A   1      42.799  29.474  35.213  1.00  0.00     0.031 A 
ATOM     41  C   UNL A   1      42.094  30.623  35.887  1.00  0.00     0.074 A 
ATOM     42  C   UNL A   1      42.340  28.998  34.039  1.00  0.00     0.049 A 
ATOM     43  N   UNL A   1      41.046  31.297  35.488  1.00  0.00    -0.248 NA
ATOM     44  C   UNL A   1      42.620  31.052  37.194  1.00  0.00     0.031 C 
ATOM     45  C   UNL A   1      42.903  27.863  33.304  1.00  0.00     0.029 A 
ATOM     46  N   UNL A   1      41.292  29.412  33.255  1.00  0.00    -0.354 N 
ATOM     47  C   UNL A   1      40.778  32.215  36.498  1.00  0.00     0.074 A 
ATOM     48  C   UNL A   1      41.739  31.974  37.553  1.00  0.00     0.031 C 
ATOM     49  C   UNL A   1      42.216  27.693  32.162  1.00  0.00     0.029 A 
ATOM     50  C   UNL A   1      41.149  28.687  32.096  1.00  0.00     0.049 A 
ATOM     51  H   UNL A   1      40.699  30.159  33.500  1.00  0.00     0.167 HD
ATOM     52  C   UNL A   1      39.837  33.188  36.538  1.00  0.00     0.031 A 
ATOM     53  C   UNL A   1      40.264  28.813  31.088  1.00  0.00     0.031 A 
ATOM     54  C   UNL A   1      38.894  33.442  35.480  1.00  0.00     0.049 A 
ATOM     55  C   UNL A   1      39.245  29.920  31.141  1.00  0.00     0.074 A 
ATOM     56  C   UNL A   1      37.933  34.435  35.403  1.00  0.00     0.029 A 
ATOM     57  N   UNL A   1      38.800  32.701  34.313  1.00  0.00    -0.354 N 
ATOM     58  N   UNL A   1      39.045  30.813  32.080  1.00  0.00    -0.248 NA
ATOM     59  C   UNL A   1      38.349  30.046  29.984  1.00  0.00     0.031 C 
ATOM     60  C   UNL A   1      37.231  34.269  34.202  1.00  0.00     0.029 A 
ATOM     61  C   UNL A   1      37.790  33.208  33.511  1.00  0.00     0.049 A 
ATOM     62  H   UNL A   1      39.367  31.929  34.086  1.00  0.00     0.167 HD
ATOM     63  C   UNL A   1      38.021  31.629  31.612  1.00  0.00     0.074 A 
ATOM     64  C   UNL A   1      37.656  31.131  30.301  1.00  0.00     0.031 C 
ATOM     65  C   UNL A   1      37.437  32.698  32.211  1.00  0.00     0.031 A 
BRANCH  52  66
ATOM     66  C   UNL A   1      39.784  34.051  37.773  1.00  0.00    -0.014 A 
ATOM     67  C   UNL A   1      40.552  35.225  37.872  1.00  0.00     0.010 A 
ATOM     68  C   UNL A   1      38.940  33.695  38.840  1.00  0.00     0.010 A 
ATOM     69  C   UNL A   1      40.517  36.000  39.034  1.00  0.00     0.020 A 
ATOM     70  C   UNL A   1      38.879  34.483  39.993  1.00  0.00     0.020 A 
ATOM     71  C   UNL A   1      39.683  35.620  40.091  1.00  0.00     0.054 A 
BRANCH  71  72
ATOM     72  S   UNL A   1      39.649  36.649  41.584  1.00  0.00     0.124 S 
ATOM     73  O   UNL A   1      39.110  37.906  41.070  1.00  0.00    -0.237 OA
ATOM     74  O   UNL A   1      38.761  35.901  42.470  1.00  0.00    -0.237 OA
ATOM     75  O   UNL A   1      41.048  36.697  42.004  1.00  0.00    -0.744 OA
ENDBRANCH  71  72
ENDBRANCH  52  66
BRANCH  53  76
ATOM     76  C   UNL A   1      40.328  27.890  29.923  1.00  0.00    -0.014 A 
ATOM     77  C   UNL A   1      41.313  28.059  28.933  1.00  0.00     0.010 A 
ATOM     78  C   UNL A   1      39.408  26.833  29.801  1.00  0.00     0.010 A 
ATOM     79  C   UNL A   1      41.363  27.200  27.831  1.00  0.00     0.020 A 
ATOM     80  C   UNL A   1      39.473  25.956  28.714  1.00  0.00     0.020 A 
ATOM     81  C   UNL A   1      40.443  26.153  27.729  1.00  0.00     0.054 A 
BRANCH  81  82
ATOM     82  S   UNL A   1      40.557  25.020  26.316  1.00  0.00     0.124 S 
ATOM     83  O   UNL A   1      41.050  25.900  25.261  1.00  0.00    -0.237 OA
ATOM     84  O   UNL A   1      41.502  24.013  26.795  1.00  0.00    -0.237 OA
ATOM     85  O   UNL A   1      39.186  24.546  26.149  1.00  0.00    -0.744 OA
ENDBRANCH  81  82
ENDBRANCH  53  76
BRANCH  65  86
ATOM     86  C   UNL A   1      36.372  33.423  31.432  1.00  0.00    -0.014 A 
ATOM     87  C   UNL A   1      35.095  33.651  31.974  1.00  0.00     0.010 A 
ATOM     88  C   UNL A   1      36.664  33.897  30.139  1.00  0.00     0.010 A 
ATOM     89  C   UNL A   1      34.111  34.290  31.215  1.00  0.00     0.020 A 
ATOM     90  C   UNL A   1      35.692  34.563  29.389  1.00  0.00     0.020 A 
ATOM     91  C   UNL A   1      34.414  34.735  29.924  1.00  0.00     0.054 A 
BRANCH  91  92
ATOM     92  S   UNL A   1      33.123  35.566  28.958  1.00  0.00     0.124 S 
ATOM     93  O   UNL A   1      32.265  36.111  30.006  1.00  0.00    -0.237 OA
ATOM     94  O   UNL A   1      33.879  36.550  28.188  1.00  0.00    -0.237 OA
ATOM     95  O   UNL A   1      32.534  34.486  28.168  1.00  0.00    -0.744 OA
ENDBRANCH  91  92
ENDBRANCH  65  86
ENDBRANCH  39  40
ENDBRANCH  31  34
ENDBRANCH  29  30
ENDBRANCH  28  29
ENDBRANCH  27  28
ENDBRANCH   1  27
TORSDOF 21
ENDMDL
