MODEL 1
REMARK VINA RESULT:     -11.5      0.000      0.000
REMARK SMILES Cc1cc(Cl)c(C)c2c1O[C@H](C(F)(F)F)C(C(=O)NCCCCCCNC(=O)c1ccc(-c3c4nc(c(-c5ccc(S(=O)(=O)[O-])cc5)c5ccc([nH]5)c(-c5ccc(S(=O)(=O)[O-])cc5)c5nc(c(-c6ccc(S(=O)(=O)[O-])cc6)c6ccc3[nH]6)C=C5)C=C4)cc1)=C2
REMARK SMILES IDX 23 1 22 2 21 3 20 4 19 5 17 6 18 7 16 9 1 10 2 11 3 12 9 13
REMARK SMILES IDX 4 14 8 15 10 16 5 17 6 18 89 19 11 20 7 21 12 22 13 23 14 24
REMARK SMILES IDX 15 25 24 26 25 27 26 28 27 29 28 31 29 32 30 33 88 34 31 35
REMARK SMILES IDX 87 36 32 37 33 38 34 39 81 40 35 41 86 42 80 43 82 44 36 45
REMARK SMILES IDX 85 46 79 47 78 48 37 50 67 51 48 52 66 53 49 54 52 55 65 56
REMARK SMILES IDX 83 57 50 58 51 59 64 61 84 62 53 63 38 64 39 65 47 66 40 67
REMARK SMILES IDX 46 68 41 69 42 70 43 71 44 72 45 73 68 74 69 75 77 76 70 77
REMARK SMILES IDX 76 78 71 79 72 80 73 81 74 82 75 83 54 84 55 85 63 86 56 87
REMARK SMILES IDX 62 88 57 89 58 90 59 91 60 92 61 93
REMARK H PARENT 19 8 26 30 82 49 52 60
REMARK Flexibility Score: inf
ROOT
ATOM      1  C   UNL A   1      40.812  21.515  27.673  1.00  0.00     0.002 C 
ENDROOT
BRANCH   1   2
ATOM      2  C   UNL A   1      39.814  22.346  26.855  1.00  0.00     0.002 C 
BRANCH   2   3
ATOM      3  C   UNL A   1      39.005  21.552  25.827  1.00  0.00     0.021 C 
BRANCH   3   4
ATOM      4  C   UNL A   1      37.791  22.305  25.296  1.00  0.00     0.116 C 
BRANCH   4   5
ATOM      5  N   UNL A   1      36.603  22.035  26.086  1.00  0.00    -0.352 N 
ATOM      6  C   UNL A   1      35.293  22.371  26.053  1.00  0.00     0.251 C 
ATOM      7  O   UNL A   1      34.599  21.881  26.950  1.00  0.00    -0.270 OA
ATOM      8  H   UNL A   1      36.805  21.450  26.851  1.00  0.00     0.163 HD
BRANCH   6   9
ATOM      9  C   UNL A   1      34.658  23.263  25.035  1.00  0.00     0.067 C 
ATOM     10  C   UNL A   1      32.897  25.469  20.783  1.00  0.00     0.048 C 
ATOM     11  C   UNL A   1      33.068  25.927  22.204  1.00  0.00    -0.007 A 
ATOM     12  C   UNL A   1      32.695  27.213  22.590  1.00  0.00     0.028 A 
ATOM     13  C   UNL A   1      33.630  25.078  23.164  1.00  0.00     0.131 A 
ATOM     14  C   UNL A   1      32.868  27.640  23.911  1.00  0.00     0.045 A 
ATOM     15  C   UNL A   1      33.819  25.487  24.494  1.00  0.00     0.022 A 
ATOM     16  O   UNL A   1      34.027  23.855  22.706  1.00  0.00    -0.475 OA
ATOM     17  Cl  UNL A   1      32.373  29.261  24.264  1.00  0.00    -0.084 Cl
ATOM     18  C   UNL A   1      33.427  26.789  24.886  1.00  0.00    -0.021 A 
ATOM     19  C   UNL A   1      34.464  24.541  25.412  1.00  0.00     0.026 C 
ATOM     20  C   UNL A   1      34.217  22.805  23.681  1.00  0.00     0.314 C 
ATOM     21  C   UNL A   1      33.616  27.237  26.315  1.00  0.00     0.047 C 
BRANCH  20  22
ATOM     22  C   UNL A   1      32.963  21.915  23.726  1.00  0.00     0.429 C 
ATOM     23  F   UNL A   1      33.293  20.645  24.062  1.00  0.00    -0.167 F 
ATOM     24  F   UNL A   1      32.062  22.332  24.648  1.00  0.00    -0.167 F 
ATOM     25  F   UNL A   1      32.318  21.870  22.539  1.00  0.00    -0.167 F 
ENDBRANCH  20  22
ENDBRANCH   6   9
ENDBRANCH   4   5
ENDBRANCH   3   4
ENDBRANCH   2   3
ENDBRANCH   1   2
BRANCH   1  26
ATOM     26  C   UNL A   1      42.289  21.815  27.397  1.00  0.00     0.021 C 
BRANCH  26  27
ATOM     27  C   UNL A   1      42.686  23.270  27.617  1.00  0.00     0.116 C 
BRANCH  27  28
ATOM     28  N   UNL A   1      42.746  24.004  26.364  1.00  0.00    -0.352 N 
ATOM     29  C   UNL A   1      42.335  25.283  26.094  1.00  0.00     0.251 C 
ATOM     30  H   UNL A   1      43.136  23.515  25.604  1.00  0.00     0.163 HD
ATOM     31  O   UNL A   1      42.243  25.669  24.931  1.00  0.00    -0.269 OA
BRANCH  29  32
ATOM     32  C   UNL A   1      41.996  26.187  27.210  1.00  0.00     0.039 A 
ATOM     33  C   UNL A   1      40.920  25.867  28.041  1.00  0.00     0.014 A 
ATOM     34  C   UNL A   1      42.742  27.350  27.432  1.00  0.00     0.014 A 
ATOM     35  C   UNL A   1      40.622  26.691  29.125  1.00  0.00     0.010 A 
ATOM     36  C   UNL A   1      42.487  28.130  28.555  1.00  0.00     0.010 A 
ATOM     37  C   UNL A   1      41.419  27.815  29.405  1.00  0.00    -0.014 A 
BRANCH  37  38
ATOM     38  C   UNL A   1      41.128  28.684  30.571  1.00  0.00     0.031 A 
ATOM     39  C   UNL A   1      41.957  28.562  31.821  1.00  0.00     0.074 A 
ATOM     40  C   UNL A   1      40.104  29.558  30.514  1.00  0.00     0.049 A 
ATOM     41  N   UNL A   1      41.841  29.211  32.950  1.00  0.00    -0.248 NA
ATOM     42  C   UNL A   1      43.046  27.571  31.808  1.00  0.00     0.031 C 
ATOM     43  C   UNL A   1      39.218  29.750  29.363  1.00  0.00     0.029 A 
ATOM     44  N   UNL A   1      39.639  30.453  31.443  1.00  0.00    -0.354 N 
ATOM     45  C   UNL A   1      42.838  28.709  33.778  1.00  0.00     0.074 A 
ATOM     46  C   UNL A   1      43.510  27.659  33.045  1.00  0.00     0.031 C 
ATOM     47  C   UNL A   1      38.343  30.731  29.640  1.00  0.00     0.029 A 
ATOM     48  C   UNL A   1      38.577  31.207  31.001  1.00  0.00     0.049 A 
ATOM     49  H   UNL A   1      40.028  30.548  32.342  1.00  0.00     0.167 HD
ATOM     50  C   UNL A   1      43.183  29.107  35.025  1.00  0.00     0.031 A 
ATOM     51  C   UNL A   1      37.873  32.175  31.620  1.00  0.00     0.031 A 
ATOM     52  C   UNL A   1      42.517  30.157  35.747  1.00  0.00     0.049 A 
ATOM     53  C   UNL A   1      38.246  32.564  33.024  1.00  0.00     0.074 A 
ATOM     54  C   UNL A   1      42.809  30.654  37.004  1.00  0.00     0.029 A 
ATOM     55  N   UNL A   1      41.429  30.875  35.275  1.00  0.00    -0.354 N 
ATOM     56  N   UNL A   1      39.220  32.106  33.774  1.00  0.00    -0.248 NA
ATOM     57  C   UNL A   1      37.430  33.607  33.664  1.00  0.00     0.031 C 
ATOM     58  C   UNL A   1      41.864  31.636  37.314  1.00  0.00     0.029 A 
ATOM     59  C   UNL A   1      41.022  31.794  36.226  1.00  0.00     0.049 A 
ATOM     60  H   UNL A   1      41.007  30.749  34.393  1.00  0.00     0.167 HD
ATOM     61  C   UNL A   1      39.148  32.821  34.965  1.00  0.00     0.074 A 
ATOM     62  C   UNL A   1      38.048  33.753  34.829  1.00  0.00     0.031 C 
ATOM     63  C   UNL A   1      39.923  32.714  36.073  1.00  0.00     0.031 A 
BRANCH  50  64
ATOM     64  C   UNL A   1      44.342  28.411  35.687  1.00  0.00    -0.014 A 
ATOM     65  C   UNL A   1      44.143  27.233  36.432  1.00  0.00     0.010 A 
ATOM     66  C   UNL A   1      45.650  28.896  35.511  1.00  0.00     0.010 A 
ATOM     67  C   UNL A   1      45.229  26.569  37.007  1.00  0.00     0.020 A 
ATOM     68  C   UNL A   1      46.741  28.219  36.063  1.00  0.00     0.020 A 
ATOM     69  C   UNL A   1      46.521  27.064  36.816  1.00  0.00     0.054 A 
BRANCH  69  70
ATOM     70  S   UNL A   1      47.912  26.152  37.540  1.00  0.00     0.124 S 
ATOM     71  O   UNL A   1      48.890  26.182  36.455  1.00  0.00    -0.237 OA
ATOM     72  O   UNL A   1      48.246  26.959  38.710  1.00  0.00    -0.237 OA
ATOM     73  O   UNL A   1      47.350  24.835  37.833  1.00  0.00    -0.744 OA
ENDBRANCH  69  70
ENDBRANCH  50  64
BRANCH  51  74
ATOM     74  C   UNL A   1      36.757  32.857  30.907  1.00  0.00    -0.014 A 
ATOM     75  C   UNL A   1      37.028  33.816  29.916  1.00  0.00     0.010 A 
ATOM     76  C   UNL A   1      35.418  32.543  31.207  1.00  0.00     0.010 A 
ATOM     77  C   UNL A   1      35.982  34.461  29.248  1.00  0.00     0.020 A 
ATOM     78  C   UNL A   1      34.369  33.165  30.521  1.00  0.00     0.020 A 
ATOM     79  C   UNL A   1      34.659  34.128  29.553  1.00  0.00     0.054 A 
BRANCH  79  80
ATOM     80  S   UNL A   1      33.321  34.946  28.639  1.00  0.00     0.124 S 
ATOM     81  O   UNL A   1      32.496  35.476  29.719  1.00  0.00    -0.237 OA
ATOM     82  O   UNL A   1      34.045  35.938  27.848  1.00  0.00    -0.237 OA
ATOM     83  O   UNL A   1      32.722  33.861  27.867  1.00  0.00    -0.744 OA
ENDBRANCH  79  80
ENDBRANCH  51  74
BRANCH  63  84
ATOM     84  C   UNL A   1      39.628  33.638  37.224  1.00  0.00    -0.014 A 
ATOM     85  C   UNL A   1      38.754  33.254  38.256  1.00  0.00     0.010 A 
ATOM     86  C   UNL A   1      40.298  34.872  37.315  1.00  0.00     0.010 A 
ATOM     87  C   UNL A   1      38.542  34.096  39.350  1.00  0.00     0.020 A 
ATOM     88  C   UNL A   1      40.111  35.703  38.421  1.00  0.00     0.020 A 
ATOM     89  C   UNL A   1      39.227  35.314  39.428  1.00  0.00     0.054 A 
BRANCH  89  90
ATOM     90  S   UNL A   1      38.976  36.358  40.890  1.00  0.00     0.124 S 
ATOM     91  O   UNL A   1      37.933  35.631  41.607  1.00  0.00    -0.237 OA
ATOM     92  O   UNL A   1      40.295  36.346  41.518  1.00  0.00    -0.237 OA
ATOM     93  O   UNL A   1      38.568  37.645  40.332  1.00  0.00    -0.744 OA
ENDBRANCH  89  90
ENDBRANCH  63  84
ENDBRANCH  37  38
ENDBRANCH  29  32
ENDBRANCH  27  28
ENDBRANCH  26  27
ENDBRANCH   1  26
TORSDOF 17
ENDMDL
MODEL 2
REMARK VINA RESULT:     -11.4      5.750      8.084
REMARK SMILES Cc1cc(Cl)c(C)c2c1O[C@H](C(F)(F)F)C(C(=O)NCCCCCCNC(=O)c1ccc(-c3c4nc(c(-c5ccc(S(=O)(=O)[O-])cc5)c5ccc([nH]5)c(-c5ccc(S(=O)(=O)[O-])cc5)c5nc(c(-c6ccc(S(=O)(=O)[O-])cc6)c6ccc3[nH]6)C=C5)C=C4)cc1)=C2
REMARK SMILES IDX 23 1 22 2 21 3 20 4 19 5 17 6 18 7 16 9 1 10 2 11 3 12 9 13
REMARK SMILES IDX 4 14 8 15 10 16 5 17 6 18 89 19 11 20 7 21 12 22 13 23 14 24
REMARK SMILES IDX 15 25 24 26 25 27 26 28 27 29 28 31 29 32 30 33 88 34 31 35
REMARK SMILES IDX 87 36 32 37 33 38 34 39 81 40 35 41 86 42 80 43 82 44 36 45
REMARK SMILES IDX 85 46 79 47 78 48 37 50 67 51 48 52 66 53 49 54 52 55 65 56
REMARK SMILES IDX 83 57 50 58 51 59 64 61 84 62 53 63 38 64 39 65 47 66 40 67
REMARK SMILES IDX 46 68 41 69 42 70 43 71 44 72 45 73 68 74 69 75 77 76 70 77
REMARK SMILES IDX 76 78 71 79 72 80 73 81 74 82 75 83 54 84 55 85 63 86 56 87
REMARK SMILES IDX 62 88 57 89 58 90 59 91 60 92 61 93
REMARK H PARENT 19 8 26 30 82 49 52 60
REMARK Flexibility Score: inf
ROOT
ATOM      1  C   UNL A   1      37.033  21.155  24.594  1.00  0.00     0.002 C 
ENDROOT
BRANCH   1   2
ATOM      2  C   UNL A   1      35.737  21.280  25.407  1.00  0.00     0.002 C 
BRANCH   2   3
ATOM      3  C   UNL A   1      35.516  22.645  26.063  1.00  0.00     0.021 C 
BRANCH   3   4
ATOM      4  C   UNL A   1      34.572  22.598  27.259  1.00  0.00     0.116 C 
BRANCH   4   5
ATOM      5  N   UNL A   1      33.192  22.418  26.848  1.00  0.00    -0.352 N 
ATOM      6  C   UNL A   1      32.283  23.091  26.105  1.00  0.00     0.251 C 
ATOM      7  O   UNL A   1      31.182  22.541  25.993  1.00  0.00    -0.270 OA
ATOM      8  H   UNL A   1      32.816  21.582  27.206  1.00  0.00     0.163 HD
BRANCH   6   9
ATOM      9  C   UNL A   1      32.521  24.405  25.435  1.00  0.00     0.067 C 
ATOM     10  C   UNL A   1      34.030  28.227  22.408  1.00  0.00     0.048 C 
ATOM     11  C   UNL A   1      33.344  28.160  23.743  1.00  0.00    -0.007 A 
ATOM     12  C   UNL A   1      32.970  29.323  24.413  1.00  0.00     0.028 A 
ATOM     13  C   UNL A   1      33.089  26.927  24.353  1.00  0.00     0.131 A 
ATOM     14  C   UNL A   1      32.344  29.257  25.663  1.00  0.00     0.045 A 
ATOM     15  C   UNL A   1      32.468  26.836  25.609  1.00  0.00     0.022 A 
ATOM     16  O   UNL A   1      33.533  25.831  23.670  1.00  0.00    -0.475 OA
ATOM     17  Cl  UNL A   1      31.936  30.771  26.397  1.00  0.00    -0.084 Cl
ATOM     18  C   UNL A   1      32.077  28.019  26.281  1.00  0.00    -0.021 A 
ATOM     19  C   UNL A   1      32.292  25.498  26.186  1.00  0.00     0.026 C 
ATOM     20  C   UNL A   1      32.956  24.551  24.011  1.00  0.00     0.314 C 
ATOM     21  C   UNL A   1      31.400  27.934  27.627  1.00  0.00     0.047 C 
BRANCH  20  22
ATOM     22  C   UNL A   1      31.844  24.207  23.005  1.00  0.00     0.429 C 
ATOM     23  F   UNL A   1      30.631  24.550  23.501  1.00  0.00    -0.167 F 
ATOM     24  F   UNL A   1      31.979  24.873  21.833  1.00  0.00    -0.167 F 
ATOM     25  F   UNL A   1      31.806  22.890  22.707  1.00  0.00    -0.167 F 
ENDBRANCH  20  22
ENDBRANCH   6   9
ENDBRANCH   4   5
ENDBRANCH   3   4
ENDBRANCH   2   3
ENDBRANCH   1   2
BRANCH   1  26
ATOM     26  C   UNL A   1      37.995  20.061  25.065  1.00  0.00     0.021 C 
BRANCH  26  27
ATOM     27  C   UNL A   1      39.205  20.576  25.835  1.00  0.00     0.116 C 
BRANCH  27  28
ATOM     28  N   UNL A   1      40.208  19.541  26.013  1.00  0.00    -0.352 N 
ATOM     29  C   UNL A   1      41.564  19.670  26.167  1.00  0.00     0.251 C 
ATOM     30  H   UNL A   1      39.867  18.617  26.026  1.00  0.00     0.163 HD
ATOM     31  O   UNL A   1      42.293  18.686  26.072  1.00  0.00    -0.269 OA
BRANCH  29  32
ATOM     32  C   UNL A   1      42.139  21.002  26.436  1.00  0.00     0.039 A 
ATOM     33  C   UNL A   1      42.314  21.893  25.376  1.00  0.00     0.014 A 
ATOM     34  C   UNL A   1      42.505  21.366  27.736  1.00  0.00     0.014 A 
ATOM     35  C   UNL A   1      42.813  23.171  25.628  1.00  0.00     0.010 A 
ATOM     36  C   UNL A   1      42.935  22.664  27.995  1.00  0.00     0.010 A 
ATOM     37  C   UNL A   1      43.103  23.574  26.943  1.00  0.00    -0.014 A 
BRANCH  37  38
ATOM     38  C   UNL A   1      43.610  24.938  27.228  1.00  0.00     0.031 A 
ATOM     39  C   UNL A   1      45.064  25.259  27.006  1.00  0.00     0.074 A 
ATOM     40  C   UNL A   1      42.772  25.874  27.713  1.00  0.00     0.049 A 
ATOM     41  N   UNL A   1      45.700  26.380  27.222  1.00  0.00    -0.248 NA
ATOM     42  C   UNL A   1      45.917  24.175  26.490  1.00  0.00     0.031 C 
ATOM     43  C   UNL A   1      41.347  25.674  27.989  1.00  0.00     0.029 A 
ATOM     44  N   UNL A   1      42.994  27.185  28.055  1.00  0.00    -0.354 N 
ATOM     45  C   UNL A   1      47.023  26.137  26.870  1.00  0.00     0.074 A 
ATOM     46  C   UNL A   1      47.111  24.746  26.485  1.00  0.00     0.031 C 
ATOM     47  C   UNL A   1      40.815  26.831  28.418  1.00  0.00     0.029 A 
ATOM     48  C   UNL A   1      41.866  27.841  28.490  1.00  0.00     0.049 A 
ATOM     49  H   UNL A   1      43.877  27.615  27.994  1.00  0.00     0.167 HD
ATOM     50  C   UNL A   1      48.063  27.002  26.841  1.00  0.00     0.031 A 
ATOM     51  C   UNL A   1      41.698  29.115  28.897  1.00  0.00     0.031 A 
ATOM     52  C   UNL A   1      47.968  28.386  27.217  1.00  0.00     0.049 A 
ATOM     53  C   UNL A   1      42.882  30.042  28.902  1.00  0.00     0.074 A 
ATOM     54  C   UNL A   1      48.959  29.352  27.196  1.00  0.00     0.029 A 
ATOM     55  N   UNL A   1      46.816  29.004  27.679  1.00  0.00    -0.354 N 
ATOM     56  N   UNL A   1      44.116  29.804  28.525  1.00  0.00    -0.248 NA
ATOM     57  C   UNL A   1      42.651  31.413  29.380  1.00  0.00     0.031 C 
ATOM     58  C   UNL A   1      48.419  30.540  27.695  1.00  0.00     0.029 A 
ATOM     59  C   UNL A   1      47.077  30.332  27.969  1.00  0.00     0.049 A 
ATOM     60  H   UNL A   1      45.942  28.563  27.786  1.00  0.00     0.167 HD
ATOM     61  C   UNL A   1      44.802  31.002  28.698  1.00  0.00     0.074 A 
ATOM     62  C   UNL A   1      43.843  31.966  29.196  1.00  0.00     0.031 C 
ATOM     63  C   UNL A   1      46.109  31.278  28.466  1.00  0.00     0.031 A 
BRANCH  50  64
ATOM     64  C   UNL A   1      49.396  26.479  26.375  1.00  0.00    -0.014 A 
ATOM     65  C   UNL A   1      49.837  26.707  25.058  1.00  0.00     0.010 A 
ATOM     66  C   UNL A   1      50.245  25.813  27.276  1.00  0.00     0.010 A 
ATOM     67  C   UNL A   1      51.093  26.256  24.645  1.00  0.00     0.020 A 
ATOM     68  C   UNL A   1      51.514  25.384  26.874  1.00  0.00     0.020 A 
ATOM     69  C   UNL A   1      51.925  25.600  25.557  1.00  0.00     0.054 A 
BRANCH  69  70
ATOM     70  S   UNL A   1      53.567  25.068  25.000  1.00  0.00     0.124 S 
ATOM     71  O   UNL A   1      53.600  25.573  23.630  1.00  0.00    -0.237 OA
ATOM     72  O   UNL A   1      54.456  25.744  25.942  1.00  0.00    -0.237 OA
ATOM     73  O   UNL A   1      53.522  23.613  25.125  1.00  0.00    -0.744 OA
ENDBRANCH  69  70
ENDBRANCH  50  64
BRANCH  51  74
ATOM     74  C   UNL A   1      40.350  29.591  29.315  1.00  0.00    -0.014 A 
ATOM     75  C   UNL A   1      39.975  29.562  30.669  1.00  0.00     0.010 A 
ATOM     76  C   UNL A   1      39.439  30.088  28.364  1.00  0.00     0.010 A 
ATOM     77  C   UNL A   1      38.709  30.005  31.064  1.00  0.00     0.020 A 
ATOM     78  C   UNL A   1      38.183  30.559  28.758  1.00  0.00     0.020 A 
ATOM     79  C   UNL A   1      37.822  30.505  30.106  1.00  0.00     0.054 A 
BRANCH  79  80
ATOM     80  S   UNL A   1      36.203  31.116  30.650  1.00  0.00     0.124 S 
ATOM     81  O   UNL A   1      35.904  30.232  31.771  1.00  0.00    -0.237 OA
ATOM     82  O   UNL A   1      36.494  32.505  30.998  1.00  0.00    -0.237 OA
ATOM     83  O   UNL A   1      35.358  30.942  29.471  1.00  0.00    -0.744 OA
ENDBRANCH  79  80
ENDBRANCH  51  74
BRANCH  63  84
ATOM     84  C   UNL A   1      46.584  32.682  28.728  1.00  0.00    -0.014 A 
ATOM     85  C   UNL A   1      47.160  33.034  29.961  1.00  0.00     0.010 A 
ATOM     86  C   UNL A   1      46.529  33.638  27.697  1.00  0.00     0.010 A 
ATOM     87  C   UNL A   1      47.655  34.324  30.165  1.00  0.00     0.020 A 
ATOM     88  C   UNL A   1      47.050  34.920  27.887  1.00  0.00     0.020 A 
ATOM     89  C   UNL A   1      47.601  35.257  29.124  1.00  0.00     0.054 A 
BRANCH  89  90
ATOM     90  S   UNL A   1      48.308  36.905  29.399  1.00  0.00     0.124 S 
ATOM     91  O   UNL A   1      48.275  37.010  30.855  1.00  0.00    -0.237 OA
ATOM     92  O   UNL A   1      49.637  36.784  28.807  1.00  0.00    -0.237 OA
ATOM     93  O   UNL A   1      47.394  37.798  28.690  1.00  0.00    -0.744 OA
ENDBRANCH  89  90
ENDBRANCH  63  84
ENDBRANCH  37  38
ENDBRANCH  29  32
ENDBRANCH  27  28
ENDBRANCH  26  27
ENDBRANCH   1  26
TORSDOF 17
ENDMDL
MODEL 3
REMARK VINA RESULT:     -11.4      5.796     11.999
REMARK SMILES Cc1cc(Cl)c(C)c2c1O[C@H](C(F)(F)F)C(C(=O)NCCCCCCNC(=O)c1ccc(-c3c4nc(c(-c5ccc(S(=O)(=O)[O-])cc5)c5ccc([nH]5)c(-c5ccc(S(=O)(=O)[O-])cc5)c5nc(c(-c6ccc(S(=O)(=O)[O-])cc6)c6ccc3[nH]6)C=C5)C=C4)cc1)=C2
REMARK SMILES IDX 23 1 22 2 21 3 20 4 19 5 17 6 18 7 16 9 1 10 2 11 3 12 9 13
REMARK SMILES IDX 4 14 8 15 10 16 5 17 6 18 89 19 11 20 7 21 12 22 13 23 14 24
REMARK SMILES IDX 15 25 24 26 25 27 26 28 27 29 28 31 29 32 30 33 88 34 31 35
REMARK SMILES IDX 87 36 32 37 33 38 34 39 81 40 35 41 86 42 80 43 82 44 36 45
REMARK SMILES IDX 85 46 79 47 78 48 37 50 67 51 48 52 66 53 49 54 52 55 65 56
REMARK SMILES IDX 83 57 50 58 51 59 64 61 84 62 53 63 38 64 39 65 47 66 40 67
REMARK SMILES IDX 46 68 41 69 42 70 43 71 44 72 45 73 68 74 69 75 77 76 70 77
REMARK SMILES IDX 76 78 71 79 72 80 73 81 74 82 75 83 54 84 55 85 63 86 56 87
REMARK SMILES IDX 62 88 57 89 58 90 59 91 60 92 61 93
REMARK H PARENT 19 8 26 30 82 49 52 60
REMARK Flexibility Score: inf
ROOT
ATOM      1  C   UNL A   1      36.929  33.530  28.562  1.00  0.00     0.002 C 
ENDROOT
BRANCH   1   2
ATOM      2  C   UNL A   1      37.491  32.908  29.848  1.00  0.00     0.002 C 
BRANCH   2   3
ATOM      3  C   UNL A   1      37.692  33.890  31.005  1.00  0.00     0.021 C 
BRANCH   3   4
ATOM      4  C   UNL A   1      36.802  33.602  32.208  1.00  0.00     0.116 C 
BRANCH   4   5
ATOM      5  N   UNL A   1      36.574  32.178  32.378  1.00  0.00    -0.352 N 
ATOM      6  C   UNL A   1      37.233  31.126  32.916  1.00  0.00     0.251 C 
ATOM      7  O   UNL A   1      36.637  30.044  32.859  1.00  0.00    -0.270 OA
ATOM      8  H   UNL A   1      35.707  31.905  32.001  1.00  0.00     0.163 HD
BRANCH   6   9
ATOM      9  C   UNL A   1      38.583  31.189  33.552  1.00  0.00     0.067 C 
ATOM     10  C   UNL A   1      42.849  32.535  36.011  1.00  0.00     0.048 C 
ATOM     11  C   UNL A   1      42.479  31.391  35.110  1.00  0.00    -0.007 A 
ATOM     12  C   UNL A   1      43.405  30.397  34.800  1.00  0.00     0.028 A 
ATOM     13  C   UNL A   1      41.201  31.313  34.544  1.00  0.00     0.131 A 
ATOM     14  C   UNL A   1      43.061  29.341  33.949  1.00  0.00     0.045 A 
ATOM     15  C   UNL A   1      40.836  30.266  33.683  1.00  0.00     0.022 A 
ATOM     16  O   UNL A   1      40.363  32.348  34.842  1.00  0.00    -0.475 OA
ATOM     17  Cl  UNL A   1      44.301  28.175  33.634  1.00  0.00    -0.084 Cl
ATOM     18  C   UNL A   1      41.775  29.251  33.379  1.00  0.00    -0.021 A 
ATOM     19  C   UNL A   1      39.489  30.303  33.099  1.00  0.00     0.026 C 
ATOM     20  C   UNL A   1      38.946  32.138  34.651  1.00  0.00     0.314 C 
ATOM     21  C   UNL A   1      41.390  28.116  32.463  1.00  0.00     0.047 C 
BRANCH  20  22
ATOM     22  C   UNL A   1      38.297  31.774  35.998  1.00  0.00     0.429 C 
ATOM     23  F   UNL A   1      37.281  32.625  36.281  1.00  0.00    -0.167 F 
ATOM     24  F   UNL A   1      37.764  30.529  35.999  1.00  0.00    -0.167 F 
ATOM     25  F   UNL A   1      39.173  31.828  37.026  1.00  0.00    -0.167 F 
ENDBRANCH  20  22
ENDBRANCH   6   9
ENDBRANCH   4   5
ENDBRANCH   3   4
ENDBRANCH   2   3
ENDBRANCH   1   2
BRANCH   1  26
ATOM     26  C   UNL A   1      35.426  33.334  28.346  1.00  0.00     0.021 C 
BRANCH  26  27
ATOM     27  C   UNL A   1      34.772  32.365  29.325  1.00  0.00     0.116 C 
BRANCH  27  28
ATOM     28  N   UNL A   1      34.091  31.284  28.634  1.00  0.00    -0.352 N 
ATOM     29  C   UNL A   1      34.624  30.178  28.026  1.00  0.00     0.251 C 
ATOM     30  H   UNL A   1      33.109  31.356  28.597  1.00  0.00     0.163 HD
ATOM     31  O   UNL A   1      33.929  29.484  27.288  1.00  0.00    -0.269 OA
BRANCH  29  32
ATOM     32  C   UNL A   1      36.040  29.834  28.257  1.00  0.00     0.039 A 
ATOM     33  C   UNL A   1      36.961  30.015  27.224  1.00  0.00     0.014 A 
ATOM     34  C   UNL A   1      36.454  29.334  29.497  1.00  0.00     0.014 A 
ATOM     35  C   UNL A   1      38.309  29.738  27.448  1.00  0.00     0.010 A 
ATOM     36  C   UNL A   1      37.808  29.127  29.740  1.00  0.00     0.010 A 
ATOM     37  C   UNL A   1      38.746  29.316  28.716  1.00  0.00    -0.014 A 
BRANCH  37  38
ATOM     38  C   UNL A   1      40.180  29.043  28.976  1.00  0.00     0.031 A 
ATOM     39  C   UNL A   1      40.754  27.688  28.660  1.00  0.00     0.074 A 
ATOM     40  C   UNL A   1      40.954  30.000  29.523  1.00  0.00     0.049 A 
ATOM     41  N   UNL A   1      41.971  27.248  28.841  1.00  0.00    -0.248 NA
ATOM     42  C   UNL A   1      39.837  26.692  28.080  1.00  0.00     0.031 C 
ATOM     43  C   UNL A   1      40.504  31.345  29.892  1.00  0.00     0.029 A 
ATOM     44  N   UNL A   1      42.285  29.993  29.858  1.00  0.00    -0.354 N 
ATOM     45  C   UNL A   1      41.967  25.931  28.399  1.00  0.00     0.074 A 
ATOM     46  C   UNL A   1      40.612  25.622  27.999  1.00  0.00     0.031 C 
ATOM     47  C   UNL A   1      41.550  32.045  30.364  1.00  0.00     0.029 A 
ATOM     48  C   UNL A   1      42.732  31.188  30.372  1.00  0.00     0.049 A 
ATOM     49  H   UNL A   1      42.866  29.207  29.742  1.00  0.00     0.167 HD
ATOM     50  C   UNL A   1      43.004  25.065  28.307  1.00  0.00     0.031 A 
ATOM     51  C   UNL A   1      43.957  31.553  30.799  1.00  0.00     0.031 A 
ATOM     52  C   UNL A   1      44.351  25.380  28.698  1.00  0.00     0.049 A 
ATOM     53  C   UNL A   1      45.081  30.556  30.730  1.00  0.00     0.074 A 
ATOM     54  C   UNL A   1      45.478  24.581  28.617  1.00  0.00     0.029 A 
ATOM     55  N   UNL A   1      44.755  26.590  29.241  1.00  0.00    -0.354 N 
ATOM     56  N   UNL A   1      45.065  29.328  30.270  1.00  0.00    -0.248 NA
ATOM     57  C   UNL A   1      46.391  30.996  31.232  1.00  0.00     0.031 C 
ATOM     58  C   UNL A   1      46.553  25.290  29.160  1.00  0.00     0.029 A 
ATOM     59  C   UNL A   1      46.110  26.552  29.521  1.00  0.00     0.049 A 
ATOM     60  H   UNL A   1      44.166  27.363  29.403  1.00  0.00     0.167 HD
ATOM     61  C   UNL A   1      46.366  28.856  30.405  1.00  0.00     0.074 A 
ATOM     62  C   UNL A   1      47.146  29.936  30.973  1.00  0.00     0.031 C 
ATOM     63  C   UNL A   1      46.870  27.637  30.088  1.00  0.00     0.031 A 
BRANCH  50  64
ATOM     64  C   UNL A   1      42.724  23.695  27.749  1.00  0.00    -0.014 A 
ATOM     65  C   UNL A   1      42.872  23.434  26.374  1.00  0.00     0.010 A 
ATOM     66  C   UNL A   1      42.376  22.641  28.612  1.00  0.00     0.010 A 
ATOM     67  C   UNL A   1      42.653  22.150  25.870  1.00  0.00     0.020 A 
ATOM     68  C   UNL A   1      42.182  21.348  28.115  1.00  0.00     0.020 A 
ATOM     69  C   UNL A   1      42.313  21.114  26.745  1.00  0.00     0.054 A 
BRANCH  69  70
ATOM     70  S   UNL A   1      42.079  19.449  26.063  1.00  0.00     0.124 S 
ATOM     71  O   UNL A   1      40.652  19.447  25.755  1.00  0.00    -0.237 OA
ATOM     72  O   UNL A   1      42.972  19.452  24.907  1.00  0.00    -0.237 OA
ATOM     73  O   UNL A   1      42.481  18.567  27.156  1.00  0.00    -0.744 OA
ENDBRANCH  69  70
ENDBRANCH  50  64
BRANCH  51  74
ATOM     74  C   UNL A   1      44.188  32.933  31.309  1.00  0.00    -0.014 A 
ATOM     75  C   UNL A   1      44.395  33.996  30.413  1.00  0.00     0.010 A 
ATOM     76  C   UNL A   1      44.190  33.195  32.692  1.00  0.00     0.010 A 
ATOM     77  C   UNL A   1      44.616  35.292  30.889  1.00  0.00     0.020 A 
ATOM     78  C   UNL A   1      44.381  34.494  33.171  1.00  0.00     0.020 A 
ATOM     79  C   UNL A   1      44.604  35.533  32.266  1.00  0.00     0.054 A 
BRANCH  79  80
ATOM     80  S   UNL A   1      44.847  37.232  32.857  1.00  0.00     0.124 S 
ATOM     81  O   UNL A   1      43.775  37.948  32.175  1.00  0.00    -0.237 OA
ATOM     82  O   UNL A   1      44.693  37.085  34.302  1.00  0.00    -0.237 OA
ATOM     83  O   UNL A   1      46.200  37.557  32.412  1.00  0.00    -0.744 OA
ENDBRANCH  79  80
ENDBRANCH  51  74
BRANCH  63  84
ATOM     84  C   UNL A   1      48.337  27.404  30.328  1.00  0.00    -0.014 A 
ATOM     85  C   UNL A   1      48.794  26.828  31.526  1.00  0.00     0.010 A 
ATOM     86  C   UNL A   1      49.263  27.689  29.306  1.00  0.00     0.010 A 
ATOM     87  C   UNL A   1      50.153  26.558  31.706  1.00  0.00     0.020 A 
ATOM     88  C   UNL A   1      50.617  27.393  29.470  1.00  0.00     0.020 A 
ATOM     89  C   UNL A   1      51.055  26.838  30.673  1.00  0.00     0.054 A 
BRANCH  89  90
ATOM     90  S   UNL A   1      52.804  26.420  30.914  1.00  0.00     0.124 S 
ATOM     91  O   UNL A   1      53.268  26.253  29.540  1.00  0.00    -0.237 OA
ATOM     92  O   UNL A   1      53.318  27.595  31.613  1.00  0.00    -0.237 OA
ATOM     93  O   UNL A   1      52.762  25.195  31.710  1.00  0.00    -0.744 OA
ENDBRANCH  89  90
ENDBRANCH  63  84
ENDBRANCH  37  38
ENDBRANCH  29  32
ENDBRANCH  27  28
ENDBRANCH  26  27
ENDBRANCH   1  26
TORSDOF 17
ENDMDL
