MODEL 1
REMARK VINA RESULT:      -8.9      0.000      0.000
REMARK SMILES Nn1c(S[C@@H](C(=O)NCCCCCCNC(=O)c2ccc(-c3c4nc(c(-c5ccc(S(=O)(=O)[O-])cc5)c5ccc([nH]5)c(-c5ccc(S(=O)(=O)[O-])cc5)c5nc(c(-c6ccc(S(=O)(=O)[O-])cc6)c6ccc3[nH]6)C=C5)C=C4)cc2)c2ccccc2)nc2ccc(Br)cc2c1=O
REMARK SMILES IDX 11 1 10 2 9 3 8 4 6 5 7 6 5 8 4 9 3 10 2 11 92 12 84 13
REMARK SMILES IDX 91 14 93 15 85 16 90 17 86 18 88 19 87 20 89 21 1 22 78 25
REMARK SMILES IDX 79 26 83 27 80 28 82 29 81 30 12 31 13 32 14 33 15 34 16 35
REMARK SMILES IDX 17 37 18 38 19 39 77 40 20 41 76 42 21 43 22 44 23 45 70 46
REMARK SMILES IDX 24 47 75 48 69 49 71 50 25 51 74 52 68 53 67 54 26 56 56 57
REMARK SMILES IDX 37 58 55 59 38 60 41 61 54 62 72 63 39 64 40 65 53 67 73 68
REMARK SMILES IDX 42 69 27 70 28 71 36 72 29 73 35 74 30 75 31 76 32 77 33 78
REMARK SMILES IDX 34 79 57 80 58 81 66 82 59 83 65 84 60 85 61 86 62 87 63 88
REMARK SMILES IDX 64 89 43 90 44 91 52 92 45 93 51 94 46 95 47 96 48 97 49 98
REMARK SMILES IDX 50 99
REMARK H PARENT 8 7 1 23 1 24 15 36 71 55 41 66
REMARK Flexibility Score: inf
ROOT
ATOM      1  C   UNL A   1      52.907  20.993  35.586  1.00  0.00     0.002 C 
ENDROOT
BRANCH   1   2
ATOM      2  C   UNL A   1      52.778  19.494  35.897  1.00  0.00     0.021 C 
BRANCH   2   3
ATOM      3  C   UNL A   1      51.359  19.014  36.227  1.00  0.00     0.116 C 
BRANCH   3   4
ATOM      4  N   UNL A   1      51.084  19.120  37.649  1.00  0.00    -0.355 N 
ATOM      5  C   UNL A   1      50.293  19.982  38.360  1.00  0.00     0.238 C 
ATOM      6  O   UNL A   1      50.443  19.904  39.585  1.00  0.00    -0.273 OA
ATOM      7  H   UNL A   1      51.551  18.452  38.201  1.00  0.00     0.163 HD
BRANCH   5   8
ATOM      8  C   UNL A   1      49.285  20.924  37.647  1.00  0.00     0.174 C 
BRANCH   8   9
ATOM      9  S   UNL A   1      48.897  22.354  38.693  1.00  0.00    -0.068 SA
BRANCH   9  10
ATOM     10  C   UNL A   1      47.910  23.562  37.917  1.00  0.00     0.191 A 
ATOM     11  N   UNL A   1      48.160  24.931  37.856  1.00  0.00    -0.202 N 
ATOM     12  C   UNL A   1      47.301  25.810  37.187  1.00  0.00     0.280 A 
ATOM     13  N   UNL A   1      46.869  23.030  37.351  1.00  0.00    -0.222 NA
ATOM     14  C   UNL A   1      46.113  25.215  36.565  1.00  0.00     0.069 A 
ATOM     15  O   UNL A   1      47.486  27.027  37.118  1.00  0.00    -0.267 OA
ATOM     16  C   UNL A   1      45.952  23.838  36.682  1.00  0.00     0.079 A 
ATOM     17  C   UNL A   1      45.172  26.007  35.901  1.00  0.00     0.031 A 
ATOM     18  C   UNL A   1      44.821  23.245  36.117  1.00  0.00     0.030 A 
ATOM     19  C   UNL A   1      44.048  25.399  35.348  1.00  0.00     0.018 A 
ATOM     20  C   UNL A   1      43.867  24.020  35.452  1.00  0.00     0.018 A 
ATOM     21  Br  UNL A   1      42.755  26.452  34.460  1.00  0.00    -0.051 Br
BRANCH  11  22
ATOM     22  N   UNL A   1      49.235  25.546  38.509  1.00  0.00    -0.334 N 
ATOM     23  H   UNL A   1      49.232  26.520  38.654  1.00  0.00     0.178 HD
ATOM     24  H   UNL A   1      49.994  25.004  38.826  1.00  0.00     0.178 HD
ENDBRANCH  11  22
ENDBRANCH   9  10
ENDBRANCH   8   9
BRANCH   8  25
ATOM     25  C   UNL A   1      48.082  20.331  36.892  1.00  0.00    -0.025 A 
ATOM     26  C   UNL A   1      47.043  19.635  37.536  1.00  0.00     0.005 A 
ATOM     27  C   UNL A   1      48.006  20.425  35.485  1.00  0.00     0.005 A 
ATOM     28  C   UNL A   1      45.934  19.160  36.828  1.00  0.00     0.000 A 
ATOM     29  C   UNL A   1      46.900  19.945  34.776  1.00  0.00     0.000 A 
ATOM     30  C   UNL A   1      45.855  19.329  35.450  1.00  0.00     0.000 A 
ENDBRANCH   8  25
ENDBRANCH   5   8
ENDBRANCH   3   4
ENDBRANCH   2   3
ENDBRANCH   1   2
BRANCH   1  31
ATOM     31  C   UNL A   1      51.686  21.650  34.939  1.00  0.00     0.002 C 
BRANCH  31  32
ATOM     32  C   UNL A   1      51.569  21.472  33.425  1.00  0.00     0.021 C 
BRANCH  32  33
ATOM     33  C   UNL A   1      51.267  22.744  32.642  1.00  0.00     0.116 C 
BRANCH  33  34
ATOM     34  N   UNL A   1      51.771  23.944  33.293  1.00  0.00    -0.352 N 
ATOM     35  C   UNL A   1      51.190  25.190  33.375  1.00  0.00     0.251 C 
ATOM     36  H   UNL A   1      52.647  23.853  33.734  1.00  0.00     0.163 HD
ATOM     37  O   UNL A   1      51.805  26.132  33.854  1.00  0.00    -0.269 OA
BRANCH  35  38
ATOM     38  C   UNL A   1      49.826  25.386  32.830  1.00  0.00     0.039 A 
ATOM     39  C   UNL A   1      49.638  25.964  31.572  1.00  0.00     0.014 A 
ATOM     40  C   UNL A   1      48.726  25.044  33.620  1.00  0.00     0.014 A 
ATOM     41  C   UNL A   1      48.361  26.355  31.178  1.00  0.00     0.010 A 
ATOM     42  C   UNL A   1      47.437  25.374  33.190  1.00  0.00     0.010 A 
ATOM     43  C   UNL A   1      47.249  26.082  31.992  1.00  0.00    -0.014 A 
BRANCH  43  44
ATOM     44  C   UNL A   1      45.904  26.588  31.611  1.00  0.00     0.031 A 
ATOM     45  C   UNL A   1      45.025  25.777  30.691  1.00  0.00     0.074 A 
ATOM     46  C   UNL A   1      45.446  27.745  32.132  1.00  0.00     0.049 A 
ATOM     47  N   UNL A   1      43.849  26.077  30.204  1.00  0.00    -0.248 NA
ATOM     48  C   UNL A   1      45.527  24.458  30.266  1.00  0.00     0.031 C 
ATOM     49  C   UNL A   1      46.172  28.587  33.083  1.00  0.00     0.029 A 
ATOM     50  N   UNL A   1      44.252  28.399  31.954  1.00  0.00    -0.354 N 
ATOM     51  C   UNL A   1      43.478  24.997  29.409  1.00  0.00     0.074 A 
ATOM     52  C   UNL A   1      44.562  24.042  29.457  1.00  0.00     0.031 C 
ATOM     53  C   UNL A   1      45.391  29.616  33.444  1.00  0.00     0.029 A 
ATOM     54  C   UNL A   1      44.139  29.553  32.696  1.00  0.00     0.049 A 
ATOM     55  H   UNL A   1      43.543  28.074  31.352  1.00  0.00     0.167 HD
ATOM     56  C   UNL A   1      42.330  24.815  28.715  1.00  0.00     0.031 A 
ATOM     57  C   UNL A   1      43.150  30.467  32.757  1.00  0.00     0.031 A 
ATOM     58  C   UNL A   1      41.244  25.758  28.690  1.00  0.00     0.049 A 
ATOM     59  C   UNL A   1      41.925  30.283  31.906  1.00  0.00     0.074 A 
ATOM     60  C   UNL A   1      40.049  25.663  27.998  1.00  0.00     0.029 A 
ATOM     61  N   UNL A   1      41.207  26.949  29.395  1.00  0.00    -0.354 N 
ATOM     62  N   UNL A   1      41.613  29.276  31.126  1.00  0.00    -0.248 NA
ATOM     63  C   UNL A   1      40.922  31.357  31.932  1.00  0.00     0.031 C 
ATOM     64  C   UNL A   1      39.309  26.819  28.246  1.00  0.00     0.029 A 
ATOM     65  C   UNL A   1      40.016  27.605  29.143  1.00  0.00     0.049 A 
ATOM     66  H   UNL A   1      41.921  27.279  29.987  1.00  0.00     0.167 HD
ATOM     67  C   UNL A   1      40.371  29.586  30.586  1.00  0.00     0.074 A 
ATOM     68  C   UNL A   1      39.980  30.868  31.133  1.00  0.00     0.031 C 
ATOM     69  C   UNL A   1      39.625  28.870  29.711  1.00  0.00     0.031 A 
BRANCH  56  70
ATOM     70  C   UNL A   1      42.155  23.547  27.923  1.00  0.00    -0.014 A 
ATOM     71  C   UNL A   1      41.303  22.536  28.405  1.00  0.00     0.010 A 
ATOM     72  C   UNL A   1      42.957  23.290  26.797  1.00  0.00     0.010 A 
ATOM     73  C   UNL A   1      41.289  21.274  27.804  1.00  0.00     0.020 A 
ATOM     74  C   UNL A   1      42.927  22.036  26.179  1.00  0.00     0.020 A 
ATOM     75  C   UNL A   1      42.115  21.028  26.703  1.00  0.00     0.054 A 
BRANCH  75  76
ATOM     76  S   UNL A   1      42.127  19.368  25.972  1.00  0.00     0.124 S 
ATOM     77  O   UNL A   1      42.695  18.562  27.048  1.00  0.00    -0.237 OA
ATOM     78  O   UNL A   1      40.715  19.135  25.683  1.00  0.00    -0.237 OA
ATOM     79  O   UNL A   1      42.976  19.522  24.792  1.00  0.00    -0.744 OA
ENDBRANCH  75  76
ENDBRANCH  56  70
BRANCH  57  80
ATOM     80  C   UNL A   1      43.288  31.642  33.662  1.00  0.00    -0.014 A 
ATOM     81  C   UNL A   1      43.953  32.804  33.232  1.00  0.00     0.010 A 
ATOM     82  C   UNL A   1      42.789  31.588  34.976  1.00  0.00     0.010 A 
ATOM     83  C   UNL A   1      44.158  33.873  34.108  1.00  0.00     0.020 A 
ATOM     84  C   UNL A   1      42.964  32.668  35.847  1.00  0.00     0.020 A 
ATOM     85  C   UNL A   1      43.669  33.794  35.414  1.00  0.00     0.054 A 
BRANCH  85  86
ATOM     86  S   UNL A   1      43.952  35.188  36.540  1.00  0.00     0.124 S 
ATOM     87  O   UNL A   1      43.046  34.871  37.640  1.00  0.00    -0.237 OA
ATOM     88  O   UNL A   1      45.376  35.073  36.844  1.00  0.00    -0.237 OA
ATOM     89  O   UNL A   1      43.581  36.352  35.739  1.00  0.00    -0.744 OA
ENDBRANCH  85  86
ENDBRANCH  57  80
BRANCH  69  90
ATOM     90  C   UNL A   1      38.288  29.414  29.287  1.00  0.00    -0.014 A 
ATOM     91  C   UNL A   1      38.166  30.050  28.038  1.00  0.00     0.010 A 
ATOM     92  C   UNL A   1      37.213  29.456  30.191  1.00  0.00     0.010 A 
ATOM     93  C   UNL A   1      37.012  30.768  27.720  1.00  0.00     0.020 A 
ATOM     94  C   UNL A   1      36.046  30.154  29.865  1.00  0.00     0.020 A 
ATOM     95  C   UNL A   1      35.966  30.831  28.646  1.00  0.00     0.054 A 
BRANCH  95  96
ATOM     96  S   UNL A   1      34.507  31.833  28.250  1.00  0.00     0.124 S 
ATOM     97  O   UNL A   1      33.657  30.875  27.549  1.00  0.00    -0.237 OA
ATOM     98  O   UNL A   1      34.034  32.248  29.569  1.00  0.00    -0.237 OA
ATOM     99  O   UNL A   1      35.046  32.911  27.424  1.00  0.00    -0.744 OA
ENDBRANCH  95  96
ENDBRANCH  69  90
ENDBRANCH  43  44
ENDBRANCH  35  38
ENDBRANCH  33  34
ENDBRANCH  32  33
ENDBRANCH  31  32
ENDBRANCH   1  31
TORSDOF 20
ENDMDL
MODEL 2
REMARK VINA RESULT:      -8.8      4.686      9.619
REMARK SMILES Nn1c(S[C@@H](C(=O)NCCCCCCNC(=O)c2ccc(-c3c4nc(c(-c5ccc(S(=O)(=O)[O-])cc5)c5ccc([nH]5)c(-c5ccc(S(=O)(=O)[O-])cc5)c5nc(c(-c6ccc(S(=O)(=O)[O-])cc6)c6ccc3[nH]6)C=C5)C=C4)cc2)c2ccccc2)nc2ccc(Br)cc2c1=O
REMARK SMILES IDX 11 1 10 2 9 3 8 4 6 5 7 6 5 8 4 9 3 10 2 11 92 12 84 13
REMARK SMILES IDX 91 14 93 15 85 16 90 17 86 18 88 19 87 20 89 21 1 22 78 25
REMARK SMILES IDX 79 26 83 27 80 28 82 29 81 30 12 31 13 32 14 33 15 34 16 35
REMARK SMILES IDX 17 37 18 38 19 39 77 40 20 41 76 42 21 43 22 44 23 45 70 46
REMARK SMILES IDX 24 47 75 48 69 49 71 50 25 51 74 52 68 53 67 54 26 56 56 57
REMARK SMILES IDX 37 58 55 59 38 60 41 61 54 62 72 63 39 64 40 65 53 67 73 68
REMARK SMILES IDX 42 69 27 70 28 71 36 72 29 73 35 74 30 75 31 76 32 77 33 78
REMARK SMILES IDX 34 79 57 80 58 81 66 82 59 83 65 84 60 85 61 86 62 87 63 88
REMARK SMILES IDX 64 89 43 90 44 91 52 92 45 93 51 94 46 95 47 96 48 97 49 98
REMARK SMILES IDX 50 99
REMARK H PARENT 8 7 1 23 1 24 15 36 71 55 41 66
REMARK Flexibility Score: inf
ROOT
ATOM      1  C   UNL A   1      46.342  24.667  26.581  1.00  0.00     0.002 C 
ENDROOT
BRANCH   1   2
ATOM      2  C   UNL A   1      45.851  24.216  25.196  1.00  0.00     0.021 C 
BRANCH   2   3
ATOM      3  C   UNL A   1      44.331  24.072  25.056  1.00  0.00     0.116 C 
BRANCH   3   4
ATOM      4  N   UNL A   1      43.696  25.362  24.851  1.00  0.00    -0.355 N 
ATOM      5  C   UNL A   1      42.522  25.883  25.326  1.00  0.00     0.238 C 
ATOM      6  O   UNL A   1      42.195  26.949  24.791  1.00  0.00    -0.273 OA
ATOM      7  H   UNL A   1      44.199  25.970  24.263  1.00  0.00     0.163 HD
BRANCH   5   8
ATOM      8  C   UNL A   1      41.732  25.181  26.464  1.00  0.00     0.174 C 
BRANCH   8   9
ATOM      9  S   UNL A   1      40.167  26.043  26.781  1.00  0.00    -0.068 SA
BRANCH   9  10
ATOM     10  C   UNL A   1      40.251  27.234  28.049  1.00  0.00     0.191 A 
ATOM     11  N   UNL A   1      40.962  28.433  28.023  1.00  0.00    -0.202 N 
ATOM     12  C   UNL A   1      40.944  29.326  29.100  1.00  0.00     0.280 A 
ATOM     13  N   UNL A   1      39.532  26.887  29.073  1.00  0.00    -0.222 NA
ATOM     14  C   UNL A   1      40.148  28.926  30.266  1.00  0.00     0.069 A 
ATOM     15  O   UNL A   1      41.565  30.390  29.115  1.00  0.00    -0.267 OA
ATOM     16  C   UNL A   1      39.476  27.711  30.196  1.00  0.00     0.079 A 
ATOM     17  C   UNL A   1      40.089  29.730  31.409  1.00  0.00     0.031 A 
ATOM     18  C   UNL A   1      38.726  27.294  31.298  1.00  0.00     0.030 A 
ATOM     19  C   UNL A   1      39.341  29.296  32.500  1.00  0.00     0.018 A 
ATOM     20  C   UNL A   1      38.658  28.081  32.451  1.00  0.00     0.018 A 
ATOM     21  Br  UNL A   1      39.259  30.357  34.061  1.00  0.00    -0.051 Br
BRANCH  11  22
ATOM     22  N   UNL A   1      41.799  28.806  26.965  1.00  0.00    -0.334 N 
ATOM     23  H   UNL A   1      41.612  29.626  26.454  1.00  0.00     0.178 HD
ATOM     24  H   UNL A   1      42.578  28.248  26.733  1.00  0.00     0.178 HD
ENDBRANCH  11  22
ENDBRANCH   9  10
ENDBRANCH   8   9
BRANCH   8  25
ATOM     25  C   UNL A   1      42.470  24.696  27.725  1.00  0.00    -0.025 A 
ATOM     26  C   UNL A   1      43.317  25.526  28.481  1.00  0.00     0.005 A 
ATOM     27  C   UNL A   1      42.355  23.353  28.146  1.00  0.00     0.005 A 
ATOM     28  C   UNL A   1      43.925  25.071  29.656  1.00  0.00     0.000 A 
ATOM     29  C   UNL A   1      42.968  22.896  29.317  1.00  0.00     0.000 A 
ATOM     30  C   UNL A   1      43.738  23.761  30.083  1.00  0.00     0.000 A 
ENDBRANCH   8  25
ENDBRANCH   5   8
ENDBRANCH   3   4
ENDBRANCH   2   3
ENDBRANCH   1   2
BRANCH   1  31
ATOM     31  C   UNL A   1      47.833  24.998  26.688  1.00  0.00     0.002 C 
BRANCH  31  32
ATOM     32  C   UNL A   1      48.591  25.046  25.362  1.00  0.00     0.021 C 
BRANCH  32  33
ATOM     33  C   UNL A   1      49.200  26.398  25.011  1.00  0.00     0.116 C 
BRANCH  33  34
ATOM     34  N   UNL A   1      48.460  27.103  23.975  1.00  0.00    -0.352 N 
ATOM     35  C   UNL A   1      47.360  27.922  24.106  1.00  0.00     0.251 C 
ATOM     36  H   UNL A   1      48.789  26.977  23.055  1.00  0.00     0.163 HD
ATOM     37  O   UNL A   1      46.776  28.342  23.117  1.00  0.00    -0.269 OA
BRANCH  35  38
ATOM     38  C   UNL A   1      46.864  28.250  25.463  1.00  0.00     0.039 A 
ATOM     39  C   UNL A   1      45.546  27.966  25.827  1.00  0.00     0.014 A 
ATOM     40  C   UNL A   1      47.716  28.908  26.355  1.00  0.00     0.014 A 
ATOM     41  C   UNL A   1      45.031  28.489  27.011  1.00  0.00     0.010 A 
ATOM     42  C   UNL A   1      47.214  29.370  27.575  1.00  0.00     0.010 A 
ATOM     43  C   UNL A   1      45.854  29.214  27.888  1.00  0.00    -0.014 A 
BRANCH  43  44
ATOM     44  C   UNL A   1      45.275  29.851  29.100  1.00  0.00     0.031 A 
ATOM     45  C   UNL A   1      45.262  29.105  30.411  1.00  0.00     0.074 A 
ATOM     46  C   UNL A   1      44.810  31.115  29.042  1.00  0.00     0.049 A 
ATOM     47  N   UNL A   1      44.753  29.471  31.559  1.00  0.00    -0.248 NA
ATOM     48  C   UNL A   1      45.909  27.781  30.442  1.00  0.00     0.031 C 
ATOM     49  C   UNL A   1      44.827  31.965  27.849  1.00  0.00     0.029 A 
ATOM     50  N   UNL A   1      44.257  31.915  30.011  1.00  0.00    -0.354 N 
ATOM     51  C   UNL A   1      45.004  28.423  32.440  1.00  0.00     0.074 A 
ATOM     52  C   UNL A   1      45.690  27.394  31.693  1.00  0.00     0.031 C 
ATOM     53  C   UNL A   1      44.357  33.179  28.170  1.00  0.00     0.029 A 
ATOM     54  C   UNL A   1      43.935  33.177  29.567  1.00  0.00     0.049 A 
ATOM     55  H   UNL A   1      44.106  31.614  30.936  1.00  0.00     0.167 HD
ATOM     56  C   UNL A   1      44.701  28.337  33.756  1.00  0.00     0.031 A 
ATOM     57  C   UNL A   1      43.350  34.212  30.204  1.00  0.00     0.031 A 
ATOM     58  C   UNL A   1      44.040  29.374  34.502  1.00  0.00     0.049 A 
ATOM     59  C   UNL A   1      42.944  34.054  31.643  1.00  0.00     0.074 A 
ATOM     60  C   UNL A   1      43.677  29.364  35.838  1.00  0.00     0.029 A 
ATOM     61  N   UNL A   1      43.662  30.604  33.992  1.00  0.00    -0.354 N 
ATOM     62  N   UNL A   1      43.148  33.038  32.445  1.00  0.00    -0.248 NA
ATOM     63  C   UNL A   1      42.219  35.174  32.262  1.00  0.00     0.031 C 
ATOM     64  C   UNL A   1      43.036  30.570  36.125  1.00  0.00     0.029 A 
ATOM     65  C   UNL A   1      43.056  31.356  34.983  1.00  0.00     0.049 A 
ATOM     66  H   UNL A   1      43.802  30.900  33.064  1.00  0.00     0.167 HD
ATOM     67  C   UNL A   1      42.598  33.404  33.668  1.00  0.00     0.074 A 
ATOM     68  C   UNL A   1      42.059  34.737  33.506  1.00  0.00     0.031 C 
ATOM     69  C   UNL A   1      42.544  32.692  34.818  1.00  0.00     0.031 A 
BRANCH  56  70
ATOM     70  C   UNL A   1      45.082  27.089  34.508  1.00  0.00    -0.014 A 
ATOM     71  C   UNL A   1      46.370  26.978  35.066  1.00  0.00     0.010 A 
ATOM     72  C   UNL A   1      44.231  25.971  34.516  1.00  0.00     0.010 A 
ATOM     73  C   UNL A   1      46.818  25.757  35.577  1.00  0.00     0.020 A 
ATOM     74  C   UNL A   1      44.668  24.754  35.050  1.00  0.00     0.020 A 
ATOM     75  C   UNL A   1      45.967  24.648  35.551  1.00  0.00     0.054 A 
BRANCH  75  76
ATOM     76  S   UNL A   1      46.585  23.056  36.165  1.00  0.00     0.124 S 
ATOM     77  O   UNL A   1      45.458  22.573  36.957  1.00  0.00    -0.237 OA
ATOM     78  O   UNL A   1      46.856  22.321  34.933  1.00  0.00    -0.237 OA
ATOM     79  O   UNL A   1      47.774  23.426  36.931  1.00  0.00    -0.744 OA
ENDBRANCH  75  76
ENDBRANCH  56  70
BRANCH  57  80
ATOM     80  C   UNL A   1      43.115  35.488  29.474  1.00  0.00    -0.014 A 
ATOM     81  C   UNL A   1      43.974  36.587  29.659  1.00  0.00     0.010 A 
ATOM     82  C   UNL A   1      42.006  35.625  28.621  1.00  0.00     0.010 A 
ATOM     83  C   UNL A   1      43.706  37.811  29.041  1.00  0.00     0.020 A 
ATOM     84  C   UNL A   1      41.752  36.840  27.975  1.00  0.00     0.020 A 
ATOM     85  C   UNL A   1      42.591  37.933  28.210  1.00  0.00     0.054 A 
BRANCH  85  86
ATOM     86  S   UNL A   1      42.254  39.532  27.424  1.00  0.00     0.124 S 
ATOM     87  O   UNL A   1      43.580  39.912  26.942  1.00  0.00    -0.237 OA
ATOM     88  O   UNL A   1      41.284  39.185  26.389  1.00  0.00    -0.237 OA
ATOM     89  O   UNL A   1      41.730  40.345  28.518  1.00  0.00    -0.744 OA
ENDBRANCH  85  86
ENDBRANCH  57  80
BRANCH  69  90
ATOM     90  C   UNL A   1      41.907  33.322  36.028  1.00  0.00    -0.014 A 
ATOM     91  C   UNL A   1      40.514  33.223  36.205  1.00  0.00     0.010 A 
ATOM     92  C   UNL A   1      42.653  34.155  36.878  1.00  0.00     0.010 A 
ATOM     93  C   UNL A   1      39.869  33.989  37.177  1.00  0.00     0.020 A 
ATOM     94  C   UNL A   1      42.013  34.905  37.868  1.00  0.00     0.020 A 
ATOM     95  C   UNL A   1      40.622  34.841  37.990  1.00  0.00     0.054 A 
BRANCH  95  96
ATOM     96  S   UNL A   1      39.760  35.889  39.194  1.00  0.00     0.124 S 
ATOM     97  O   UNL A   1      40.793  36.114  40.201  1.00  0.00    -0.237 OA
ATOM     98  O   UNL A   1      39.392  37.058  38.397  1.00  0.00    -0.237 OA
ATOM     99  O   UNL A   1      38.636  35.061  39.625  1.00  0.00    -0.744 OA
ENDBRANCH  95  96
ENDBRANCH  69  90
ENDBRANCH  43  44
ENDBRANCH  35  38
ENDBRANCH  33  34
ENDBRANCH  32  33
ENDBRANCH  31  32
ENDBRANCH   1  31
TORSDOF 20
ENDMDL
MODEL 3
REMARK VINA RESULT:      -8.7      4.351     13.601
REMARK SMILES Nn1c(S[C@@H](C(=O)NCCCCCCNC(=O)c2ccc(-c3c4nc(c(-c5ccc(S(=O)(=O)[O-])cc5)c5ccc([nH]5)c(-c5ccc(S(=O)(=O)[O-])cc5)c5nc(c(-c6ccc(S(=O)(=O)[O-])cc6)c6ccc3[nH]6)C=C5)C=C4)cc2)c2ccccc2)nc2ccc(Br)cc2c1=O
REMARK SMILES IDX 11 1 10 2 9 3 8 4 6 5 7 6 5 8 4 9 3 10 2 11 92 12 84 13
REMARK SMILES IDX 91 14 93 15 85 16 90 17 86 18 88 19 87 20 89 21 1 22 78 25
REMARK SMILES IDX 79 26 83 27 80 28 82 29 81 30 12 31 13 32 14 33 15 34 16 35
REMARK SMILES IDX 17 37 18 38 19 39 77 40 20 41 76 42 21 43 22 44 23 45 70 46
REMARK SMILES IDX 24 47 75 48 69 49 71 50 25 51 74 52 68 53 67 54 26 56 56 57
REMARK SMILES IDX 37 58 55 59 38 60 41 61 54 62 72 63 39 64 40 65 53 67 73 68
REMARK SMILES IDX 42 69 27 70 28 71 36 72 29 73 35 74 30 75 31 76 32 77 33 78
REMARK SMILES IDX 34 79 57 80 58 81 66 82 59 83 65 84 60 85 61 86 62 87 63 88
REMARK SMILES IDX 64 89 43 90 44 91 52 92 45 93 51 94 46 95 47 96 48 97 49 98
REMARK SMILES IDX 50 99
REMARK H PARENT 8 7 1 23 1 24 15 36 71 55 41 66
REMARK Flexibility Score: inf
ROOT
ATOM      1  C   UNL A   1      37.889  34.390  31.357  1.00  0.00     0.002 C 
ENDROOT
BRANCH   1   2
ATOM      2  C   UNL A   1      38.607  33.340  32.220  1.00  0.00     0.021 C 
BRANCH   2   3
ATOM      3  C   UNL A   1      37.826  32.857  33.447  1.00  0.00     0.116 C 
BRANCH   3   4
ATOM      4  N   UNL A   1      37.548  31.434  33.369  1.00  0.00    -0.355 N 
ATOM      5  C   UNL A   1      38.148  30.356  33.962  1.00  0.00     0.238 C 
ATOM      6  O   UNL A   1      37.770  29.266  33.519  1.00  0.00    -0.273 OA
ATOM      7  H   UNL A   1      36.791  31.203  32.783  1.00  0.00     0.163 HD
BRANCH   5   8
ATOM      8  C   UNL A   1      39.176  30.540  35.112  1.00  0.00     0.174 C 
BRANCH   8   9
ATOM      9  S   UNL A   1      39.261  32.279  35.620  1.00  0.00    -0.068 SA
BRANCH   9  10
ATOM     10  C   UNL A   1      38.891  32.552  37.301  1.00  0.00     0.191 A 
ATOM     11  N   UNL A   1      39.595  33.362  38.190  1.00  0.00    -0.202 N 
ATOM     12  C   UNL A   1      39.195  33.520  39.521  1.00  0.00     0.280 A 
ATOM     13  N   UNL A   1      37.824  31.906  37.662  1.00  0.00    -0.222 NA
ATOM     14  C   UNL A   1      38.001  32.774  39.937  1.00  0.00     0.069 A 
ATOM     15  O   UNL A   1      39.796  34.222  40.337  1.00  0.00    -0.267 OA
ATOM     16  C   UNL A   1      37.369  31.992  38.977  1.00  0.00     0.079 A 
ATOM     17  C   UNL A   1      37.535  32.834  41.254  1.00  0.00     0.031 A 
ATOM     18  C   UNL A   1      36.242  31.255  39.347  1.00  0.00     0.030 A 
ATOM     19  C   UNL A   1      36.414  32.089  41.606  1.00  0.00     0.018 A 
ATOM     20  C   UNL A   1      35.763  31.299  40.659  1.00  0.00     0.018 A 
ATOM     21  Br  UNL A   1      35.774  32.141  43.384  1.00  0.00    -0.051 Br
BRANCH  11  22
ATOM     22  N   UNL A   1      40.784  34.018  37.853  1.00  0.00    -0.334 N 
ATOM     23  H   UNL A   1      41.305  34.482  38.549  1.00  0.00     0.178 HD
ATOM     24  H   UNL A   1      41.102  34.016  36.921  1.00  0.00     0.178 HD
ENDBRANCH  11  22
ENDBRANCH   9  10
ENDBRANCH   8   9
BRANCH   8  25
ATOM     25  C   UNL A   1      40.534  29.818  35.051  1.00  0.00    -0.025 A 
ATOM     26  C   UNL A   1      41.518  29.956  36.046  1.00  0.00     0.005 A 
ATOM     27  C   UNL A   1      40.864  29.012  33.939  1.00  0.00     0.005 A 
ATOM     28  C   UNL A   1      42.719  29.238  35.991  1.00  0.00     0.000 A 
ATOM     29  C   UNL A   1      42.066  28.300  33.879  1.00  0.00     0.000 A 
ATOM     30  C   UNL A   1      42.986  28.398  34.915  1.00  0.00     0.000 A 
ENDBRANCH   8  25
ENDBRANCH   5   8
ENDBRANCH   3   4
ENDBRANCH   2   3
ENDBRANCH   1   2
BRANCH   1  31
ATOM     31  C   UNL A   1      37.742  34.048  29.872  1.00  0.00     0.002 C 
BRANCH  31  32
ATOM     32  C   UNL A   1      36.687  32.992  29.543  1.00  0.00     0.021 C 
BRANCH  32  33
ATOM     33  C   UNL A   1      35.981  33.174  28.204  1.00  0.00     0.116 C 
BRANCH  33  34
ATOM     34  N   UNL A   1      34.856  32.269  28.027  1.00  0.00    -0.352 N 
ATOM     35  C   UNL A   1      34.855  30.892  27.985  1.00  0.00     0.251 C 
ATOM     36  H   UNL A   1      33.976  32.699  27.925  1.00  0.00     0.163 HD
ATOM     37  O   UNL A   1      33.834  30.280  27.704  1.00  0.00    -0.269 OA
BRANCH  35  38
ATOM     38  C   UNL A   1      36.120  30.162  28.236  1.00  0.00     0.039 A 
ATOM     39  C   UNL A   1      36.361  29.560  29.473  1.00  0.00     0.014 A 
ATOM     40  C   UNL A   1      37.098  30.140  27.238  1.00  0.00     0.014 A 
ATOM     41  C   UNL A   1      37.636  29.087  29.771  1.00  0.00     0.010 A 
ATOM     42  C   UNL A   1      38.357  29.599  27.518  1.00  0.00     0.010 A 
ATOM     43  C   UNL A   1      38.653  29.120  28.804  1.00  0.00    -0.014 A 
BRANCH  43  44
ATOM     44  C   UNL A   1      40.036  28.704  29.160  1.00  0.00     0.031 A 
ATOM     45  C   UNL A   1      40.901  29.605  30.006  1.00  0.00     0.074 A 
ATOM     46  C   UNL A   1      40.498  27.498  28.774  1.00  0.00     0.049 A 
ATOM     47  N   UNL A   1      42.146  29.441  30.372  1.00  0.00    -0.248 NA
ATOM     48  C   UNL A   1      40.291  30.848  30.512  1.00  0.00     0.031 C 
ATOM     49  C   UNL A   1      39.736  26.509  28.010  1.00  0.00     0.029 A 
ATOM     50  N   UNL A   1      41.708  26.888  28.991  1.00  0.00    -0.354 N 
ATOM     51  C   UNL A   1      42.471  30.559  31.135  1.00  0.00     0.074 A 
ATOM     52  C   UNL A   1      41.303  31.409  31.162  1.00  0.00     0.031 C 
ATOM     53  C   UNL A   1      40.476  25.399  27.867  1.00  0.00     0.029 A 
ATOM     54  C   UNL A   1      41.791  25.621  28.461  1.00  0.00     0.049 A 
ATOM     55  H   UNL A   1      42.448  27.317  29.481  1.00  0.00     0.167 HD
ATOM     56  C   UNL A   1      43.635  30.840  31.766  1.00  0.00     0.031 A 
ATOM     57  C   UNL A   1      42.813  24.740  28.438  1.00  0.00     0.031 A 
ATOM     58  C   UNL A   1      44.787  29.980  31.756  1.00  0.00     0.049 A 
ATOM     59  C   UNL A   1      44.123  25.118  29.071  1.00  0.00     0.074 A 
ATOM     60  C   UNL A   1      46.017  30.194  32.354  1.00  0.00     0.029 A 
ATOM     61  N   UNL A   1      44.851  28.741  31.140  1.00  0.00    -0.354 N 
ATOM     62  N   UNL A   1      44.424  26.200  29.747  1.00  0.00    -0.248 NA
ATOM     63  C   UNL A   1      45.235  24.167  28.930  1.00  0.00     0.031 C 
ATOM     64  C   UNL A   1      46.840  29.107  32.060  1.00  0.00     0.029 A 
ATOM     65  C   UNL A   1      46.103  28.187  31.331  1.00  0.00     0.049 A 
ATOM     66  H   UNL A   1      44.115  28.319  30.640  1.00  0.00     0.167 HD
ATOM     67  C   UNL A   1      45.751  26.050  30.131  1.00  0.00     0.074 A 
ATOM     68  C   UNL A   1      46.195  24.770  29.621  1.00  0.00     0.031 C 
ATOM     69  C   UNL A   1      46.529  26.901  30.840  1.00  0.00     0.031 A 
BRANCH  56  70
ATOM     70  C   UNL A   1      43.746  32.125  32.542  1.00  0.00    -0.014 A 
ATOM     71  C   UNL A   1      43.304  32.174  33.878  1.00  0.00     0.010 A 
ATOM     72  C   UNL A   1      44.129  33.317  31.902  1.00  0.00     0.010 A 
ATOM     73  C   UNL A   1      43.199  33.396  34.545  1.00  0.00     0.020 A 
ATOM     74  C   UNL A   1      44.047  34.540  32.576  1.00  0.00     0.020 A 
ATOM     75  C   UNL A   1      43.557  34.574  33.883  1.00  0.00     0.054 A 
BRANCH  75  76
ATOM     76  S   UNL A   1      43.358  36.158  34.746  1.00  0.00     0.124 S 
ATOM     77  O   UNL A   1      44.742  36.562  34.971  1.00  0.00    -0.237 OA
ATOM     78  O   UNL A   1      42.614  36.959  33.777  1.00  0.00    -0.237 OA
ATOM     79  O   UNL A   1      42.608  35.800  35.948  1.00  0.00    -0.744 OA
ENDBRANCH  75  76
ENDBRANCH  56  70
BRANCH  57  80
ATOM     80  C   UNL A   1      42.627  23.414  27.787  1.00  0.00    -0.014 A 
ATOM     81  C   UNL A   1      42.040  22.347  28.491  1.00  0.00     0.010 A 
ATOM     82  C   UNL A   1      43.075  23.200  26.471  1.00  0.00     0.010 A 
ATOM     83  C   UNL A   1      41.944  21.079  27.911  1.00  0.00     0.020 A 
ATOM     84  C   UNL A   1      42.951  21.940  25.875  1.00  0.00     0.020 A 
ATOM     85  C   UNL A   1      42.410  20.882  26.609  1.00  0.00     0.054 A 
BRANCH  85  86
ATOM     86  S   UNL A   1      42.284  19.227  25.876  1.00  0.00     0.124 S 
ATOM     87  O   UNL A   1      42.824  18.388  26.941  1.00  0.00    -0.237 OA
ATOM     88  O   UNL A   1      40.850  19.091  25.632  1.00  0.00    -0.237 OA
ATOM     89  O   UNL A   1      43.109  19.325  24.675  1.00  0.00    -0.744 OA
ENDBRANCH  85  86
ENDBRANCH  57  80
BRANCH  69  90
ATOM     90  C   UNL A   1      47.945  26.498  31.151  1.00  0.00    -0.014 A 
ATOM     91  C   UNL A   1      48.225  25.834  32.360  1.00  0.00     0.010 A 
ATOM     92  C   UNL A   1      49.007  26.934  30.342  1.00  0.00     0.010 A 
ATOM     93  C   UNL A   1      49.544  25.661  32.783  1.00  0.00     0.020 A 
ATOM     94  C   UNL A   1      50.330  26.741  30.750  1.00  0.00     0.020 A 
ATOM     95  C   UNL A   1      50.588  26.134  31.982  1.00  0.00     0.054 A 
BRANCH  95  96
ATOM     96  S   UNL A   1      52.292  25.974  32.584  1.00  0.00     0.124 S 
ATOM     97  O   UNL A   1      52.130  25.080  33.727  1.00  0.00    -0.237 OA
ATOM     98  O   UNL A   1      52.987  25.403  31.432  1.00  0.00    -0.237 OA
ATOM     99  O   UNL A   1      52.670  27.346  32.912  1.00  0.00    -0.744 OA
ENDBRANCH  95  96
ENDBRANCH  69  90
ENDBRANCH  43  44
ENDBRANCH  35  38
ENDBRANCH  33  34
ENDBRANCH  32  33
ENDBRANCH  31  32
ENDBRANCH   1  31
TORSDOF 20
ENDMDL
