MODEL 1
REMARK VINA RESULT:     -11.8      0.000      0.000
REMARK SMILES C[C@@H](C(=O)NCCCCCCNC(=O)c1ccc(-c2c3nc(c(-c4ccc(S(=O)(=O)[O-])cc4)c4ccc([nH]4)c(-c4ccc(S(=O)(=O)[O-])cc4)c4nc(c(-c5ccc(S(=O)(=O)[O-])cc5)c5ccc2[nH]5)C=C4)C=C3)cc1)c1ccc(-c2cccc(OC(=O)NC3CC3)c2)c(F)c1
REMARK SMILES IDX 7 1 6 2 5 3 3 4 4 5 2 7 1 8 75 9 76 10 94 11 77 12 92 13
REMARK SMILES IDX 78 14 93 15 79 16 80 17 91 18 81 19 83 20 82 21 84 22 85 23
REMARK SMILES IDX 86 24 87 25 88 27 89 28 90 29 8 30 9 31 10 32 11 33 12 34
REMARK SMILES IDX 13 35 14 37 15 38 16 39 74 40 17 41 73 42 18 43 19 44 20 45
REMARK SMILES IDX 67 46 21 47 72 48 66 49 68 50 22 51 71 52 65 53 64 54 23 56
REMARK SMILES IDX 53 57 34 58 52 59 35 60 38 61 51 62 69 63 36 64 37 65 50 67
REMARK SMILES IDX 70 68 39 69 24 70 25 71 33 72 26 73 32 74 27 75 28 76 29 77
REMARK SMILES IDX 30 78 31 79 54 80 55 81 63 82 56 83 62 84 57 85 58 86 59 87
REMARK SMILES IDX 60 88 61 89 40 90 41 91 49 92 42 93 48 94 43 95 44 96 45 97
REMARK SMILES IDX 46 98 47 99
REMARK H PARENT 5 6 87 26 12 36 68 55 38 66
REMARK Flexibility Score: inf
ROOT
ATOM      1  C   UNL A   1      35.417  21.116  25.788  1.00  0.00     0.021 C 
ENDROOT
BRANCH   1   2
ATOM      2  C   UNL A   1      35.048  20.074  24.730  1.00  0.00     0.116 C 
BRANCH   2   3
ATOM      3  N   UNL A   1      34.168  19.077  25.296  1.00  0.00    -0.356 N 
ATOM      4  C   UNL A   1      32.824  18.911  25.168  1.00  0.00     0.227 C 
ATOM      5  O   UNL A   1      32.327  18.031  25.873  1.00  0.00    -0.274 OA
ATOM      6  H   UNL A   1      34.614  18.410  25.867  1.00  0.00     0.163 HD
BRANCH   4   7
ATOM      7  C   UNL A   1      32.037  19.754  24.143  1.00  0.00     0.105 C 
ATOM      8  C   UNL A   1      32.479  19.556  22.692  1.00  0.00     0.023 C 
BRANCH   7   9
ATOM      9  C   UNL A   1      32.057  21.256  24.410  1.00  0.00    -0.033 A 
ATOM     10  C   UNL A   1      31.856  21.789  25.690  1.00  0.00     0.005 A 
ATOM     11  C   UNL A   1      32.383  22.132  23.368  1.00  0.00     0.044 A 
ATOM     12  C   UNL A   1      31.901  23.165  25.911  1.00  0.00     0.012 A 
ATOM     13  C   UNL A   1      32.457  23.502  23.602  1.00  0.00     0.131 A 
ATOM     14  C   UNL A   1      32.194  24.049  24.866  1.00  0.00     0.018 A 
ATOM     15  F   UNL A   1      32.786  24.300  22.573  1.00  0.00    -0.206 F 
BRANCH  14  16
ATOM     16  C   UNL A   1      32.134  25.497  25.090  1.00  0.00    -0.012 A 
ATOM     17  C   UNL A   1      32.955  26.138  26.032  1.00  0.00     0.009 A 
ATOM     18  C   UNL A   1      31.180  26.260  24.400  1.00  0.00     0.056 A 
ATOM     19  C   UNL A   1      32.820  27.504  26.283  1.00  0.00     0.004 A 
ATOM     20  C   UNL A   1      31.042  27.618  24.655  1.00  0.00     0.133 A 
ATOM     21  C   UNL A   1      31.859  28.245  25.596  1.00  0.00     0.047 A 
BRANCH  20  22
ATOM     22  O   UNL A   1      30.089  28.449  24.020  1.00  0.00    -0.410 OA
BRANCH  22  23
ATOM     23  C   UNL A   1      30.133  28.901  22.705  1.00  0.00     0.412 C 
ATOM     24  O   UNL A   1      30.531  28.272  21.728  1.00  0.00    -0.224 OA
ATOM     25  N   UNL A   1      29.688  30.186  22.546  1.00  0.00    -0.318 N 
ATOM     26  H   UNL A   1      29.756  30.542  21.630  1.00  0.00     0.167 HD
BRANCH  25  27
ATOM     27  C   UNL A   1      29.141  31.086  23.503  1.00  0.00     0.085 C 
ATOM     28  C   UNL A   1      28.443  32.388  23.230  1.00  0.00     0.027 C 
ATOM     29  C   UNL A   1      27.641  31.185  23.617  1.00  0.00     0.027 C 
ENDBRANCH  25  27
ENDBRANCH  22  23
ENDBRANCH  20  22
ENDBRANCH  14  16
ENDBRANCH   7   9
ENDBRANCH   4   7
ENDBRANCH   2   3
ENDBRANCH   1   2
BRANCH   1  30
ATOM     30  C   UNL A   1      35.483  22.553  25.251  1.00  0.00     0.002 C 
BRANCH  30  31
ATOM     31  C   UNL A   1      36.304  23.521  26.107  1.00  0.00     0.002 C 
BRANCH  31  32
ATOM     32  C   UNL A   1      37.670  23.886  25.522  1.00  0.00     0.021 C 
BRANCH  32  33
ATOM     33  C   UNL A   1      38.717  24.264  26.563  1.00  0.00     0.116 C 
BRANCH  33  34
ATOM     34  N   UNL A   1      40.062  24.237  26.011  1.00  0.00    -0.352 N 
ATOM     35  C   UNL A   1      41.143  25.020  26.330  1.00  0.00     0.251 C 
ATOM     36  H   UNL A   1      40.218  23.564  25.311  1.00  0.00     0.163 HD
ATOM     37  O   UNL A   1      42.138  25.015  25.612  1.00  0.00    -0.269 OA
BRANCH  35  38
ATOM     38  C   UNL A   1      41.091  25.883  27.530  1.00  0.00     0.039 A 
ATOM     39  C   UNL A   1      42.057  26.879  27.685  1.00  0.00     0.014 A 
ATOM     40  C   UNL A   1      40.089  25.715  28.490  1.00  0.00     0.014 A 
ATOM     41  C   UNL A   1      41.976  27.752  28.772  1.00  0.00     0.010 A 
ATOM     42  C   UNL A   1      39.968  26.633  29.531  1.00  0.00     0.010 A 
ATOM     43  C   UNL A   1      40.907  27.662  29.681  1.00  0.00    -0.014 A 
BRANCH  43  44
ATOM     44  C   UNL A   1      40.745  28.659  30.771  1.00  0.00     0.031 A 
ATOM     45  C   UNL A   1      41.579  28.567  32.021  1.00  0.00     0.074 A 
ATOM     46  C   UNL A   1      39.802  29.617  30.655  1.00  0.00     0.049 A 
ATOM     47  N   UNL A   1      41.544  29.324  33.088  1.00  0.00    -0.248 NA
ATOM     48  C   UNL A   1      42.565  27.476  32.092  1.00  0.00     0.031 C 
ATOM     49  C   UNL A   1      38.901  29.784  29.510  1.00  0.00     0.029 A 
ATOM     50  N   UNL A   1      39.437  30.628  31.510  1.00  0.00    -0.354 N 
ATOM     51  C   UNL A   1      42.489  28.795  33.960  1.00  0.00     0.074 A 
ATOM     52  C   UNL A   1      43.053  27.629  33.317  1.00  0.00     0.031 C 
ATOM     53  C   UNL A   1      38.110  30.849  29.723  1.00  0.00     0.029 A 
ATOM     54  C   UNL A   1      38.410  31.411  31.036  1.00  0.00     0.049 A 
ATOM     55  H   UNL A   1      39.871  30.779  32.380  1.00  0.00     0.167 HD
ATOM     56  C   UNL A   1      42.863  29.249  35.179  1.00  0.00     0.031 A 
ATOM     57  C   UNL A   1      37.768  32.454  31.598  1.00  0.00     0.031 A 
ATOM     58  C   UNL A   1      42.309  30.419  35.810  1.00  0.00     0.049 A 
ATOM     59  C   UNL A   1      38.194  32.923  32.963  1.00  0.00     0.074 A 
ATOM     60  C   UNL A   1      42.672  30.996  37.014  1.00  0.00     0.029 A 
ATOM     61  N   UNL A   1      41.274  31.186  35.296  1.00  0.00    -0.354 N 
ATOM     62  N   UNL A   1      39.150  32.459  33.733  1.00  0.00    -0.248 NA
ATOM     63  C   UNL A   1      37.461  34.061  33.533  1.00  0.00     0.031 C 
ATOM     64  C   UNL A   1      41.812  32.069  37.263  1.00  0.00     0.029 A 
ATOM     65  C   UNL A   1      40.961  32.206  36.178  1.00  0.00     0.049 A 
ATOM     66  H   UNL A   1      40.828  31.027  34.433  1.00  0.00     0.167 HD
ATOM     67  C   UNL A   1      39.150  33.269  34.864  1.00  0.00     0.074 A 
ATOM     68  C   UNL A   1      38.117  34.263  34.666  1.00  0.00     0.031 C 
ATOM     69  C   UNL A   1      39.933  33.194  35.968  1.00  0.00     0.031 A 
BRANCH  56  70
ATOM     70  C   UNL A   1      43.923  28.485  35.929  1.00  0.00    -0.014 A 
ATOM     71  C   UNL A   1      45.279  28.845  35.842  1.00  0.00     0.010 A 
ATOM     72  C   UNL A   1      43.544  27.455  36.810  1.00  0.00     0.010 A 
ATOM     73  C   UNL A   1      46.238  28.180  36.612  1.00  0.00     0.020 A 
ATOM     74  C   UNL A   1      44.496  26.807  37.602  1.00  0.00     0.020 A 
ATOM     75  C   UNL A   1      45.839  27.171  37.493  1.00  0.00     0.054 A 
BRANCH  75  76
ATOM     76  S   UNL A   1      47.098  26.376  38.530  1.00  0.00     0.124 S 
ATOM     77  O   UNL A   1      47.093  27.228  39.717  1.00  0.00    -0.237 OA
ATOM     78  O   UNL A   1      46.554  25.035  38.718  1.00  0.00    -0.237 OA
ATOM     79  O   UNL A   1      48.311  26.447  37.719  1.00  0.00    -0.744 OA
ENDBRANCH  75  76
ENDBRANCH  56  70
BRANCH  57  80
ATOM     80  C   UNL A   1      36.644  33.121  30.883  1.00  0.00    -0.014 A 
ATOM     81  C   UNL A   1      36.885  33.949  29.772  1.00  0.00     0.010 A 
ATOM     82  C   UNL A   1      35.321  32.957  31.334  1.00  0.00     0.010 A 
ATOM     83  C   UNL A   1      35.833  34.632  29.154  1.00  0.00     0.020 A 
ATOM     84  C   UNL A   1      34.262  33.609  30.696  1.00  0.00     0.020 A 
ATOM     85  C   UNL A   1      34.528  34.460  29.623  1.00  0.00     0.054 A 
BRANCH  85  86
ATOM     86  S   UNL A   1      33.177  35.348  28.802  1.00  0.00     0.124 S 
ATOM     87  O   UNL A   1      32.555  34.291  28.011  1.00  0.00    -0.237 OA
ATOM     88  O   UNL A   1      32.393  35.841  29.931  1.00  0.00    -0.237 OA
ATOM     89  O   UNL A   1      33.867  36.382  28.033  1.00  0.00    -0.744 OA
ENDBRANCH  85  86
ENDBRANCH  57  80
BRANCH  69  90
ATOM     90  C   UNL A   1      39.731  34.237  37.036  1.00  0.00    -0.014 A 
ATOM     91  C   UNL A   1      38.934  33.982  38.166  1.00  0.00     0.010 A 
ATOM     92  C   UNL A   1      40.393  35.474  36.929  1.00  0.00     0.010 A 
ATOM     93  C   UNL A   1      38.775  34.960  39.151  1.00  0.00     0.020 A 
ATOM     94  C   UNL A   1      40.263  36.441  37.929  1.00  0.00     0.020 A 
ATOM     95  C   UNL A   1      39.442  36.182  39.027  1.00  0.00     0.054 A 
BRANCH  95  96
ATOM     96  S   UNL A   1      39.249  37.418  40.341  1.00  0.00     0.124 S 
ATOM     97  O   UNL A   1      38.817  36.598  41.469  1.00  0.00    -0.237 OA
ATOM     98  O   UNL A   1      40.594  37.979  40.451  1.00  0.00    -0.237 OA
ATOM     99  O   UNL A   1      38.240  38.332  39.813  1.00  0.00    -0.744 OA
ENDBRANCH  95  96
ENDBRANCH  69  90
ENDBRANCH  43  44
ENDBRANCH  35  38
ENDBRANCH  33  34
ENDBRANCH  32  33
ENDBRANCH  31  32
ENDBRANCH  30  31
ENDBRANCH   1  30
TORSDOF 21
ENDMDL
MODEL 2
REMARK VINA RESULT:     -11.0      1.329      2.253
REMARK SMILES C[C@@H](C(=O)NCCCCCCNC(=O)c1ccc(-c2c3nc(c(-c4ccc(S(=O)(=O)[O-])cc4)c4ccc([nH]4)c(-c4ccc(S(=O)(=O)[O-])cc4)c4nc(c(-c5ccc(S(=O)(=O)[O-])cc5)c5ccc2[nH]5)C=C4)C=C3)cc1)c1ccc(-c2cccc(OC(=O)NC3CC3)c2)c(F)c1
REMARK SMILES IDX 7 1 6 2 5 3 3 4 4 5 2 7 1 8 75 9 76 10 94 11 77 12 92 13
REMARK SMILES IDX 78 14 93 15 79 16 80 17 91 18 81 19 83 20 82 21 84 22 85 23
REMARK SMILES IDX 86 24 87 25 88 27 89 28 90 29 8 30 9 31 10 32 11 33 12 34
REMARK SMILES IDX 13 35 14 37 15 38 16 39 74 40 17 41 73 42 18 43 19 44 20 45
REMARK SMILES IDX 67 46 21 47 72 48 66 49 68 50 22 51 71 52 65 53 64 54 23 56
REMARK SMILES IDX 53 57 34 58 52 59 35 60 38 61 51 62 69 63 36 64 37 65 50 67
REMARK SMILES IDX 70 68 39 69 24 70 25 71 33 72 26 73 32 74 27 75 28 76 29 77
REMARK SMILES IDX 30 78 31 79 54 80 55 81 63 82 56 83 62 84 57 85 58 86 59 87
REMARK SMILES IDX 60 88 61 89 40 90 41 91 49 92 42 93 48 94 43 95 44 96 45 97
REMARK SMILES IDX 46 98 47 99
REMARK H PARENT 5 6 87 26 12 36 68 55 38 66
REMARK Flexibility Score: inf
ROOT
ATOM      1  C   UNL A   1      36.272  21.696  25.498  1.00  0.00     0.021 C 
ENDROOT
BRANCH   1   2
ATOM      2  C   UNL A   1      35.069  21.164  24.717  1.00  0.00     0.116 C 
BRANCH   2   3
ATOM      3  N   UNL A   1      34.420  20.107  25.457  1.00  0.00    -0.356 N 
ATOM      4  C   UNL A   1      33.136  19.660  25.416  1.00  0.00     0.227 C 
ATOM      5  O   UNL A   1      32.840  18.812  26.261  1.00  0.00    -0.274 OA
ATOM      6  H   UNL A   1      35.002  19.633  26.095  1.00  0.00     0.163 HD
BRANCH   4   7
ATOM      7  C   UNL A   1      32.176  20.170  24.322  1.00  0.00     0.105 C 
ATOM      8  C   UNL A   1      32.595  19.805  22.897  1.00  0.00     0.023 C 
BRANCH   7   9
ATOM      9  C   UNL A   1      31.937  21.676  24.340  1.00  0.00    -0.033 A 
ATOM     10  C   UNL A   1      31.305  22.318  25.414  1.00  0.00     0.005 A 
ATOM     11  C   UNL A   1      32.450  22.464  23.302  1.00  0.00     0.044 A 
ATOM     12  C   UNL A   1      31.119  23.701  25.416  1.00  0.00     0.012 A 
ATOM     13  C   UNL A   1      32.289  23.846  23.327  1.00  0.00     0.131 A 
ATOM     14  C   UNL A   1      31.600  24.490  24.365  1.00  0.00     0.018 A 
ATOM     15  F   UNL A   1      32.810  24.558  22.314  1.00  0.00    -0.206 F 
BRANCH  14  16
ATOM     16  C   UNL A   1      31.306  25.926  24.329  1.00  0.00    -0.012 A 
ATOM     17  C   UNL A   1      30.283  26.455  23.525  1.00  0.00     0.009 A 
ATOM     18  C   UNL A   1      32.113  26.812  25.059  1.00  0.00     0.056 A 
ATOM     19  C   UNL A   1      30.078  27.833  23.447  1.00  0.00     0.004 A 
ATOM     20  C   UNL A   1      31.912  28.183  24.975  1.00  0.00     0.133 A 
ATOM     21  C   UNL A   1      30.897  28.700  24.170  1.00  0.00     0.047 A 
BRANCH  20  22
ATOM     22  O   UNL A   1      32.697  29.141  25.660  1.00  0.00    -0.410 OA
BRANCH  22  23
ATOM     23  C   UNL A   1      32.246  30.333  26.217  1.00  0.00     0.412 C 
ATOM     24  O   UNL A   1      31.258  30.975  25.871  1.00  0.00    -0.224 OA
ATOM     25  N   UNL A   1      33.028  30.796  27.242  1.00  0.00    -0.318 N 
ATOM     26  H   UNL A   1      32.754  31.664  27.618  1.00  0.00     0.167 HD
BRANCH  25  27
ATOM     27  C   UNL A   1      34.178  30.213  27.845  1.00  0.00     0.085 C 
ATOM     28  C   UNL A   1      35.362  29.608  27.145  1.00  0.00     0.027 C 
ATOM     29  C   UNL A   1      35.483  30.963  27.771  1.00  0.00     0.027 C 
ENDBRANCH  25  27
ENDBRANCH  22  23
ENDBRANCH  20  22
ENDBRANCH  14  16
ENDBRANCH   7   9
ENDBRANCH   4   7
ENDBRANCH   2   3
ENDBRANCH   1   2
BRANCH   1  30
ATOM     30  C   UNL A   1      37.629  21.283  24.911  1.00  0.00     0.002 C 
BRANCH  30  31
ATOM     31  C   UNL A   1      38.835  21.586  25.805  1.00  0.00     0.002 C 
BRANCH  31  32
ATOM     32  C   UNL A   1      38.904  23.028  26.311  1.00  0.00     0.021 C 
BRANCH  32  33
ATOM     33  C   UNL A   1      40.245  23.413  26.925  1.00  0.00     0.116 C 
BRANCH  33  34
ATOM     34  N   UNL A   1      41.125  24.042  25.953  1.00  0.00    -0.352 N 
ATOM     35  C   UNL A   1      41.687  25.293  25.978  1.00  0.00     0.251 C 
ATOM     36  H   UNL A   1      41.347  23.494  25.166  1.00  0.00     0.163 HD
ATOM     37  O   UNL A   1      42.223  25.747  24.972  1.00  0.00    -0.269 OA
BRANCH  35  38
ATOM     38  C   UNL A   1      41.626  26.096  27.218  1.00  0.00     0.039 A 
ATOM     39  C   UNL A   1      42.462  27.208  27.343  1.00  0.00     0.014 A 
ATOM     40  C   UNL A   1      40.740  25.760  28.246  1.00  0.00     0.014 A 
ATOM     41  C   UNL A   1      42.360  28.021  28.474  1.00  0.00     0.010 A 
ATOM     42  C   UNL A   1      40.589  26.614  29.336  1.00  0.00     0.010 A 
ATOM     43  C   UNL A   1      41.394  27.755  29.460  1.00  0.00    -0.014 A 
BRANCH  43  44
ATOM     44  C   UNL A   1      41.196  28.680  30.606  1.00  0.00     0.031 A 
ATOM     45  C   UNL A   1      42.037  28.550  31.848  1.00  0.00     0.074 A 
ATOM     46  C   UNL A   1      40.215  29.604  30.546  1.00  0.00     0.049 A 
ATOM     47  N   UNL A   1      41.975  29.241  32.956  1.00  0.00    -0.248 NA
ATOM     48  C   UNL A   1      43.066  27.497  31.854  1.00  0.00     0.031 C 
ATOM     49  C   UNL A   1      39.303  29.800  29.414  1.00  0.00     0.029 A 
ATOM     50  N   UNL A   1      39.813  30.548  31.459  1.00  0.00    -0.354 N 
ATOM     51  C   UNL A   1      42.945  28.701  33.795  1.00  0.00     0.074 A 
ATOM     52  C   UNL A   1      43.552  27.598  33.085  1.00  0.00     0.031 C 
ATOM     53  C   UNL A   1      38.471  30.818  29.689  1.00  0.00     0.029 A 
ATOM     54  C   UNL A   1      38.753  31.315  31.032  1.00  0.00     0.049 A 
ATOM     55  H   UNL A   1      40.243  30.666  32.336  1.00  0.00     0.167 HD
ATOM     56  C   UNL A   1      43.304  29.100  35.038  1.00  0.00     0.031 A 
ATOM     57  C   UNL A   1      38.072  32.297  31.654  1.00  0.00     0.031 A 
ATOM     58  C   UNL A   1      42.706  30.208  35.736  1.00  0.00     0.049 A 
ATOM     59  C   UNL A   1      38.484  32.704  33.044  1.00  0.00     0.074 A 
ATOM     60  C   UNL A   1      43.050  30.729  36.972  1.00  0.00     0.029 A 
ATOM     61  N   UNL A   1      41.639  30.960  35.269  1.00  0.00    -0.354 N 
ATOM     62  N   UNL A   1      39.460  32.235  33.785  1.00  0.00    -0.248 NA
ATOM     63  C   UNL A   1      37.707  33.777  33.679  1.00  0.00     0.031 C 
ATOM     64  C   UNL A   1      42.148  31.750  37.282  1.00  0.00     0.029 A 
ATOM     65  C   UNL A   1      41.289  31.915  36.209  1.00  0.00     0.049 A 
ATOM     66  H   UNL A   1      41.197  30.834  34.398  1.00  0.00     0.167 HD
ATOM     67  C   UNL A   1      39.431  32.978  34.960  1.00  0.00     0.074 A 
ATOM     68  C   UNL A   1      38.359  33.940  34.821  1.00  0.00     0.031 C 
ATOM     69  C   UNL A   1      40.221  32.871  36.057  1.00  0.00     0.031 A 
BRANCH  56  70
ATOM     70  C   UNL A   1      44.397  28.337  35.741  1.00  0.00    -0.014 A 
ATOM     71  C   UNL A   1      44.123  27.147  36.438  1.00  0.00     0.010 A 
ATOM     72  C   UNL A   1      45.732  28.764  35.617  1.00  0.00     0.010 A 
ATOM     73  C   UNL A   1      45.161  26.407  37.010  1.00  0.00     0.020 A 
ATOM     74  C   UNL A   1      46.776  28.012  36.163  1.00  0.00     0.020 A 
ATOM     75  C   UNL A   1      46.482  26.840  36.862  1.00  0.00     0.054 A 
BRANCH  75  76
ATOM     76  S   UNL A   1      47.813  25.820  37.554  1.00  0.00     0.124 S 
ATOM     77  O   UNL A   1      48.485  26.763  38.444  1.00  0.00    -0.237 OA
ATOM     78  O   UNL A   1      47.078  24.746  38.216  1.00  0.00    -0.237 OA
ATOM     79  O   UNL A   1      48.585  25.413  36.381  1.00  0.00    -0.744 OA
ENDBRANCH  75  76
ENDBRANCH  56  70
BRANCH  57  80
ATOM     80  C   UNL A   1      36.919  32.959  30.981  1.00  0.00    -0.014 A 
ATOM     81  C   UNL A   1      35.603  32.744  31.428  1.00  0.00     0.010 A 
ATOM     82  C   UNL A   1      37.130  33.785  29.861  1.00  0.00     0.010 A 
ATOM     83  C   UNL A   1      34.521  33.307  30.745  1.00  0.00     0.020 A 
ATOM     84  C   UNL A   1      36.054  34.379  29.198  1.00  0.00     0.020 A 
ATOM     85  C   UNL A   1      34.753  34.118  29.632  1.00  0.00     0.054 A 
BRANCH  85  86
ATOM     86  S   UNL A   1      33.336  34.845  28.764  1.00  0.00     0.124 S 
ATOM     87  O   UNL A   1      32.383  35.040  29.852  1.00  0.00    -0.237 OA
ATOM     88  O   UNL A   1      33.907  36.064  28.195  1.00  0.00    -0.237 OA
ATOM     89  O   UNL A   1      32.972  33.821  27.788  1.00  0.00    -0.744 OA
ENDBRANCH  85  86
ENDBRANCH  57  80
BRANCH  69  90
ATOM     90  C   UNL A   1      39.982  33.842  37.183  1.00  0.00    -0.014 A 
ATOM     91  C   UNL A   1      40.546  35.131  37.171  1.00  0.00     0.010 A 
ATOM     92  C   UNL A   1      39.135  33.476  38.245  1.00  0.00     0.010 A 
ATOM     93  C   UNL A   1      40.296  36.020  38.219  1.00  0.00     0.020 A 
ATOM     94  C   UNL A   1      38.856  34.375  39.277  1.00  0.00     0.020 A 
ATOM     95  C   UNL A   1      39.451  35.637  39.265  1.00  0.00     0.054 A 
BRANCH  95  96
ATOM     96  S   UNL A   1      39.112  36.826  40.591  1.00  0.00     0.124 S 
ATOM     97  O   UNL A   1      40.428  36.985  41.202  1.00  0.00    -0.237 OA
ATOM     98  O   UNL A   1      38.615  37.989  39.858  1.00  0.00    -0.237 OA
ATOM     99  O   UNL A   1      38.118  36.148  41.420  1.00  0.00    -0.744 OA
ENDBRANCH  95  96
ENDBRANCH  69  90
ENDBRANCH  43  44
ENDBRANCH  35  38
ENDBRANCH  33  34
ENDBRANCH  32  33
ENDBRANCH  31  32
ENDBRANCH  30  31
ENDBRANCH   1  30
TORSDOF 21
ENDMDL
MODEL 3
REMARK VINA RESULT:     -10.3      6.514      8.980
REMARK SMILES C[C@@H](C(=O)NCCCCCCNC(=O)c1ccc(-c2c3nc(c(-c4ccc(S(=O)(=O)[O-])cc4)c4ccc([nH]4)c(-c4ccc(S(=O)(=O)[O-])cc4)c4nc(c(-c5ccc(S(=O)(=O)[O-])cc5)c5ccc2[nH]5)C=C4)C=C3)cc1)c1ccc(-c2cccc(OC(=O)NC3CC3)c2)c(F)c1
REMARK SMILES IDX 7 1 6 2 5 3 3 4 4 5 2 7 1 8 75 9 76 10 94 11 77 12 92 13
REMARK SMILES IDX 78 14 93 15 79 16 80 17 91 18 81 19 83 20 82 21 84 22 85 23
REMARK SMILES IDX 86 24 87 25 88 27 89 28 90 29 8 30 9 31 10 32 11 33 12 34
REMARK SMILES IDX 13 35 14 37 15 38 16 39 74 40 17 41 73 42 18 43 19 44 20 45
REMARK SMILES IDX 67 46 21 47 72 48 66 49 68 50 22 51 71 52 65 53 64 54 23 56
REMARK SMILES IDX 53 57 34 58 52 59 35 60 38 61 51 62 69 63 36 64 37 65 50 67
REMARK SMILES IDX 70 68 39 69 24 70 25 71 33 72 26 73 32 74 27 75 28 76 29 77
REMARK SMILES IDX 30 78 31 79 54 80 55 81 63 82 56 83 62 84 57 85 58 86 59 87
REMARK SMILES IDX 60 88 61 89 40 90 41 91 49 92 42 93 48 94 43 95 44 96 45 97
REMARK SMILES IDX 46 98 47 99
REMARK H PARENT 5 6 87 26 12 36 68 55 38 66
REMARK Flexibility Score: inf
ROOT
ATOM      1  C   UNL A   1      36.437  23.354  25.099  1.00  0.00     0.021 C 
ENDROOT
BRANCH   1   2
ATOM      2  C   UNL A   1      35.792  22.711  23.870  1.00  0.00     0.116 C 
BRANCH   2   3
ATOM      3  N   UNL A   1      34.783  21.758  24.275  1.00  0.00    -0.356 N 
ATOM      4  C   UNL A   1      33.426  21.837  24.231  1.00  0.00     0.227 C 
ATOM      5  O   UNL A   1      32.822  20.904  24.764  1.00  0.00    -0.274 OA
ATOM      6  H   UNL A   1      35.137  20.915  24.642  1.00  0.00     0.163 HD
BRANCH   4   7
ATOM      7  C   UNL A   1      32.744  23.007  23.493  1.00  0.00     0.105 C 
ATOM      8  C   UNL A   1      33.254  23.237  22.069  1.00  0.00     0.023 C 
BRANCH   7   9
ATOM      9  C   UNL A   1      32.831  24.348  24.215  1.00  0.00    -0.033 A 
ATOM     10  C   UNL A   1      32.484  24.492  25.565  1.00  0.00     0.005 A 
ATOM     11  C   UNL A   1      33.367  25.454  23.544  1.00  0.00     0.044 A 
ATOM     12  C   UNL A   1      32.594  25.725  26.207  1.00  0.00     0.012 A 
ATOM     13  C   UNL A   1      33.503  26.673  24.201  1.00  0.00     0.131 A 
ATOM     14  C   UNL A   1      33.098  26.843  25.532  1.00  0.00     0.018 A 
ATOM     15  F   UNL A   1      34.034  27.700  23.518  1.00  0.00    -0.206 F 
BRANCH  14  16
ATOM     16  C   UNL A   1      33.109  28.154  26.187  1.00  0.00    -0.012 A 
ATOM     17  C   UNL A   1      31.939  28.915  26.347  1.00  0.00     0.009 A 
ATOM     18  C   UNL A   1      34.331  28.706  26.602  1.00  0.00     0.056 A 
ATOM     19  C   UNL A   1      31.991  30.196  26.900  1.00  0.00     0.004 A 
ATOM     20  C   UNL A   1      34.382  29.982  27.146  1.00  0.00     0.133 A 
ATOM     21  C   UNL A   1      33.216  30.732  27.296  1.00  0.00     0.047 A 
BRANCH  20  22
ATOM     22  O   UNL A   1      35.576  30.616  27.565  1.00  0.00    -0.410 OA
BRANCH  22  23
ATOM     23  C   UNL A   1      35.997  30.798  28.879  1.00  0.00     0.412 C 
ATOM     24  O   UNL A   1      35.538  31.598  29.690  1.00  0.00    -0.224 OA
ATOM     25  N   UNL A   1      37.039  29.988  29.243  1.00  0.00    -0.318 N 
ATOM     26  H   UNL A   1      37.384  30.135  30.153  1.00  0.00     0.167 HD
BRANCH  25  27
ATOM     27  C   UNL A   1      37.698  28.964  28.506  1.00  0.00     0.085 C 
ATOM     28  C   UNL A   1      39.112  28.979  27.998  1.00  0.00     0.027 C 
ATOM     29  C   UNL A   1      38.765  28.157  29.200  1.00  0.00     0.027 C 
ENDBRANCH  25  27
ENDBRANCH  22  23
ENDBRANCH  20  22
ENDBRANCH  14  16
ENDBRANCH   7   9
ENDBRANCH   4   7
ENDBRANCH   2   3
ENDBRANCH   1   2
BRANCH   1  30
ATOM     30  C   UNL A   1      37.629  22.567  25.661  1.00  0.00     0.002 C 
BRANCH  30  31
ATOM     31  C   UNL A   1      38.638  23.406  26.450  1.00  0.00     0.002 C 
BRANCH  31  32
ATOM     32  C   UNL A   1      40.079  22.899  26.380  1.00  0.00     0.021 C 
BRANCH  32  33
ATOM     33  C   UNL A   1      40.337  21.630  27.184  1.00  0.00     0.116 C 
BRANCH  33  34
ATOM     34  N   UNL A   1      41.197  20.702  26.467  1.00  0.00    -0.352 N 
ATOM     35  C   UNL A   1      42.432  20.922  25.910  1.00  0.00     0.251 C 
ATOM     36  H   UNL A   1      40.845  19.789  26.368  1.00  0.00     0.163 HD
ATOM     37  O   UNL A   1      42.920  20.092  25.149  1.00  0.00    -0.269 OA
BRANCH  35  38
ATOM     38  C   UNL A   1      43.158  22.173  26.216  1.00  0.00     0.039 A 
ATOM     39  C   UNL A   1      43.166  23.197  25.267  1.00  0.00     0.014 A 
ATOM     40  C   UNL A   1      43.819  22.338  27.437  1.00  0.00     0.014 A 
ATOM     41  C   UNL A   1      43.782  24.413  25.572  1.00  0.00     0.010 A 
ATOM     42  C   UNL A   1      44.366  23.575  27.767  1.00  0.00     0.010 A 
ATOM     43  C   UNL A   1      44.350  24.627  26.840  1.00  0.00    -0.014 A 
BRANCH  43  44
ATOM     44  C   UNL A   1      44.899  25.955  27.218  1.00  0.00     0.031 A 
ATOM     45  C   UNL A   1      46.284  26.360  26.787  1.00  0.00     0.074 A 
ATOM     46  C   UNL A   1      44.167  26.775  28.000  1.00  0.00     0.049 A 
ATOM     47  N   UNL A   1      46.939  27.459  27.057  1.00  0.00    -0.248 NA
ATOM     48  C   UNL A   1      47.038  25.401  25.962  1.00  0.00     0.031 C 
ATOM     49  C   UNL A   1      42.827  26.477  28.518  1.00  0.00     0.029 A 
ATOM     50  N   UNL A   1      44.444  28.022  28.502  1.00  0.00    -0.354 N 
ATOM     51  C   UNL A   1      48.183  27.320  26.450  1.00  0.00     0.074 A 
ATOM     52  C   UNL A   1      48.208  26.013  25.833  1.00  0.00     0.031 C 
ATOM     53  C   UNL A   1      42.392  27.524  29.240  1.00  0.00     0.029 A 
ATOM     54  C   UNL A   1      43.435  28.544  29.278  1.00  0.00     0.049 A 
ATOM     55  H   UNL A   1      45.286  28.499  28.323  1.00  0.00     0.167 HD
ATOM     56  C   UNL A   1      49.204  28.208  26.401  1.00  0.00     0.031 A 
ATOM     57  C   UNL A   1      43.359  29.705  29.958  1.00  0.00     0.031 A 
ATOM     58  C   UNL A   1      49.168  29.514  27.006  1.00  0.00     0.049 A 
ATOM     59  C   UNL A   1      44.519  30.661  29.900  1.00  0.00     0.074 A 
ATOM     60  C   UNL A   1      50.129  30.509  26.952  1.00  0.00     0.029 A 
ATOM     61  N   UNL A   1      48.128  30.005  27.780  1.00  0.00    -0.354 N 
ATOM     62  N   UNL A   1      45.653  30.545  29.248  1.00  0.00    -0.248 NA
ATOM     63  C   UNL A   1      44.389  31.911  30.662  1.00  0.00     0.031 C 
ATOM     64  C   UNL A   1      49.701  31.574  27.749  1.00  0.00     0.029 A 
ATOM     65  C   UNL A   1      48.441  31.273  28.240  1.00  0.00     0.049 A 
ATOM     66  H   UNL A   1      47.291  29.523  27.973  1.00  0.00     0.167 HD
ATOM     67  C   UNL A   1      46.354  31.719  29.499  1.00  0.00     0.074 A 
ATOM     68  C   UNL A   1      45.510  32.540  30.340  1.00  0.00     0.031 C 
ATOM     69  C   UNL A   1      47.589  32.083  29.073  1.00  0.00     0.031 A 
BRANCH  56  70
ATOM     70  C   UNL A   1      50.459  27.807  25.671  1.00  0.00    -0.014 A 
ATOM     71  C   UNL A   1      50.643  28.120  24.313  1.00  0.00     0.010 A 
ATOM     72  C   UNL A   1      51.511  27.199  26.381  1.00  0.00     0.010 A 
ATOM     73  C   UNL A   1      51.850  27.818  23.674  1.00  0.00     0.020 A 
ATOM     74  C   UNL A   1      52.728  26.921  25.754  1.00  0.00     0.020 A 
ATOM     75  C   UNL A   1      52.888  27.228  24.401  1.00  0.00     0.054 A 
BRANCH  75  76
ATOM     76  S   UNL A   1      54.465  26.914  23.563  1.00  0.00     0.124 S 
ATOM     77  O   UNL A   1      54.023  26.448  22.251  1.00  0.00    -0.237 OA
ATOM     78  O   UNL A   1      55.101  28.228  23.580  1.00  0.00    -0.237 OA
ATOM     79  O   UNL A   1      55.107  25.901  24.398  1.00  0.00    -0.744 OA
ENDBRANCH  75  76
ENDBRANCH  56  70
BRANCH  57  80
ATOM     80  C   UNL A   1      42.151  30.026  30.769  1.00  0.00    -0.014 A 
ATOM     81  C   UNL A   1      41.930  29.406  32.012  1.00  0.00     0.010 A 
ATOM     82  C   UNL A   1      41.192  30.935  30.283  1.00  0.00     0.010 A 
ATOM     83  C   UNL A   1      40.757  29.655  32.731  1.00  0.00     0.020 A 
ATOM     84  C   UNL A   1      40.037  31.215  31.016  1.00  0.00     0.020 A 
ATOM     85  C   UNL A   1      39.816  30.556  32.227  1.00  0.00     0.054 A 
BRANCH  85  86
ATOM     86  S   UNL A   1      38.305  30.872  33.179  1.00  0.00     0.124 S 
ATOM     87  O   UNL A   1      38.540  30.089  34.388  1.00  0.00    -0.237 OA
ATOM     88  O   UNL A   1      38.337  32.322  33.347  1.00  0.00    -0.237 OA
ATOM     89  O   UNL A   1      37.243  30.375  32.307  1.00  0.00    -0.744 OA
ENDBRANCH  85  86
ENDBRANCH  57  80
BRANCH  69  90
ATOM     90  C   UNL A   1      48.090  33.445  29.478  1.00  0.00    -0.014 A 
ATOM     91  C   UNL A   1      47.676  34.607  28.802  1.00  0.00     0.010 A 
ATOM     92  C   UNL A   1      48.949  33.565  30.586  1.00  0.00     0.010 A 
ATOM     93  C   UNL A   1      48.142  35.861  29.206  1.00  0.00     0.020 A 
ATOM     94  C   UNL A   1      49.389  34.820  31.013  1.00  0.00     0.020 A 
ATOM     95  C   UNL A   1      48.994  35.960  30.310  1.00  0.00     0.054 A 
BRANCH  95  96
ATOM     96  S   UNL A   1      49.550  37.603  30.838  1.00  0.00     0.124 S 
ATOM     97  O   UNL A   1      49.939  37.363  32.224  1.00  0.00    -0.237 OA
ATOM     98  O   UNL A   1      50.650  37.879  29.915  1.00  0.00    -0.237 OA
ATOM     99  O   UNL A   1      48.369  38.444  30.659  1.00  0.00    -0.744 OA
ENDBRANCH  95  96
ENDBRANCH  69  90
ENDBRANCH  43  44
ENDBRANCH  35  38
ENDBRANCH  33  34
ENDBRANCH  32  33
ENDBRANCH  31  32
ENDBRANCH  30  31
ENDBRANCH   1  30
TORSDOF 21
ENDMDL
