MODEL 1
REMARK VINA RESULT:     -11.1      0.000      0.000
REMARK SMILES C[C@H]1CC[C@@](C[C@@H]2CCCc3ccccc32)(C(=O)NCCCCCCNC(=O)c2ccc(-c3c4nc(c(-c5ccc(S(=O)(=O)[O-])cc5)c5ccc([nH]5)c(-c5ccc(S(=O)(=O)[O-])cc5)c5nc(c(-c6ccc(S(=O)(=O)[O-])cc6)c6ccc3[nH]6)C=C5)C=C4)cc2)C1
REMARK SMILES IDX 23 1 22 2 21 3 20 4 19 5 17 6 18 7 5 9 1 10 2 11 3 12 89 13
REMARK SMILES IDX 4 14 6 15 7 16 8 17 16 18 9 19 11 20 15 21 10 22 12 23 14 24
REMARK SMILES IDX 13 25 24 26 25 27 26 28 27 29 28 31 29 32 30 33 88 34 31 35
REMARK SMILES IDX 87 36 32 37 33 38 34 39 81 40 35 41 86 42 80 43 82 44 36 45
REMARK SMILES IDX 85 46 79 47 78 48 37 50 67 51 48 52 66 53 49 54 52 55 65 56
REMARK SMILES IDX 83 57 50 58 51 59 64 61 84 62 53 63 38 64 39 65 47 66 40 67
REMARK SMILES IDX 46 68 41 69 42 70 43 71 44 72 45 73 68 74 69 75 77 76 70 77
REMARK SMILES IDX 76 78 71 79 72 80 73 81 74 82 75 83 54 84 55 85 63 86 56 87
REMARK SMILES IDX 62 88 57 89 58 90 59 91 60 92 61 93
REMARK H PARENT 19 8 26 30 82 49 52 60
REMARK Flexibility Score: inf
ROOT
ATOM      1  C   UNL A   1      33.184  28.672  24.878  1.00  0.00     0.002 C 
ENDROOT
BRANCH   1   2
ATOM      2  C   UNL A   1      31.656  28.596  24.733  1.00  0.00     0.002 C 
BRANCH   2   3
ATOM      3  C   UNL A   1      31.108  28.538  23.298  1.00  0.00     0.021 C 
BRANCH   3   4
ATOM      4  C   UNL A   1      32.067  28.398  22.096  1.00  0.00     0.116 C 
BRANCH   4   5
ATOM      5  N   UNL A   1      32.616  27.020  21.872  1.00  0.00    -0.356 N 
ATOM      6  C   UNL A   1      32.533  25.682  22.013  1.00  0.00     0.226 C 
ATOM      7  O   UNL A   1      33.335  25.192  21.180  1.00  0.00    -0.274 OA
ATOM      8  H   UNL A   1      33.455  27.165  21.377  1.00  0.00     0.163 HD
BRANCH   6   9
ATOM      9  C   UNL A   1      31.814  24.616  22.994  1.00  0.00     0.050 C 
ATOM     10  C   UNL A   1      31.875  25.072  26.885  1.00  0.00     0.007 C 
ATOM     11  C   UNL A   1      31.538  24.495  25.507  1.00  0.00    -0.013 C 
ATOM     12  C   UNL A   1      30.247  25.062  24.943  1.00  0.00     0.004 C 
ATOM     13  C   UNL A   1      32.554  24.817  24.408  1.00  0.00     0.020 C 
ATOM     14  C   UNL A   1      30.401  25.104  23.419  1.00  0.00     0.017 C 
BRANCH   9  15
ATOM     15  C   UNL A   1      31.831  23.074  22.713  1.00  0.00     0.025 C 
BRANCH  15  16
ATOM     16  C   UNL A   1      33.017  22.103  23.023  1.00  0.00     0.020 C 
ATOM     17  C   UNL A   1      32.600  20.757  23.572  1.00  0.00     0.009 C 
ATOM     18  C   UNL A   1      34.263  22.518  23.804  1.00  0.00    -0.042 A 
ATOM     19  C   UNL A   1      32.302  20.780  25.068  1.00  0.00     0.005 C 
ATOM     20  C   UNL A   1      34.467  22.076  25.131  1.00  0.00    -0.045 A 
ATOM     21  C   UNL A   1      35.362  23.063  23.119  1.00  0.00     0.004 A 
ATOM     22  C   UNL A   1      33.415  21.353  25.915  1.00  0.00     0.036 C 
ATOM     23  C   UNL A   1      35.727  22.180  25.737  1.00  0.00     0.004 A 
ATOM     24  C   UNL A   1      36.628  23.113  23.719  1.00  0.00     0.000 A 
ATOM     25  C   UNL A   1      36.811  22.666  25.025  1.00  0.00     0.000 A 
ENDBRANCH  15  16
ENDBRANCH   9  15
ENDBRANCH   6   9
ENDBRANCH   4   5
ENDBRANCH   3   4
ENDBRANCH   2   3
ENDBRANCH   1   2
BRANCH   1  26
ATOM     26  C   UNL A   1      33.840  27.957  26.076  1.00  0.00     0.021 C 
BRANCH  26  27
ATOM     27  C   UNL A   1      33.451  28.424  27.484  1.00  0.00     0.116 C 
BRANCH  27  28
ATOM     28  N   UNL A   1      33.456  29.872  27.624  1.00  0.00    -0.352 N 
ATOM     29  C   UNL A   1      34.418  30.724  28.111  1.00  0.00     0.251 C 
ATOM     30  H   UNL A   1      32.632  30.316  27.318  1.00  0.00     0.163 HD
ATOM     31  O   UNL A   1      34.134  31.902  28.321  1.00  0.00    -0.269 OA
BRANCH  29  32
ATOM     32  C   UNL A   1      35.790  30.247  28.394  1.00  0.00     0.039 A 
ATOM     33  C   UNL A   1      36.709  30.166  27.341  1.00  0.00     0.014 A 
ATOM     34  C   UNL A   1      36.154  29.817  29.672  1.00  0.00     0.014 A 
ATOM     35  C   UNL A   1      38.014  29.725  27.586  1.00  0.00     0.010 A 
ATOM     36  C   UNL A   1      37.468  29.417  29.922  1.00  0.00     0.010 A 
ATOM     37  C   UNL A   1      38.415  29.379  28.886  1.00  0.00    -0.014 A 
BRANCH  37  38
ATOM     38  C   UNL A   1      39.825  29.018  29.192  1.00  0.00     0.031 A 
ATOM     39  C   UNL A   1      40.780  30.048  29.732  1.00  0.00     0.074 A 
ATOM     40  C   UNL A   1      40.268  27.780  28.895  1.00  0.00     0.049 A 
ATOM     41  N   UNL A   1      42.064  29.943  29.960  1.00  0.00    -0.248 NA
ATOM     42  C   UNL A   1      40.222  31.375  30.035  1.00  0.00     0.031 C 
ATOM     43  C   UNL A   1      39.449  26.703  28.335  1.00  0.00     0.029 A 
ATOM     44  N   UNL A   1      41.519  27.224  28.999  1.00  0.00    -0.354 N 
ATOM     45  C   UNL A   1      42.474  31.192  30.411  1.00  0.00     0.074 A 
ATOM     46  C   UNL A   1      41.307  32.048  30.394  1.00  0.00     0.031 C 
ATOM     47  C   UNL A   1      40.218  25.619  28.146  1.00  0.00     0.029 A 
ATOM     48  C   UNL A   1      41.589  25.933  28.531  1.00  0.00     0.049 A 
ATOM     49  H   UNL A   1      42.293  27.705  29.374  1.00  0.00     0.167 HD
ATOM     50  C   UNL A   1      43.709  31.587  30.809  1.00  0.00     0.031 A 
ATOM     51  C   UNL A   1      42.641  25.100  28.400  1.00  0.00     0.031 A 
ATOM     52  C   UNL A   1      44.864  30.729  30.827  1.00  0.00     0.049 A 
ATOM     53  C   UNL A   1      44.005  25.566  28.830  1.00  0.00     0.074 A 
ATOM     54  C   UNL A   1      46.139  31.013  31.283  1.00  0.00     0.029 A 
ATOM     55  N   UNL A   1      44.889  29.424  30.357  1.00  0.00    -0.354 N 
ATOM     56  N   UNL A   1      44.356  26.725  29.333  1.00  0.00    -0.248 NA
ATOM     57  C   UNL A   1      45.113  24.613  28.677  1.00  0.00     0.031 C 
ATOM     58  C   UNL A   1      46.951  29.901  31.034  1.00  0.00     0.029 A 
ATOM     59  C   UNL A   1      46.167  28.903  30.476  1.00  0.00     0.049 A 
ATOM     60  H   UNL A   1      44.114  28.939  29.993  1.00  0.00     0.167 HD
ATOM     61  C   UNL A   1      45.722  26.638  29.569  1.00  0.00     0.074 A 
ATOM     62  C   UNL A   1      46.132  25.305  29.173  1.00  0.00     0.031 C 
ATOM     63  C   UNL A   1      46.562  27.577  30.068  1.00  0.00     0.031 A 
BRANCH  50  64
ATOM     64  C   UNL A   1      43.877  33.021  31.242  1.00  0.00    -0.014 A 
ATOM     65  C   UNL A   1      43.578  33.427  32.554  1.00  0.00     0.010 A 
ATOM     66  C   UNL A   1      44.381  33.970  30.332  1.00  0.00     0.010 A 
ATOM     67  C   UNL A   1      43.732  34.764  32.935  1.00  0.00     0.020 A 
ATOM     68  C   UNL A   1      44.562  35.301  30.717  1.00  0.00     0.020 A 
ATOM     69  C   UNL A   1      44.217  35.694  32.011  1.00  0.00     0.054 A 
BRANCH  69  70
ATOM     70  S   UNL A   1      44.414  37.419  32.536  1.00  0.00     0.124 S 
ATOM     71  O   UNL A   1      45.862  37.523  32.692  1.00  0.00    -0.237 OA
ATOM     72  O   UNL A   1      43.847  38.164  31.415  1.00  0.00    -0.237 OA
ATOM     73  O   UNL A   1      43.648  37.493  33.779  1.00  0.00    -0.744 OA
ENDBRANCH  69  70
ENDBRANCH  50  64
BRANCH  51  74
ATOM     74  C   UNL A   1      42.440  23.742  27.824  1.00  0.00    -0.014 A 
ATOM     75  C   UNL A   1      42.460  23.544  26.433  1.00  0.00     0.010 A 
ATOM     76  C   UNL A   1      42.262  22.630  28.670  1.00  0.00     0.010 A 
ATOM     77  C   UNL A   1      42.302  22.261  25.898  1.00  0.00     0.020 A 
ATOM     78  C   UNL A   1      42.131  21.345  28.141  1.00  0.00     0.020 A 
ATOM     79  C   UNL A   1      42.144  21.169  26.756  1.00  0.00     0.054 A 
BRANCH  79  80
ATOM     80  S   UNL A   1      42.014  19.505  26.042  1.00  0.00     0.124 S 
ATOM     81  O   UNL A   1      40.596  19.427  25.710  1.00  0.00    -0.237 OA
ATOM     82  O   UNL A   1      42.929  19.578  24.905  1.00  0.00    -0.237 OA
ATOM     83  O   UNL A   1      42.454  18.632  27.128  1.00  0.00    -0.744 OA
ENDBRANCH  79  80
ENDBRANCH  51  74
BRANCH  63  84
ATOM     84  C   UNL A   1      48.012  27.204  30.223  1.00  0.00    -0.014 A 
ATOM     85  C   UNL A   1      48.950  27.522  29.225  1.00  0.00     0.010 A 
ATOM     86  C   UNL A   1      48.454  26.604  31.415  1.00  0.00     0.010 A 
ATOM     87  C   UNL A   1      50.304  27.236  29.413  1.00  0.00     0.020 A 
ATOM     88  C   UNL A   1      49.812  26.338  31.617  1.00  0.00     0.020 A 
ATOM     89  C   UNL A   1      50.728  26.651  30.610  1.00  0.00     0.054 A 
BRANCH  89  90
ATOM     90  S   UNL A   1      52.501  26.359  30.859  1.00  0.00     0.124 S 
ATOM     91  O   UNL A   1      52.968  26.149  29.491  1.00  0.00    -0.237 OA
ATOM     92  O   UNL A   1      52.943  27.599  31.491  1.00  0.00    -0.237 OA
ATOM     93  O   UNL A   1      52.540  25.179  31.719  1.00  0.00    -0.744 OA
ENDBRANCH  89  90
ENDBRANCH  63  84
ENDBRANCH  37  38
ENDBRANCH  29  32
ENDBRANCH  27  28
ENDBRANCH  26  27
ENDBRANCH   1  26
TORSDOF 18
ENDMDL
MODEL 2
REMARK VINA RESULT:     -11.0      1.410      2.428
REMARK SMILES C[C@H]1CC[C@@](C[C@@H]2CCCc3ccccc32)(C(=O)NCCCCCCNC(=O)c2ccc(-c3c4nc(c(-c5ccc(S(=O)(=O)[O-])cc5)c5ccc([nH]5)c(-c5ccc(S(=O)(=O)[O-])cc5)c5nc(c(-c6ccc(S(=O)(=O)[O-])cc6)c6ccc3[nH]6)C=C5)C=C4)cc2)C1
REMARK SMILES IDX 23 1 22 2 21 3 20 4 19 5 17 6 18 7 5 9 1 10 2 11 3 12 89 13
REMARK SMILES IDX 4 14 6 15 7 16 8 17 16 18 9 19 11 20 15 21 10 22 12 23 14 24
REMARK SMILES IDX 13 25 24 26 25 27 26 28 27 29 28 31 29 32 30 33 88 34 31 35
REMARK SMILES IDX 87 36 32 37 33 38 34 39 81 40 35 41 86 42 80 43 82 44 36 45
REMARK SMILES IDX 85 46 79 47 78 48 37 50 67 51 48 52 66 53 49 54 52 55 65 56
REMARK SMILES IDX 83 57 50 58 51 59 64 61 84 62 53 63 38 64 39 65 47 66 40 67
REMARK SMILES IDX 46 68 41 69 42 70 43 71 44 72 45 73 68 74 69 75 77 76 70 77
REMARK SMILES IDX 76 78 71 79 72 80 73 81 74 82 75 83 54 84 55 85 63 86 56 87
REMARK SMILES IDX 62 88 57 89 58 90 59 91 60 92 61 93
REMARK H PARENT 19 8 26 30 82 49 52 60
REMARK Flexibility Score: inf
ROOT
ATOM      1  C   UNL A   1      32.734  28.418  24.743  1.00  0.00     0.002 C 
ENDROOT
BRANCH   1   2
ATOM      2  C   UNL A   1      31.437  27.624  24.521  1.00  0.00     0.002 C 
BRANCH   2   3
ATOM      3  C   UNL A   1      30.837  26.934  25.758  1.00  0.00     0.021 C 
BRANCH   3   4
ATOM      4  C   UNL A   1      29.669  25.934  25.609  1.00  0.00     0.116 C 
BRANCH   4   5
ATOM      5  N   UNL A   1      30.062  24.486  25.610  1.00  0.00    -0.356 N 
ATOM      6  C   UNL A   1      30.940  23.504  25.324  1.00  0.00     0.226 C 
ATOM      7  O   UNL A   1      30.585  22.510  26.003  1.00  0.00    -0.274 OA
ATOM      8  H   UNL A   1      29.299  24.024  26.025  1.00  0.00     0.163 HD
BRANCH   6   9
ATOM      9  C   UNL A   1      32.172  23.248  24.309  1.00  0.00     0.050 C 
ATOM     10  C   UNL A   1      32.804  25.606  21.243  1.00  0.00     0.007 C 
ATOM     11  C   UNL A   1      33.011  24.482  22.263  1.00  0.00    -0.013 C 
ATOM     12  C   UNL A   1      33.878  24.914  23.433  1.00  0.00     0.004 C 
ATOM     13  C   UNL A   1      31.733  23.999  22.955  1.00  0.00     0.020 C 
ATOM     14  C   UNL A   1      33.393  24.142  24.664  1.00  0.00     0.017 C 
BRANCH   9  15
ATOM     15  C   UNL A   1      32.618  21.809  23.879  1.00  0.00     0.025 C 
BRANCH  15  16
ATOM     16  C   UNL A   1      32.971  20.634  24.848  1.00  0.00     0.020 C 
ATOM     17  C   UNL A   1      33.859  21.021  26.009  1.00  0.00     0.009 C 
ATOM     18  C   UNL A   1      33.460  19.266  24.370  1.00  0.00    -0.042 A 
ATOM     19  C   UNL A   1      35.339  21.088  25.643  1.00  0.00     0.005 C 
ATOM     20  C   UNL A   1      34.812  18.884  24.531  1.00  0.00    -0.045 A 
ATOM     21  C   UNL A   1      32.526  18.261  24.070  1.00  0.00     0.004 A 
ATOM     22  C   UNL A   1      35.875  19.836  24.987  1.00  0.00     0.036 C 
ATOM     23  C   UNL A   1      35.200  17.543  24.395  1.00  0.00     0.004 A 
ATOM     24  C   UNL A   1      32.920  16.918  23.989  1.00  0.00     0.000 A 
ATOM     25  C   UNL A   1      34.255  16.559  24.157  1.00  0.00     0.000 A 
ENDBRANCH  15  16
ENDBRANCH   9  15
ENDBRANCH   6   9
ENDBRANCH   4   5
ENDBRANCH   3   4
ENDBRANCH   2   3
ENDBRANCH   1   2
BRANCH   1  26
ATOM     26  C   UNL A   1      33.752  27.880  25.768  1.00  0.00     0.021 C 
BRANCH  26  27
ATOM     27  C   UNL A   1      33.570  28.290  27.234  1.00  0.00     0.116 C 
BRANCH  27  28
ATOM     28  N   UNL A   1      33.507  29.732  27.419  1.00  0.00    -0.352 N 
ATOM     29  C   UNL A   1      34.407  30.606  27.981  1.00  0.00     0.251 C 
ATOM     30  H   UNL A   1      32.682  30.152  27.084  1.00  0.00     0.163 HD
ATOM     31  O   UNL A   1      34.064  31.763  28.212  1.00  0.00    -0.269 OA
BRANCH  29  32
ATOM     32  C   UNL A   1      35.782  30.175  28.320  1.00  0.00     0.039 A 
ATOM     33  C   UNL A   1      36.756  30.165  27.315  1.00  0.00     0.014 A 
ATOM     34  C   UNL A   1      36.098  29.718  29.602  1.00  0.00     0.014 A 
ATOM     35  C   UNL A   1      38.064  29.770  27.614  1.00  0.00     0.010 A 
ATOM     36  C   UNL A   1      37.413  29.362  29.908  1.00  0.00     0.010 A 
ATOM     37  C   UNL A   1      38.413  29.397  28.922  1.00  0.00    -0.014 A 
BRANCH  37  38
ATOM     38  C   UNL A   1      39.818  29.083  29.290  1.00  0.00     0.031 A 
ATOM     39  C   UNL A   1      40.709  30.140  29.886  1.00  0.00     0.074 A 
ATOM     40  C   UNL A   1      40.320  27.866  29.001  1.00  0.00     0.049 A 
ATOM     41  N   UNL A   1      41.985  30.078  30.173  1.00  0.00    -0.248 NA
ATOM     42  C   UNL A   1      40.090  31.442  30.176  1.00  0.00     0.031 C 
ATOM     43  C   UNL A   1      39.567  26.767  28.391  1.00  0.00     0.029 A 
ATOM     44  N   UNL A   1      41.584  27.354  29.158  1.00  0.00    -0.354 N 
ATOM     45  C   UNL A   1      42.327  31.335  30.655  1.00  0.00     0.074 A 
ATOM     46  C   UNL A   1      41.131  32.149  30.593  1.00  0.00     0.031 C 
ATOM     47  C   UNL A   1      40.383  25.713  28.227  1.00  0.00     0.029 A 
ATOM     48  C   UNL A   1      41.723  26.072  28.679  1.00  0.00     0.049 A 
ATOM     49  H   UNL A   1      42.322  27.857  29.574  1.00  0.00     0.167 HD
ATOM     50  C   UNL A   1      43.527  31.769  31.116  1.00  0.00     0.031 A 
ATOM     51  C   UNL A   1      42.809  25.279  28.590  1.00  0.00     0.031 A 
ATOM     52  C   UNL A   1      44.711  30.953  31.179  1.00  0.00     0.049 A 
ATOM     53  C   UNL A   1      44.133  25.787  29.088  1.00  0.00     0.074 A 
ATOM     54  C   UNL A   1      45.952  31.277  31.697  1.00  0.00     0.029 A 
ATOM     55  N   UNL A   1      44.805  29.655  30.697  1.00  0.00    -0.354 N 
ATOM     56  N   UNL A   1      44.418  26.953  29.619  1.00  0.00    -0.248 NA
ATOM     57  C   UNL A   1      45.282  24.877  28.977  1.00  0.00     0.031 C 
ATOM     58  C   UNL A   1      46.814  30.198  31.475  1.00  0.00     0.029 A 
ATOM     59  C   UNL A   1      46.094  29.179  30.870  1.00  0.00     0.049 A 
ATOM     60  H   UNL A   1      44.065  29.148  30.291  1.00  0.00     0.167 HD
ATOM     61  C   UNL A   1      45.775  26.911  29.918  1.00  0.00     0.074 A 
ATOM     62  C   UNL A   1      46.251  25.599  29.528  1.00  0.00     0.031 C 
ATOM     63  C   UNL A   1      46.556  27.874  30.466  1.00  0.00     0.031 A 
BRANCH  50  64
ATOM     64  C   UNL A   1      43.623  33.203  31.572  1.00  0.00    -0.014 A 
ATOM     65  C   UNL A   1      43.990  34.228  30.683  1.00  0.00     0.010 A 
ATOM     66  C   UNL A   1      43.302  33.535  32.902  1.00  0.00     0.010 A 
ATOM     67  C   UNL A   1      44.082  35.551  31.127  1.00  0.00     0.020 A 
ATOM     68  C   UNL A   1      43.367  34.859  33.342  1.00  0.00     0.020 A 
ATOM     69  C   UNL A   1      43.776  35.857  32.456  1.00  0.00     0.054 A 
BRANCH  69  70
ATOM     70  S   UNL A   1      43.898  37.583  33.000  1.00  0.00     0.124 S 
ATOM     71  O   UNL A   1      45.182  37.590  33.694  1.00  0.00    -0.237 OA
ATOM     72  O   UNL A   1      43.860  38.322  31.741  1.00  0.00    -0.237 OA
ATOM     73  O   UNL A   1      42.727  37.760  33.858  1.00  0.00    -0.744 OA
ENDBRANCH  69  70
ENDBRANCH  50  64
BRANCH  51  74
ATOM     74  C   UNL A   1      42.684  23.922  27.990  1.00  0.00    -0.014 A 
ATOM     75  C   UNL A   1      42.316  22.820  28.781  1.00  0.00     0.010 A 
ATOM     76  C   UNL A   1      42.898  23.732  26.611  1.00  0.00     0.010 A 
ATOM     77  C   UNL A   1      42.169  21.553  28.206  1.00  0.00     0.020 A 
ATOM     78  C   UNL A   1      42.727  22.474  26.029  1.00  0.00     0.020 A 
ATOM     79  C   UNL A   1      42.370  21.389  26.833  1.00  0.00     0.054 A 
BRANCH  79  80
ATOM     80  S   UNL A   1      42.103  19.752  26.096  1.00  0.00     0.124 S 
ATOM     81  O   UNL A   1      43.016  19.778  24.959  1.00  0.00    -0.237 OA
ATOM     82  O   UNL A   1      42.473  18.852  27.186  1.00  0.00    -0.237 OA
ATOM     83  O   UNL A   1      40.680  19.757  25.761  1.00  0.00    -0.744 OA
ENDBRANCH  79  80
ENDBRANCH  51  74
BRANCH  63  84
ATOM     84  C   UNL A   1      48.009  27.551  30.685  1.00  0.00    -0.014 A 
ATOM     85  C   UNL A   1      48.436  26.906  31.859  1.00  0.00     0.010 A 
ATOM     86  C   UNL A   1      48.945  27.821  29.670  1.00  0.00     0.010 A 
ATOM     87  C   UNL A   1      49.777  26.547  32.019  1.00  0.00     0.020 A 
ATOM     88  C   UNL A   1      50.282  27.441  29.816  1.00  0.00     0.020 A 
ATOM     89  C   UNL A   1      50.690  26.811  30.994  1.00  0.00     0.054 A 
BRANCH  89  90
ATOM     90  S   UNL A   1      52.409  26.266  31.196  1.00  0.00     0.124 S 
ATOM     91  O   UNL A   1      52.243  24.985  31.877  1.00  0.00    -0.237 OA
ATOM     92  O   UNL A   1      52.884  26.189  29.816  1.00  0.00    -0.237 OA
ATOM     93  O   UNL A   1      53.016  27.325  31.999  1.00  0.00    -0.744 OA
ENDBRANCH  89  90
ENDBRANCH  63  84
ENDBRANCH  37  38
ENDBRANCH  29  32
ENDBRANCH  27  28
ENDBRANCH  26  27
ENDBRANCH   1  26
TORSDOF 18
ENDMDL
MODEL 3
REMARK VINA RESULT:     -10.5      3.161      8.351
REMARK SMILES C[C@H]1CC[C@@](C[C@@H]2CCCc3ccccc32)(C(=O)NCCCCCCNC(=O)c2ccc(-c3c4nc(c(-c5ccc(S(=O)(=O)[O-])cc5)c5ccc([nH]5)c(-c5ccc(S(=O)(=O)[O-])cc5)c5nc(c(-c6ccc(S(=O)(=O)[O-])cc6)c6ccc3[nH]6)C=C5)C=C4)cc2)C1
REMARK SMILES IDX 23 1 22 2 21 3 20 4 19 5 17 6 18 7 5 9 1 10 2 11 3 12 89 13
REMARK SMILES IDX 4 14 6 15 7 16 8 17 16 18 9 19 11 20 15 21 10 22 12 23 14 24
REMARK SMILES IDX 13 25 24 26 25 27 26 28 27 29 28 31 29 32 30 33 88 34 31 35
REMARK SMILES IDX 87 36 32 37 33 38 34 39 81 40 35 41 86 42 80 43 82 44 36 45
REMARK SMILES IDX 85 46 79 47 78 48 37 50 67 51 48 52 66 53 49 54 52 55 65 56
REMARK SMILES IDX 83 57 50 58 51 59 64 61 84 62 53 63 38 64 39 65 47 66 40 67
REMARK SMILES IDX 46 68 41 69 42 70 43 71 44 72 45 73 68 74 69 75 77 76 70 77
REMARK SMILES IDX 76 78 71 79 72 80 73 81 74 82 75 83 54 84 55 85 63 86 56 87
REMARK SMILES IDX 62 88 57 89 58 90 59 91 60 92 61 93
REMARK H PARENT 19 8 26 30 82 49 52 60
REMARK Flexibility Score: inf
ROOT
ATOM      1  C   UNL A   1      34.030  28.338  25.008  1.00  0.00     0.002 C 
ENDROOT
BRANCH   1   2
ATOM      2  C   UNL A   1      32.764  28.941  24.379  1.00  0.00     0.002 C 
BRANCH   2   3
ATOM      3  C   UNL A   1      32.534  28.646  22.888  1.00  0.00     0.021 C 
BRANCH   3   4
ATOM      4  C   UNL A   1      33.638  27.977  22.041  1.00  0.00     0.116 C 
BRANCH   4   5
ATOM      5  N   UNL A   1      33.413  26.528  21.725  1.00  0.00    -0.356 N 
ATOM      6  C   UNL A   1      32.741  25.373  21.907  1.00  0.00     0.226 C 
ATOM      7  O   UNL A   1      33.021  24.647  20.922  1.00  0.00    -0.274 OA
ATOM      8  H   UNL A   1      34.095  26.313  21.048  1.00  0.00     0.163 HD
BRANCH   6   9
ATOM      9  C   UNL A   1      31.830  24.677  23.047  1.00  0.00     0.050 C 
ATOM     10  C   UNL A   1      31.683  26.113  26.691  1.00  0.00     0.007 C 
ATOM     11  C   UNL A   1      31.371  25.238  25.473  1.00  0.00    -0.013 C 
ATOM     12  C   UNL A   1      30.202  25.769  24.663  1.00  0.00     0.004 C 
ATOM     13  C   UNL A   1      32.491  25.159  24.432  1.00  0.00     0.020 C 
ATOM     14  C   UNL A   1      30.463  25.400  23.199  1.00  0.00     0.017 C 
BRANCH   9  15
ATOM     15  C   UNL A   1      31.675  23.122  23.162  1.00  0.00     0.025 C 
BRANCH  15  16
ATOM     16  C   UNL A   1      32.842  22.082  23.127  1.00  0.00     0.020 C 
ATOM     17  C   UNL A   1      32.433  20.665  23.463  1.00  0.00     0.009 C 
ATOM     18  C   UNL A   1      34.193  22.311  23.803  1.00  0.00    -0.042 A 
ATOM     19  C   UNL A   1      32.323  20.407  24.963  1.00  0.00     0.005 C 
ATOM     20  C   UNL A   1      34.538  21.618  24.986  1.00  0.00    -0.045 A 
ATOM     21  C   UNL A   1      35.224  22.952  23.096  1.00  0.00     0.004 A 
ATOM     22  C   UNL A   1      33.558  20.781  25.750  1.00  0.00     0.036 C 
ATOM     23  C   UNL A   1      35.867  21.575  25.432  1.00  0.00     0.004 A 
ATOM     24  C   UNL A   1      36.555  22.857  23.526  1.00  0.00     0.000 A 
ATOM     25  C   UNL A   1      36.877  22.164  24.689  1.00  0.00     0.000 A 
ENDBRANCH  15  16
ENDBRANCH   9  15
ENDBRANCH   6   9
ENDBRANCH   4   5
ENDBRANCH   3   4
ENDBRANCH   2   3
ENDBRANCH   1   2
BRANCH   1  26
ATOM     26  C   UNL A   1      34.435  28.805  26.421  1.00  0.00     0.021 C 
BRANCH  26  27
ATOM     27  C   UNL A   1      33.333  29.358  27.332  1.00  0.00     0.116 C 
BRANCH  27  28
ATOM     28  N   UNL A   1      33.296  30.813  27.360  1.00  0.00    -0.352 N 
ATOM     29  C   UNL A   1      34.129  31.721  27.968  1.00  0.00     0.251 C 
ATOM     30  H   UNL A   1      32.549  31.213  26.860  1.00  0.00     0.163 HD
ATOM     31  O   UNL A   1      33.797  32.903  28.026  1.00  0.00    -0.269 OA
BRANCH  29  32
ATOM     32  C   UNL A   1      35.418  31.298  28.560  1.00  0.00     0.039 A 
ATOM     33  C   UNL A   1      36.595  31.929  28.141  1.00  0.00     0.014 A 
ATOM     34  C   UNL A   1      35.480  30.243  29.473  1.00  0.00     0.014 A 
ATOM     35  C   UNL A   1      37.824  31.553  28.693  1.00  0.00     0.010 A 
ATOM     36  C   UNL A   1      36.702  29.896  30.052  1.00  0.00     0.010 A 
ATOM     37  C   UNL A   1      37.885  30.555  29.679  1.00  0.00    -0.014 A 
BRANCH  37  38
ATOM     38  C   UNL A   1      39.161  30.217  30.363  1.00  0.00     0.031 A 
ATOM     39  C   UNL A   1      40.025  29.092  29.862  1.00  0.00     0.074 A 
ATOM     40  C   UNL A   1      39.495  30.869  31.495  1.00  0.00     0.049 A 
ATOM     41  N   UNL A   1      41.113  28.590  30.387  1.00  0.00    -0.248 NA
ATOM     42  C   UNL A   1      39.597  28.431  28.620  1.00  0.00     0.031 C 
ATOM     43  C   UNL A   1      38.723  31.955  32.103  1.00  0.00     0.029 A 
ATOM     44  N   UNL A   1      40.557  30.699  32.350  1.00  0.00    -0.354 N 
ATOM     45  C   UNL A   1      41.489  27.541  29.556  1.00  0.00     0.074 A 
ATOM     46  C   UNL A   1      40.493  27.460  28.508  1.00  0.00     0.031 C 
ATOM     47  C   UNL A   1      39.336  32.354  33.228  1.00  0.00     0.029 A 
ATOM     48  C   UNL A   1      40.518  31.528  33.447  1.00  0.00     0.049 A 
ATOM     49  H   UNL A   1      41.277  30.046  32.192  1.00  0.00     0.167 HD
ATOM     50  C   UNL A   1      42.568  26.727  29.653  1.00  0.00     0.031 A 
ATOM     51  C   UNL A   1      41.327  31.602  34.523  1.00  0.00     0.031 A 
ATOM     52  C   UNL A   1      43.556  26.817  30.696  1.00  0.00     0.049 A 
ATOM     53  C   UNL A   1      42.507  30.675  34.620  1.00  0.00     0.074 A 
ATOM     54  C   UNL A   1      44.724  26.087  30.839  1.00  0.00     0.029 A 
ATOM     55  N   UNL A   1      43.488  27.679  31.780  1.00  0.00    -0.354 N 
ATOM     56  N   UNL A   1      42.892  29.745  33.778  1.00  0.00    -0.248 NA
ATOM     57  C   UNL A   1      43.363  30.807  35.807  1.00  0.00     0.031 C 
ATOM     58  C   UNL A   1      45.331  26.466  32.041  1.00  0.00     0.029 A 
ATOM     59  C   UNL A   1      44.571  27.472  32.618  1.00  0.00     0.049 A 
ATOM     60  H   UNL A   1      42.774  28.339  31.932  1.00  0.00     0.167 HD
ATOM     61  C   UNL A   1      44.042  29.190  34.327  1.00  0.00     0.074 A 
ATOM     62  C   UNL A   1      44.302  29.900  35.563  1.00  0.00     0.031 C 
ATOM     63  C   UNL A   1      44.811  28.181  33.851  1.00  0.00     0.031 A 
BRANCH  50  64
ATOM     64  C   UNL A   1      42.727  25.651  28.609  1.00  0.00    -0.014 A 
ATOM     65  C   UNL A   1      43.524  25.852  27.468  1.00  0.00     0.010 A 
ATOM     66  C   UNL A   1      42.100  24.403  28.792  1.00  0.00     0.010 A 
ATOM     67  C   UNL A   1      43.651  24.846  26.506  1.00  0.00     0.020 A 
ATOM     68  C   UNL A   1      42.248  23.385  27.846  1.00  0.00     0.020 A 
ATOM     69  C   UNL A   1      43.007  23.620  26.699  1.00  0.00     0.054 A 
BRANCH  69  70
ATOM     70  S   UNL A   1      43.198  22.331  25.437  1.00  0.00     0.124 S 
ATOM     71  O   UNL A   1      43.184  23.111  24.204  1.00  0.00    -0.237 OA
ATOM     72  O   UNL A   1      44.482  21.728  25.784  1.00  0.00    -0.237 OA
ATOM     73  O   UNL A   1      42.034  21.470  25.642  1.00  0.00    -0.744 OA
ENDBRANCH  69  70
ENDBRANCH  50  64
BRANCH  51  74
ATOM     74  C   UNL A   1      41.034  32.587  35.600  1.00  0.00    -0.014 A 
ATOM     75  C   UNL A   1      41.600  33.873  35.568  1.00  0.00     0.010 A 
ATOM     76  C   UNL A   1      40.154  32.253  36.647  1.00  0.00     0.010 A 
ATOM     77  C   UNL A   1      41.296  34.805  36.566  1.00  0.00     0.020 A 
ATOM     78  C   UNL A   1      39.828  33.190  37.630  1.00  0.00     0.020 A 
ATOM     79  C   UNL A   1      40.408  34.460  37.588  1.00  0.00     0.054 A 
BRANCH  79  80
ATOM     80  S   UNL A   1      39.971  35.709  38.830  1.00  0.00     0.124 S 
ATOM     81  O   UNL A   1      38.876  35.060  39.541  1.00  0.00    -0.237 OA
ATOM     82  O   UNL A   1      41.216  35.855  39.581  1.00  0.00    -0.237 OA
ATOM     83  O   UNL A   1      39.598  36.872  38.028  1.00  0.00    -0.744 OA
ENDBRANCH  79  80
ENDBRANCH  51  74
BRANCH  63  84
ATOM     84  C   UNL A   1      46.016  27.781  34.660  1.00  0.00    -0.014 A 
ATOM     85  C   UNL A   1      45.945  26.726  35.586  1.00  0.00     0.010 A 
ATOM     86  C   UNL A   1      47.251  28.413  34.431  1.00  0.00     0.010 A 
ATOM     87  C   UNL A   1      47.088  26.317  36.278  1.00  0.00     0.020 A 
ATOM     88  C   UNL A   1      48.402  27.990  35.103  1.00  0.00     0.020 A 
ATOM     89  C   UNL A   1      48.310  26.948  36.028  1.00  0.00     0.054 A 
BRANCH  89  90
ATOM     90  S   UNL A   1      49.793  26.347  36.884  1.00  0.00     0.124 S 
ATOM     91  O   UNL A   1      49.616  26.902  38.223  1.00  0.00    -0.237 OA
ATOM     92  O   UNL A   1      49.656  24.897  36.781  1.00  0.00    -0.237 OA
ATOM     93  O   UNL A   1      50.894  26.920  36.113  1.00  0.00    -0.744 OA
ENDBRANCH  89  90
ENDBRANCH  63  84
ENDBRANCH  37  38
ENDBRANCH  29  32
ENDBRANCH  27  28
ENDBRANCH  26  27
ENDBRANCH   1  26
TORSDOF 18
ENDMDL
