MODEL 1
REMARK VINA RESULT:     -11.0      0.000      0.000
REMARK SMILES O=C(NCCCCCCNC(=O)C1(C/C=C/c2ccccc2)CCCCC1)c1ccc(-c2c3nc(c(-c4ccc(S(=O)(=O)[O-])cc4)c4ccc([nH]4)c(-c4ccc(S(=O)(=O)[O-])cc4)c4nc(c(-c5ccc(S(=O)(=O)[O-])cc5)c5ccc2[nH]5)C=C4)C=C3)cc1
REMARK SMILES IDX 6 1 5 2 4 3 3 4 1 5 2 6 28 8 29 9 87 10 30 11 86 12 31 13
REMARK SMILES IDX 32 14 33 15 80 16 34 17 85 18 79 19 81 20 35 21 84 22 78 23
REMARK SMILES IDX 77 24 36 26 66 27 47 28 65 29 48 30 51 31 64 32 82 33 49 34
REMARK SMILES IDX 50 35 63 37 83 38 52 39 37 40 38 41 46 42 39 43 45 44 40 45
REMARK SMILES IDX 41 46 42 47 43 48 44 49 67 50 68 51 76 52 69 53 75 54 70 55
REMARK SMILES IDX 71 56 72 57 73 58 74 59 53 60 54 61 62 62 55 63 61 64 56 65
REMARK SMILES IDX 57 66 58 67 59 68 60 69 7 70 8 71 9 72 10 73 11 74 12 76
REMARK SMILES IDX 13 77 23 78 27 79 24 80 26 81 25 82 14 83 15 84 16 85 17 86
REMARK SMILES IDX 18 87 22 88 19 89 21 90 20 91
REMARK H PARENT 3 7 81 25 51 36 10 75
REMARK Flexibility Score: inf
ROOT
ATOM      1  C   UNL A   1      32.688  28.829  24.909  1.00  0.00     0.002 C 
ENDROOT
BRANCH   1   2
ATOM      2  C   UNL A   1      33.667  28.096  25.827  1.00  0.00     0.021 C 
BRANCH   2   3
ATOM      3  C   UNL A   1      33.529  28.437  27.304  1.00  0.00     0.116 C 
BRANCH   3   4
ATOM      4  N   UNL A   1      33.568  29.871  27.529  1.00  0.00    -0.352 N 
ATOM      5  O   UNL A   1      34.304  31.797  28.420  1.00  0.00    -0.269 OA
ATOM      6  C   UNL A   1      34.557  30.642  28.089  1.00  0.00     0.251 C 
ATOM      7  H   UNL A   1      32.768  30.363  27.236  1.00  0.00     0.163 HD
BRANCH   6   8
ATOM      8  C   UNL A   1      35.921  30.096  28.296  1.00  0.00     0.039 A 
ATOM      9  C   UNL A   1      36.878  30.138  27.279  1.00  0.00     0.014 A 
ATOM     10  C   UNL A   1      36.275  29.609  29.559  1.00  0.00     0.014 A 
ATOM     11  C   UNL A   1      38.147  29.605  27.491  1.00  0.00     0.010 A 
ATOM     12  C   UNL A   1      37.578  29.158  29.799  1.00  0.00     0.010 A 
ATOM     13  C   UNL A   1      38.526  29.152  28.765  1.00  0.00    -0.014 A 
BRANCH  13  14
ATOM     14  C   UNL A   1      39.953  28.826  29.021  1.00  0.00     0.031 A 
ATOM     15  C   UNL A   1      40.548  27.506  28.618  1.00  0.00     0.074 A 
ATOM     16  C   UNL A   1      40.716  29.757  29.631  1.00  0.00     0.049 A 
ATOM     17  N   UNL A   1      41.779  27.086  28.769  1.00  0.00    -0.248 NA
ATOM     18  C   UNL A   1      39.656  26.530  27.974  1.00  0.00     0.031 C 
ATOM     19  C   UNL A   1      40.240  31.067  30.092  1.00  0.00     0.029 A 
ATOM     20  N   UNL A   1      42.048  29.761  29.957  1.00  0.00    -0.354 N 
ATOM     21  C   UNL A   1      41.807  25.792  28.260  1.00  0.00     0.074 A 
ATOM     22  C   UNL A   1      40.467  25.491  27.805  1.00  0.00     0.031 C 
ATOM     23  C   UNL A   1      41.270  31.761  30.598  1.00  0.00     0.029 A 
ATOM     24  C   UNL A   1      42.462  30.925  30.563  1.00  0.00     0.049 A 
ATOM     25  H   UNL A   1      42.649  29.003  29.777  1.00  0.00     0.167 HD
ATOM     26  C   UNL A   1      42.857  24.940  28.183  1.00  0.00     0.031 A 
ATOM     27  C   UNL A   1      43.662  31.278  31.062  1.00  0.00     0.031 A 
ATOM     28  C   UNL A   1      44.190  25.253  28.632  1.00  0.00     0.049 A 
ATOM     29  C   UNL A   1      44.797  30.301  30.977  1.00  0.00     0.074 A 
ATOM     30  C   UNL A   1      45.331  24.471  28.544  1.00  0.00     0.029 A 
ATOM     31  N   UNL A   1      44.564  26.430  29.260  1.00  0.00    -0.354 N 
ATOM     32  N   UNL A   1      44.815  29.107  30.437  1.00  0.00    -0.248 NA
ATOM     33  C   UNL A   1      46.074  30.718  31.573  1.00  0.00     0.031 C 
ATOM     34  C   UNL A   1      46.380  25.152  29.169  1.00  0.00     0.029 A 
ATOM     35  C   UNL A   1      45.907  26.382  29.597  1.00  0.00     0.049 A 
ATOM     36  H   UNL A   1      43.963  27.189  29.442  1.00  0.00     0.167 HD
ATOM     37  C   UNL A   1      46.106  28.630  30.621  1.00  0.00     0.074 A 
ATOM     38  C   UNL A   1      46.847  29.678  31.293  1.00  0.00     0.031 C 
ATOM     39  C   UNL A   1      46.628  27.430  30.273  1.00  0.00     0.031 A 
BRANCH  26  40
ATOM     40  C   UNL A   1      42.620  23.567  27.609  1.00  0.00    -0.014 A 
ATOM     41  C   UNL A   1      42.884  23.287  26.257  1.00  0.00     0.010 A 
ATOM     42  C   UNL A   1      42.231  22.517  28.461  1.00  0.00     0.010 A 
ATOM     43  C   UNL A   1      42.751  21.986  25.766  1.00  0.00     0.020 A 
ATOM     44  C   UNL A   1      42.117  21.210  27.979  1.00  0.00     0.020 A 
ATOM     45  C   UNL A   1      42.372  20.954  26.631  1.00  0.00     0.054 A 
BRANCH  45  46
ATOM     46  S   UNL A   1      42.271  19.263  25.980  1.00  0.00     0.124 S 
ATOM     47  O   UNL A   1      40.842  19.129  25.710  1.00  0.00    -0.237 OA
ATOM     48  O   UNL A   1      43.129  19.322  24.798  1.00  0.00    -0.237 OA
ATOM     49  O   UNL A   1      42.778  18.438  27.073  1.00  0.00    -0.744 OA
ENDBRANCH  45  46
ENDBRANCH  26  40
BRANCH  27  50
ATOM     50  C   UNL A   1      43.833  32.598  31.725  1.00  0.00    -0.014 A 
ATOM     51  C   UNL A   1      44.254  33.723  30.995  1.00  0.00     0.010 A 
ATOM     52  C   UNL A   1      43.575  32.734  33.103  1.00  0.00     0.010 A 
ATOM     53  C   UNL A   1      44.443  34.951  31.636  1.00  0.00     0.020 A 
ATOM     54  C   UNL A   1      43.731  33.966  33.740  1.00  0.00     0.020 A 
ATOM     55  C   UNL A   1      44.184  35.064  33.006  1.00  0.00     0.054 A 
BRANCH  55  56
ATOM     56  S   UNL A   1      44.411  36.670  33.815  1.00  0.00     0.124 S 
ATOM     57  O   UNL A   1      43.330  36.669  34.796  1.00  0.00    -0.237 OA
ATOM     58  O   UNL A   1      45.762  36.564  34.359  1.00  0.00    -0.237 OA
ATOM     59  O   UNL A   1      44.263  37.627  32.720  1.00  0.00    -0.744 OA
ENDBRANCH  55  56
ENDBRANCH  27  50
BRANCH  39  60
ATOM     60  C   UNL A   1      48.077  27.195  30.599  1.00  0.00    -0.014 A 
ATOM     61  C   UNL A   1      48.462  26.674  31.846  1.00  0.00     0.010 A 
ATOM     62  C   UNL A   1      49.063  27.470  29.634  1.00  0.00     0.010 A 
ATOM     63  C   UNL A   1      49.812  26.464  32.137  1.00  0.00     0.020 A 
ATOM     64  C   UNL A   1      50.411  27.235  29.910  1.00  0.00     0.020 A 
ATOM     65  C   UNL A   1      50.779  26.748  31.166  1.00  0.00     0.054 A 
BRANCH  65  66
ATOM     66  S   UNL A   1      52.522  26.434  31.554  1.00  0.00     0.124 S 
ATOM     67  O   UNL A   1      52.926  27.691  32.177  1.00  0.00    -0.237 OA
ATOM     68  O   UNL A   1      52.451  25.282  32.449  1.00  0.00    -0.237 OA
ATOM     69  O   UNL A   1      53.123  26.165  30.249  1.00  0.00    -0.744 OA
ENDBRANCH  65  66
ENDBRANCH  39  60
ENDBRANCH  13  14
ENDBRANCH   6   8
ENDBRANCH   3   4
ENDBRANCH   2   3
ENDBRANCH   1   2
BRANCH   1  70
ATOM     70  C   UNL A   1      31.349  28.118  24.667  1.00  0.00     0.002 C 
BRANCH  70  71
ATOM     71  C   UNL A   1      30.837  27.246  25.819  1.00  0.00     0.021 C 
BRANCH  71  72
ATOM     72  C   UNL A   1      29.797  26.209  25.409  1.00  0.00     0.116 C 
BRANCH  72  73
ATOM     73  N   UNL A   1      29.776  25.062  26.289  1.00  0.00    -0.356 N 
ATOM     74  C   UNL A   1      30.530  23.936  26.356  1.00  0.00     0.226 C 
ATOM     75  H   UNL A   1      29.073  25.107  26.977  1.00  0.00     0.163 HD
ATOM     76  O   UNL A   1      30.325  23.241  27.362  1.00  0.00    -0.274 OA
BRANCH  74  77
ATOM     77  C   UNL A   1      31.601  23.519  25.303  1.00  0.00     0.053 C 
ATOM     78  C   UNL A   1      32.019  22.055  25.706  1.00  0.00     0.017 C 
ATOM     79  C   UNL A   1      31.017  23.435  23.870  1.00  0.00     0.017 C 
ATOM     80  C   UNL A   1      32.900  21.325  24.694  1.00  0.00     0.001 C 
ATOM     81  C   UNL A   1      31.918  22.722  22.862  1.00  0.00     0.001 C 
ATOM     82  C   UNL A   1      32.270  21.315  23.311  1.00  0.00     0.000 C 
BRANCH  77  83
ATOM     83  C   UNL A   1      32.872  24.417  25.446  1.00  0.00     0.044 C 
BRANCH  83  84
ATOM     84  C   UNL A   1      34.158  23.769  25.890  1.00  0.00    -0.025 C 
ATOM     85  C   UNL A   1      35.284  23.777  25.154  1.00  0.00     0.004 C 
BRANCH  85  86
ATOM     86  C   UNL A   1      36.540  23.083  25.493  1.00  0.00    -0.026 A 
ATOM     87  C   UNL A   1      37.552  23.800  26.146  1.00  0.00     0.008 A 
ATOM     88  C   UNL A   1      36.814  21.770  25.087  1.00  0.00     0.008 A 
ATOM     89  C   UNL A   1      38.805  23.223  26.379  1.00  0.00     0.001 A 
ATOM     90  C   UNL A   1      38.069  21.195  25.311  1.00  0.00     0.001 A 
ATOM     91  C   UNL A   1      39.067  21.925  25.952  1.00  0.00     0.000 A 
ENDBRANCH  85  86
ENDBRANCH  83  84
ENDBRANCH  77  83
ENDBRANCH  74  77
ENDBRANCH  72  73
ENDBRANCH  71  72
ENDBRANCH  70  71
ENDBRANCH   1  70
TORSDOF 19
ENDMDL
MODEL 2
REMARK VINA RESULT:     -10.6      2.541      3.209
REMARK SMILES O=C(NCCCCCCNC(=O)C1(C/C=C/c2ccccc2)CCCCC1)c1ccc(-c2c3nc(c(-c4ccc(S(=O)(=O)[O-])cc4)c4ccc([nH]4)c(-c4ccc(S(=O)(=O)[O-])cc4)c4nc(c(-c5ccc(S(=O)(=O)[O-])cc5)c5ccc2[nH]5)C=C4)C=C3)cc1
REMARK SMILES IDX 6 1 5 2 4 3 3 4 1 5 2 6 28 8 29 9 87 10 30 11 86 12 31 13
REMARK SMILES IDX 32 14 33 15 80 16 34 17 85 18 79 19 81 20 35 21 84 22 78 23
REMARK SMILES IDX 77 24 36 26 66 27 47 28 65 29 48 30 51 31 64 32 82 33 49 34
REMARK SMILES IDX 50 35 63 37 83 38 52 39 37 40 38 41 46 42 39 43 45 44 40 45
REMARK SMILES IDX 41 46 42 47 43 48 44 49 67 50 68 51 76 52 69 53 75 54 70 55
REMARK SMILES IDX 71 56 72 57 73 58 74 59 53 60 54 61 62 62 55 63 61 64 56 65
REMARK SMILES IDX 57 66 58 67 59 68 60 69 7 70 8 71 9 72 10 73 11 74 12 76
REMARK SMILES IDX 13 77 23 78 27 79 24 80 26 81 25 82 14 83 15 84 16 85 17 86
REMARK SMILES IDX 18 87 22 88 19 89 21 90 20 91
REMARK H PARENT 3 7 81 25 51 36 10 75
REMARK Flexibility Score: inf
ROOT
ATOM      1  C   UNL A   1      31.760  27.679  26.432  1.00  0.00     0.002 C 
ENDROOT
BRANCH   1   2
ATOM      2  C   UNL A   1      33.129  28.151  26.923  1.00  0.00     0.021 C 
BRANCH   2   3
ATOM      3  C   UNL A   1      33.777  29.226  26.060  1.00  0.00     0.116 C 
BRANCH   3   4
ATOM      4  N   UNL A   1      33.555  30.554  26.602  1.00  0.00    -0.352 N 
ATOM      5  O   UNL A   1      33.708  32.220  28.101  1.00  0.00    -0.269 OA
ATOM      6  C   UNL A   1      34.202  31.201  27.626  1.00  0.00     0.251 C 
ATOM      7  H   UNL A   1      32.833  31.067  26.172  1.00  0.00     0.163 HD
BRANCH   6   8
ATOM      8  C   UNL A   1      35.487  30.685  28.159  1.00  0.00     0.039 A 
ATOM      9  C   UNL A   1      36.710  31.180  27.702  1.00  0.00     0.014 A 
ATOM     10  C   UNL A   1      35.465  29.746  29.196  1.00  0.00     0.014 A 
ATOM     11  C   UNL A   1      37.904  30.669  28.205  1.00  0.00     0.010 A 
ATOM     12  C   UNL A   1      36.664  29.301  29.766  1.00  0.00     0.010 A 
ATOM     13  C   UNL A   1      37.894  29.759  29.274  1.00  0.00    -0.014 A 
BRANCH  13  14
ATOM     14  C   UNL A   1      39.175  29.427  29.952  1.00  0.00     0.031 A 
ATOM     15  C   UNL A   1      40.091  28.355  29.431  1.00  0.00     0.074 A 
ATOM     16  C   UNL A   1      39.502  30.120  31.062  1.00  0.00     0.049 A 
ATOM     17  N   UNL A   1      41.244  27.962  29.912  1.00  0.00    -0.248 NA
ATOM     18  C   UNL A   1      39.664  27.625  28.227  1.00  0.00     0.031 C 
ATOM     19  C   UNL A   1      38.677  31.167  31.676  1.00  0.00     0.029 A 
ATOM     20  N   UNL A   1      40.613  30.069  31.864  1.00  0.00    -0.354 N 
ATOM     21  C   UNL A   1      41.671  26.928  29.087  1.00  0.00     0.074 A 
ATOM     22  C   UNL A   1      40.648  26.745  28.079  1.00  0.00     0.031 C 
ATOM     23  C   UNL A   1      39.328  31.687  32.726  1.00  0.00     0.029 A 
ATOM     24  C   UNL A   1      40.582  30.967  32.905  1.00  0.00     0.049 A 
ATOM     25  H   UNL A   1      41.361  29.447  31.709  1.00  0.00     0.167 HD
ATOM     26  C   UNL A   1      42.811  26.202  29.169  1.00  0.00     0.031 A 
ATOM     27  C   UNL A   1      41.450  31.178  33.912  1.00  0.00     0.031 A 
ATOM     28  C   UNL A   1      43.827  26.397  30.172  1.00  0.00     0.049 A 
ATOM     29  C   UNL A   1      42.694  30.341  33.982  1.00  0.00     0.074 A 
ATOM     30  C   UNL A   1      45.043  25.745  30.300  1.00  0.00     0.029 A 
ATOM     31  N   UNL A   1      43.748  27.299  31.221  1.00  0.00    -0.354 N 
ATOM     32  N   UNL A   1      43.105  29.410  33.156  1.00  0.00    -0.248 NA
ATOM     33  C   UNL A   1      43.589  30.580  35.123  1.00  0.00     0.031 C 
ATOM     34  C   UNL A   1      45.672  26.212  31.459  1.00  0.00     0.029 A 
ATOM     35  C   UNL A   1      44.875  27.196  32.021  1.00  0.00     0.049 A 
ATOM     36  H   UNL A   1      43.001  27.921  31.376  1.00  0.00     0.167 HD
ATOM     37  C   UNL A   1      44.311  28.956  33.672  1.00  0.00     0.074 A 
ATOM     38  C   UNL A   1      44.578  29.736  34.864  1.00  0.00     0.031 C 
ATOM     39  C   UNL A   1      45.121  27.974  33.207  1.00  0.00     0.031 A 
BRANCH  26  40
ATOM     40  C   UNL A   1      43.031  25.105  28.160  1.00  0.00    -0.014 A 
ATOM     41  C   UNL A   1      43.610  25.372  26.907  1.00  0.00     0.010 A 
ATOM     42  C   UNL A   1      42.753  23.771  28.515  1.00  0.00     0.010 A 
ATOM     43  C   UNL A   1      43.895  24.327  26.023  1.00  0.00     0.020 A 
ATOM     44  C   UNL A   1      43.056  22.722  27.642  1.00  0.00     0.020 A 
ATOM     45  C   UNL A   1      43.620  23.008  26.398  1.00  0.00     0.054 A 
BRANCH  45  46
ATOM     46  S   UNL A   1      44.061  21.667  25.257  1.00  0.00     0.124 S 
ATOM     47  O   UNL A   1      43.936  22.325  23.958  1.00  0.00    -0.237 OA
ATOM     48  O   UNL A   1      45.425  21.336  25.663  1.00  0.00    -0.237 OA
ATOM     49  O   UNL A   1      43.065  20.635  25.530  1.00  0.00    -0.744 OA
ENDBRANCH  45  46
ENDBRANCH  26  40
BRANCH  27  50
ATOM     50  C   UNL A   1      41.148  32.192  34.957  1.00  0.00    -0.014 A 
ATOM     51  C   UNL A   1      40.403  31.852  36.099  1.00  0.00     0.010 A 
ATOM     52  C   UNL A   1      41.607  33.515  34.808  1.00  0.00     0.010 A 
ATOM     53  C   UNL A   1      40.097  32.823  37.057  1.00  0.00     0.020 A 
ATOM     54  C   UNL A   1      41.332  34.479  35.779  1.00  0.00     0.020 A 
ATOM     55  C   UNL A   1      40.561  34.131  36.889  1.00  0.00     0.054 A 
BRANCH  55  56
ATOM     56  S   UNL A   1      40.175  35.371  38.156  1.00  0.00     0.124 S 
ATOM     57  O   UNL A   1      39.802  36.524  37.343  1.00  0.00    -0.237 OA
ATOM     58  O   UNL A   1      39.088  34.739  38.899  1.00  0.00    -0.237 OA
ATOM     59  O   UNL A   1      41.429  35.503  38.895  1.00  0.00    -0.744 OA
ENDBRANCH  55  56
ENDBRANCH  27  50
BRANCH  39  60
ATOM     60  C   UNL A   1      46.381  27.704  33.982  1.00  0.00    -0.014 A 
ATOM     61  C   UNL A   1      46.405  26.749  35.014  1.00  0.00     0.010 A 
ATOM     62  C   UNL A   1      47.563  28.391  33.654  1.00  0.00     0.010 A 
ATOM     63  C   UNL A   1      47.582  26.511  35.727  1.00  0.00     0.020 A 
ATOM     64  C   UNL A   1      48.749  28.136  34.346  1.00  0.00     0.020 A 
ATOM     65  C   UNL A   1      48.746  27.208  35.389  1.00  0.00     0.054 A 
BRANCH  65  66
ATOM     66  S   UNL A   1      50.271  26.856  36.306  1.00  0.00     0.124 S 
ATOM     67  O   UNL A   1      50.851  25.767  35.525  1.00  0.00    -0.237 OA
ATOM     68  O   UNL A   1      50.986  28.128  36.241  1.00  0.00    -0.237 OA
ATOM     69  O   UNL A   1      49.795  26.484  37.637  1.00  0.00    -0.744 OA
ENDBRANCH  65  66
ENDBRANCH  39  60
ENDBRANCH  13  14
ENDBRANCH   6   8
ENDBRANCH   3   4
ENDBRANCH   2   3
ENDBRANCH   1   2
BRANCH   1  70
ATOM     70  C   UNL A   1      31.588  27.618  24.908  1.00  0.00     0.002 C 
BRANCH  70  71
ATOM     71  C   UNL A   1      30.246  27.071  24.408  1.00  0.00     0.021 C 
BRANCH  71  72
ATOM     72  C   UNL A   1      30.198  25.553  24.270  1.00  0.00     0.116 C 
BRANCH  72  73
ATOM     73  N   UNL A   1      30.196  24.878  25.548  1.00  0.00    -0.356 N 
ATOM     74  C   UNL A   1      31.046  23.992  26.124  1.00  0.00     0.226 C 
ATOM     75  H   UNL A   1      29.422  25.105  26.112  1.00  0.00     0.163 HD
ATOM     76  O   UNL A   1      30.805  23.749  27.315  1.00  0.00    -0.274 OA
BRANCH  74  77
ATOM     77  C   UNL A   1      32.260  23.327  25.406  1.00  0.00     0.053 C 
ATOM     78  C   UNL A   1      32.720  22.170  26.370  1.00  0.00     0.017 C 
ATOM     79  C   UNL A   1      31.859  22.658  24.067  1.00  0.00     0.017 C 
ATOM     80  C   UNL A   1      33.761  21.213  25.792  1.00  0.00     0.001 C 
ATOM     81  C   UNL A   1      32.918  21.721  23.489  1.00  0.00     0.001 C 
ATOM     82  C   UNL A   1      33.304  20.625  24.467  1.00  0.00     0.000 C 
BRANCH  77  83
ATOM     83  C   UNL A   1      33.445  24.343  25.308  1.00  0.00     0.044 C 
BRANCH  83  84
ATOM     84  C   UNL A   1      34.787  23.928  25.852  1.00  0.00    -0.025 C 
ATOM     85  C   UNL A   1      35.921  23.955  25.127  1.00  0.00     0.004 C 
BRANCH  85  86
ATOM     86  C   UNL A   1      37.241  23.475  25.575  1.00  0.00    -0.026 A 
ATOM     87  C   UNL A   1      37.613  22.155  25.285  1.00  0.00     0.008 A 
ATOM     88  C   UNL A   1      38.094  24.242  26.380  1.00  0.00     0.008 A 
ATOM     89  C   UNL A   1      38.799  21.615  25.791  1.00  0.00     0.001 A 
ATOM     90  C   UNL A   1      39.277  23.701  26.894  1.00  0.00     0.001 A 
ATOM     91  C   UNL A   1      39.626  22.385  26.605  1.00  0.00     0.000 A 
ENDBRANCH  85  86
ENDBRANCH  83  84
ENDBRANCH  77  83
ENDBRANCH  74  77
ENDBRANCH  72  73
ENDBRANCH  71  72
ENDBRANCH  70  71
ENDBRANCH   1  70
TORSDOF 19
ENDMDL
MODEL 3
REMARK VINA RESULT:     -10.4      2.799      8.639
REMARK SMILES O=C(NCCCCCCNC(=O)C1(C/C=C/c2ccccc2)CCCCC1)c1ccc(-c2c3nc(c(-c4ccc(S(=O)(=O)[O-])cc4)c4ccc([nH]4)c(-c4ccc(S(=O)(=O)[O-])cc4)c4nc(c(-c5ccc(S(=O)(=O)[O-])cc5)c5ccc2[nH]5)C=C4)C=C3)cc1
REMARK SMILES IDX 6 1 5 2 4 3 3 4 1 5 2 6 28 8 29 9 87 10 30 11 86 12 31 13
REMARK SMILES IDX 32 14 33 15 80 16 34 17 85 18 79 19 81 20 35 21 84 22 78 23
REMARK SMILES IDX 77 24 36 26 66 27 47 28 65 29 48 30 51 31 64 32 82 33 49 34
REMARK SMILES IDX 50 35 63 37 83 38 52 39 37 40 38 41 46 42 39 43 45 44 40 45
REMARK SMILES IDX 41 46 42 47 43 48 44 49 67 50 68 51 76 52 69 53 75 54 70 55
REMARK SMILES IDX 71 56 72 57 73 58 74 59 53 60 54 61 62 62 55 63 61 64 56 65
REMARK SMILES IDX 57 66 58 67 59 68 60 69 7 70 8 71 9 72 10 73 11 74 12 76
REMARK SMILES IDX 13 77 23 78 27 79 24 80 26 81 25 82 14 83 15 84 16 85 17 86
REMARK SMILES IDX 18 87 22 88 19 89 21 90 20 91
REMARK H PARENT 3 7 81 25 51 36 10 75
REMARK Flexibility Score: inf
ROOT
ATOM      1  C   UNL A   1      33.087  29.060  26.891  1.00  0.00     0.002 C 
ENDROOT
BRANCH   1   2
ATOM      2  C   UNL A   1      34.279  30.014  26.981  1.00  0.00     0.021 C 
BRANCH   2   3
ATOM      3  C   UNL A   1      35.490  29.450  27.711  1.00  0.00     0.116 C 
BRANCH   3   4
ATOM      4  N   UNL A   1      35.415  29.691  29.140  1.00  0.00    -0.352 N 
ATOM      5  O   UNL A   1      36.081  29.594  31.284  1.00  0.00    -0.269 OA
ATOM      6  C   UNL A   1      36.396  29.593  30.097  1.00  0.00     0.251 C 
ATOM      7  H   UNL A   1      34.530  29.966  29.473  1.00  0.00     0.163 HD
BRANCH   6   8
ATOM      8  C   UNL A   1      37.825  29.487  29.712  1.00  0.00     0.039 A 
ATOM      9  C   UNL A   1      38.808  29.193  30.660  1.00  0.00     0.014 A 
ATOM     10  C   UNL A   1      38.176  29.600  28.363  1.00  0.00     0.014 A 
ATOM     11  C   UNL A   1      40.145  29.114  30.278  1.00  0.00     0.010 A 
ATOM     12  C   UNL A   1      39.508  29.429  27.967  1.00  0.00     0.010 A 
ATOM     13  C   UNL A   1      40.504  29.184  28.923  1.00  0.00    -0.014 A 
BRANCH  13  14
ATOM     14  C   UNL A   1      41.896  28.847  28.526  1.00  0.00     0.031 A 
ATOM     15  C   UNL A   1      42.984  29.884  28.494  1.00  0.00     0.074 A 
ATOM     16  C   UNL A   1      42.167  27.569  28.189  1.00  0.00     0.049 A 
ATOM     17  N   UNL A   1      44.246  29.734  28.178  1.00  0.00    -0.248 NA
ATOM     18  C   UNL A   1      42.617  31.262  28.855  1.00  0.00     0.031 C 
ATOM     19  C   UNL A   1      41.183  26.479  28.156  1.00  0.00     0.029 A 
ATOM     20  N   UNL A   1      43.340  26.959  27.826  1.00  0.00    -0.354 N 
ATOM     21  C   UNL A   1      44.818  30.996  28.279  1.00  0.00     0.074 A 
ATOM     22  C   UNL A   1      43.764  31.905  28.676  1.00  0.00     0.031 C 
ATOM     23  C   UNL A   1      41.801  25.333  27.839  1.00  0.00     0.029 A 
ATOM     24  C   UNL A   1      43.207  25.612  27.577  1.00  0.00     0.049 A 
ATOM     25  H   UNL A   1      44.196  27.440  27.750  1.00  0.00     0.167 HD
ATOM     26  C   UNL A   1      46.105  31.358  28.058  1.00  0.00     0.031 A 
ATOM     27  C   UNL A   1      44.105  24.702  27.159  1.00  0.00     0.031 A 
ATOM     28  C   UNL A   1      47.149  30.443  27.669  1.00  0.00     0.049 A 
ATOM     29  C   UNL A   1      45.517  25.141  26.905  1.00  0.00     0.074 A 
ATOM     30  C   UNL A   1      48.495  30.710  27.477  1.00  0.00     0.029 A 
ATOM     31  N   UNL A   1      46.969  29.095  27.405  1.00  0.00    -0.354 N 
ATOM     32  N   UNL A   1      46.049  26.329  27.066  1.00  0.00    -0.248 NA
ATOM     33  C   UNL A   1      46.450  24.120  26.410  1.00  0.00     0.031 C 
ATOM     34  C   UNL A   1      49.117  29.536  27.041  1.00  0.00     0.029 A 
ATOM     35  C   UNL A   1      48.171  28.524  27.016  1.00  0.00     0.049 A 
ATOM     36  H   UNL A   1      46.114  28.613  27.480  1.00  0.00     0.167 HD
ATOM     37  C   UNL A   1      47.381  26.197  26.698  1.00  0.00     0.074 A 
ATOM     38  C   UNL A   1      47.581  24.807  26.338  1.00  0.00     0.031 C 
ATOM     39  C   UNL A   1      48.351  27.142  26.654  1.00  0.00     0.031 A 
BRANCH  26  40
ATOM     40  C   UNL A   1      46.473  32.811  28.208  1.00  0.00    -0.014 A 
ATOM     41  C   UNL A   1      46.346  33.709  27.134  1.00  0.00     0.010 A 
ATOM     42  C   UNL A   1      46.846  33.305  29.472  1.00  0.00     0.010 A 
ATOM     43  C   UNL A   1      46.599  35.072  27.319  1.00  0.00     0.020 A 
ATOM     44  C   UNL A   1      47.080  34.669  29.666  1.00  0.00     0.020 A 
ATOM     45  C   UNL A   1      46.960  35.544  28.585  1.00  0.00     0.054 A 
BRANCH  45  46
ATOM     46  S   UNL A   1      47.218  37.326  28.809  1.00  0.00     0.124 S 
ATOM     47  O   UNL A   1      45.906  37.866  28.459  1.00  0.00    -0.237 OA
ATOM     48  O   UNL A   1      47.579  37.423  30.222  1.00  0.00    -0.237 OA
ATOM     49  O   UNL A   1      48.292  37.643  27.871  1.00  0.00    -0.744 OA
ENDBRANCH  45  46
ENDBRANCH  26  40
BRANCH  27  50
ATOM     50  C   UNL A   1      43.683  23.298  26.911  1.00  0.00    -0.014 A 
ATOM     51  C   UNL A   1      43.617  22.784  25.605  1.00  0.00     0.010 A 
ATOM     52  C   UNL A   1      43.339  22.464  27.993  1.00  0.00     0.010 A 
ATOM     53  C   UNL A   1      43.185  21.473  25.382  1.00  0.00     0.020 A 
ATOM     54  C   UNL A   1      42.940  21.144  27.777  1.00  0.00     0.020 A 
ATOM     55  C   UNL A   1      42.847  20.662  26.470  1.00  0.00     0.054 A 
BRANCH  55  56
ATOM     56  S   UNL A   1      42.314  18.955  26.164  1.00  0.00     0.124 S 
ATOM     57  O   UNL A   1      42.525  18.336  27.468  1.00  0.00    -0.237 OA
ATOM     58  O   UNL A   1      40.921  19.125  25.759  1.00  0.00    -0.237 OA
ATOM     59  O   UNL A   1      43.212  18.505  25.102  1.00  0.00    -0.744 OA
ENDBRANCH  55  56
ENDBRANCH  27  50
BRANCH  39  60
ATOM     60  C   UNL A   1      49.719  26.697  26.216  1.00  0.00    -0.014 A 
ATOM     61  C   UNL A   1      50.103  26.764  24.865  1.00  0.00     0.010 A 
ATOM     62  C   UNL A   1      50.642  26.237  27.172  1.00  0.00     0.010 A 
ATOM     63  C   UNL A   1      51.376  26.344  24.472  1.00  0.00     0.020 A 
ATOM     64  C   UNL A   1      51.925  25.843  26.787  1.00  0.00     0.020 A 
ATOM     65  C   UNL A   1      52.279  25.885  25.437  1.00  0.00     0.054 A 
BRANCH  65  66
ATOM     66  S   UNL A   1      53.938  25.379  24.907  1.00  0.00     0.124 S 
ATOM     67  O   UNL A   1      54.047  26.017  23.598  1.00  0.00    -0.237 OA
ATOM     68  O   UNL A   1      54.793  25.937  25.952  1.00  0.00    -0.237 OA
ATOM     69  O   UNL A   1      53.864  23.919  24.885  1.00  0.00    -0.744 OA
ENDBRANCH  65  66
ENDBRANCH  39  60
ENDBRANCH  13  14
ENDBRANCH   6   8
ENDBRANCH   3   4
ENDBRANCH   2   3
ENDBRANCH   1   2
BRANCH   1  70
ATOM     70  C   UNL A   1      33.425  27.616  26.493  1.00  0.00     0.002 C 
BRANCH  70  71
ATOM     71  C   UNL A   1      32.583  27.021  25.359  1.00  0.00     0.021 C 
BRANCH  71  72
ATOM     72  C   UNL A   1      31.198  26.548  25.786  1.00  0.00     0.116 C 
BRANCH  72  73
ATOM     73  N   UNL A   1      31.247  25.415  26.684  1.00  0.00    -0.356 N 
ATOM     74  C   UNL A   1      31.775  24.171  26.570  1.00  0.00     0.226 C 
ATOM     75  H   UNL A   1      30.810  25.581  27.550  1.00  0.00     0.163 HD
ATOM     76  O   UNL A   1      31.771  23.515  27.622  1.00  0.00    -0.274 OA
BRANCH  74  77
ATOM     77  C   UNL A   1      32.377  23.575  25.261  1.00  0.00     0.053 C 
ATOM     78  C   UNL A   1      32.869  22.133  25.659  1.00  0.00     0.017 C 
ATOM     79  C   UNL A   1      31.310  23.390  24.152  1.00  0.00     0.017 C 
ATOM     80  C   UNL A   1      33.301  21.246  24.493  1.00  0.00     0.001 C 
ATOM     81  C   UNL A   1      31.762  22.518  22.981  1.00  0.00     0.001 C 
ATOM     82  C   UNL A   1      32.212  21.142  23.438  1.00  0.00     0.000 C 
BRANCH  77  83
ATOM     83  C   UNL A   1      33.639  24.392  24.833  1.00  0.00     0.044 C 
BRANCH  83  84
ATOM     84  C   UNL A   1      34.951  24.085  25.507  1.00  0.00    -0.025 C 
ATOM     85  C   UNL A   1      36.067  23.746  24.837  1.00  0.00     0.004 C 
BRANCH  85  86
ATOM     86  C   UNL A   1      37.349  23.346  25.445  1.00  0.00    -0.026 A 
ATOM     87  C   UNL A   1      37.819  22.042  25.231  1.00  0.00     0.008 A 
ATOM     88  C   UNL A   1      38.063  24.171  26.325  1.00  0.00     0.008 A 
ATOM     89  C   UNL A   1      38.964  21.575  25.883  1.00  0.00     0.001 A 
ATOM     90  C   UNL A   1      39.203  23.702  26.985  1.00  0.00     0.001 A 
ATOM     91  C   UNL A   1      39.650  22.402  26.768  1.00  0.00     0.000 A 
ENDBRANCH  85  86
ENDBRANCH  83  84
ENDBRANCH  77  83
ENDBRANCH  74  77
ENDBRANCH  72  73
ENDBRANCH  71  72
ENDBRANCH  70  71
ENDBRANCH   1  70
TORSDOF 19
ENDMDL
