MODEL 1
REMARK VINA RESULT:     -10.7      0.000      0.000
REMARK SMILES O=C(NCCCCCCNC(=O)[C@H]1C=C[C@H](NS(=O)(=O)c2ccc(F)c(F)c2F)C1)c1ccc(-c2c3nc(c(-c4ccc(S(=O)(=O)[O-])cc4)c4ccc([nH]4)c(-c4ccc(S(=O)(=O)[O-])cc4)c4nc(c(-c5ccc(S(=O)(=O)[O-])cc5)c5ccc2[nH]5)C=C4)C=C3)cc1
REMARK SMILES IDX 6 1 5 2 4 3 3 4 1 5 2 6 31 8 32 9 90 10 33 11 89 12 34 13
REMARK SMILES IDX 35 14 36 15 83 16 37 17 88 18 82 19 84 20 38 21 87 22 81 23
REMARK SMILES IDX 80 24 39 26 69 27 50 28 68 29 51 30 54 31 67 32 85 33 52 34
REMARK SMILES IDX 53 35 66 37 86 38 55 39 40 40 41 41 49 42 42 43 48 44 43 45
REMARK SMILES IDX 44 46 45 47 46 48 47 49 70 50 71 51 79 52 72 53 78 54 73 55
REMARK SMILES IDX 74 56 75 57 76 58 77 59 56 60 57 61 65 62 58 63 64 64 59 65
REMARK SMILES IDX 60 66 61 67 62 68 63 69 7 70 8 71 9 72 10 73 11 74 12 76
REMARK SMILES IDX 13 77 14 78 30 79 15 80 16 81 17 82 18 84 19 85 20 86 21 87
REMARK SMILES IDX 22 88 28 89 23 90 26 91 29 92 24 93 27 94 25 95
REMARK H PARENT 3 7 84 25 54 36 10 75 17 83
REMARK Flexibility Score: inf
ROOT
ATOM      1  C   UNL A   1      45.628  22.912  26.690  1.00  0.00     0.002 C 
ENDROOT
BRANCH   1   2
ATOM      2  C   UNL A   1      46.311  24.269  26.858  1.00  0.00     0.021 C 
BRANCH   2   3
ATOM      3  C   UNL A   1      45.347  25.446  26.906  1.00  0.00     0.116 C 
BRANCH   3   4
ATOM      4  N   UNL A   1      44.374  25.406  25.824  1.00  0.00    -0.352 N 
ATOM      5  O   UNL A   1      42.325  25.551  24.887  1.00  0.00    -0.269 OA
ATOM      6  C   UNL A   1      43.067  25.832  25.821  1.00  0.00     0.251 C 
ATOM      7  H   UNL A   1      44.696  25.020  24.977  1.00  0.00     0.163 HD
BRANCH   6   8
ATOM      8  C   UNL A   1      42.562  26.609  26.973  1.00  0.00     0.039 A 
ATOM      9  C   UNL A   1      42.886  27.961  27.100  1.00  0.00     0.014 A 
ATOM     10  C   UNL A   1      41.797  25.973  27.953  1.00  0.00     0.014 A 
ATOM     11  C   UNL A   1      42.605  28.623  28.287  1.00  0.00     0.010 A 
ATOM     12  C   UNL A   1      41.419  26.678  29.099  1.00  0.00     0.010 A 
ATOM     13  C   UNL A   1      41.859  27.996  29.298  1.00  0.00    -0.014 A 
BRANCH  13  14
ATOM     14  C   UNL A   1      41.528  28.760  30.530  1.00  0.00     0.031 A 
ATOM     15  C   UNL A   1      42.383  28.663  31.766  1.00  0.00     0.074 A 
ATOM     16  C   UNL A   1      40.462  29.587  30.508  1.00  0.00     0.049 A 
ATOM     17  N   UNL A   1      42.263  29.308  32.899  1.00  0.00    -0.248 NA
ATOM     18  C   UNL A   1      43.513  27.721  31.732  1.00  0.00     0.031 C 
ATOM     19  C   UNL A   1      39.556  29.764  29.368  1.00  0.00     0.029 A 
ATOM     20  N   UNL A   1      39.977  30.455  31.452  1.00  0.00    -0.354 N 
ATOM     21  C   UNL A   1      43.278  28.831  33.722  1.00  0.00     0.074 A 
ATOM     22  C   UNL A   1      43.992  27.825  32.966  1.00  0.00     0.031 C 
ATOM     23  C   UNL A   1      38.671  30.728  29.656  1.00  0.00     0.029 A 
ATOM     24  C   UNL A   1      38.894  31.183  31.021  1.00  0.00     0.049 A 
ATOM     25  H   UNL A   1      40.368  30.546  32.351  1.00  0.00     0.167 HD
ATOM     26  C   UNL A   1      43.588  29.201  34.990  1.00  0.00     0.031 A 
ATOM     27  C   UNL A   1      38.150  32.108  31.656  1.00  0.00     0.031 A 
ATOM     28  C   UNL A   1      42.873  30.206  35.734  1.00  0.00     0.049 A 
ATOM     29  C   UNL A   1      38.499  32.477  33.068  1.00  0.00     0.074 A 
ATOM     30  C   UNL A   1      43.133  30.679  37.009  1.00  0.00     0.029 A 
ATOM     31  N   UNL A   1      41.753  30.889  35.279  1.00  0.00    -0.354 N 
ATOM     32  N   UNL A   1      39.487  32.042  33.813  1.00  0.00    -0.248 NA
ATOM     33  C   UNL A   1      37.637  33.468  33.722  1.00  0.00     0.031 C 
ATOM     34  C   UNL A   1      42.135  31.598  37.349  1.00  0.00     0.029 A 
ATOM     35  C   UNL A   1      41.295  31.755  36.258  1.00  0.00     0.049 A 
ATOM     36  H   UNL A   1      41.345  30.773  34.390  1.00  0.00     0.167 HD
ATOM     37  C   UNL A   1      39.383  32.730  35.015  1.00  0.00     0.074 A 
ATOM     38  C   UNL A   1      38.247  33.622  34.889  1.00  0.00     0.031 C 
ATOM     39  C   UNL A   1      40.161  32.635  36.122  1.00  0.00     0.031 A 
BRANCH  26  40
ATOM     40  C   UNL A   1      44.729  28.487  35.672  1.00  0.00    -0.014 A 
ATOM     41  C   UNL A   1      46.067  28.875  35.473  1.00  0.00     0.010 A 
ATOM     42  C   UNL A   1      44.451  27.438  36.570  1.00  0.00     0.010 A 
ATOM     43  C   UNL A   1      47.105  28.200  36.125  1.00  0.00     0.020 A 
ATOM     44  C   UNL A   1      45.484  26.781  37.246  1.00  0.00     0.020 A 
ATOM     45  C   UNL A   1      46.806  27.155  37.004  1.00  0.00     0.054 A 
BRANCH  45  46
ATOM     46  S   UNL A   1      48.172  26.308  37.848  1.00  0.00     0.124 S 
ATOM     47  O   UNL A   1      48.706  27.371  38.695  1.00  0.00    -0.237 OA
ATOM     48  O   UNL A   1      47.489  25.227  38.554  1.00  0.00    -0.237 OA
ATOM     49  O   UNL A   1      49.045  25.884  36.757  1.00  0.00    -0.744 OA
ENDBRANCH  45  46
ENDBRANCH  26  40
BRANCH  27  50
ATOM     50  C   UNL A   1      37.001  32.744  30.953  1.00  0.00    -0.014 A 
ATOM     51  C   UNL A   1      35.692  32.271  31.148  1.00  0.00     0.010 A 
ATOM     52  C   UNL A   1      37.213  33.841  30.098  1.00  0.00     0.010 A 
ATOM     53  C   UNL A   1      34.618  32.872  30.484  1.00  0.00     0.020 A 
ATOM     54  C   UNL A   1      36.139  34.466  29.460  1.00  0.00     0.020 A 
ATOM     55  C   UNL A   1      34.848  33.967  29.647  1.00  0.00     0.054 A 
BRANCH  55  56
ATOM     56  S   UNL A   1      33.434  34.757  28.832  1.00  0.00     0.124 S 
ATOM     57  O   UNL A   1      33.006  33.720  27.898  1.00  0.00    -0.237 OA
ATOM     58  O   UNL A   1      32.531  35.014  29.950  1.00  0.00    -0.237 OA
ATOM     59  O   UNL A   1      34.014  35.951  28.222  1.00  0.00    -0.744 OA
ENDBRANCH  55  56
ENDBRANCH  27  50
BRANCH  39  60
ATOM     60  C   UNL A   1      39.839  33.558  37.269  1.00  0.00    -0.014 A 
ATOM     61  C   UNL A   1      38.921  33.199  38.272  1.00  0.00     0.010 A 
ATOM     62  C   UNL A   1      40.492  34.803  37.353  1.00  0.00     0.010 A 
ATOM     63  C   UNL A   1      38.625  34.087  39.310  1.00  0.00     0.020 A 
ATOM     64  C   UNL A   1      40.225  35.679  38.407  1.00  0.00     0.020 A 
ATOM     65  C   UNL A   1      39.277  35.322  39.369  1.00  0.00     0.054 A 
BRANCH  65  66
ATOM     66  S   UNL A   1      38.892  36.449  40.737  1.00  0.00     0.124 S 
ATOM     67  O   UNL A   1      37.879  35.698  41.472  1.00  0.00    -0.237 OA
ATOM     68  O   UNL A   1      40.181  36.589  41.409  1.00  0.00    -0.237 OA
ATOM     69  O   UNL A   1      38.410  37.655  40.068  1.00  0.00    -0.744 OA
ENDBRANCH  65  66
ENDBRANCH  39  60
ENDBRANCH  13  14
ENDBRANCH   6   8
ENDBRANCH   3   4
ENDBRANCH   2   3
ENDBRANCH   1   2
BRANCH   1  70
ATOM     70  C   UNL A   1      45.795  22.282  25.303  1.00  0.00     0.002 C 
BRANCH  70  71
ATOM     71  C   UNL A   1      44.488  22.099  24.518  1.00  0.00     0.021 C 
BRANCH  71  72
ATOM     72  C   UNL A   1      43.291  21.783  25.413  1.00  0.00     0.116 C 
BRANCH  72  73
ATOM     73  N   UNL A   1      43.015  20.362  25.371  1.00  0.00    -0.356 N 
ATOM     74  C   UNL A   1      42.146  19.614  26.100  1.00  0.00     0.226 C 
ATOM     75  H   UNL A   1      43.540  19.859  24.709  1.00  0.00     0.163 HD
ATOM     76  O   UNL A   1      42.286  18.387  26.066  1.00  0.00    -0.274 OA
BRANCH  74  77
ATOM     77  C   UNL A   1      40.935  20.227  26.811  1.00  0.00     0.103 C 
ATOM     78  C   UNL A   1      41.077  21.479  27.612  1.00  0.00    -0.016 C 
ATOM     79  C   UNL A   1      39.862  20.572  25.775  1.00  0.00     0.042 C 
ATOM     80  C   UNL A   1      40.204  22.418  27.226  1.00  0.00    -0.011 C 
ATOM     81  C   UNL A   1      39.397  22.008  26.036  1.00  0.00     0.093 C 
BRANCH  81  82
ATOM     82  N   UNL A   1      37.982  22.018  26.368  1.00  0.00    -0.204 NA
ATOM     83  H   UNL A   1      37.908  22.363  27.325  1.00  0.00     0.142 HD
BRANCH  82  84
ATOM     84  S   UNL A   1      36.900  22.914  25.448  1.00  0.00     0.244 S 
ATOM     85  O   UNL A   1      36.553  24.047  26.274  1.00  0.00    -0.207 OA
ATOM     86  O   UNL A   1      37.442  23.096  24.120  1.00  0.00    -0.207 OA
BRANCH  84  87
ATOM     87  C   UNL A   1      35.464  21.890  25.345  1.00  0.00     0.121 A 
ATOM     88  C   UNL A   1      34.200  22.403  25.665  1.00  0.00     0.028 A 
ATOM     89  C   UNL A   1      35.597  20.567  24.938  1.00  0.00     0.181 A 
ATOM     90  C   UNL A   1      33.087  21.557  25.641  1.00  0.00     0.044 A 
ATOM     91  C   UNL A   1      34.496  19.720  24.958  1.00  0.00     0.195 A 
ATOM     92  F   UNL A   1      36.789  20.063  24.591  1.00  0.00    -0.202 F 
ATOM     93  C   UNL A   1      33.247  20.214  25.311  1.00  0.00     0.161 A 
ATOM     94  F   UNL A   1      34.646  18.420  24.667  1.00  0.00    -0.200 F 
ATOM     95  F   UNL A   1      32.185  19.399  25.344  1.00  0.00    -0.204 F 
ENDBRANCH  84  87
ENDBRANCH  82  84
ENDBRANCH  81  82
ENDBRANCH  74  77
ENDBRANCH  72  73
ENDBRANCH  71  72
ENDBRANCH  70  71
ENDBRANCH   1  70
TORSDOF 19
ENDMDL
MODEL 2
REMARK VINA RESULT:     -10.6      4.741     12.278
REMARK SMILES O=C(NCCCCCCNC(=O)[C@H]1C=C[C@H](NS(=O)(=O)c2ccc(F)c(F)c2F)C1)c1ccc(-c2c3nc(c(-c4ccc(S(=O)(=O)[O-])cc4)c4ccc([nH]4)c(-c4ccc(S(=O)(=O)[O-])cc4)c4nc(c(-c5ccc(S(=O)(=O)[O-])cc5)c5ccc2[nH]5)C=C4)C=C3)cc1
REMARK SMILES IDX 6 1 5 2 4 3 3 4 1 5 2 6 31 8 32 9 90 10 33 11 89 12 34 13
REMARK SMILES IDX 35 14 36 15 83 16 37 17 88 18 82 19 84 20 38 21 87 22 81 23
REMARK SMILES IDX 80 24 39 26 69 27 50 28 68 29 51 30 54 31 67 32 85 33 52 34
REMARK SMILES IDX 53 35 66 37 86 38 55 39 40 40 41 41 49 42 42 43 48 44 43 45
REMARK SMILES IDX 44 46 45 47 46 48 47 49 70 50 71 51 79 52 72 53 78 54 73 55
REMARK SMILES IDX 74 56 75 57 76 58 77 59 56 60 57 61 65 62 58 63 64 64 59 65
REMARK SMILES IDX 60 66 61 67 62 68 63 69 7 70 8 71 9 72 10 73 11 74 12 76
REMARK SMILES IDX 13 77 14 78 30 79 15 80 16 81 17 82 18 84 19 85 20 86 21 87
REMARK SMILES IDX 22 88 28 89 23 90 26 91 29 92 24 93 27 94 25 95
REMARK H PARENT 3 7 84 25 54 36 10 75 17 83
REMARK Flexibility Score: inf
ROOT
ATOM      1  C   UNL A   1      34.984  32.514  31.389  1.00  0.00     0.002 C 
ENDROOT
BRANCH   1   2
ATOM      2  C   UNL A   1      34.511  33.286  30.158  1.00  0.00     0.021 C 
BRANCH   2   3
ATOM      3  C   UNL A   1      35.002  32.709  28.838  1.00  0.00     0.116 C 
BRANCH   3   4
ATOM      4  N   UNL A   1      34.154  31.625  28.361  1.00  0.00    -0.352 N 
ATOM      5  O   UNL A   1      33.702  29.621  27.425  1.00  0.00    -0.269 OA
ATOM      6  C   UNL A   1      34.511  30.352  27.985  1.00  0.00     0.251 C 
ATOM      7  H   UNL A   1      33.194  31.833  28.299  1.00  0.00     0.163 HD
BRANCH   6   8
ATOM      8  C   UNL A   1      35.890  29.887  28.241  1.00  0.00     0.039 A 
ATOM      9  C   UNL A   1      36.227  29.345  29.483  1.00  0.00     0.014 A 
ATOM     10  C   UNL A   1      36.863  30.032  27.249  1.00  0.00     0.014 A 
ATOM     11  C   UNL A   1      37.561  29.124  29.794  1.00  0.00     0.010 A 
ATOM     12  C   UNL A   1      38.192  29.702  27.531  1.00  0.00     0.010 A 
ATOM     13  C   UNL A   1      38.561  29.288  28.821  1.00  0.00    -0.014 A 
BRANCH  13  14
ATOM     14  C   UNL A   1      39.972  28.983  29.177  1.00  0.00     0.031 A 
ATOM     15  C   UNL A   1      40.800  29.945  29.987  1.00  0.00     0.074 A 
ATOM     16  C   UNL A   1      40.489  27.796  28.798  1.00  0.00     0.049 A 
ATOM     17  N   UNL A   1      42.025  29.801  30.429  1.00  0.00    -0.248 NA
ATOM     18  C   UNL A   1      40.185  31.233  30.342  1.00  0.00     0.031 C 
ATOM     19  C   UNL A   1      39.783  26.781  28.009  1.00  0.00     0.029 A 
ATOM     20  N   UNL A   1      41.710  27.226  29.050  1.00  0.00    -0.354 N 
ATOM     21  C   UNL A   1      42.337  30.987  31.086  1.00  0.00     0.074 A 
ATOM     22  C   UNL A   1      41.182  31.849  30.966  1.00  0.00     0.031 C 
ATOM     23  C   UNL A   1      40.556  25.692  27.899  1.00  0.00     0.029 A 
ATOM     24  C   UNL A   1      41.837  25.956  28.541  1.00  0.00     0.049 A 
ATOM     25  H   UNL A   1      42.427  27.683  29.547  1.00  0.00     0.167 HD
ATOM     26  C   UNL A   1      43.481  31.323  31.734  1.00  0.00     0.031 A 
ATOM     27  C   UNL A   1      42.873  25.096  28.572  1.00  0.00     0.031 A 
ATOM     28  C   UNL A   1      44.626  30.457  31.851  1.00  0.00     0.049 A 
ATOM     29  C   UNL A   1      44.135  25.507  29.271  1.00  0.00     0.074 A 
ATOM     30  C   UNL A   1      45.816  30.690  32.519  1.00  0.00     0.029 A 
ATOM     31  N   UNL A   1      44.731  29.195  31.282  1.00  0.00    -0.354 N 
ATOM     32  N   UNL A   1      44.395  26.617  29.920  1.00  0.00    -0.248 NA
ATOM     33  C   UNL A   1      45.243  24.545  29.249  1.00  0.00     0.031 C 
ATOM     34  C   UNL A   1      46.664  29.600  32.300  1.00  0.00     0.029 A 
ATOM     35  C   UNL A   1      45.976  28.652  31.559  1.00  0.00     0.049 A 
ATOM     36  H   UNL A   1      44.026  28.751  30.758  1.00  0.00     0.167 HD
ATOM     37  C   UNL A   1      45.687  26.473  30.410  1.00  0.00     0.074 A 
ATOM     38  C   UNL A   1      46.147  25.162  29.997  1.00  0.00     0.031 C 
ATOM     39  C   UNL A   1      46.424  27.347  31.140  1.00  0.00     0.031 A 
BRANCH  26  40
ATOM     40  C   UNL A   1      43.569  32.704  32.334  1.00  0.00    -0.014 A 
ATOM     41  C   UNL A   1      43.193  32.956  33.667  1.00  0.00     0.010 A 
ATOM     42  C   UNL A   1      44.087  33.763  31.563  1.00  0.00     0.010 A 
ATOM     43  C   UNL A   1      43.292  34.245  34.201  1.00  0.00     0.020 A 
ATOM     44  C   UNL A   1      44.216  35.047  32.102  1.00  0.00     0.020 A 
ATOM     45  C   UNL A   1      43.800  35.283  33.413  1.00  0.00     0.054 A 
BRANCH  45  46
ATOM     46  S   UNL A   1      43.933  36.942  34.137  1.00  0.00     0.124 S 
ATOM     47  O   UNL A   1      42.568  37.176  34.602  1.00  0.00    -0.237 OA
ATOM     48  O   UNL A   1      44.929  36.753  35.188  1.00  0.00    -0.237 OA
ATOM     49  O   UNL A   1      44.360  37.777  33.018  1.00  0.00    -0.744 OA
ENDBRANCH  45  46
ENDBRANCH  26  40
BRANCH  27  50
ATOM     50  C   UNL A   1      42.751  23.765  27.917  1.00  0.00    -0.014 A 
ATOM     51  C   UNL A   1      42.328  22.642  28.648  1.00  0.00     0.010 A 
ATOM     52  C   UNL A   1      43.041  23.620  26.547  1.00  0.00     0.010 A 
ATOM     53  C   UNL A   1      42.217  21.395  28.027  1.00  0.00     0.020 A 
ATOM     54  C   UNL A   1      42.898  22.383  25.915  1.00  0.00     0.020 A 
ATOM     55  C   UNL A   1      42.500  21.274  26.664  1.00  0.00     0.054 A 
BRANCH  55  56
ATOM     56  S   UNL A   1      42.306  19.655  25.871  1.00  0.00     0.124 S 
ATOM     57  O   UNL A   1      43.311  19.713  24.814  1.00  0.00    -0.237 OA
ATOM     58  O   UNL A   1      42.591  18.732  26.966  1.00  0.00    -0.237 OA
ATOM     59  O   UNL A   1      40.917  19.661  25.417  1.00  0.00    -0.744 OA
ENDBRANCH  55  56
ENDBRANCH  27  50
BRANCH  39  60
ATOM     60  C   UNL A   1      47.789  26.891  31.584  1.00  0.00    -0.014 A 
ATOM     61  C   UNL A   1      48.950  27.221  30.861  1.00  0.00     0.010 A 
ATOM     62  C   UNL A   1      47.911  26.135  32.765  1.00  0.00     0.010 A 
ATOM     63  C   UNL A   1      50.201  26.762  31.284  1.00  0.00     0.020 A 
ATOM     64  C   UNL A   1      49.163  25.704  33.211  1.00  0.00     0.020 A 
ATOM     65  C   UNL A   1      50.298  26.004  32.455  1.00  0.00     0.054 A 
BRANCH  65  66
ATOM     66  S   UNL A   1      51.934  25.437  32.995  1.00  0.00     0.124 S 
ATOM     67  O   UNL A   1      52.638  25.288  31.725  1.00  0.00    -0.237 OA
ATOM     68  O   UNL A   1      52.390  26.537  33.841  1.00  0.00    -0.237 OA
ATOM     69  O   UNL A   1      51.653  24.190  33.703  1.00  0.00    -0.744 OA
ENDBRANCH  65  66
ENDBRANCH  39  60
ENDBRANCH  13  14
ENDBRANCH   6   8
ENDBRANCH   3   4
ENDBRANCH   2   3
ENDBRANCH   1   2
BRANCH   1  70
ATOM     70  C   UNL A   1      36.506  32.371  31.505  1.00  0.00     0.002 C 
BRANCH  70  71
ATOM     71  C   UNL A   1      36.984  31.532  32.698  1.00  0.00     0.021 C 
BRANCH  71  72
ATOM     72  C   UNL A   1      37.499  32.379  33.860  1.00  0.00     0.116 C 
BRANCH  72  73
ATOM     73  N   UNL A   1      37.500  31.588  35.074  1.00  0.00    -0.356 N 
ATOM     74  C   UNL A   1      38.511  30.911  35.679  1.00  0.00     0.226 C 
ATOM     75  H   UNL A   1      36.631  31.532  35.532  1.00  0.00     0.163 HD
ATOM     76  O   UNL A   1      38.203  30.096  36.555  1.00  0.00    -0.274 OA
BRANCH  74  77
ATOM     77  C   UNL A   1      39.985  31.242  35.426  1.00  0.00     0.103 C 
ATOM     78  C   UNL A   1      40.713  32.194  36.316  1.00  0.00    -0.016 C 
ATOM     79  C   UNL A   1      40.813  29.958  35.503  1.00  0.00     0.042 C 
ATOM     80  C   UNL A   1      41.840  31.657  36.803  1.00  0.00    -0.011 C 
ATOM     81  C   UNL A   1      42.015  30.223  36.415  1.00  0.00     0.093 C 
BRANCH  81  82
ATOM     82  N   UNL A   1      43.251  30.058  35.668  1.00  0.00    -0.204 NA
ATOM     83  H   UNL A   1      43.669  30.984  35.584  1.00  0.00     0.142 HD
BRANCH  82  84
ATOM     84  S   UNL A   1      44.455  29.035  36.234  1.00  0.00     0.244 S 
ATOM     85  O   UNL A   1      45.694  29.726  35.960  1.00  0.00    -0.207 OA
ATOM     86  O   UNL A   1      44.121  28.602  37.572  1.00  0.00    -0.207 OA
BRANCH  84  87
ATOM     87  C   UNL A   1      44.389  27.642  35.148  1.00  0.00     0.121 A 
ATOM     88  C   UNL A   1      43.465  27.603  34.095  1.00  0.00     0.028 A 
ATOM     89  C   UNL A   1      45.267  26.581  35.345  1.00  0.00     0.181 A 
ATOM     90  C   UNL A   1      43.385  26.463  33.290  1.00  0.00     0.044 A 
ATOM     91  C   UNL A   1      45.154  25.433  34.571  1.00  0.00     0.195 A 
ATOM     92  F   UNL A   1      46.183  26.610  36.322  1.00  0.00    -0.202 F 
ATOM     93  C   UNL A   1      44.214  25.375  33.551  1.00  0.00     0.161 A 
ATOM     94  F   UNL A   1      45.929  24.372  34.832  1.00  0.00    -0.200 F 
ATOM     95  F   UNL A   1      44.092  24.265  32.810  1.00  0.00    -0.204 F 
ENDBRANCH  84  87
ENDBRANCH  82  84
ENDBRANCH  81  82
ENDBRANCH  74  77
ENDBRANCH  72  73
ENDBRANCH  71  72
ENDBRANCH  70  71
ENDBRANCH   1  70
TORSDOF 19
ENDMDL
MODEL 3
REMARK VINA RESULT:     -10.4      5.072     11.762
REMARK SMILES O=C(NCCCCCCNC(=O)[C@H]1C=C[C@H](NS(=O)(=O)c2ccc(F)c(F)c2F)C1)c1ccc(-c2c3nc(c(-c4ccc(S(=O)(=O)[O-])cc4)c4ccc([nH]4)c(-c4ccc(S(=O)(=O)[O-])cc4)c4nc(c(-c5ccc(S(=O)(=O)[O-])cc5)c5ccc2[nH]5)C=C4)C=C3)cc1
REMARK SMILES IDX 6 1 5 2 4 3 3 4 1 5 2 6 31 8 32 9 90 10 33 11 89 12 34 13
REMARK SMILES IDX 35 14 36 15 83 16 37 17 88 18 82 19 84 20 38 21 87 22 81 23
REMARK SMILES IDX 80 24 39 26 69 27 50 28 68 29 51 30 54 31 67 32 85 33 52 34
REMARK SMILES IDX 53 35 66 37 86 38 55 39 40 40 41 41 49 42 42 43 48 44 43 45
REMARK SMILES IDX 44 46 45 47 46 48 47 49 70 50 71 51 79 52 72 53 78 54 73 55
REMARK SMILES IDX 74 56 75 57 76 58 77 59 56 60 57 61 65 62 58 63 64 64 59 65
REMARK SMILES IDX 60 66 61 67 62 68 63 69 7 70 8 71 9 72 10 73 11 74 12 76
REMARK SMILES IDX 13 77 14 78 30 79 15 80 16 81 17 82 18 84 19 85 20 86 21 87
REMARK SMILES IDX 22 88 28 89 23 90 26 91 29 92 24 93 27 94 25 95
REMARK H PARENT 3 7 84 25 54 36 10 75 17 83
REMARK Flexibility Score: inf
ROOT
ATOM      1  C   UNL A   1      34.812  32.667  30.488  1.00  0.00     0.002 C 
ENDROOT
BRANCH   1   2
ATOM      2  C   UNL A   1      35.295  33.579  29.361  1.00  0.00     0.021 C 
BRANCH   2   3
ATOM      3  C   UNL A   1      35.408  32.888  28.010  1.00  0.00     0.116 C 
BRANCH   3   4
ATOM      4  N   UNL A   1      34.454  31.797  27.866  1.00  0.00    -0.352 N 
ATOM      5  O   UNL A   1      33.793  29.672  27.485  1.00  0.00    -0.269 OA
ATOM      6  C   UNL A   1      34.692  30.445  27.798  1.00  0.00     0.251 C 
ATOM      7  H   UNL A   1      33.509  32.065  27.809  1.00  0.00     0.163 HD
BRANCH   6   8
ATOM      8  C   UNL A   1      36.051  29.939  28.083  1.00  0.00     0.039 A 
ATOM      9  C   UNL A   1      36.363  29.443  29.350  1.00  0.00     0.014 A 
ATOM     10  C   UNL A   1      37.032  30.001  27.090  1.00  0.00     0.014 A 
ATOM     11  C   UNL A   1      37.686  29.184  29.678  1.00  0.00     0.010 A 
ATOM     12  C   UNL A   1      38.346  29.632  27.394  1.00  0.00     0.010 A 
ATOM     13  C   UNL A   1      38.694  29.265  28.704  1.00  0.00    -0.014 A 
BRANCH  13  14
ATOM     14  C   UNL A   1      40.091  28.922  29.081  1.00  0.00     0.031 A 
ATOM     15  C   UNL A   1      40.705  27.602  28.694  1.00  0.00     0.074 A 
ATOM     16  C   UNL A   1      40.824  29.842  29.741  1.00  0.00     0.049 A 
ATOM     17  N   UNL A   1      41.927  27.176  28.896  1.00  0.00    -0.248 NA
ATOM     18  C   UNL A   1      39.842  26.633  28.001  1.00  0.00     0.031 C 
ATOM     19  C   UNL A   1      40.338  31.157  30.171  1.00  0.00     0.029 A 
ATOM     20  N   UNL A   1      42.136  29.831  30.139  1.00  0.00    -0.354 N 
ATOM     21  C   UNL A   1      41.972  25.884  28.384  1.00  0.00     0.074 A 
ATOM     22  C   UNL A   1      40.648  25.586  27.882  1.00  0.00     0.031 C 
ATOM     23  C   UNL A   1      41.352  31.847  30.710  1.00  0.00     0.029 A 
ATOM     24  C   UNL A   1      42.538  31.002  30.735  1.00  0.00     0.049 A 
ATOM     25  H   UNL A   1      42.732  29.057  30.010  1.00  0.00     0.167 HD
ATOM     26  C   UNL A   1      43.022  25.026  28.334  1.00  0.00     0.031 A 
ATOM     27  C   UNL A   1      43.726  31.358  31.258  1.00  0.00     0.031 A 
ATOM     28  C   UNL A   1      44.338  25.333  28.834  1.00  0.00     0.049 A 
ATOM     29  C   UNL A   1      44.862  30.378  31.213  1.00  0.00     0.074 A 
ATOM     30  C   UNL A   1      45.477  24.546  28.795  1.00  0.00     0.029 A 
ATOM     31  N   UNL A   1      44.693  26.513  29.472  1.00  0.00    -0.354 N 
ATOM     32  N   UNL A   1      44.893  29.176  30.689  1.00  0.00    -0.248 NA
ATOM     33  C   UNL A   1      46.125  30.806  31.825  1.00  0.00     0.031 C 
ATOM     34  C   UNL A   1      46.501  25.223  29.465  1.00  0.00     0.029 A 
ATOM     35  C   UNL A   1      46.023  26.464  29.856  1.00  0.00     0.049 A 
ATOM     36  H   UNL A   1      44.087  27.274  29.628  1.00  0.00     0.167 HD
ATOM     37  C   UNL A   1      46.190  28.716  30.881  1.00  0.00     0.074 A 
ATOM     38  C   UNL A   1      46.915  29.777  31.552  1.00  0.00     0.031 C 
ATOM     39  C   UNL A   1      46.733  27.525  30.528  1.00  0.00     0.031 A 
BRANCH  26  40
ATOM     40  C   UNL A   1      42.783  23.655  27.752  1.00  0.00    -0.014 A 
ATOM     41  C   UNL A   1      43.184  23.328  26.443  1.00  0.00     0.010 A 
ATOM     42  C   UNL A   1      42.191  22.658  28.550  1.00  0.00     0.010 A 
ATOM     43  C   UNL A   1      42.957  22.046  25.931  1.00  0.00     0.020 A 
ATOM     44  C   UNL A   1      41.990  21.366  28.052  1.00  0.00     0.020 A 
ATOM     45  C   UNL A   1      42.358  21.075  26.738  1.00  0.00     0.054 A 
BRANCH  45  46
ATOM     46  S   UNL A   1      42.091  19.415  26.053  1.00  0.00     0.124 S 
ATOM     47  O   UNL A   1      40.644  19.404  25.851  1.00  0.00    -0.237 OA
ATOM     48  O   UNL A   1      42.893  19.441  24.832  1.00  0.00    -0.237 OA
ATOM     49  O   UNL A   1      42.580  18.523  27.100  1.00  0.00    -0.744 OA
ENDBRANCH  45  46
ENDBRANCH  26  40
BRANCH  27  50
ATOM     50  C   UNL A   1      43.892  32.705  31.869  1.00  0.00    -0.014 A 
ATOM     51  C   UNL A   1      44.311  33.798  31.090  1.00  0.00     0.010 A 
ATOM     52  C   UNL A   1      43.613  32.905  33.234  1.00  0.00     0.010 A 
ATOM     53  C   UNL A   1      44.466  35.061  31.671  1.00  0.00     0.020 A 
ATOM     54  C   UNL A   1      43.734  34.171  33.809  1.00  0.00     0.020 A 
ATOM     55  C   UNL A   1      44.174  35.239  33.026  1.00  0.00     0.054 A 
BRANCH  55  56
ATOM     56  S   UNL A   1      44.340  36.895  33.745  1.00  0.00     0.124 S 
ATOM     57  O   UNL A   1      43.662  36.738  35.028  1.00  0.00    -0.237 OA
ATOM     58  O   UNL A   1      45.789  37.065  33.811  1.00  0.00    -0.237 OA
ATOM     59  O   UNL A   1      43.663  37.758  32.779  1.00  0.00    -0.744 OA
ENDBRANCH  55  56
ENDBRANCH  27  50
BRANCH  39  60
ATOM     60  C   UNL A   1      48.198  27.324  30.816  1.00  0.00    -0.014 A 
ATOM     61  C   UNL A   1      48.640  26.709  32.002  1.00  0.00     0.010 A 
ATOM     62  C   UNL A   1      49.149  27.741  29.867  1.00  0.00     0.010 A 
ATOM     63  C   UNL A   1      50.007  26.560  32.253  1.00  0.00     0.020 A 
ATOM     64  C   UNL A   1      50.515  27.562  30.098  1.00  0.00     0.020 A 
ATOM     65  C   UNL A   1      50.935  26.990  31.300  1.00  0.00     0.054 A 
BRANCH  65  66
ATOM     66  S   UNL A   1      52.703  26.767  31.639  1.00  0.00     0.124 S 
ATOM     67  O   UNL A   1      52.694  25.633  32.559  1.00  0.00    -0.237 OA
ATOM     68  O   UNL A   1      53.251  26.496  30.312  1.00  0.00    -0.237 OA
ATOM     69  O   UNL A   1      53.108  28.042  32.226  1.00  0.00    -0.744 OA
ENDBRANCH  65  66
ENDBRANCH  39  60
ENDBRANCH  13  14
ENDBRANCH   6   8
ENDBRANCH   3   4
ENDBRANCH   2   3
ENDBRANCH   1   2
BRANCH   1  70
ATOM     70  C   UNL A   1      35.870  32.353  31.552  1.00  0.00     0.002 C 
BRANCH  70  71
ATOM     71  C   UNL A   1      36.988  33.398  31.675  1.00  0.00     0.021 C 
BRANCH  71  72
ATOM     72  C   UNL A   1      38.202  32.890  32.450  1.00  0.00     0.116 C 
BRANCH  72  73
ATOM     73  N   UNL A   1      37.975  33.056  33.870  1.00  0.00    -0.356 N 
ATOM     74  C   UNL A   1      37.711  32.133  34.832  1.00  0.00     0.226 C 
ATOM     75  H   UNL A   1      38.018  33.986  34.190  1.00  0.00     0.163 HD
ATOM     76  O   UNL A   1      37.292  32.548  35.917  1.00  0.00    -0.274 OA
BRANCH  74  77
ATOM     77  C   UNL A   1      38.064  30.652  34.663  1.00  0.00     0.103 C 
ATOM     78  C   UNL A   1      37.908  29.980  33.339  1.00  0.00    -0.016 C 
ATOM     79  C   UNL A   1      39.539  30.441  35.012  1.00  0.00     0.042 C 
ATOM     80  C   UNL A   1      39.039  29.376  32.951  1.00  0.00    -0.011 C 
ATOM     81  C   UNL A   1      40.179  29.622  33.886  1.00  0.00     0.093 C 
BRANCH  81  82
ATOM     82  N   UNL A   1      40.673  28.359  34.410  1.00  0.00    -0.204 NA
ATOM     83  H   UNL A   1      40.753  27.724  33.617  1.00  0.00     0.142 HD
BRANCH  82  84
ATOM     84  S   UNL A   1      42.137  28.295  35.229  1.00  0.00     0.244 S 
ATOM     85  O   UNL A   1      43.000  29.219  34.529  1.00  0.00    -0.207 OA
ATOM     86  O   UNL A   1      41.895  28.428  36.649  1.00  0.00    -0.207 OA
BRANCH  84  87
ATOM     87  C   UNL A   1      42.747  26.669  34.903  1.00  0.00     0.121 A 
ATOM     88  C   UNL A   1      42.500  25.623  35.802  1.00  0.00     0.028 A 
ATOM     89  C   UNL A   1      43.476  26.434  33.742  1.00  0.00     0.181 A 
ATOM     90  C   UNL A   1      43.049  24.360  35.558  1.00  0.00     0.044 A 
ATOM     91  C   UNL A   1      44.056  25.190  33.526  1.00  0.00     0.195 A 
ATOM     92  F   UNL A   1      43.696  27.409  32.850  1.00  0.00    -0.202 F 
ATOM     93  C   UNL A   1      43.845  24.160  34.433  1.00  0.00     0.161 A 
ATOM     94  F   UNL A   1      44.845  24.996  32.460  1.00  0.00    -0.200 F 
ATOM     95  F   UNL A   1      44.412  22.963  34.236  1.00  0.00    -0.204 F 
ENDBRANCH  84  87
ENDBRANCH  82  84
ENDBRANCH  81  82
ENDBRANCH  74  77
ENDBRANCH  72  73
ENDBRANCH  71  72
ENDBRANCH  70  71
ENDBRANCH   1  70
TORSDOF 19
ENDMDL
