MODEL 1
REMARK VINA RESULT:     -10.2      0.000      0.000
REMARK SMILES CCSc1cccc(-c2ccc([C@@H](C)C(=O)NCCCCCCNC(=O)c3ccc(-c4c5nc(c(-c6ccc(S(=O)(=O)[O-])cc6)c6ccc([nH]6)c(-c6ccc(S(=O)(=O)[O-])cc6)c6nc(c(-c7ccc(S(=O)(=O)[O-])cc7)c7ccc4[nH]7)C=C6)C=C5)cc3)cc2)c1
REMARK SMILES IDX 20 1 19 2 18 3 17 4 15 5 16 6 13 8 14 9 12 10 9 11 10 12
REMARK SMILES IDX 88 13 11 14 87 15 8 16 4 17 5 18 89 19 6 20 7 21 3 22 2 23
REMARK SMILES IDX 1 24 21 25 22 26 23 27 24 28 25 29 26 31 27 32 28 33 86 34
REMARK SMILES IDX 29 35 85 36 30 37 31 38 32 39 79 40 33 41 84 42 78 43 80 44
REMARK SMILES IDX 34 45 83 46 77 47 76 48 35 50 65 51 46 52 64 53 47 54 50 55
REMARK SMILES IDX 63 56 81 57 48 58 49 59 62 61 82 62 51 63 36 64 37 65 45 66
REMARK SMILES IDX 38 67 44 68 39 69 40 70 41 71 42 72 43 73 66 74 67 75 75 76
REMARK SMILES IDX 68 77 74 78 69 79 70 80 71 81 72 82 73 83 52 84 53 85 61 86
REMARK SMILES IDX 54 87 60 88 55 89 56 90 57 91 58 92 59 93
REMARK H PARENT 17 7 24 30 80 49 50 60
REMARK Flexibility Score: inf
ROOT
ATOM      1  C   UNL A   1      34.115  23.350  26.785  1.00  0.00     0.002 C 
ENDROOT
BRANCH   1   2
ATOM      2  C   UNL A   1      33.753  22.269  27.810  1.00  0.00     0.021 C 
BRANCH   2   3
ATOM      3  C   UNL A   1      33.024  21.065  27.210  1.00  0.00     0.116 C 
BRANCH   3   4
ATOM      4  N   UNL A   1      33.874  20.315  26.310  1.00  0.00    -0.356 N 
ATOM      5  C   UNL A   1      33.704  19.919  25.019  1.00  0.00     0.227 C 
ATOM      6  O   UNL A   1      34.596  19.207  24.540  1.00  0.00    -0.274 OA
ATOM      7  H   UNL A   1      34.734  20.040  26.704  1.00  0.00     0.163 HD
BRANCH   5   8
ATOM      8  C   UNL A   1      32.503  20.325  24.149  1.00  0.00     0.105 C 
ATOM      9  C   UNL A   1      32.218  19.353  23.001  1.00  0.00     0.023 C 
BRANCH   8  10
ATOM     10  C   UNL A   1      32.478  21.802  23.789  1.00  0.00    -0.036 A 
ATOM     11  C   UNL A   1      32.447  24.614  23.249  1.00  0.00    -0.018 A 
ATOM     12  C   UNL A   1      33.441  23.766  22.734  1.00  0.00     0.009 A 
ATOM     13  C   UNL A   1      31.450  24.013  24.032  1.00  0.00     0.009 A 
ATOM     14  C   UNL A   1      33.436  22.389  22.965  1.00  0.00     0.005 A 
ATOM     15  C   UNL A   1      31.476  22.635  24.311  1.00  0.00     0.005 A 
BRANCH  11  16
ATOM     16  C   UNL A   1      32.495  26.069  22.970  1.00  0.00    -0.017 A 
ATOM     17  C   UNL A   1      31.591  28.338  23.190  1.00  0.00     0.008 A 
ATOM     18  C   UNL A   1      32.769  28.860  22.658  1.00  0.00     0.015 A 
ATOM     19  C   UNL A   1      31.470  26.950  23.366  1.00  0.00     0.023 A 
ATOM     20  C   UNL A   1      33.774  28.012  22.212  1.00  0.00     0.002 A 
ATOM     21  C   UNL A   1      33.626  26.634  22.349  1.00  0.00     0.009 A 
BRANCH  17  22
ATOM     22  S   UNL A   1      30.282  29.421  23.737  1.00  0.00    -0.126 SA
BRANCH  22  23
ATOM     23  C   UNL A   1      29.070  29.237  22.378  1.00  0.00     0.071 C 
ATOM     24  C   UNL A   1      28.805  30.525  21.616  1.00  0.00     0.016 C 
ENDBRANCH  22  23
ENDBRANCH  17  22
ENDBRANCH  11  16
ENDBRANCH   8  10
ENDBRANCH   5   8
ENDBRANCH   3   4
ENDBRANCH   2   3
ENDBRANCH   1   2
BRANCH   1  25
ATOM     25  C   UNL A   1      35.607  23.442  26.435  1.00  0.00     0.002 C 
BRANCH  25  26
ATOM     26  C   UNL A   1      35.930  24.090  25.084  1.00  0.00     0.021 C 
BRANCH  26  27
ATOM     27  C   UNL A   1      37.358  23.868  24.591  1.00  0.00     0.116 C 
BRANCH  27  28
ATOM     28  N   UNL A   1      38.017  22.790  25.312  1.00  0.00    -0.352 N 
ATOM     29  C   UNL A   1      39.018  22.844  26.249  1.00  0.00     0.251 C 
ATOM     30  H   UNL A   1      37.695  21.885  25.095  1.00  0.00     0.163 HD
ATOM     31  O   UNL A   1      39.611  21.817  26.566  1.00  0.00    -0.269 OA
BRANCH  29  32
ATOM     32  C   UNL A   1      39.390  24.134  26.870  1.00  0.00     0.039 A 
ATOM     33  C   UNL A   1      38.918  24.430  28.152  1.00  0.00     0.014 A 
ATOM     34  C   UNL A   1      40.171  25.066  26.179  1.00  0.00     0.014 A 
ATOM     35  C   UNL A   1      39.274  25.634  28.762  1.00  0.00     0.010 A 
ATOM     36  C   UNL A   1      40.578  26.238  26.814  1.00  0.00     0.010 A 
ATOM     37  C   UNL A   1      40.133  26.535  28.111  1.00  0.00    -0.014 A 
BRANCH  37  38
ATOM     38  C   UNL A   1      40.581  27.787  28.775  1.00  0.00     0.031 A 
ATOM     39  C   UNL A   1      41.950  27.874  29.392  1.00  0.00     0.074 A 
ATOM     40  C   UNL A   1      39.725  28.824  28.877  1.00  0.00     0.049 A 
ATOM     41  N   UNL A   1      42.493  28.864  30.053  1.00  0.00    -0.248 NA
ATOM     42  C   UNL A   1      42.814  26.689  29.272  1.00  0.00     0.031 C 
ATOM     43  C   UNL A   1      38.354  28.846  28.362  1.00  0.00     0.029 A 
ATOM     44  N   UNL A   1      39.880  30.058  29.457  1.00  0.00    -0.354 N 
ATOM     45  C   UNL A   1      43.751  28.417  30.442  1.00  0.00     0.074 A 
ATOM     46  C   UNL A   1      43.874  27.051  29.981  1.00  0.00     0.031 C 
ATOM     47  C   UNL A   1      37.802  30.040  28.629  1.00  0.00     0.029 A 
ATOM     48  C   UNL A   1      38.763  30.855  29.367  1.00  0.00     0.049 A 
ATOM     49  H   UNL A   1      40.712  30.347  29.898  1.00  0.00     0.167 HD
ATOM     50  C   UNL A   1      44.721  29.088  31.109  1.00  0.00     0.031 A 
ATOM     51  C   UNL A   1      38.531  32.098  29.830  1.00  0.00     0.031 A 
ATOM     52  C   UNL A   1      44.600  30.451  31.554  1.00  0.00     0.049 A 
ATOM     53  C   UNL A   1      39.626  32.824  30.562  1.00  0.00     0.074 A 
ATOM     54  C   UNL A   1      45.552  31.238  32.179  1.00  0.00     0.029 A 
ATOM     55  N   UNL A   1      43.460  31.229  31.425  1.00  0.00    -0.354 N 
ATOM     56  N   UNL A   1      40.835  32.408  30.855  1.00  0.00    -0.248 NA
ATOM     57  C   UNL A   1      39.330  34.189  31.016  1.00  0.00     0.031 C 
ATOM     58  C   UNL A   1      44.970  32.475  32.475  1.00  0.00     0.029 A 
ATOM     59  C   UNL A   1      43.674  32.479  31.982  1.00  0.00     0.049 A 
ATOM     60  H   UNL A   1      42.621  30.936  31.000  1.00  0.00     0.167 HD
ATOM     61  C   UNL A   1      41.453  33.471  31.506  1.00  0.00     0.074 A 
ATOM     62  C   UNL A   1      40.490  34.552  31.548  1.00  0.00     0.031 C 
ATOM     63  C   UNL A   1      42.705  33.544  32.020  1.00  0.00     0.031 A 
BRANCH  50  64
ATOM     64  C   UNL A   1      46.003  28.353  31.406  1.00  0.00    -0.014 A 
ATOM     65  C   UNL A   1      47.095  28.406  30.521  1.00  0.00     0.010 A 
ATOM     66  C   UNL A   1      46.136  27.640  32.611  1.00  0.00     0.010 A 
ATOM     67  C   UNL A   1      48.282  27.732  30.817  1.00  0.00     0.020 A 
ATOM     68  C   UNL A   1      47.330  26.985  32.925  1.00  0.00     0.020 A 
ATOM     69  C   UNL A   1      48.391  27.022  32.018  1.00  0.00     0.054 A 
BRANCH  69  70
ATOM     70  S   UNL A   1      49.954  26.180  32.391  1.00  0.00     0.124 S 
ATOM     71  O   UNL A   1      49.762  24.889  31.735  1.00  0.00    -0.237 OA
ATOM     72  O   UNL A   1      50.946  27.056  31.773  1.00  0.00    -0.237 OA
ATOM     73  O   UNL A   1      49.986  26.138  33.850  1.00  0.00    -0.744 OA
ENDBRANCH  69  70
ENDBRANCH  50  64
BRANCH  51  74
ATOM     74  C   UNL A   1      37.207  32.739  29.605  1.00  0.00    -0.014 A 
ATOM     75  C   UNL A   1      36.207  32.682  30.590  1.00  0.00     0.010 A 
ATOM     76  C   UNL A   1      36.946  33.425  28.404  1.00  0.00     0.010 A 
ATOM     77  C   UNL A   1      34.962  33.282  30.373  1.00  0.00     0.020 A 
ATOM     78  C   UNL A   1      35.713  34.050  28.194  1.00  0.00     0.020 A 
ATOM     79  C   UNL A   1      34.724  33.963  29.176  1.00  0.00     0.054 A 
BRANCH  79  80
ATOM     80  S   UNL A   1      33.121  34.778  28.934  1.00  0.00     0.124 S 
ATOM     81  O   UNL A   1      32.478  33.899  27.962  1.00  0.00    -0.237 OA
ATOM     82  O   UNL A   1      32.551  34.760  30.279  1.00  0.00    -0.237 OA
ATOM     83  O   UNL A   1      33.484  36.103  28.438  1.00  0.00    -0.744 OA
ENDBRANCH  79  80
ENDBRANCH  51  74
BRANCH  63  84
ATOM     84  C   UNL A   1      43.119  34.847  32.649  1.00  0.00    -0.014 A 
ATOM     85  C   UNL A   1      42.953  35.077  34.027  1.00  0.00     0.010 A 
ATOM     86  C   UNL A   1      43.732  35.836  31.857  1.00  0.00     0.010 A 
ATOM     87  C   UNL A   1      43.362  36.287  34.595  1.00  0.00     0.020 A 
ATOM     88  C   UNL A   1      44.167  37.035  32.427  1.00  0.00     0.020 A 
ATOM     89  C   UNL A   1      43.966  37.258  33.790  1.00  0.00     0.054 A 
BRANCH  89  90
ATOM     90  S   UNL A   1      44.527  38.802  34.560  1.00  0.00     0.124 S 
ATOM     91  O   UNL A   1      44.470  38.472  35.980  1.00  0.00    -0.237 OA
ATOM     92  O   UNL A   1      45.869  38.969  34.005  1.00  0.00    -0.237 OA
ATOM     93  O   UNL A   1      43.546  39.789  34.109  1.00  0.00    -0.744 OA
ENDBRANCH  89  90
ENDBRANCH  63  84
ENDBRANCH  37  38
ENDBRANCH  29  32
ENDBRANCH  27  28
ENDBRANCH  26  27
ENDBRANCH  25  26
ENDBRANCH   1  25
TORSDOF 20
ENDMDL
MODEL 2
REMARK VINA RESULT:      -9.9      3.381      4.222
REMARK SMILES CCSc1cccc(-c2ccc([C@@H](C)C(=O)NCCCCCCNC(=O)c3ccc(-c4c5nc(c(-c6ccc(S(=O)(=O)[O-])cc6)c6ccc([nH]6)c(-c6ccc(S(=O)(=O)[O-])cc6)c6nc(c(-c7ccc(S(=O)(=O)[O-])cc7)c7ccc4[nH]7)C=C6)C=C5)cc3)cc2)c1
REMARK SMILES IDX 20 1 19 2 18 3 17 4 15 5 16 6 13 8 14 9 12 10 9 11 10 12
REMARK SMILES IDX 88 13 11 14 87 15 8 16 4 17 5 18 89 19 6 20 7 21 3 22 2 23
REMARK SMILES IDX 1 24 21 25 22 26 23 27 24 28 25 29 26 31 27 32 28 33 86 34
REMARK SMILES IDX 29 35 85 36 30 37 31 38 32 39 79 40 33 41 84 42 78 43 80 44
REMARK SMILES IDX 34 45 83 46 77 47 76 48 35 50 65 51 46 52 64 53 47 54 50 55
REMARK SMILES IDX 63 56 81 57 48 58 49 59 62 61 82 62 51 63 36 64 37 65 45 66
REMARK SMILES IDX 38 67 44 68 39 69 40 70 41 71 42 72 43 73 66 74 67 75 75 76
REMARK SMILES IDX 68 77 74 78 69 79 70 80 71 81 72 82 73 83 52 84 53 85 61 86
REMARK SMILES IDX 54 87 60 88 55 89 56 90 57 91 58 92 59 93
REMARK H PARENT 17 7 24 30 80 49 50 60
REMARK Flexibility Score: inf
ROOT
ATOM      1  C   UNL A   1      36.962  21.332  24.590  1.00  0.00     0.002 C 
ENDROOT
BRANCH   1   2
ATOM      2  C   UNL A   1      35.585  21.972  24.377  1.00  0.00     0.021 C 
BRANCH   2   3
ATOM      3  C   UNL A   1      34.709  21.990  25.631  1.00  0.00     0.116 C 
BRANCH   3   4
ATOM      4  N   UNL A   1      34.119  20.694  25.893  1.00  0.00    -0.356 N 
ATOM      5  C   UNL A   1      32.991  20.098  25.420  1.00  0.00     0.227 C 
ATOM      6  O   UNL A   1      32.706  18.995  25.905  1.00  0.00    -0.274 OA
ATOM      7  H   UNL A   1      34.626  20.143  26.532  1.00  0.00     0.163 HD
BRANCH   5   8
ATOM      8  C   UNL A   1      32.095  20.703  24.326  1.00  0.00     0.105 C 
ATOM      9  C   UNL A   1      32.367  20.143  22.928  1.00  0.00     0.023 C 
BRANCH   8  10
ATOM     10  C   UNL A   1      31.950  22.214  24.419  1.00  0.00    -0.036 A 
ATOM     11  C   UNL A   1      31.588  25.053  24.483  1.00  0.00    -0.018 A 
ATOM     12  C   UNL A   1      31.198  24.227  25.549  1.00  0.00     0.009 A 
ATOM     13  C   UNL A   1      32.186  24.421  23.383  1.00  0.00     0.009 A 
ATOM     14  C   UNL A   1      31.408  22.847  25.536  1.00  0.00     0.005 A 
ATOM     15  C   UNL A   1      32.347  23.025  23.344  1.00  0.00     0.005 A 
BRANCH  11  16
ATOM     16  C   UNL A   1      31.347  26.514  24.550  1.00  0.00    -0.017 A 
ATOM     17  C   UNL A   1      31.525  28.679  25.689  1.00  0.00     0.008 A 
ATOM     18  C   UNL A   1      31.127  29.328  24.521  1.00  0.00     0.015 A 
ATOM     19  C   UNL A   1      31.657  27.281  25.690  1.00  0.00     0.023 A 
ATOM     20  C   UNL A   1      30.766  28.593  23.399  1.00  0.00     0.002 A 
ATOM     21  C   UNL A   1      30.856  27.204  23.424  1.00  0.00     0.009 A 
BRANCH  17  22
ATOM     22  S   UNL A   1      31.962  29.615  27.145  1.00  0.00    -0.126 SA
BRANCH  22  23
ATOM     23  C   UNL A   1      33.683  30.101  26.758  1.00  0.00     0.071 C 
ATOM     24  C   UNL A   1      34.691  28.977  26.935  1.00  0.00     0.016 C 
ENDBRANCH  22  23
ENDBRANCH  17  22
ENDBRANCH  11  16
ENDBRANCH   8  10
ENDBRANCH   5   8
ENDBRANCH   3   4
ENDBRANCH   2   3
ENDBRANCH   1   2
BRANCH   1  25
ATOM     25  C   UNL A   1      37.856  22.038  25.618  1.00  0.00     0.002 C 
BRANCH  25  26
ATOM     26  C   UNL A   1      37.655  23.552  25.741  1.00  0.00     0.021 C 
BRANCH  26  27
ATOM     27  C   UNL A   1      38.677  24.266  26.621  1.00  0.00     0.116 C 
BRANCH  27  28
ATOM     28  N   UNL A   1      39.932  24.489  25.920  1.00  0.00    -0.352 N 
ATOM     29  C   UNL A   1      40.864  25.483  26.083  1.00  0.00     0.251 C 
ATOM     30  H   UNL A   1      40.144  23.827  25.224  1.00  0.00     0.163 HD
ATOM     31  O   UNL A   1      41.739  25.643  25.236  1.00  0.00    -0.269 OA
BRANCH  29  32
ATOM     32  C   UNL A   1      40.815  26.366  27.270  1.00  0.00     0.039 A 
ATOM     33  C   UNL A   1      41.589  27.529  27.282  1.00  0.00     0.014 A 
ATOM     34  C   UNL A   1      40.036  26.031  28.381  1.00  0.00     0.014 A 
ATOM     35  C   UNL A   1      41.540  28.384  28.385  1.00  0.00     0.010 A 
ATOM     36  C   UNL A   1      39.938  26.917  29.453  1.00  0.00     0.010 A 
ATOM     37  C   UNL A   1      40.691  28.101  29.467  1.00  0.00    -0.014 A 
BRANCH  37  38
ATOM     38  C   UNL A   1      40.571  29.037  30.615  1.00  0.00     0.031 A 
ATOM     39  C   UNL A   1      41.445  28.870  31.828  1.00  0.00     0.074 A 
ATOM     40  C   UNL A   1      39.628  30.000  30.588  1.00  0.00     0.049 A 
ATOM     41  N   UNL A   1      41.449  29.559  32.941  1.00  0.00    -0.248 NA
ATOM     42  C   UNL A   1      42.427  27.774  31.800  1.00  0.00     0.031 C 
ATOM     43  C   UNL A   1      38.688  30.234  29.489  1.00  0.00     0.029 A 
ATOM     44  N   UNL A   1      39.298  30.957  31.515  1.00  0.00    -0.354 N 
ATOM     45  C   UNL A   1      42.416  28.972  33.750  1.00  0.00     0.074 A 
ATOM     46  C   UNL A   1      42.948  27.844  33.017  1.00  0.00     0.031 C 
ATOM     47  C   UNL A   1      37.904  31.280  29.796  1.00  0.00     0.029 A 
ATOM     48  C   UNL A   1      38.257  31.767  31.126  1.00  0.00     0.049 A 
ATOM     49  H   UNL A   1      39.763  31.055  32.378  1.00  0.00     0.167 HD
ATOM     50  C   UNL A   1      42.834  29.348  34.982  1.00  0.00     0.031 A 
ATOM     51  C   UNL A   1      37.649  32.783  31.767  1.00  0.00     0.031 A 
ATOM     52  C   UNL A   1      42.311  30.480  35.701  1.00  0.00     0.049 A 
ATOM     53  C   UNL A   1      38.135  33.184  33.133  1.00  0.00     0.074 A 
ATOM     54  C   UNL A   1      42.716  30.980  36.927  1.00  0.00     0.029 A 
ATOM     55  N   UNL A   1      41.272  31.286  35.264  1.00  0.00    -0.354 N 
ATOM     56  N   UNL A   1      39.101  32.660  33.849  1.00  0.00    -0.248 NA
ATOM     57  C   UNL A   1      37.457  34.320  33.772  1.00  0.00     0.031 C 
ATOM     58  C   UNL A   1      41.886  32.057  37.255  1.00  0.00     0.029 A 
ATOM     59  C   UNL A   1      41.002  32.264  36.207  1.00  0.00     0.049 A 
ATOM     60  H   UNL A   1      40.795  31.179  34.409  1.00  0.00     0.167 HD
ATOM     61  C   UNL A   1      39.164  33.420  35.012  1.00  0.00     0.074 A 
ATOM     62  C   UNL A   1      38.149  34.447  34.896  1.00  0.00     0.031 C 
ATOM     63  C   UNL A   1      39.987  33.278  36.079  1.00  0.00     0.031 A 
BRANCH  50  64
ATOM     64  C   UNL A   1      43.908  28.521  35.639  1.00  0.00    -0.014 A 
ATOM     65  C   UNL A   1      45.271  28.818  35.455  1.00  0.00     0.010 A 
ATOM     66  C   UNL A   1      43.550  27.462  36.493  1.00  0.00     0.010 A 
ATOM     67  C   UNL A   1      46.255  28.052  36.083  1.00  0.00     0.020 A 
ATOM     68  C   UNL A   1      44.531  26.709  37.145  1.00  0.00     0.020 A 
ATOM     69  C   UNL A   1      45.878  26.998  36.923  1.00  0.00     0.054 A 
BRANCH  69  70
ATOM     70  S   UNL A   1      47.177  26.037  37.749  1.00  0.00     0.124 S 
ATOM     71  O   UNL A   1      48.117  25.802  36.655  1.00  0.00    -0.237 OA
ATOM     72  O   UNL A   1      47.640  26.952  38.789  1.00  0.00    -0.237 OA
ATOM     73  O   UNL A   1      46.476  24.851  38.233  1.00  0.00    -0.744 OA
ENDBRANCH  69  70
ENDBRANCH  50  64
BRANCH  51  74
ATOM     74  C   UNL A   1      36.517  33.499  31.118  1.00  0.00    -0.014 A 
ATOM     75  C   UNL A   1      36.675  34.086  29.850  1.00  0.00     0.010 A 
ATOM     76  C   UNL A   1      35.268  33.584  31.761  1.00  0.00     0.010 A 
ATOM     77  C   UNL A   1      35.610  34.762  29.245  1.00  0.00     0.020 A 
ATOM     78  C   UNL A   1      34.194  34.235  31.148  1.00  0.00     0.020 A 
ATOM     79  C   UNL A   1      34.376  34.831  29.898  1.00  0.00     0.054 A 
BRANCH  79  80
ATOM     80  S   UNL A   1      32.993  35.668  29.073  1.00  0.00     0.124 S 
ATOM     81  O   UNL A   1      32.387  34.578  28.316  1.00  0.00    -0.237 OA
ATOM     82  O   UNL A   1      32.211  36.170  30.200  1.00  0.00    -0.237 OA
ATOM     83  O   UNL A   1      33.649  36.700  28.273  1.00  0.00    -0.744 OA
ENDBRANCH  79  80
ENDBRANCH  51  74
BRANCH  63  84
ATOM     84  C   UNL A   1      39.848  34.276  37.197  1.00  0.00    -0.014 A 
ATOM     85  C   UNL A   1      40.477  35.532  37.138  1.00  0.00     0.010 A 
ATOM     86  C   UNL A   1      39.029  33.970  38.301  1.00  0.00     0.010 A 
ATOM     87  C   UNL A   1      40.318  36.452  38.178  1.00  0.00     0.020 A 
ATOM     88  C   UNL A   1      38.845  34.899  39.329  1.00  0.00     0.020 A 
ATOM     89  C   UNL A   1      39.503  36.128  39.267  1.00  0.00     0.054 A 
BRANCH  89  90
ATOM     90  S   UNL A   1      39.279  37.356  40.584  1.00  0.00     0.124 S 
ATOM     91  O   UNL A   1      38.225  38.203  40.033  1.00  0.00    -0.237 OA
ATOM     92  O   UNL A   1      38.891  36.533  41.728  1.00  0.00    -0.237 OA
ATOM     93  O   UNL A   1      40.592  37.987  40.695  1.00  0.00    -0.744 OA
ENDBRANCH  89  90
ENDBRANCH  63  84
ENDBRANCH  37  38
ENDBRANCH  29  32
ENDBRANCH  27  28
ENDBRANCH  26  27
ENDBRANCH  25  26
ENDBRANCH   1  25
TORSDOF 20
ENDMDL
MODEL 3
REMARK VINA RESULT:      -9.8      3.531      8.998
REMARK SMILES CCSc1cccc(-c2ccc([C@@H](C)C(=O)NCCCCCCNC(=O)c3ccc(-c4c5nc(c(-c6ccc(S(=O)(=O)[O-])cc6)c6ccc([nH]6)c(-c6ccc(S(=O)(=O)[O-])cc6)c6nc(c(-c7ccc(S(=O)(=O)[O-])cc7)c7ccc4[nH]7)C=C6)C=C5)cc3)cc2)c1
REMARK SMILES IDX 20 1 19 2 18 3 17 4 15 5 16 6 13 8 14 9 12 10 9 11 10 12
REMARK SMILES IDX 88 13 11 14 87 15 8 16 4 17 5 18 89 19 6 20 7 21 3 22 2 23
REMARK SMILES IDX 1 24 21 25 22 26 23 27 24 28 25 29 26 31 27 32 28 33 86 34
REMARK SMILES IDX 29 35 85 36 30 37 31 38 32 39 79 40 33 41 84 42 78 43 80 44
REMARK SMILES IDX 34 45 83 46 77 47 76 48 35 50 65 51 46 52 64 53 47 54 50 55
REMARK SMILES IDX 63 56 81 57 48 58 49 59 62 61 82 62 51 63 36 64 37 65 45 66
REMARK SMILES IDX 38 67 44 68 39 69 40 70 41 71 42 72 43 73 66 74 67 75 75 76
REMARK SMILES IDX 68 77 74 78 69 79 70 80 71 81 72 82 73 83 52 84 53 85 61 86
REMARK SMILES IDX 54 87 60 88 55 89 56 90 57 91 58 92 59 93
REMARK H PARENT 17 7 24 30 80 49 50 60
REMARK Flexibility Score: inf
ROOT
ATOM      1  C   UNL A   1      37.133  21.978  24.864  1.00  0.00     0.002 C 
ENDROOT
BRANCH   1   2
ATOM      2  C   UNL A   1      36.352  22.627  23.717  1.00  0.00     0.021 C 
BRANCH   2   3
ATOM      3  C   UNL A   1      34.876  22.875  24.034  1.00  0.00     0.116 C 
BRANCH   3   4
ATOM      4  N   UNL A   1      34.560  22.555  25.411  1.00  0.00    -0.356 N 
ATOM      5  C   UNL A   1      33.392  22.209  26.017  1.00  0.00     0.227 C 
ATOM      6  O   UNL A   1      33.430  22.074  27.247  1.00  0.00    -0.274 OA
ATOM      7  H   UNL A   1      35.332  22.596  26.020  1.00  0.00     0.163 HD
BRANCH   5   8
ATOM      8  C   UNL A   1      32.074  21.963  25.264  1.00  0.00     0.105 C 
ATOM      9  C   UNL A   1      32.185  20.912  24.157  1.00  0.00     0.023 C 
BRANCH   8  10
ATOM     10  C   UNL A   1      31.331  23.238  24.897  1.00  0.00    -0.036 A 
ATOM     11  C   UNL A   1      29.824  25.558  24.159  1.00  0.00    -0.018 A 
ATOM     12  C   UNL A   1      30.175  25.290  25.492  1.00  0.00     0.009 A 
ATOM     13  C   UNL A   1      30.265  24.640  23.194  1.00  0.00     0.009 A 
ATOM     14  C   UNL A   1      30.943  24.179  25.849  1.00  0.00     0.005 A 
ATOM     15  C   UNL A   1      30.989  23.491  23.559  1.00  0.00     0.005 A 
BRANCH  11  16
ATOM     16  C   UNL A   1      29.012  26.754  23.832  1.00  0.00    -0.017 A 
ATOM     17  C   UNL A   1      28.745  28.962  22.797  1.00  0.00     0.008 A 
ATOM     18  C   UNL A   1      27.366  28.885  22.986  1.00  0.00     0.015 A 
ATOM     19  C   UNL A   1      29.557  27.887  23.197  1.00  0.00     0.023 A 
ATOM     20  C   UNL A   1      26.809  27.803  23.656  1.00  0.00     0.002 A 
ATOM     21  C   UNL A   1      27.628  26.764  24.090  1.00  0.00     0.009 A 
BRANCH  17  22
ATOM     22  S   UNL A   1      29.472  30.364  21.964  1.00  0.00    -0.126 SA
BRANCH  22  23
ATOM     23  C   UNL A   1      28.199  31.649  22.245  1.00  0.00     0.071 C 
ATOM     24  C   UNL A   1      28.768  32.984  22.699  1.00  0.00     0.016 C 
ENDBRANCH  22  23
ENDBRANCH  17  22
ENDBRANCH  11  16
ENDBRANCH   8  10
ENDBRANCH   5   8
ENDBRANCH   3   4
ENDBRANCH   2   3
ENDBRANCH   1   2
BRANCH   1  25
ATOM     25  C   UNL A   1      37.833  22.960  25.815  1.00  0.00     0.002 C 
BRANCH  25  26
ATOM     26  C   UNL A   1      39.166  22.478  26.398  1.00  0.00     0.021 C 
BRANCH  26  27
ATOM     27  C   UNL A   1      40.023  23.574  27.028  1.00  0.00     0.116 C 
BRANCH  27  28
ATOM     28  N   UNL A   1      40.736  24.347  26.022  1.00  0.00    -0.352 N 
ATOM     29  C   UNL A   1      41.088  25.673  26.022  1.00  0.00     0.251 C 
ATOM     30  H   UNL A   1      41.006  23.842  25.222  1.00  0.00     0.163 HD
ATOM     31  O   UNL A   1      41.472  26.200  24.982  1.00  0.00    -0.269 OA
BRANCH  29  32
ATOM     32  C   UNL A   1      41.001  26.469  27.266  1.00  0.00     0.039 A 
ATOM     33  C   UNL A   1      41.824  27.589  27.413  1.00  0.00     0.014 A 
ATOM     34  C   UNL A   1      40.137  26.094  28.299  1.00  0.00     0.014 A 
ATOM     35  C   UNL A   1      41.742  28.363  28.572  1.00  0.00     0.010 A 
ATOM     36  C   UNL A   1      40.010  26.904  29.426  1.00  0.00     0.010 A 
ATOM     37  C   UNL A   1      40.812  28.045  29.576  1.00  0.00    -0.014 A 
BRANCH  37  38
ATOM     38  C   UNL A   1      40.660  28.901  30.781  1.00  0.00     0.031 A 
ATOM     39  C   UNL A   1      39.617  29.983  30.821  1.00  0.00     0.074 A 
ATOM     40  C   UNL A   1      41.509  28.740  31.817  1.00  0.00     0.049 A 
ATOM     41  N   UNL A   1      39.371  30.856  31.765  1.00  0.00    -0.248 NA
ATOM     42  C   UNL A   1      38.751  30.121  29.639  1.00  0.00     0.031 C 
ATOM     43  C   UNL A   1      42.593  27.757  31.880  1.00  0.00     0.029 A 
ATOM     44  N   UNL A   1      41.598  29.409  33.013  1.00  0.00    -0.354 N 
ATOM     45  C   UNL A   1      38.338  31.655  31.286  1.00  0.00     0.074 A 
ATOM     46  C   UNL A   1      38.033  31.191  29.950  1.00  0.00     0.031 C 
ATOM     47  C   UNL A   1      43.223  27.872  33.060  1.00  0.00     0.029 A 
ATOM     48  C   UNL A   1      42.615  28.959  33.821  1.00  0.00     0.049 A 
ATOM     49  H   UNL A   1      40.991  30.141  33.268  1.00  0.00     0.167 HD
ATOM     50  C   UNL A   1      37.693  32.670  31.908  1.00  0.00     0.031 A 
ATOM     51  C   UNL A   1      43.021  29.377  35.036  1.00  0.00     0.031 A 
ATOM     52  C   UNL A   1      37.991  33.119  33.243  1.00  0.00     0.049 A 
ATOM     53  C   UNL A   1      42.284  30.503  35.708  1.00  0.00     0.074 A 
ATOM     54  C   UNL A   1      37.349  34.096  33.984  1.00  0.00     0.029 A 
ATOM     55  N   UNL A   1      39.015  32.624  34.036  1.00  0.00    -0.354 N 
ATOM     56  N   UNL A   1      41.262  31.196  35.266  1.00  0.00    -0.248 NA
ATOM     57  C   UNL A   1      42.748  30.895  37.046  1.00  0.00     0.031 C 
ATOM     58  C   UNL A   1      38.018  34.229  35.205  1.00  0.00     0.029 A 
ATOM     59  C   UNL A   1      39.041  33.293  35.248  1.00  0.00     0.049 A 
ATOM     60  H   UNL A   1      39.633  31.903  33.775  1.00  0.00     0.167 HD
ATOM     61  C   UNL A   1      40.944  32.090  36.283  1.00  0.00     0.074 A 
ATOM     62  C   UNL A   1      41.872  31.837  37.367  1.00  0.00     0.031 C 
ATOM     63  C   UNL A   1      39.972  33.034  36.316  1.00  0.00     0.031 A 
BRANCH  50  64
ATOM     64  C   UNL A   1      36.600  33.376  31.147  1.00  0.00    -0.014 A 
ATOM     65  C   UNL A   1      36.853  33.980  29.902  1.00  0.00     0.010 A 
ATOM     66  C   UNL A   1      35.291  33.391  31.659  1.00  0.00     0.010 A 
ATOM     67  C   UNL A   1      35.826  34.617  29.202  1.00  0.00     0.020 A 
ATOM     68  C   UNL A   1      34.254  34.003  30.950  1.00  0.00     0.020 A 
ATOM     69  C   UNL A   1      34.532  34.628  29.732  1.00  0.00     0.054 A 
BRANCH  69  70
ATOM     70  S   UNL A   1      33.211  35.437  28.788  1.00  0.00     0.124 S 
ATOM     71  O   UNL A   1      32.583  34.301  28.118  1.00  0.00    -0.237 OA
ATOM     72  O   UNL A   1      32.412  36.071  29.832  1.00  0.00    -0.237 OA
ATOM     73  O   UNL A   1      33.928  36.358  27.909  1.00  0.00    -0.744 OA
ENDBRANCH  69  70
ENDBRANCH  50  64
BRANCH  51  74
ATOM     74  C   UNL A   1      44.178  28.716  35.700  1.00  0.00    -0.014 A 
ATOM     75  C   UNL A   1      43.983  27.606  36.540  1.00  0.00     0.010 A 
ATOM     76  C   UNL A   1      45.485  29.189  35.482  1.00  0.00     0.010 A 
ATOM     77  C   UNL A   1      45.073  26.992  37.166  1.00  0.00     0.020 A 
ATOM     78  C   UNL A   1      46.580  28.560  36.083  1.00  0.00     0.020 A 
ATOM     79  C   UNL A   1      46.364  27.473  36.932  1.00  0.00     0.054 A 
BRANCH  79  80
ATOM     80  S   UNL A   1      47.769  26.629  37.712  1.00  0.00     0.124 S 
ATOM     81  O   UNL A   1      47.333  26.537  39.102  1.00  0.00    -0.237 OA
ATOM     82  O   UNL A   1      47.826  25.367  36.980  1.00  0.00    -0.237 OA
ATOM     83  O   UNL A   1      48.889  27.534  37.466  1.00  0.00    -0.744 OA
ENDBRANCH  79  80
ENDBRANCH  51  74
BRANCH  63  84
ATOM     84  C   UNL A   1      39.840  33.847  37.576  1.00  0.00    -0.014 A 
ATOM     85  C   UNL A   1      40.611  35.004  37.781  1.00  0.00     0.010 A 
ATOM     86  C   UNL A   1      38.890  33.474  38.545  1.00  0.00     0.010 A 
ATOM     87  C   UNL A   1      40.459  35.757  38.949  1.00  0.00     0.020 A 
ATOM     88  C   UNL A   1      38.715  34.240  39.701  1.00  0.00     0.020 A 
ATOM     89  C   UNL A   1      39.511  35.368  39.902  1.00  0.00     0.054 A 
BRANCH  89  90
ATOM     90  S   UNL A   1      39.303  36.385  41.389  1.00  0.00     0.124 S 
ATOM     91  O   UNL A   1      38.863  37.658  40.828  1.00  0.00    -0.237 OA
ATOM     92  O   UNL A   1      38.292  35.647  42.144  1.00  0.00    -0.237 OA
ATOM     93  O   UNL A   1      40.636  36.396  41.990  1.00  0.00    -0.744 OA
ENDBRANCH  89  90
ENDBRANCH  63  84
ENDBRANCH  37  38
ENDBRANCH  29  32
ENDBRANCH  27  28
ENDBRANCH  26  27
ENDBRANCH  25  26
ENDBRANCH   1  25
TORSDOF 20
ENDMDL
